ligand
 OpenBabel02271912143D
libRbt.so/2013.1/901 2013/11/27
 13 14  0  0  0  0  0  0  0  0999 V2000
   -3.5208   31.5382   54.9169 N   0  0  0  0  0  0  0  0  0  0  0  0
   -2.4563   30.6261   55.0001 C   0  0  0  0  0  0  0  0  0  0  0  0
   -1.2358   31.0168   55.6674 N   0  0  0  0  0  0  0  0  0  0  0  0
   -2.5787   29.3662   54.4599 N   0  0  0  0  0  0  0  0  0  0  0  0
   -3.7621   28.9484   53.7982 C   0  0  0  0  0  0  0  0  0  0  0  0
   -4.8624   29.8656   53.6762 C   0  0  0  0  0  0  0  0  0  0  0  0
   -4.6967   31.1823   54.2480 C   0  0  0  0  0  0  0  0  0  0  0  0
   -5.7528   32.0429   54.1351 O   0  0  0  0  0  0  0  0  0  0  0  0
   -5.9350   29.2009   52.9725 C   0  0  0  0  0  0  0  0  0  0  0  0
   -5.4362   27.9300   52.6825 C   0  0  0  0  0  0  0  0  0  0  0  0
   -4.1546   27.7867   53.1823 N   0  0  0  0  0  0  0  0  0  0  0  0
   -7.2839   29.7774   52.5890 C   0  0  0  0  0  0  0  0  0  0  0  0
   -8.1450   30.0477   53.7381 N   0  0  0  0  0  0  0  0  0  0  0  0
  1  2  1  0  0  0  0
  1  7  1  0  0  0  0
  2  3  1  0  0  0  0
  2  4  2  0  0  0  0
  4  5  1  0  0  0  0
  5  6  2  0  0  0  0
  5 11  1  0  0  0  0
  6  7  1  0  0  0  0
  6  9  1  0  0  0  0
  7  8  2  0  0  0  0
  9 10  2  0  0  0  0
  9 12  1  0  0  0  0
 10 11  1  0  0  0  0
 12 13  1  0  0  0  0
M  END
>  <CHROM.1>
-68.11521676,-4.62054592,29.99508494,53.94422970,0.34263505,-0.28884184,0.40377560

>  <Name>
ligand

>  <RI>
-1

>  <Rbt.Current_Directory>
/home/itssahil/PROJECTS/Mol_Feturizer/Test_systems_manuscript/rnas/4jf2

>  <Rbt.Executable>
rbdock ($Id: //depot/dev/client3/rdock/2013.1/src/exe/rbdock.cxx#4 $)

>  <Rbt.Library>
libRbt.so (2013.1, Build901 2013/11/27)

>  <Rbt.Parameter_File>
/export/apps/rDock/src/rDock_2013.1_src/data/scripts/dock_solv.prm

>  <Rbt.Receptor>
prm/pocket_docking_6.prm

>  <SCORE>
-14.6995

>  <SCORE.INTER>
-14.7711

>  <SCORE.INTER.CONST>
1

>  <SCORE.INTER.POLAR>
0

>  <SCORE.INTER.ROT>
1

>  <SCORE.INTER.SOLV>
19.6584

>  <SCORE.INTER.VDW>
-20.6669

>  <SCORE.INTER.norm>
-1.13624

>  <SCORE.INTRA>
0.0716464

>  <SCORE.INTRA.DIHEDRAL>
-0.0370939

>  <SCORE.INTRA.DIHEDRAL.0>
1.75624

>  <SCORE.INTRA.POLAR>
0

>  <SCORE.INTRA.POLAR.0>
0

>  <SCORE.INTRA.REPUL>
0

>  <SCORE.INTRA.REPUL.0>
0

>  <SCORE.INTRA.SOLV>
0.217037

>  <SCORE.INTRA.SOLV.lig_0>
-46.5296

>  <SCORE.INTRA.VDW>
-0.0183249

>  <SCORE.INTRA.VDW.0>
-0.381873

>  <SCORE.INTRA.norm>
0.00551126

>  <SCORE.RESTR>
0

>  <SCORE.RESTR.CAVITY>
0

>  <SCORE.RESTR.norm>
0

>  <SCORE.SYSTEM>
0

>  <SCORE.SYSTEM.CONST>
0

>  <SCORE.SYSTEM.DIHEDRAL>
0

>  <SCORE.SYSTEM.SOLV>
0

>  <SCORE.SYSTEM.norm>
0

>  <SCORE.heavy>
13

>  <SCORE.norm>
-1.13073

>  <RMSD>
0.411

$$$$
ligand
 OpenBabel02271912143D
libRbt.so/2013.1/901 2013/11/27
 13 14  0  0  0  0  0  0  0  0999 V2000
   -3.4118   31.5199   54.8691 N   0  0  0  0  0  0  0  0  0  0  0  0
   -2.3949   30.5644   55.0271 C   0  0  0  0  0  0  0  0  0  0  0  0
   -1.1544   30.9449   55.6627 N   0  0  0  0  0  0  0  0  0  0  0  0
   -2.5826   29.2729   54.5899 N   0  0  0  0  0  0  0  0  0  0  0  0
   -3.7875   28.8640   53.9622 C   0  0  0  0  0  0  0  0  0  0  0  0
   -4.8400   29.8232   53.7651 C   0  0  0  0  0  0  0  0  0  0  0  0
   -4.6060   31.1715   54.2292 C   0  0  0  0  0  0  0  0  0  0  0  0
   -5.6173   32.0729   54.0457 O   0  0  0  0  0  0  0  0  0  0  0  0
   -5.9468   29.1596   53.1155 C   0  0  0  0  0  0  0  0  0  0  0  0
   -5.5141   27.8456   52.9296 C   0  0  0  0  0  0  0  0  0  0  0  0
   -4.2401   27.6780   53.4413 N   0  0  0  0  0  0  0  0  0  0  0  0
   -7.2656   29.7712   52.6847 C   0  0  0  0  0  0  0  0  0  0  0  0
   -8.1626   30.0574   53.8022 N   0  0  0  0  0  0  0  0  0  0  0  0
  1  2  1  0  0  0  0
  1  7  1  0  0  0  0
  2  3  1  0  0  0  0
  2  4  2  0  0  0  0
  4  5  1  0  0  0  0
  5  6  2  0  0  0  0
  5 11  1  0  0  0  0
  6  7  1  0  0  0  0
  6  9  1  0  0  0  0
  7  8  2  0  0  0  0
  9 10  2  0  0  0  0
  9 12  1  0  0  0  0
 10 11  1  0  0  0  0
 12 13  1  0  0  0  0
M  END
>  <CHROM.1>
-73.70364466,-4.59552747,29.95170813,54.02175605,0.29958770,-0.30260902,0.30570865

>  <Name>
ligand

>  <RI>
-1

>  <Rbt.Current_Directory>
/home/itssahil/PROJECTS/Mol_Feturizer/Test_systems_manuscript/rnas/4jf2

>  <Rbt.Executable>
rbdock ($Id: //depot/dev/client3/rdock/2013.1/src/exe/rbdock.cxx#4 $)

>  <Rbt.Library>
libRbt.so (2013.1, Build901 2013/11/27)

>  <Rbt.Parameter_File>
/export/apps/rDock/src/rDock_2013.1_src/data/scripts/dock_solv.prm

>  <Rbt.Receptor>
prm/pocket_docking_2.prm

>  <SCORE>
-14.7311

>  <SCORE.INTER>
-14.7495

>  <SCORE.INTER.CONST>
1

>  <SCORE.INTER.POLAR>
0

>  <SCORE.INTER.ROT>
1

>  <SCORE.INTER.SOLV>
19.8316

>  <SCORE.INTER.VDW>
-20.7102

>  <SCORE.INTER.norm>
-1.13458

>  <SCORE.INTRA>
0.0183264

>  <SCORE.INTRA.DIHEDRAL>
-0.00861493

>  <SCORE.INTRA.DIHEDRAL.0>
1.75624

>  <SCORE.INTRA.POLAR>
0

>  <SCORE.INTRA.POLAR.0>
0

>  <SCORE.INTRA.REPUL>
0

>  <SCORE.INTRA.REPUL.0>
0

>  <SCORE.INTRA.SOLV>
0.0558886

>  <SCORE.INTRA.SOLV.lig_0>
-46.5296

>  <SCORE.INTRA.VDW>
-0.00531042

>  <SCORE.INTRA.VDW.0>
-0.381873

>  <SCORE.INTRA.norm>
0.00140972

>  <SCORE.RESTR>
3.83615e-05

>  <SCORE.RESTR.CAVITY>
3.83615e-05

>  <SCORE.RESTR.norm>
2.95089e-06

>  <SCORE.SYSTEM>
0

>  <SCORE.SYSTEM.CONST>
0

>  <SCORE.SYSTEM.DIHEDRAL>
0

>  <SCORE.SYSTEM.SOLV>
0

>  <SCORE.SYSTEM.norm>
0

>  <SCORE.heavy>
13

>  <SCORE.norm>
-1.13316

>  <RMSD>
0.417

$$$$
ligand
 OpenBabel02271912143D
libRbt.so/2013.1/901 2013/11/27
 13 14  0  0  0  0  0  0  0  0999 V2000
   -3.4428   31.5310   54.7879 N   0  0  0  0  0  0  0  0  0  0  0  0
   -2.4332   30.5776   54.9974 C   0  0  0  0  0  0  0  0  0  0  0  0
   -1.2064   30.9729   55.6501 N   0  0  0  0  0  0  0  0  0  0  0  0
   -2.6155   29.2744   54.5939 N   0  0  0  0  0  0  0  0  0  0  0  0
   -3.8071   28.8508   53.9507 C   0  0  0  0  0  0  0  0  0  0  0  0
   -4.8513   29.8070   53.7013 C   0  0  0  0  0  0  0  0  0  0  0  0
   -4.6232   31.1676   54.1311 C   0  0  0  0  0  0  0  0  0  0  0  0
   -5.6267   32.0662   53.8980 O   0  0  0  0  0  0  0  0  0  0  0  0
   -5.9453   29.1278   53.0459 C   0  0  0  0  0  0  0  0  0  0  0  0
   -5.5131   27.8077   52.9085 C   0  0  0  0  0  0  0  0  0  0  0  0
   -4.2519   27.6514   53.4543 N   0  0  0  0  0  0  0  0  0  0  0  0
   -7.2515   29.7305   52.5670 C   0  0  0  0  0  0  0  0  0  0  0  0
   -8.0179   30.3713   53.6334 N   0  0  0  0  0  0  0  0  0  0  0  0
  1  2  1  0  0  0  0
  1  7  1  0  0  0  0
  2  3  1  0  0  0  0
  2  4  2  0  0  0  0
  4  5  1  0  0  0  0
  5  6  2  0  0  0  0
  5 11  1  0  0  0  0
  6  7  1  0  0  0  0
  6  9  1  0  0  0  0
  7  8  2  0  0  0  0
  9 10  2  0  0  0  0
  9 12  1  0  0  0  0
 10 11  1  0  0  0  0
 12 13  1  0  0  0  0
M  END
>  <CHROM.1>
-58.47601599,-4.59972224,29.96819109,53.95794193,0.28467432,-0.33747425,0.28264306

>  <Name>
ligand

>  <RI>
0

>  <Rbt.Current_Directory>
/home/itssahil/PROJECTS/Mol_Feturizer/Test_systems_manuscript/rnas/4jf2

>  <Rbt.Executable>
rbdock ($Id: //depot/dev/client3/rdock/2013.1/src/exe/rbdock.cxx#4 $)

>  <Rbt.Library>
libRbt.so (2013.1, Build901 2013/11/27)

>  <Rbt.Parameter_File>
/export/apps/rDock/src/rDock_2013.1_src/data/scripts/dock_solv.prm

>  <Rbt.Receptor>
prm/pocket_docking_8.prm

>  <SCORE>
-14.8237

>  <SCORE.INTER>
-15.0032

>  <SCORE.INTER.CONST>
1

>  <SCORE.INTER.POLAR>
0

>  <SCORE.INTER.ROT>
1

>  <SCORE.INTER.SOLV>
18.7034

>  <SCORE.INTER.VDW>
-20.5033

>  <SCORE.INTER.norm>
-1.1541

>  <SCORE.INTRA>
0.17952

>  <SCORE.INTRA.DIHEDRAL>
-0.0925057

>  <SCORE.INTRA.DIHEDRAL.0>
1.75624

>  <SCORE.INTRA.POLAR>
0

>  <SCORE.INTRA.POLAR.0>
0

>  <SCORE.INTRA.REPUL>
0

>  <SCORE.INTRA.REPUL.0>
0

>  <SCORE.INTRA.SOLV>
0.488877

>  <SCORE.INTRA.SOLV.lig_0>
-46.5296

>  <SCORE.INTRA.VDW>
-0.0186656

>  <SCORE.INTRA.VDW.0>
-0.381873

>  <SCORE.INTRA.norm>
0.0138092

>  <SCORE.RESTR>
0

>  <SCORE.RESTR.CAVITY>
0

>  <SCORE.RESTR.norm>
0

>  <SCORE.SYSTEM>
0

>  <SCORE.SYSTEM.CONST>
0

>  <SCORE.SYSTEM.DIHEDRAL>
0

>  <SCORE.SYSTEM.SOLV>
0

>  <SCORE.SYSTEM.norm>
0

>  <SCORE.heavy>
13

>  <SCORE.norm>
-1.14029

>  <RMSD>
0.451

$$$$
ligand
 OpenBabel02271912143D
libRbt.so/2013.1/901 2013/11/27
 13 14  0  0  0  0  0  0  0  0999 V2000
   -3.4365   31.5266   54.8144 N   0  0  0  0  0  0  0  0  0  0  0  0
   -2.4320   30.5679   55.0244 C   0  0  0  0  0  0  0  0  0  0  0  0
   -1.2082   30.9541   55.6882 N   0  0  0  0  0  0  0  0  0  0  0  0
   -2.6164   29.2682   54.6107 N   0  0  0  0  0  0  0  0  0  0  0  0
   -3.8050   28.8536   53.9564 C   0  0  0  0  0  0  0  0  0  0  0  0
   -4.8439   29.8153   53.7063 C   0  0  0  0  0  0  0  0  0  0  0  0
   -4.6137   31.1721   54.1470 C   0  0  0  0  0  0  0  0  0  0  0  0
   -5.6121   32.0761   53.9130 O   0  0  0  0  0  0  0  0  0  0  0  0
   -5.9358   29.1448   53.0387 C   0  0  0  0  0  0  0  0  0  0  0  0
   -5.5076   27.8241   52.8954 C   0  0  0  0  0  0  0  0  0  0  0  0
   -4.2509   27.6592   53.4488 N   0  0  0  0  0  0  0  0  0  0  0  0
   -7.2364   29.7556   52.5550 C   0  0  0  0  0  0  0  0  0  0  0  0
   -8.0060   30.3954   53.6197 N   0  0  0  0  0  0  0  0  0  0  0  0
  1  2  1  0  0  0  0
  1  7  1  0  0  0  0
  2  3  1  0  0  0  0
  2  4  2  0  0  0  0
  4  5  1  0  0  0  0
  5  6  2  0  0  0  0
  5 11  1  0  0  0  0
  6  7  1  0  0  0  0
  6  9  1  0  0  0  0
  7  8  2  0  0  0  0
  9 10  2  0  0  0  0
  9 12  1  0  0  0  0
 10 11  1  0  0  0  0
 12 13  1  0  0  0  0
M  END
>  <CHROM.1>
-58.31387699,-4.59332852,29.97410631,53.96575150,0.28272895,-0.34535114,0.28888099

>  <Name>
ligand

>  <RI>
-1

>  <Rbt.Current_Directory>
/home/itssahil/PROJECTS/Mol_Feturizer/Test_systems_manuscript/rnas/4jf2

>  <Rbt.Executable>
rbdock ($Id: //depot/dev/client3/rdock/2013.1/src/exe/rbdock.cxx#4 $)

>  <Rbt.Library>
libRbt.so (2013.1, Build901 2013/11/27)

>  <Rbt.Parameter_File>
/export/apps/rDock/src/rDock_2013.1_src/data/scripts/dock_solv.prm

>  <Rbt.Receptor>
prm/pocket_docking_2.prm

>  <SCORE>
-14.8285

>  <SCORE.INTER>
-15.0102

>  <SCORE.INTER.CONST>
1

>  <SCORE.INTER.POLAR>
0

>  <SCORE.INTER.ROT>
1

>  <SCORE.INTER.SOLV>
18.5268

>  <SCORE.INTER.VDW>
-20.4491

>  <SCORE.INTER.norm>
-1.15463

>  <SCORE.INTRA>
0.181724

>  <SCORE.INTRA.DIHEDRAL>
-0.0934423

>  <SCORE.INTRA.DIHEDRAL.0>
1.75624

>  <SCORE.INTRA.POLAR>
0

>  <SCORE.INTRA.POLAR.0>
0

>  <SCORE.INTRA.REPUL>
0

>  <SCORE.INTRA.REPUL.0>
0

>  <SCORE.INTRA.SOLV>
0.493342

>  <SCORE.INTRA.SOLV.lig_0>
-46.5296

>  <SCORE.INTRA.VDW>
-0.0182254

>  <SCORE.INTRA.VDW.0>
-0.381873

>  <SCORE.INTRA.norm>
0.0139788

>  <SCORE.RESTR>
0

>  <SCORE.RESTR.CAVITY>
0

>  <SCORE.RESTR.norm>
0

>  <SCORE.SYSTEM>
0

>  <SCORE.SYSTEM.CONST>
0

>  <SCORE.SYSTEM.DIHEDRAL>
0

>  <SCORE.SYSTEM.SOLV>
0

>  <SCORE.SYSTEM.norm>
0

>  <SCORE.heavy>
13

>  <SCORE.norm>
-1.14065

>  <RMSD>
0.454

$$$$
ligand
 OpenBabel02271912143D
libRbt.so/2013.1/901 2013/11/27
 13 14  0  0  0  0  0  0  0  0999 V2000
   -3.4717   31.5086   54.8308 N   0  0  0  0  0  0  0  0  0  0  0  0
   -2.4797   30.5429   55.0664 C   0  0  0  0  0  0  0  0  0  0  0  0
   -1.2683   30.9218   55.7565 N   0  0  0  0  0  0  0  0  0  0  0  0
   -2.6649   29.2433   54.6529 N   0  0  0  0  0  0  0  0  0  0  0  0
   -3.8417   28.8357   53.9732 C   0  0  0  0  0  0  0  0  0  0  0  0
   -4.8671   29.8046   53.6966 C   0  0  0  0  0  0  0  0  0  0  0  0
   -4.6362   31.1611   54.1380 C   0  0  0  0  0  0  0  0  0  0  0  0
   -5.6220   32.0720   53.8786 O   0  0  0  0  0  0  0  0  0  0  0  0
   -5.9488   29.1404   53.0067 C   0  0  0  0  0  0  0  0  0  0  0  0
   -5.5280   27.8159   52.8772 C   0  0  0  0  0  0  0  0  0  0  0  0
   -4.2853   27.6431   53.4595 N   0  0  0  0  0  0  0  0  0  0  0  0
   -7.2334   29.7597   52.4916 C   0  0  0  0  0  0  0  0  0  0  0  0
   -8.0287   30.3966   53.5390 N   0  0  0  0  0  0  0  0  0  0  0  0
  1  2  1  0  0  0  0
  1  7  1  0  0  0  0
  2  3  1  0  0  0  0
  2  4  2  0  0  0  0
  4  5  1  0  0  0  0
  5  6  2  0  0  0  0
  5 11  1  0  0  0  0
  6  7  1  0  0  0  0
  6  9  1  0  0  0  0
  7  8  2  0  0  0  0
  9 10  2  0  0  0  0
  9 12  1  0  0  0  0
 10 11  1  0  0  0  0
 12 13  1  0  0  0  0
M  END
>  <CHROM.1>
-58.92628804,-4.62177287,29.96133102,53.96131096,0.28226345,-0.36863594,0.28513010

>  <Name>
ligand

>  <RI>
-1

>  <Rbt.Current_Directory>
/home/itssahil/PROJECTS/Mol_Feturizer/Test_systems_manuscript/rnas/4jf2

>  <Rbt.Executable>
rbdock ($Id: //depot/dev/client3/rdock/2013.1/src/exe/rbdock.cxx#4 $)

>  <Rbt.Library>
libRbt.so (2013.1, Build901 2013/11/27)

>  <Rbt.Parameter_File>
/export/apps/rDock/src/rDock_2013.1_src/data/scripts/dock_solv.prm

>  <Rbt.Receptor>
prm/pocket_docking_2.prm

>  <SCORE>
-14.8772

>  <SCORE.INTER>
-15.051

>  <SCORE.INTER.CONST>
1

>  <SCORE.INTER.POLAR>
0

>  <SCORE.INTER.ROT>
1

>  <SCORE.INTER.SOLV>
18.1889

>  <SCORE.INTER.VDW>
-20.3636

>  <SCORE.INTER.norm>
-1.15777

>  <SCORE.INTRA>
0.173497

>  <SCORE.INTRA.DIHEDRAL>
-0.0898986

>  <SCORE.INTRA.DIHEDRAL.0>
1.75624

>  <SCORE.INTRA.POLAR>
0

>  <SCORE.INTRA.POLAR.0>
0

>  <SCORE.INTRA.REPUL>
0

>  <SCORE.INTRA.REPUL.0>
0

>  <SCORE.INTRA.SOLV>
0.476455

>  <SCORE.INTRA.SOLV.lig_0>
-46.5296

>  <SCORE.INTRA.VDW>
-0.0197811

>  <SCORE.INTRA.VDW.0>
-0.381873

>  <SCORE.INTRA.norm>
0.0133459

>  <SCORE.RESTR>
0.000284703

>  <SCORE.RESTR.CAVITY>
0.000284703

>  <SCORE.RESTR.norm>
2.19002e-05

>  <SCORE.SYSTEM>
0

>  <SCORE.SYSTEM.CONST>
0

>  <SCORE.SYSTEM.DIHEDRAL>
0

>  <SCORE.SYSTEM.SOLV>
0

>  <SCORE.SYSTEM.norm>
0

>  <SCORE.heavy>
13

>  <SCORE.norm>
-1.1444

>  <RMSD>
0.458

$$$$
ligand
 OpenBabel02271912143D
libRbt.so/2013.1/901 2013/11/27
 13 14  0  0  0  0  0  0  0  0999 V2000
   -3.4315   31.5063   54.8175 N   0  0  0  0  0  0  0  0  0  0  0  0
   -2.4415   30.5358   55.0415 C   0  0  0  0  0  0  0  0  0  0  0  0
   -1.2205   30.9089   55.7180 N   0  0  0  0  0  0  0  0  0  0  0  0
   -2.6374   29.2373   54.6297 N   0  0  0  0  0  0  0  0  0  0  0  0
   -3.8237   28.8354   53.9633 C   0  0  0  0  0  0  0  0  0  0  0  0
   -4.8476   29.8092   53.6987 C   0  0  0  0  0  0  0  0  0  0  0  0
   -4.6055   31.1644   54.1379 C   0  0  0  0  0  0  0  0  0  0  0  0
   -5.5899   32.0800   53.8900 O   0  0  0  0  0  0  0  0  0  0  0  0
   -5.9402   29.1503   53.0208 C   0  0  0  0  0  0  0  0  0  0  0  0
   -5.5270   27.8239   52.8862 C   0  0  0  0  0  0  0  0  0  0  0  0
   -4.2787   27.6451   53.4543 N   0  0  0  0  0  0  0  0  0  0  0  0
   -7.2276   29.7757   52.5207 C   0  0  0  0  0  0  0  0  0  0  0  0
   -8.0058   30.4199   53.5764 N   0  0  0  0  0  0  0  0  0  0  0  0
  1  2  1  0  0  0  0
  1  7  1  0  0  0  0
  2  3  1  0  0  0  0
  2  4  2  0  0  0  0
  4  5  1  0  0  0  0
  5  6  2  0  0  0  0
  5 11  1  0  0  0  0
  6  7  1  0  0  0  0
  6  9  1  0  0  0  0
  7  8  2  0  0  0  0
  9 10  2  0  0  0  0
  9 12  1  0  0  0  0
 10 11  1  0  0  0  0
 12 13  1  0  0  0  0
M  END
>  <CHROM.1>
-58.73237127,-4.59841430,29.96499888,53.96057688,0.27385518,-0.35923040,0.28258099

>  <Name>
ligand

>  <RI>
-1

>  <Rbt.Current_Directory>
/home/itssahil/PROJECTS/Mol_Feturizer/Test_systems_manuscript/rnas/4jf2

>  <Rbt.Executable>
rbdock ($Id: //depot/dev/client3/rdock/2013.1/src/exe/rbdock.cxx#4 $)

>  <Rbt.Library>
libRbt.so (2013.1, Build901 2013/11/27)

>  <Rbt.Parameter_File>
/export/apps/rDock/src/rDock_2013.1_src/data/scripts/dock_solv.prm

>  <Rbt.Receptor>
prm/pocket_docking_2.prm

>  <SCORE>
-14.8582

>  <SCORE.INTER>
-15.0343

>  <SCORE.INTER.CONST>
1

>  <SCORE.INTER.POLAR>
0

>  <SCORE.INTER.ROT>
1

>  <SCORE.INTER.SOLV>
18.2711

>  <SCORE.INTER.VDW>
-20.3799

>  <SCORE.INTER.norm>
-1.15648

>  <SCORE.INTRA>
0.176074

>  <SCORE.INTRA.DIHEDRAL>
-0.0910224

>  <SCORE.INTRA.DIHEDRAL.0>
1.75624

>  <SCORE.INTRA.POLAR>
0

>  <SCORE.INTRA.POLAR.0>
0

>  <SCORE.INTRA.REPUL>
0

>  <SCORE.INTRA.REPUL.0>
0

>  <SCORE.INTRA.SOLV>
0.481809

>  <SCORE.INTRA.SOLV.lig_0>
-46.5296

>  <SCORE.INTRA.VDW>
-0.0193197

>  <SCORE.INTRA.VDW.0>
-0.381873

>  <SCORE.INTRA.norm>
0.0135441

>  <SCORE.RESTR>
0

>  <SCORE.RESTR.CAVITY>
0

>  <SCORE.RESTR.norm>
0

>  <SCORE.SYSTEM>
0

>  <SCORE.SYSTEM.CONST>
0

>  <SCORE.SYSTEM.DIHEDRAL>
0

>  <SCORE.SYSTEM.SOLV>
0

>  <SCORE.SYSTEM.norm>
0

>  <SCORE.heavy>
13

>  <SCORE.norm>
-1.14294

>  <RMSD>
0.459

$$$$
ligand
 OpenBabel02271912143D
libRbt.so/2013.1/901 2013/11/27
 13 14  0  0  0  0  0  0  0  0999 V2000
   -3.4404   31.5412   54.7998 N   0  0  0  0  0  0  0  0  0  0  0  0
   -2.4379   30.5828   55.0205 C   0  0  0  0  0  0  0  0  0  0  0  0
   -1.2164   30.9722   55.6867 N   0  0  0  0  0  0  0  0  0  0  0  0
   -2.6222   29.2805   54.6151 N   0  0  0  0  0  0  0  0  0  0  0  0
   -3.8086   28.8627   53.9588 C   0  0  0  0  0  0  0  0  0  0  0  0
   -4.8453   29.8240   53.6978 C   0  0  0  0  0  0  0  0  0  0  0  0
   -4.6152   31.1835   54.1299 C   0  0  0  0  0  0  0  0  0  0  0  0
   -5.6116   32.0870   53.8856 O   0  0  0  0  0  0  0  0  0  0  0  0
   -5.9353   29.1501   53.0304 C   0  0  0  0  0  0  0  0  0  0  0  0
   -5.5081   27.8279   52.8980 C   0  0  0  0  0  0  0  0  0  0  0  0
   -4.2539   27.6654   53.4577 N   0  0  0  0  0  0  0  0  0  0  0  0
   -7.2331   29.7591   52.5370 C   0  0  0  0  0  0  0  0  0  0  0  0
   -8.0057   30.4083   53.5939 N   0  0  0  0  0  0  0  0  0  0  0  0
  1  2  1  0  0  0  0
  1  7  1  0  0  0  0
  2  3  1  0  0  0  0
  2  4  2  0  0  0  0
  4  5  1  0  0  0  0
  5  6  2  0  0  0  0
  5 11  1  0  0  0  0
  6  7  1  0  0  0  0
  6  9  1  0  0  0  0
  7  8  2  0  0  0  0
  9 10  2  0  0  0  0
  9 12  1  0  0  0  0
 10 11  1  0  0  0  0
 12 13  1  0  0  0  0
M  END
>  <CHROM.1>
-58.26136363,-4.59556553,29.98433031,53.95711546,0.28266382,-0.34969539,0.28191715

>  <Name>
ligand

>  <RI>
-1

>  <Rbt.Current_Directory>
/home/itssahil/PROJECTS/Mol_Feturizer/Test_systems_manuscript/rnas/4jf2

>  <Rbt.Executable>
rbdock ($Id: //depot/dev/client3/rdock/2013.1/src/exe/rbdock.cxx#4 $)

>  <Rbt.Library>
libRbt.so (2013.1, Build901 2013/11/27)

>  <Rbt.Parameter_File>
/export/apps/rDock/src/rDock_2013.1_src/data/scripts/dock_solv.prm

>  <Rbt.Receptor>
prm/pocket_docking_2.prm

>  <SCORE>
-14.837

>  <SCORE.INTER>
-15.0194

>  <SCORE.INTER.CONST>
1

>  <SCORE.INTER.POLAR>
0

>  <SCORE.INTER.ROT>
1

>  <SCORE.INTER.SOLV>
18.456

>  <SCORE.INTER.VDW>
-20.4316

>  <SCORE.INTER.norm>
-1.15534

>  <SCORE.INTRA>
0.182442

>  <SCORE.INTRA.DIHEDRAL>
-0.0937454

>  <SCORE.INTRA.DIHEDRAL.0>
1.75624

>  <SCORE.INTRA.POLAR>
0

>  <SCORE.INTRA.POLAR.0>
0

>  <SCORE.INTRA.REPUL>
0

>  <SCORE.INTRA.REPUL.0>
0

>  <SCORE.INTRA.SOLV>
0.494787

>  <SCORE.INTRA.SOLV.lig_0>
-46.5296

>  <SCORE.INTRA.VDW>
-0.0180784

>  <SCORE.INTRA.VDW.0>
-0.381873

>  <SCORE.INTRA.norm>
0.014034

>  <SCORE.RESTR>
0

>  <SCORE.RESTR.CAVITY>
0

>  <SCORE.RESTR.norm>
0

>  <SCORE.SYSTEM>
0

>  <SCORE.SYSTEM.CONST>
0

>  <SCORE.SYSTEM.DIHEDRAL>
0

>  <SCORE.SYSTEM.SOLV>
0

>  <SCORE.SYSTEM.norm>
0

>  <SCORE.heavy>
13

>  <SCORE.norm>
-1.1413

>  <RMSD>
0.459

$$$$
ligand
 OpenBabel02271912143D
libRbt.so/2013.1/901 2013/11/27
 13 14  0  0  0  0  0  0  0  0999 V2000
   -3.4096   31.5215   54.8906 N   0  0  0  0  0  0  0  0  0  0  0  0
   -2.4135   30.5533   55.0965 C   0  0  0  0  0  0  0  0  0  0  0  0
   -1.1883   30.9250   55.7661 N   0  0  0  0  0  0  0  0  0  0  0  0
   -2.6073   29.2580   54.6735 N   0  0  0  0  0  0  0  0  0  0  0  0
   -3.7976   28.8575   54.0133 C   0  0  0  0  0  0  0  0  0  0  0  0
   -4.8279   29.8294   53.7672 C   0  0  0  0  0  0  0  0  0  0  0  0
   -4.5878   31.1812   54.2177 C   0  0  0  0  0  0  0  0  0  0  0  0
   -5.5783   32.0949   53.9874 O   0  0  0  0  0  0  0  0  0  0  0  0
   -5.9235   29.1724   53.0922 C   0  0  0  0  0  0  0  0  0  0  0  0
   -5.5057   27.8492   52.9409 C   0  0  0  0  0  0  0  0  0  0  0  0
   -4.2518   27.6703   53.4964 N   0  0  0  0  0  0  0  0  0  0  0  0
   -7.2178   29.7971   52.6093 C   0  0  0  0  0  0  0  0  0  0  0  0
   -7.9832   30.4390   53.6758 N   0  0  0  0  0  0  0  0  0  0  0  0
  1  2  1  0  0  0  0
  1  7  1  0  0  0  0
  2  3  1  0  0  0  0
  2  4  2  0  0  0  0
  4  5  1  0  0  0  0
  5  6  2  0  0  0  0
  5 11  1  0  0  0  0
  6  7  1  0  0  0  0
  6  9  1  0  0  0  0
  7  8  2  0  0  0  0
  9 10  2  0  0  0  0
  9 12  1  0  0  0  0
 10 11  1  0  0  0  0
 12 13  1  0  0  0  0
M  END
>  <CHROM.1>
-58.15300730,-4.57663272,29.98462213,54.02826586,0.27503580,-0.35032423,0.29316464

>  <Name>
ligand

>  <RI>
-1

>  <Rbt.Current_Directory>
/home/itssahil/PROJECTS/Mol_Feturizer/Test_systems_manuscript/rnas/4jf2

>  <Rbt.Executable>
rbdock ($Id: //depot/dev/client3/rdock/2013.1/src/exe/rbdock.cxx#4 $)

>  <Rbt.Library>
libRbt.so (2013.1, Build901 2013/11/27)

>  <Rbt.Parameter_File>
/export/apps/rDock/src/rDock_2013.1_src/data/scripts/dock_solv.prm

>  <Rbt.Receptor>
prm/pocket_docking_3.prm

>  <SCORE>
-14.8913

>  <SCORE.INTER>
-15.0752

>  <SCORE.INTER.CONST>
1

>  <SCORE.INTER.POLAR>
0

>  <SCORE.INTER.ROT>
1

>  <SCORE.INTER.SOLV>
18.435

>  <SCORE.INTER.VDW>
-20.4618

>  <SCORE.INTER.norm>
-1.15963

>  <SCORE.INTRA>
0.18393

>  <SCORE.INTRA.DIHEDRAL>
-0.0943704

>  <SCORE.INTRA.DIHEDRAL.0>
1.75624

>  <SCORE.INTRA.POLAR>
0

>  <SCORE.INTRA.POLAR.0>
0

>  <SCORE.INTRA.REPUL>
0

>  <SCORE.INTRA.REPUL.0>
0

>  <SCORE.INTRA.SOLV>
0.497767

>  <SCORE.INTRA.SOLV.lig_0>
-46.5296

>  <SCORE.INTRA.VDW>
-0.017768

>  <SCORE.INTRA.VDW.0>
-0.381873

>  <SCORE.INTRA.norm>
0.0141485

>  <SCORE.RESTR>
0

>  <SCORE.RESTR.CAVITY>
0

>  <SCORE.RESTR.norm>
0

>  <SCORE.SYSTEM>
0

>  <SCORE.SYSTEM.CONST>
0

>  <SCORE.SYSTEM.DIHEDRAL>
0

>  <SCORE.SYSTEM.SOLV>
0

>  <SCORE.SYSTEM.norm>
0

>  <SCORE.heavy>
13

>  <SCORE.norm>
-1.14549

>  <RMSD>
0.459

$$$$
ligand
 OpenBabel02271912143D
libRbt.so/2013.1/901 2013/11/27
 13 14  0  0  0  0  0  0  0  0999 V2000
   -3.4459   31.5391   54.7852 N   0  0  0  0  0  0  0  0  0  0  0  0
   -2.4378   30.5857   55.0015 C   0  0  0  0  0  0  0  0  0  0  0  0
   -1.2124   30.9826   55.6559 N   0  0  0  0  0  0  0  0  0  0  0  0
   -2.6202   29.2810   54.6029 N   0  0  0  0  0  0  0  0  0  0  0  0
   -3.8103   28.8558   53.9582 C   0  0  0  0  0  0  0  0  0  0  0  0
   -4.8529   29.8118   53.7018 C   0  0  0  0  0  0  0  0  0  0  0  0
   -4.6248   31.1740   54.1265 C   0  0  0  0  0  0  0  0  0  0  0  0
   -5.6268   32.0726   53.8868 O   0  0  0  0  0  0  0  0  0  0  0  0
   -5.9457   29.1309   53.0462 C   0  0  0  0  0  0  0  0  0  0  0  0
   -5.5143   27.8099   52.9156 C   0  0  0  0  0  0  0  0  0  0  0  0
   -4.2548   27.6546   53.4656 N   0  0  0  0  0  0  0  0  0  0  0  0
   -7.2500   29.7327   52.5612 C   0  0  0  0  0  0  0  0  0  0  0  0
   -7.9454   30.5082   53.5859 N   0  0  0  0  0  0  0  0  0  0  0  0
  1  2  1  0  0  0  0
  1  7  1  0  0  0  0
  2  3  1  0  0  0  0
  2  4  2  0  0  0  0
  4  5  1  0  0  0  0
  5  6  2  0  0  0  0
  5 11  1  0  0  0  0
  6  7  1  0  0  0  0
  6  9  1  0  0  0  0
  7  8  2  0  0  0  0
  9 10  2  0  0  0  0
  9 12  1  0  0  0  0
 10 11  1  0  0  0  0
 12 13  1  0  0  0  0
M  END
>  <CHROM.1>
-51.92787546,-4.59595600,29.98441211,53.95551385,0.27720013,-0.34747417,0.27815174

>  <Name>
ligand

>  <RI>
-1

>  <Rbt.Current_Directory>
/home/itssahil/PROJECTS/Mol_Feturizer/Test_systems_manuscript/rnas/4jf2

>  <Rbt.Executable>
rbdock ($Id: //depot/dev/client3/rdock/2013.1/src/exe/rbdock.cxx#4 $)

>  <Rbt.Library>
libRbt.so (2013.1, Build901 2013/11/27)

>  <Rbt.Parameter_File>
/export/apps/rDock/src/rDock_2013.1_src/data/scripts/dock_solv.prm

>  <Rbt.Receptor>
prm/pocket_docking_6.prm

>  <SCORE>
-14.8449

>  <SCORE.INTER>
-15.1489

>  <SCORE.INTER.CONST>
1

>  <SCORE.INTER.POLAR>
0

>  <SCORE.INTER.ROT>
1

>  <SCORE.INTER.SOLV>
18.2311

>  <SCORE.INTER.VDW>
-20.4429

>  <SCORE.INTER.norm>
-1.1653

>  <SCORE.INTRA>
0.303967

>  <SCORE.INTRA.DIHEDRAL>
-0.128673

>  <SCORE.INTRA.DIHEDRAL.0>
1.75624

>  <SCORE.INTRA.POLAR>
0

>  <SCORE.INTRA.POLAR.0>
0

>  <SCORE.INTRA.REPUL>
0

>  <SCORE.INTRA.REPUL.0>
0

>  <SCORE.INTRA.SOLV>
0.665138

>  <SCORE.INTRA.SOLV.lig_0>
-46.5296

>  <SCORE.INTRA.VDW>
0.0357343

>  <SCORE.INTRA.VDW.0>
-0.381873

>  <SCORE.INTRA.norm>
0.0233821

>  <SCORE.RESTR>
0

>  <SCORE.RESTR.CAVITY>
0

>  <SCORE.RESTR.norm>
0

>  <SCORE.SYSTEM>
0

>  <SCORE.SYSTEM.CONST>
0

>  <SCORE.SYSTEM.DIHEDRAL>
0

>  <SCORE.SYSTEM.SOLV>
0

>  <SCORE.SYSTEM.norm>
0

>  <SCORE.heavy>
13

>  <SCORE.norm>
-1.14191

>  <RMSD>
0.466

$$$$
ligand
 OpenBabel02271912143D
libRbt.so/2013.1/901 2013/11/27
 13 14  0  0  0  0  0  0  0  0999 V2000
   -3.4220   31.5288   54.8555 N   0  0  0  0  0  0  0  0  0  0  0  0
   -2.4321   30.5593   55.0840 C   0  0  0  0  0  0  0  0  0  0  0  0
   -1.2133   30.9341   55.7633 N   0  0  0  0  0  0  0  0  0  0  0  0
   -2.6261   29.2599   54.6737 N   0  0  0  0  0  0  0  0  0  0  0  0
   -3.8102   28.8563   54.0046 C   0  0  0  0  0  0  0  0  0  0  0  0
   -4.8339   29.8291   53.7354 C   0  0  0  0  0  0  0  0  0  0  0  0
   -4.5938   31.1852   54.1731 C   0  0  0  0  0  0  0  0  0  0  0  0
   -5.5780   32.0998   53.9208 O   0  0  0  0  0  0  0  0  0  0  0  0
   -5.9242   29.1684   53.0555 C   0  0  0  0  0  0  0  0  0  0  0  0
   -5.5099   27.8420   52.9243 C   0  0  0  0  0  0  0  0  0  0  0  0
   -4.2631   27.6649   53.4962 N   0  0  0  0  0  0  0  0  0  0  0  0
   -7.2105   29.7923   52.5506 C   0  0  0  0  0  0  0  0  0  0  0  0
   -7.9850   30.4505   53.6005 N   0  0  0  0  0  0  0  0  0  0  0  0
  1  2  1  0  0  0  0
  1  7  1  0  0  0  0
  2  3  1  0  0  0  0
  2  4  2  0  0  0  0
  4  5  1  0  0  0  0
  5  6  2  0  0  0  0
  5 11  1  0  0  0  0
  6  7  1  0  0  0  0
  6  9  1  0  0  0  0
  7  8  2  0  0  0  0
  9 10  2  0  0  0  0
  9 12  1  0  0  0  0
 10 11  1  0  0  0  0
 12 13  1  0  0  0  0
M  END
>  <CHROM.1>
-58.10261595,-4.58500380,29.98646570,53.99756357,0.27455099,-0.36246911,0.28146920

>  <Name>
ligand

>  <RI>
-1

>  <Rbt.Current_Directory>
/home/itssahil/PROJECTS/Mol_Feturizer/Test_systems_manuscript/rnas/4jf2

>  <Rbt.Executable>
rbdock ($Id: //depot/dev/client3/rdock/2013.1/src/exe/rbdock.cxx#4 $)

>  <Rbt.Library>
libRbt.so (2013.1, Build901 2013/11/27)

>  <Rbt.Parameter_File>
/export/apps/rDock/src/rDock_2013.1_src/data/scripts/dock_solv.prm

>  <Rbt.Receptor>
prm/pocket_docking_4.prm

>  <SCORE>
-14.9122

>  <SCORE.INTER>
-15.0968

>  <SCORE.INTER.CONST>
1

>  <SCORE.INTER.POLAR>
0

>  <SCORE.INTER.ROT>
1

>  <SCORE.INTER.SOLV>
18.2369

>  <SCORE.INTER.VDW>
-20.4102

>  <SCORE.INTER.norm>
-1.16129

>  <SCORE.INTRA>
0.184625

>  <SCORE.INTRA.DIHEDRAL>
-0.0946609

>  <SCORE.INTRA.DIHEDRAL.0>
1.75624

>  <SCORE.INTRA.POLAR>
0

>  <SCORE.INTRA.POLAR.0>
0

>  <SCORE.INTRA.REPUL>
0

>  <SCORE.INTRA.REPUL.0>
0

>  <SCORE.INTRA.SOLV>
0.499152

>  <SCORE.INTRA.SOLV.lig_0>
-46.5296

>  <SCORE.INTRA.VDW>
-0.0176204

>  <SCORE.INTRA.VDW.0>
-0.381873

>  <SCORE.INTRA.norm>
0.014202

>  <SCORE.RESTR>
0

>  <SCORE.RESTR.CAVITY>
0

>  <SCORE.RESTR.norm>
0

>  <SCORE.SYSTEM>
0

>  <SCORE.SYSTEM.CONST>
0

>  <SCORE.SYSTEM.DIHEDRAL>
0

>  <SCORE.SYSTEM.SOLV>
0

>  <SCORE.SYSTEM.norm>
0

>  <SCORE.heavy>
13

>  <SCORE.norm>
-1.14709

>  <RMSD>
0.467

$$$$
ligand
 OpenBabel02271912143D
libRbt.so/2013.1/901 2013/11/27
 13 14  0  0  0  0  0  0  0  0999 V2000
   -3.3966   31.4949   54.8247 N   0  0  0  0  0  0  0  0  0  0  0  0
   -2.4379   30.4967   55.0629 C   0  0  0  0  0  0  0  0  0  0  0  0
   -1.2170   30.8349   55.7574 N   0  0  0  0  0  0  0  0  0  0  0  0
   -2.6644   29.2043   54.6475 N   0  0  0  0  0  0  0  0  0  0  0  0
   -3.8517   28.8362   53.9634 C   0  0  0  0  0  0  0  0  0  0  0  0
   -4.8436   29.8387   53.6842 C   0  0  0  0  0  0  0  0  0  0  0  0
   -4.5696   31.1865   54.1277 C   0  0  0  0  0  0  0  0  0  0  0  0
   -5.5239   32.1296   53.8658 O   0  0  0  0  0  0  0  0  0  0  0  0
   -5.9443   29.2111   52.9900 C   0  0  0  0  0  0  0  0  0  0  0  0
   -5.5669   27.8735   52.8608 C   0  0  0  0  0  0  0  0  0  0  0  0
   -4.3327   27.6594   53.4471 N   0  0  0  0  0  0  0  0  0  0  0  0
   -7.2059   29.8728   52.4712 C   0  0  0  0  0  0  0  0  0  0  0  0
   -7.9737   30.5509   53.5133 N   0  0  0  0  0  0  0  0  0  0  0  0
  1  2  1  0  0  0  0
  1  7  1  0  0  0  0
  2  3  1  0  0  0  0
  2  4  2  0  0  0  0
  4  5  1  0  0  0  0
  5  6  2  0  0  0  0
  5 11  1  0  0  0  0
  6  7  1  0  0  0  0
  6  9  1  0  0  0  0
  7  8  2  0  0  0  0
  9 10  2  0  0  0  0
  9 12  1  0  0  0  0
 10 11  1  0  0  0  0
 12 13  1  0  0  0  0
M  END
>  <CHROM.1>
-58.11650108,-4.59334841,29.98835183,53.94967011,0.24824135,-0.38183648,0.27390013

>  <Name>
ligand

>  <RI>
-1

>  <Rbt.Current_Directory>
/home/itssahil/PROJECTS/Mol_Feturizer/Test_systems_manuscript/rnas/4jf2

>  <Rbt.Executable>
rbdock ($Id: //depot/dev/client3/rdock/2013.1/src/exe/rbdock.cxx#4 $)

>  <Rbt.Library>
libRbt.so (2013.1, Build901 2013/11/27)

>  <Rbt.Parameter_File>
/export/apps/rDock/src/rDock_2013.1_src/data/scripts/dock_solv.prm

>  <Rbt.Receptor>
prm/pocket_docking_2.prm

>  <SCORE>
-14.7713

>  <SCORE.INTER>
-14.9557

>  <SCORE.INTER.CONST>
1

>  <SCORE.INTER.POLAR>
0

>  <SCORE.INTER.ROT>
1

>  <SCORE.INTER.SOLV>
17.6491

>  <SCORE.INTER.VDW>
-20.1202

>  <SCORE.INTER.norm>
-1.15044

>  <SCORE.INTRA>
0.184434

>  <SCORE.INTRA.DIHEDRAL>
-0.0945809

>  <SCORE.INTRA.DIHEDRAL.0>
1.75624

>  <SCORE.INTRA.POLAR>
0

>  <SCORE.INTRA.POLAR.0>
0

>  <SCORE.INTRA.REPUL>
0

>  <SCORE.INTRA.REPUL.0>
0

>  <SCORE.INTRA.SOLV>
0.498771

>  <SCORE.INTRA.SOLV.lig_0>
-46.5296

>  <SCORE.INTRA.VDW>
-0.0176613

>  <SCORE.INTRA.VDW.0>
-0.381873

>  <SCORE.INTRA.norm>
0.0141872

>  <SCORE.RESTR>
0

>  <SCORE.RESTR.CAVITY>
0

>  <SCORE.RESTR.norm>
0

>  <SCORE.SYSTEM>
0

>  <SCORE.SYSTEM.CONST>
0

>  <SCORE.SYSTEM.DIHEDRAL>
0

>  <SCORE.SYSTEM.SOLV>
0

>  <SCORE.SYSTEM.norm>
0

>  <SCORE.heavy>
13

>  <SCORE.norm>
-1.13626

>  <RMSD>
0.469

$$$$
ligand
 OpenBabel02271912143D
libRbt.so/2013.1/901 2013/11/27
 13 14  0  0  0  0  0  0  0  0999 V2000
   -3.4517   31.5406   54.7854 N   0  0  0  0  0  0  0  0  0  0  0  0
   -2.4548   30.5819   55.0287 C   0  0  0  0  0  0  0  0  0  0  0  0
   -1.2384   30.9761   55.7014 N   0  0  0  0  0  0  0  0  0  0  0  0
   -2.6397   29.2748   54.6393 N   0  0  0  0  0  0  0  0  0  0  0  0
   -3.8212   28.8522   53.9772 C   0  0  0  0  0  0  0  0  0  0  0  0
   -4.8519   29.8133   53.6931 C   0  0  0  0  0  0  0  0  0  0  0  0
   -4.6212   31.1778   54.1091 C   0  0  0  0  0  0  0  0  0  0  0  0
   -5.6120   32.0813   53.8429 O   0  0  0  0  0  0  0  0  0  0  0  0
   -5.9377   29.1342   53.0244 C   0  0  0  0  0  0  0  0  0  0  0  0
   -5.5140   27.8088   52.9140 C   0  0  0  0  0  0  0  0  0  0  0  0
   -4.2658   27.6497   53.4881 N   0  0  0  0  0  0  0  0  0  0  0  0
   -7.2286   29.7408   52.5103 C   0  0  0  0  0  0  0  0  0  0  0  0
   -8.0096   30.4059   53.5509 N   0  0  0  0  0  0  0  0  0  0  0  0
  1  2  1  0  0  0  0
  1  7  1  0  0  0  0
  2  3  1  0  0  0  0
  2  4  2  0  0  0  0
  4  5  1  0  0  0  0
  5  6  2  0  0  0  0
  5 11  1  0  0  0  0
  6  7  1  0  0  0  0
  6  9  1  0  0  0  0
  7  8  2  0  0  0  0
  9 10  2  0  0  0  0
  9 12  1  0  0  0  0
 10 11  1  0  0  0  0
 12 13  1  0  0  0  0
M  END
>  <CHROM.1>
-58.30609844,-4.60416301,29.97627931,53.95270535,0.28198029,-0.35990195,0.26810838

>  <Name>
ligand

>  <RI>
-1

>  <Rbt.Current_Directory>
/home/itssahil/PROJECTS/Mol_Feturizer/Test_systems_manuscript/rnas/4jf2

>  <Rbt.Executable>
rbdock ($Id: //depot/dev/client3/rdock/2013.1/src/exe/rbdock.cxx#4 $)

>  <Rbt.Library>
libRbt.so (2013.1, Build901 2013/11/27)

>  <Rbt.Parameter_File>
/export/apps/rDock/src/rDock_2013.1_src/data/scripts/dock_solv.prm

>  <Rbt.Receptor>
prm/pocket_docking_2.prm

>  <SCORE>
-14.8672

>  <SCORE.INTER>
-15.0493

>  <SCORE.INTER.CONST>
1

>  <SCORE.INTER.POLAR>
0

>  <SCORE.INTER.ROT>
1

>  <SCORE.INTER.SOLV>
18.3441

>  <SCORE.INTER.VDW>
-20.4142

>  <SCORE.INTER.norm>
-1.15764

>  <SCORE.INTRA>
0.18183

>  <SCORE.INTRA.DIHEDRAL>
-0.0934872

>  <SCORE.INTRA.DIHEDRAL.0>
1.75624

>  <SCORE.INTRA.POLAR>
0

>  <SCORE.INTRA.POLAR.0>
0

>  <SCORE.INTRA.REPUL>
0

>  <SCORE.INTRA.REPUL.0>
0

>  <SCORE.INTRA.SOLV>
0.493556

>  <SCORE.INTRA.SOLV.lig_0>
-46.5296

>  <SCORE.INTRA.VDW>
-0.0182038

>  <SCORE.INTRA.VDW.0>
-0.381873

>  <SCORE.INTRA.norm>
0.013987

>  <SCORE.RESTR>
0.000346591

>  <SCORE.RESTR.CAVITY>
0.000346591

>  <SCORE.RESTR.norm>
2.66609e-05

>  <SCORE.SYSTEM>
0

>  <SCORE.SYSTEM.CONST>
0

>  <SCORE.SYSTEM.DIHEDRAL>
0

>  <SCORE.SYSTEM.SOLV>
0

>  <SCORE.SYSTEM.norm>
0

>  <SCORE.heavy>
13

>  <SCORE.norm>
-1.14363

>  <RMSD>
0.470

$$$$
ligand
 OpenBabel02271912143D
libRbt.so/2013.1/901 2013/11/27
 13 14  0  0  0  0  0  0  0  0999 V2000
   -3.4212   31.5232   54.8629 N   0  0  0  0  0  0  0  0  0  0  0  0
   -2.4292   30.5538   55.0828 C   0  0  0  0  0  0  0  0  0  0  0  0
   -1.2092   30.9263   55.7614 N   0  0  0  0  0  0  0  0  0  0  0  0
   -2.6222   29.2567   54.6649 N   0  0  0  0  0  0  0  0  0  0  0  0
   -3.8074   28.8554   53.9963 C   0  0  0  0  0  0  0  0  0  0  0  0
   -4.8333   29.8283   53.7358 C   0  0  0  0  0  0  0  0  0  0  0  0
   -4.5942   31.1820   54.1813 C   0  0  0  0  0  0  0  0  0  0  0  0
   -5.5804   32.0966   53.9373 O   0  0  0  0  0  0  0  0  0  0  0  0
   -5.9242   29.1701   53.0545 C   0  0  0  0  0  0  0  0  0  0  0  0
   -5.5082   27.8452   52.9139 C   0  0  0  0  0  0  0  0  0  0  0  0
   -4.2596   27.6665   53.4816 N   0  0  0  0  0  0  0  0  0  0  0  0
   -7.2128   29.7951   52.5568 C   0  0  0  0  0  0  0  0  0  0  0  0
   -7.9417   30.5214   53.5943 N   0  0  0  0  0  0  0  0  0  0  0  0
  1  2  1  0  0  0  0
  1  7  1  0  0  0  0
  2  3  1  0  0  0  0
  2  4  2  0  0  0  0
  4  5  1  0  0  0  0
  5  6  2  0  0  0  0
  5 11  1  0  0  0  0
  6  7  1  0  0  0  0
  6  9  1  0  0  0  0
  7  8  2  0  0  0  0
  9 10  2  0  0  0  0
  9 12  1  0  0  0  0
 10 11  1  0  0  0  0
 12 13  1  0  0  0  0
M  END
>  <CHROM.1>
-54.27444069,-4.58034703,29.99058712,53.99677753,0.27105853,-0.36362685,0.28799624

>  <Name>
ligand

>  <RI>
-1

>  <Rbt.Current_Directory>
/home/itssahil/PROJECTS/Mol_Feturizer/Test_systems_manuscript/rnas/4jf2

>  <Rbt.Executable>
rbdock ($Id: //depot/dev/client3/rdock/2013.1/src/exe/rbdock.cxx#4 $)

>  <Rbt.Library>
libRbt.so (2013.1, Build901 2013/11/27)

>  <Rbt.Parameter_File>
/export/apps/rDock/src/rDock_2013.1_src/data/scripts/dock_solv.prm

>  <Rbt.Receptor>
prm/blind_docking_80.prm

>  <SCORE>
-14.9191

>  <SCORE.INTER>
-15.1788

>  <SCORE.INTER.CONST>
1

>  <SCORE.INTER.POLAR>
0

>  <SCORE.INTER.ROT>
1

>  <SCORE.INTER.SOLV>
18.0121

>  <SCORE.INTER.VDW>
-20.3899

>  <SCORE.INTER.norm>
-1.1676

>  <SCORE.INTRA>
0.259692

>  <SCORE.INTRA.DIHEDRAL>
-0.116206

>  <SCORE.INTRA.DIHEDRAL.0>
1.75624

>  <SCORE.INTRA.POLAR>
0

>  <SCORE.INTRA.POLAR.0>
0

>  <SCORE.INTRA.REPUL>
0

>  <SCORE.INTRA.REPUL.0>
0

>  <SCORE.INTRA.SOLV>
0.603003

>  <SCORE.INTRA.SOLV.lig_0>
-46.5296

>  <SCORE.INTRA.VDW>
0.0162935

>  <SCORE.INTRA.VDW.0>
-0.381873

>  <SCORE.INTRA.norm>
0.0199763

>  <SCORE.RESTR>
0

>  <SCORE.RESTR.CAVITY>
0

>  <SCORE.RESTR.norm>
0

>  <SCORE.SYSTEM>
0

>  <SCORE.SYSTEM.CONST>
0

>  <SCORE.SYSTEM.DIHEDRAL>
0

>  <SCORE.SYSTEM.SOLV>
0

>  <SCORE.SYSTEM.norm>
0

>  <SCORE.heavy>
13

>  <SCORE.norm>
-1.14762

>  <RMSD>
0.471

$$$$
ligand
 OpenBabel02271912143D
libRbt.so/2013.1/901 2013/11/27
 13 14  0  0  0  0  0  0  0  0999 V2000
   -3.4381   31.4989   54.8107 N   0  0  0  0  0  0  0  0  0  0  0  0
   -2.4531   30.5261   55.0461 C   0  0  0  0  0  0  0  0  0  0  0  0
   -1.2331   30.8992   55.7243 N   0  0  0  0  0  0  0  0  0  0  0  0
   -2.6530   29.2251   54.6437 N   0  0  0  0  0  0  0  0  0  0  0  0
   -3.8384   28.8231   53.9759 C   0  0  0  0  0  0  0  0  0  0  0  0
   -4.8572   29.7992   53.6998 C   0  0  0  0  0  0  0  0  0  0  0  0
   -4.6109   31.1567   54.1293 C   0  0  0  0  0  0  0  0  0  0  0  0
   -5.5904   32.0745   53.8705 O   0  0  0  0  0  0  0  0  0  0  0  0
   -5.9500   29.1396   53.0230 C   0  0  0  0  0  0  0  0  0  0  0  0
   -5.5420   27.8104   52.9003 C   0  0  0  0  0  0  0  0  0  0  0  0
   -4.2966   27.6308   53.4745 N   0  0  0  0  0  0  0  0  0  0  0  0
   -7.2328   29.7666   52.5130 C   0  0  0  0  0  0  0  0  0  0  0  0
   -7.9559   30.5179   53.5366 N   0  0  0  0  0  0  0  0  0  0  0  0
  1  2  1  0  0  0  0
  1  7  1  0  0  0  0
  2  3  1  0  0  0  0
  2  4  2  0  0  0  0
  4  5  1  0  0  0  0
  5  6  2  0  0  0  0
  5 11  1  0  0  0  0
  6  7  1  0  0  0  0
  6  9  1  0  0  0  0
  7  8  2  0  0  0  0
  9 10  2  0  0  0  0
  9 12  1  0  0  0  0
 10 11  1  0  0  0  0
 12 13  1  0  0  0  0
M  END
>  <CHROM.1>
-53.88148178,-4.60374136,29.96372147,53.95945949,0.26504880,-0.36915608,0.27352605

>  <Name>
ligand

>  <RI>
-1

>  <Rbt.Current_Directory>
/home/itssahil/PROJECTS/Mol_Feturizer/Test_systems_manuscript/rnas/4jf2

>  <Rbt.Executable>
rbdock ($Id: //depot/dev/client3/rdock/2013.1/src/exe/rbdock.cxx#4 $)

>  <Rbt.Library>
libRbt.so (2013.1, Build901 2013/11/27)

>  <Rbt.Parameter_File>
/export/apps/rDock/src/rDock_2013.1_src/data/scripts/dock_solv.prm

>  <Rbt.Receptor>
prm/pocket_docking_2.prm

>  <SCORE>
-14.8678

>  <SCORE.INTER>
-15.1344

>  <SCORE.INTER.CONST>
1

>  <SCORE.INTER.POLAR>
0

>  <SCORE.INTER.ROT>
1

>  <SCORE.INTER.SOLV>
17.891

>  <SCORE.INTER.VDW>
-20.3199

>  <SCORE.INTER.norm>
-1.16418

>  <SCORE.INTRA>
0.266616

>  <SCORE.INTRA.DIHEDRAL>
-0.118341

>  <SCORE.INTRA.DIHEDRAL.0>
1.75624

>  <SCORE.INTRA.POLAR>
0

>  <SCORE.INTRA.POLAR.0>
0

>  <SCORE.INTRA.REPUL>
0

>  <SCORE.INTRA.REPUL.0>
0

>  <SCORE.INTRA.SOLV>
0.613495

>  <SCORE.INTRA.SOLV.lig_0>
-46.5296

>  <SCORE.INTRA.VDW>
0.0190391

>  <SCORE.INTRA.VDW.0>
-0.381873

>  <SCORE.INTRA.norm>
0.0205089

>  <SCORE.RESTR>
0

>  <SCORE.RESTR.CAVITY>
0

>  <SCORE.RESTR.norm>
0

>  <SCORE.SYSTEM>
0

>  <SCORE.SYSTEM.CONST>
0

>  <SCORE.SYSTEM.DIHEDRAL>
0

>  <SCORE.SYSTEM.SOLV>
0

>  <SCORE.SYSTEM.norm>
0

>  <SCORE.heavy>
13

>  <SCORE.norm>
-1.14367

>  <RMSD>
0.471

$$$$
ligand
 OpenBabel02271912143D
libRbt.so/2013.1/901 2013/11/27
 13 14  0  0  0  0  0  0  0  0999 V2000
   -3.4263   31.5173   54.8212 N   0  0  0  0  0  0  0  0  0  0  0  0
   -2.4273   30.5536   55.0342 C   0  0  0  0  0  0  0  0  0  0  0  0
   -1.2050   30.9330   55.7047 N   0  0  0  0  0  0  0  0  0  0  0  0
   -2.6156   29.2555   54.6173 N   0  0  0  0  0  0  0  0  0  0  0  0
   -3.8029   28.8475   53.9565 C   0  0  0  0  0  0  0  0  0  0  0  0
   -4.8362   29.8145   53.7032 C   0  0  0  0  0  0  0  0  0  0  0  0
   -4.6019   31.1695   54.1475 C   0  0  0  0  0  0  0  0  0  0  0  0
   -5.5950   32.0784   53.9104 O   0  0  0  0  0  0  0  0  0  0  0  0
   -5.9279   29.1503   53.0291 C   0  0  0  0  0  0  0  0  0  0  0  0
   -5.5051   27.8278   52.8854 C   0  0  0  0  0  0  0  0  0  0  0  0
   -4.2518   27.6562   53.4446 N   0  0  0  0  0  0  0  0  0  0  0  0
   -7.2233   29.7679   52.5402 C   0  0  0  0  0  0  0  0  0  0  0  0
   -7.9368   30.5111   53.5765 N   0  0  0  0  0  0  0  0  0  0  0  0
  1  2  1  0  0  0  0
  1  7  1  0  0  0  0
  2  3  1  0  0  0  0
  2  4  2  0  0  0  0
  4  5  1  0  0  0  0
  5  6  2  0  0  0  0
  5 11  1  0  0  0  0
  6  7  1  0  0  0  0
  6  9  1  0  0  0  0
  7  8  2  0  0  0  0
  9 10  2  0  0  0  0
  9 12  1  0  0  0  0
 10 11  1  0  0  0  0
 12 13  1  0  0  0  0
M  END
>  <CHROM.1>
-53.18336563,-4.58140417,29.97995876,53.96201711,0.27369973,-0.35674221,0.28949101

>  <Name>
ligand

>  <RI>
-1

>  <Rbt.Current_Directory>
/home/itssahil/PROJECTS/Mol_Feturizer/Test_systems_manuscript/rnas/4jf2

>  <Rbt.Executable>
rbdock ($Id: //depot/dev/client3/rdock/2013.1/src/exe/rbdock.cxx#4 $)

>  <Rbt.Library>
libRbt.so (2013.1, Build901 2013/11/27)

>  <Rbt.Parameter_File>
/export/apps/rDock/src/rDock_2013.1_src/data/scripts/dock_solv.prm

>  <Rbt.Receptor>
prm/pocket_docking_2.prm

>  <SCORE>
-14.8739

>  <SCORE.INTER>
-15.1579

>  <SCORE.INTER.CONST>
1

>  <SCORE.INTER.POLAR>
0

>  <SCORE.INTER.ROT>
1

>  <SCORE.INTER.SOLV>
18.058

>  <SCORE.INTER.VDW>
-20.3913

>  <SCORE.INTER.norm>
-1.16599

>  <SCORE.INTRA>
0.279383

>  <SCORE.INTRA.DIHEDRAL>
-0.122089

>  <SCORE.INTRA.DIHEDRAL.0>
1.75624

>  <SCORE.INTRA.POLAR>
0

>  <SCORE.INTRA.POLAR.0>
0

>  <SCORE.INTRA.REPUL>
0

>  <SCORE.INTRA.REPUL.0>
0

>  <SCORE.INTRA.SOLV>
0.63205

>  <SCORE.INTRA.SOLV.lig_0>
-46.5296

>  <SCORE.INTRA.VDW>
0.0244023

>  <SCORE.INTRA.VDW.0>
-0.381873

>  <SCORE.INTRA.norm>
0.021491

>  <SCORE.RESTR>
0.00459198

>  <SCORE.RESTR.CAVITY>
0.00459198

>  <SCORE.RESTR.norm>
0.000353229

>  <SCORE.SYSTEM>
0

>  <SCORE.SYSTEM.CONST>
0

>  <SCORE.SYSTEM.DIHEDRAL>
0

>  <SCORE.SYSTEM.SOLV>
0

>  <SCORE.SYSTEM.norm>
0

>  <SCORE.heavy>
13

>  <SCORE.norm>
-1.14415

>  <RMSD>
0.472

$$$$
ligand
 OpenBabel02271912143D
libRbt.so/2013.1/901 2013/11/27
 13 14  0  0  0  0  0  0  0  0999 V2000
   -3.4899   31.5071   54.8376 N   0  0  0  0  0  0  0  0  0  0  0  0
   -2.4864   30.5523   55.0686 C   0  0  0  0  0  0  0  0  0  0  0  0
   -1.2787   30.9430   55.7588 N   0  0  0  0  0  0  0  0  0  0  0  0
   -2.6567   29.2521   54.6506 N   0  0  0  0  0  0  0  0  0  0  0  0
   -3.8294   28.8331   53.9708 C   0  0  0  0  0  0  0  0  0  0  0  0
   -4.8664   29.7909   53.6988 C   0  0  0  0  0  0  0  0  0  0  0  0
   -4.6511   31.1484   54.1448 C   0  0  0  0  0  0  0  0  0  0  0  0
   -5.6478   32.0485   53.8898 O   0  0  0  0  0  0  0  0  0  0  0  0
   -5.9411   29.1164   53.0077 C   0  0  0  0  0  0  0  0  0  0  0  0
   -5.5048   27.7974   52.8730 C   0  0  0  0  0  0  0  0  0  0  0  0
   -4.2595   27.6372   53.4533 N   0  0  0  0  0  0  0  0  0  0  0  0
   -7.2334   29.7223   52.4963 C   0  0  0  0  0  0  0  0  0  0  0  0
   -7.9743   30.4540   53.5214 N   0  0  0  0  0  0  0  0  0  0  0  0
  1  2  1  0  0  0  0
  1  7  1  0  0  0  0
  2  3  1  0  0  0  0
  2  4  2  0  0  0  0
  4  5  1  0  0  0  0
  5  6  2  0  0  0  0
  5 11  1  0  0  0  0
  6  7  1  0  0  0  0
  6  9  1  0  0  0  0
  7  8  2  0  0  0  0
  9 10  2  0  0  0  0
  9 12  1  0  0  0  0
 10 11  1  0  0  0  0
 12 13  1  0  0  0  0
M  END
>  <CHROM.1>
-53.53316214,-4.61774791,29.95827315,53.96174116,0.28791120,-0.36987299,0.29297553

>  <Name>
ligand

>  <RI>
-1

>  <Rbt.Current_Directory>
/home/itssahil/PROJECTS/Mol_Feturizer/Test_systems_manuscript/rnas/4jf2

>  <Rbt.Executable>
rbdock ($Id: //depot/dev/client3/rdock/2013.1/src/exe/rbdock.cxx#4 $)

>  <Rbt.Library>
libRbt.so (2013.1, Build901 2013/11/27)

>  <Rbt.Parameter_File>
/export/apps/rDock/src/rDock_2013.1_src/data/scripts/dock_solv.prm

>  <Rbt.Receptor>
prm/pocket_docking_2.prm

>  <SCORE>
-14.8683

>  <SCORE.INTER>
-15.1427

>  <SCORE.INTER.CONST>
1

>  <SCORE.INTER.POLAR>
0

>  <SCORE.INTER.ROT>
1

>  <SCORE.INTER.SOLV>
17.981

>  <SCORE.INTER.VDW>
-20.3555

>  <SCORE.INTER.norm>
-1.16482

>  <SCORE.INTRA>
0.27291

>  <SCORE.INTRA.DIHEDRAL>
-0.120218

>  <SCORE.INTRA.DIHEDRAL.0>
1.75624

>  <SCORE.INTRA.POLAR>
0

>  <SCORE.INTRA.POLAR.0>
0

>  <SCORE.INTRA.REPUL>
0

>  <SCORE.INTRA.REPUL.0>
0

>  <SCORE.INTRA.SOLV>
0.622767

>  <SCORE.INTRA.SOLV.lig_0>
-46.5296

>  <SCORE.INTRA.VDW>
0.0216354

>  <SCORE.INTRA.VDW.0>
-0.381873

>  <SCORE.INTRA.norm>
0.020993

>  <SCORE.RESTR>
0.00147165

>  <SCORE.RESTR.CAVITY>
0.00147165

>  <SCORE.RESTR.norm>
0.000113204

>  <SCORE.SYSTEM>
0

>  <SCORE.SYSTEM.CONST>
0

>  <SCORE.SYSTEM.DIHEDRAL>
0

>  <SCORE.SYSTEM.SOLV>
0

>  <SCORE.SYSTEM.norm>
0

>  <SCORE.heavy>
13

>  <SCORE.norm>
-1.14372

>  <RMSD>
0.473

$$$$
ligand
 OpenBabel02271912143D
libRbt.so/2013.1/901 2013/11/27
 13 14  0  0  0  0  0  0  0  0999 V2000
   -3.4799   31.5486   54.7938 N   0  0  0  0  0  0  0  0  0  0  0  0
   -2.4752   30.5967   55.0317 C   0  0  0  0  0  0  0  0  0  0  0  0
   -1.2628   30.9965   55.7081 N   0  0  0  0  0  0  0  0  0  0  0  0
   -2.6488   29.2907   54.6332 N   0  0  0  0  0  0  0  0  0  0  0  0
   -3.8261   28.8627   53.9671 C   0  0  0  0  0  0  0  0  0  0  0  0
   -4.8646   29.8171   53.6886 C   0  0  0  0  0  0  0  0  0  0  0  0
   -4.6458   31.1806   54.1139 C   0  0  0  0  0  0  0  0  0  0  0  0
   -5.6439   32.0775   53.8529 O   0  0  0  0  0  0  0  0  0  0  0  0
   -5.9441   29.1334   53.0142 C   0  0  0  0  0  0  0  0  0  0  0  0
   -5.5091   27.8124   52.8953 C   0  0  0  0  0  0  0  0  0  0  0  0
   -4.2601   27.6599   53.4694 N   0  0  0  0  0  0  0  0  0  0  0  0
   -7.2395   29.7326   52.5030 C   0  0  0  0  0  0  0  0  0  0  0  0
   -7.9525   30.5143   53.5109 N   0  0  0  0  0  0  0  0  0  0  0  0
  1  2  1  0  0  0  0
  1  7  1  0  0  0  0
  2  3  1  0  0  0  0
  2  4  2  0  0  0  0
  4  5  1  0  0  0  0
  5  6  2  0  0  0  0
  5 11  1  0  0  0  0
  6  7  1  0  0  0  0
  6  9  1  0  0  0  0
  7  8  2  0  0  0  0
  9 10  2  0  0  0  0
  9 12  1  0  0  0  0
 10 11  1  0  0  0  0
 12 13  1  0  0  0  0
M  END
>  <CHROM.1>
-51.71339728,-4.61240586,29.99091509,53.94651785,0.28347875,-0.36566757,0.27776803

>  <Name>
ligand

>  <RI>
-1

>  <Rbt.Current_Directory>
/home/itssahil/PROJECTS/Mol_Feturizer/Test_systems_manuscript/rnas/4jf2

>  <Rbt.Executable>
rbdock ($Id: //depot/dev/client3/rdock/2013.1/src/exe/rbdock.cxx#4 $)

>  <Rbt.Library>
libRbt.so (2013.1, Build901 2013/11/27)

>  <Rbt.Parameter_File>
/export/apps/rDock/src/rDock_2013.1_src/data/scripts/dock_solv.prm

>  <Rbt.Receptor>
prm/pocket_docking_6.prm

>  <SCORE>
-14.839

>  <SCORE.INTER>
-15.1474

>  <SCORE.INTER.CONST>
1

>  <SCORE.INTER.POLAR>
0

>  <SCORE.INTER.ROT>
1

>  <SCORE.INTER.SOLV>
17.9474

>  <SCORE.INTER.VDW>
-20.3474

>  <SCORE.INTER.norm>
-1.16519

>  <SCORE.INTRA>
0.308391

>  <SCORE.INTRA.DIHEDRAL>
-0.129776

>  <SCORE.INTRA.DIHEDRAL.0>
1.75624

>  <SCORE.INTRA.POLAR>
0

>  <SCORE.INTRA.POLAR.0>
0

>  <SCORE.INTRA.REPUL>
0

>  <SCORE.INTRA.REPUL.0>
0

>  <SCORE.INTRA.SOLV>
0.670753

>  <SCORE.INTRA.SOLV.lig_0>
-46.5296

>  <SCORE.INTRA.VDW>
0.0379023

>  <SCORE.INTRA.VDW.0>
-0.381873

>  <SCORE.INTRA.norm>
0.0237224

>  <SCORE.RESTR>
0

>  <SCORE.RESTR.CAVITY>
0

>  <SCORE.RESTR.norm>
0

>  <SCORE.SYSTEM>
0

>  <SCORE.SYSTEM.CONST>
0

>  <SCORE.SYSTEM.DIHEDRAL>
0

>  <SCORE.SYSTEM.SOLV>
0

>  <SCORE.SYSTEM.norm>
0

>  <SCORE.heavy>
13

>  <SCORE.norm>
-1.14146

>  <RMSD>
0.475

$$$$
ligand
 OpenBabel02271912143D
libRbt.so/2013.1/901 2013/11/27
 13 14  0  0  0  0  0  0  0  0999 V2000
   -3.4454   31.5285   54.7958 N   0  0  0  0  0  0  0  0  0  0  0  0
   -2.4470   30.5689   55.0293 C   0  0  0  0  0  0  0  0  0  0  0  0
   -1.2284   30.9596   55.7000 N   0  0  0  0  0  0  0  0  0  0  0  0
   -2.6326   29.2642   54.6321 N   0  0  0  0  0  0  0  0  0  0  0  0
   -3.8162   28.8451   53.9717 C   0  0  0  0  0  0  0  0  0  0  0  0
   -4.8486   29.8074   53.6977 C   0  0  0  0  0  0  0  0  0  0  0  0
   -4.6172   31.1693   54.1215 C   0  0  0  0  0  0  0  0  0  0  0  0
   -5.6096   32.0739   53.8648 O   0  0  0  0  0  0  0  0  0  0  0  0
   -5.9365   29.1318   53.0286 C   0  0  0  0  0  0  0  0  0  0  0  0
   -5.5123   27.8075   52.9082 C   0  0  0  0  0  0  0  0  0  0  0  0
   -4.2619   27.6455   53.4765 N   0  0  0  0  0  0  0  0  0  0  0  0
   -7.2296   29.7409   52.5232 C   0  0  0  0  0  0  0  0  0  0  0  0
   -7.9385   30.5173   53.5380 N   0  0  0  0  0  0  0  0  0  0  0  0
  1  2  1  0  0  0  0
  1  7  1  0  0  0  0
  2  3  1  0  0  0  0
  2  4  2  0  0  0  0
  4  5  1  0  0  0  0
  5  6  2  0  0  0  0
  5 11  1  0  0  0  0
  6  7  1  0  0  0  0
  6  9  1  0  0  0  0
  7  8  2  0  0  0  0
  9 10  2  0  0  0  0
  9 12  1  0  0  0  0
 10 11  1  0  0  0  0
 12 13  1  0  0  0  0
M  END
>  <CHROM.1>
-52.29154642,-4.59441530,29.97844198,53.95467544,0.27477823,-0.36262271,0.27417276

>  <Name>
ligand

>  <RI>
-1

>  <Rbt.Current_Directory>
/home/itssahil/PROJECTS/Mol_Feturizer/Test_systems_manuscript/rnas/4jf2

>  <Rbt.Executable>
rbdock ($Id: //depot/dev/client3/rdock/2013.1/src/exe/rbdock.cxx#4 $)

>  <Rbt.Library>
libRbt.so (2013.1, Build901 2013/11/27)

>  <Rbt.Parameter_File>
/export/apps/rDock/src/rDock_2013.1_src/data/scripts/dock_solv.prm

>  <Rbt.Receptor>
prm/pocket_docking_2.prm

>  <SCORE>
-14.8413

>  <SCORE.INTER>
-15.1379

>  <SCORE.INTER.CONST>
1

>  <SCORE.INTER.POLAR>
0

>  <SCORE.INTER.ROT>
1

>  <SCORE.INTER.SOLV>
17.986

>  <SCORE.INTER.VDW>
-20.3539

>  <SCORE.INTER.norm>
-1.16445

>  <SCORE.INTRA>
0.296619

>  <SCORE.INTRA.DIHEDRAL>
-0.126788

>  <SCORE.INTRA.DIHEDRAL.0>
1.75624

>  <SCORE.INTRA.POLAR>
0

>  <SCORE.INTRA.POLAR.0>
0

>  <SCORE.INTRA.REPUL>
0

>  <SCORE.INTRA.REPUL.0>
0

>  <SCORE.INTRA.SOLV>
0.655592

>  <SCORE.INTRA.SOLV.lig_0>
-46.5296

>  <SCORE.INTRA.VDW>
0.0322173

>  <SCORE.INTRA.VDW.0>
-0.381873

>  <SCORE.INTRA.norm>
0.0228169

>  <SCORE.RESTR>
0

>  <SCORE.RESTR.CAVITY>
0

>  <SCORE.RESTR.norm>
0

>  <SCORE.SYSTEM>
0

>  <SCORE.SYSTEM.CONST>
0

>  <SCORE.SYSTEM.DIHEDRAL>
0

>  <SCORE.SYSTEM.SOLV>
0

>  <SCORE.SYSTEM.norm>
0

>  <SCORE.heavy>
13

>  <SCORE.norm>
-1.14164

>  <RMSD>
0.479

$$$$
ligand
 OpenBabel02271912143D
libRbt.so/2013.1/901 2013/11/27
 13 14  0  0  0  0  0  0  0  0999 V2000
   -3.2978   31.5680   55.0010 N   0  0  0  0  0  0  0  0  0  0  0  0
   -2.3124   30.5860   55.1929 C   0  0  0  0  0  0  0  0  0  0  0  0
   -1.0871   30.9323   55.8757 N   0  0  0  0  0  0  0  0  0  0  0  0
   -2.5169   29.3012   54.7437 N   0  0  0  0  0  0  0  0  0  0  0  0
   -3.7076   28.9256   54.0699 C   0  0  0  0  0  0  0  0  0  0  0  0
   -4.7270   29.9123   53.8377 C   0  0  0  0  0  0  0  0  0  0  0  0
   -4.4759   31.2527   54.3158 C   0  0  0  0  0  0  0  0  0  0  0  0
   -5.4561   32.1805   54.0985 O   0  0  0  0  0  0  0  0  0  0  0  0
   -5.8256   29.2796   53.1446 C   0  0  0  0  0  0  0  0  0  0  0  0
   -5.4201   27.9555   52.9695 C   0  0  0  0  0  0  0  0  0  0  0  0
   -4.1709   27.7533   53.5276 N   0  0  0  0  0  0  0  0  0  0  0  0
   -7.1111   29.9265   52.6676 C   0  0  0  0  0  0  0  0  0  0  0  0
   -8.1308   30.0237   53.7097 N   0  0  0  0  0  0  0  0  0  0  0  0
  1  2  1  0  0  0  0
  1  7  1  0  0  0  0
  2  3  1  0  0  0  0
  2  4  2  0  0  0  0
  4  5  1  0  0  0  0
  5  6  2  0  0  0  0
  5 11  1  0  0  0  0
  6  7  1  0  0  0  0
  6  9  1  0  0  0  0
  7  8  2  0  0  0  0
  9 10  2  0  0  0  0
  9 12  1  0  0  0  0
 10 11  1  0  0  0  0
 12 13  1  0  0  0  0
M  END
>  <CHROM.1>
-83.57163191,-4.49633243,30.01666358,54.10034981,0.29824115,-0.34211952,0.29803515

>  <Name>
ligand

>  <RI>
-1

>  <Rbt.Current_Directory>
/home/itssahil/PROJECTS/Mol_Feturizer/Test_systems_manuscript/rnas/4jf2

>  <Rbt.Executable>
rbdock ($Id: //depot/dev/client3/rdock/2013.1/src/exe/rbdock.cxx#4 $)

>  <Rbt.Library>
libRbt.so (2013.1, Build901 2013/11/27)

>  <Rbt.Parameter_File>
/export/apps/rDock/src/rDock_2013.1_src/data/scripts/dock_solv.prm

>  <Rbt.Receptor>
prm/pocket_docking_5.prm

>  <SCORE>
-14.8153

>  <SCORE.INTER>
-14.7369

>  <SCORE.INTER.CONST>
1

>  <SCORE.INTER.POLAR>
0

>  <SCORE.INTER.ROT>
1

>  <SCORE.INTER.SOLV>
19.5015

>  <SCORE.INTER.VDW>
-20.5918

>  <SCORE.INTER.norm>
-1.13361

>  <SCORE.INTRA>
-0.0783639

>  <SCORE.INTRA.DIHEDRAL>
0.0264073

>  <SCORE.INTRA.DIHEDRAL.0>
1.75624

>  <SCORE.INTRA.POLAR>
0

>  <SCORE.INTRA.POLAR.0>
0

>  <SCORE.INTRA.REPUL>
0

>  <SCORE.INTRA.REPUL.0>
0

>  <SCORE.INTRA.SOLV>
-0.228955

>  <SCORE.INTRA.SOLV.lig_0>
-46.5296

>  <SCORE.INTRA.VDW>
0.02291

>  <SCORE.INTRA.VDW.0>
-0.381873

>  <SCORE.INTRA.norm>
-0.00602799

>  <SCORE.RESTR>
0

>  <SCORE.RESTR.CAVITY>
0

>  <SCORE.RESTR.norm>
0

>  <SCORE.SYSTEM>
0

>  <SCORE.SYSTEM.CONST>
0

>  <SCORE.SYSTEM.DIHEDRAL>
0

>  <SCORE.SYSTEM.SOLV>
0

>  <SCORE.SYSTEM.norm>
0

>  <SCORE.heavy>
13

>  <SCORE.norm>
-1.13964

>  <RMSD>
0.516

$$$$
ligand
 OpenBabel02271912143D
libRbt.so/2013.1/901 2013/11/27
 13 14  0  0  0  0  0  0  0  0999 V2000
   -3.3990   31.4738   54.9499 N   0  0  0  0  0  0  0  0  0  0  0  0
   -2.4480   30.4623   55.1612 C   0  0  0  0  0  0  0  0  0  0  0  0
   -1.2551   30.7556   55.9217 N   0  0  0  0  0  0  0  0  0  0  0  0
   -2.6560   29.1986   54.6570 N   0  0  0  0  0  0  0  0  0  0  0  0
   -3.8156   28.8749   53.9064 C   0  0  0  0  0  0  0  0  0  0  0  0
   -4.7981   29.8934   53.6532 C   0  0  0  0  0  0  0  0  0  0  0  0
   -4.5439   31.2104   54.1907 C   0  0  0  0  0  0  0  0  0  0  0  0
   -5.4895   32.1686   53.9525 O   0  0  0  0  0  0  0  0  0  0  0  0
   -5.8704   29.3111   52.8794 C   0  0  0  0  0  0  0  0  0  0  0  0
   -5.4857   27.9842   52.6808 C   0  0  0  0  0  0  0  0  0  0  0  0
   -4.2742   27.7331   53.2991 N   0  0  0  0  0  0  0  0  0  0  0  0
   -7.1127   30.0047   52.3556 C   0  0  0  0  0  0  0  0  0  0  0  0
   -7.9344   30.5937   53.4106 N   0  0  0  0  0  0  0  0  0  0  0  0
  1  2  1  0  0  0  0
  1  7  1  0  0  0  0
  2  3  1  0  0  0  0
  2  4  2  0  0  0  0
  4  5  1  0  0  0  0
  5  6  2  0  0  0  0
  5 11  1  0  0  0  0
  6  7  1  0  0  0  0
  6  9  1  0  0  0  0
  7  8  2  0  0  0  0
  9 10  2  0  0  0  0
  9 12  1  0  0  0  0
 10 11  1  0  0  0  0
 12 13  1  0  0  0  0
M  END
>  <CHROM.1>
-59.23780445,-4.55959414,30.02405169,53.93707267,0.26291940,-0.41679338,0.34204446

>  <Name>
ligand

>  <RI>
-1

>  <Rbt.Current_Directory>
/home/itssahil/PROJECTS/Mol_Feturizer/Test_systems_manuscript/rnas/4jf2

>  <Rbt.Executable>
rbdock ($Id: //depot/dev/client3/rdock/2013.1/src/exe/rbdock.cxx#4 $)

>  <Rbt.Library>
libRbt.so (2013.1, Build901 2013/11/27)

>  <Rbt.Parameter_File>
/export/apps/rDock/src/rDock_2013.1_src/data/scripts/dock_solv.prm

>  <Rbt.Receptor>
prm/pocket_docking_2.prm

>  <SCORE>
-14.7884

>  <SCORE.INTER>
-14.9634

>  <SCORE.INTER.CONST>
1

>  <SCORE.INTER.POLAR>
0

>  <SCORE.INTER.ROT>
1

>  <SCORE.INTER.SOLV>
16.948

>  <SCORE.INTER.VDW>
-19.8916

>  <SCORE.INTER.norm>
-1.15103

>  <SCORE.INTRA>
0.169412

>  <SCORE.INTRA.DIHEDRAL>
-0.0880904

>  <SCORE.INTRA.DIHEDRAL.0>
1.75624

>  <SCORE.INTRA.POLAR>
0

>  <SCORE.INTRA.POLAR.0>
0

>  <SCORE.INTRA.REPUL>
0

>  <SCORE.INTRA.REPUL.0>
0

>  <SCORE.INTRA.SOLV>
0.467841

>  <SCORE.INTRA.SOLV.lig_0>
-46.5296

>  <SCORE.INTRA.VDW>
-0.0204639

>  <SCORE.INTRA.VDW.0>
-0.381873

>  <SCORE.INTRA.norm>
0.0130317

>  <SCORE.RESTR>
0.00559882

>  <SCORE.RESTR.CAVITY>
0.00559882

>  <SCORE.RESTR.norm>
0.000430678

>  <SCORE.SYSTEM>
0

>  <SCORE.SYSTEM.CONST>
0

>  <SCORE.SYSTEM.DIHEDRAL>
0

>  <SCORE.SYSTEM.SOLV>
0

>  <SCORE.SYSTEM.norm>
0

>  <SCORE.heavy>
13

>  <SCORE.norm>
-1.13757

>  <RMSD>
0.517

$$$$
ligand
 OpenBabel02271912143D
libRbt.so/2013.1/901 2013/11/27
 13 14  0  0  0  0  0  0  0  0999 V2000
   -3.3619   31.5202   54.8308 N   0  0  0  0  0  0  0  0  0  0  0  0
   -2.4076   30.5268   55.1039 C   0  0  0  0  0  0  0  0  0  0  0  0
   -1.1958   30.8793   55.8073 N   0  0  0  0  0  0  0  0  0  0  0  0
   -2.6299   29.2256   54.7141 N   0  0  0  0  0  0  0  0  0  0  0  0
   -3.8081   28.8435   54.0223 C   0  0  0  0  0  0  0  0  0  0  0  0
   -4.7951   29.8404   53.7076 C   0  0  0  0  0  0  0  0  0  0  0  0
   -4.5257   31.1974   54.1249 C   0  0  0  0  0  0  0  0  0  0  0  0
   -5.4753   32.1353   53.8293 O   0  0  0  0  0  0  0  0  0  0  0  0
   -5.8869   29.1984   53.0125 C   0  0  0  0  0  0  0  0  0  0  0  0
   -5.5093   27.8580   52.9180 C   0  0  0  0  0  0  0  0  0  0  0  0
   -4.2833   27.6559   53.5256 N   0  0  0  0  0  0  0  0  0  0  0  0
   -7.1407   29.8495   52.4622 C   0  0  0  0  0  0  0  0  0  0  0  0
   -7.9219   30.5507   53.4786 N   0  0  0  0  0  0  0  0  0  0  0  0
  1  2  1  0  0  0  0
  1  7  1  0  0  0  0
  2  3  1  0  0  0  0
  2  4  2  0  0  0  0
  4  5  1  0  0  0  0
  5  6  2  0  0  0  0
  5 11  1  0  0  0  0
  6  7  1  0  0  0  0
  6  9  1  0  0  0  0
  7  8  2  0  0  0  0
  9 10  2  0  0  0  0
  9 12  1  0  0  0  0
 10 11  1  0  0  0  0
 12 13  1  0  0  0  0
M  END
>  <CHROM.1>
-58.13005415,-4.54831250,29.99561089,53.97306184,0.25110998,-0.39515523,0.25290086

>  <Name>
ligand

>  <RI>
-1

>  <Rbt.Current_Directory>
/home/itssahil/PROJECTS/Mol_Feturizer/Test_systems_manuscript/rnas/4jf2

>  <Rbt.Executable>
rbdock ($Id: //depot/dev/client3/rdock/2013.1/src/exe/rbdock.cxx#4 $)

>  <Rbt.Library>
libRbt.so (2013.1, Build901 2013/11/27)

>  <Rbt.Parameter_File>
/export/apps/rDock/src/rDock_2013.1_src/data/scripts/dock_solv.prm

>  <Rbt.Receptor>
prm/pocket_docking_3.prm

>  <SCORE>
-14.9301

>  <SCORE.INTER>
-15.1143

>  <SCORE.INTER.CONST>
1

>  <SCORE.INTER.POLAR>
0

>  <SCORE.INTER.ROT>
1

>  <SCORE.INTER.SOLV>
17.5665

>  <SCORE.INTER.VDW>
-20.1984

>  <SCORE.INTER.norm>
-1.16264

>  <SCORE.INTRA>
0.184247

>  <SCORE.INTRA.DIHEDRAL>
-0.0945027

>  <SCORE.INTRA.DIHEDRAL.0>
1.75624

>  <SCORE.INTRA.POLAR>
0

>  <SCORE.INTRA.POLAR.0>
0

>  <SCORE.INTRA.REPUL>
0

>  <SCORE.INTRA.REPUL.0>
0

>  <SCORE.INTRA.SOLV>
0.498398

>  <SCORE.INTRA.SOLV.lig_0>
-46.5296

>  <SCORE.INTRA.VDW>
-0.017701

>  <SCORE.INTRA.VDW.0>
-0.381873

>  <SCORE.INTRA.norm>
0.0141728

>  <SCORE.RESTR>
0

>  <SCORE.RESTR.CAVITY>
0

>  <SCORE.RESTR.norm>
0

>  <SCORE.SYSTEM>
0

>  <SCORE.SYSTEM.CONST>
0

>  <SCORE.SYSTEM.DIHEDRAL>
0

>  <SCORE.SYSTEM.SOLV>
0

>  <SCORE.SYSTEM.norm>
0

>  <SCORE.heavy>
13

>  <SCORE.norm>
-1.14847

>  <RMSD>
0.522

$$$$
ligand
 OpenBabel02271912143D
libRbt.so/2013.1/901 2013/11/27
 13 14  0  0  0  0  0  0  0  0999 V2000
   -3.3532   31.5410   54.8517 N   0  0  0  0  0  0  0  0  0  0  0  0
   -2.3917   30.5512   55.1125 C   0  0  0  0  0  0  0  0  0  0  0  0
   -1.1797   30.9049   55.8148 N   0  0  0  0  0  0  0  0  0  0  0  0
   -2.6073   29.2522   54.7118 N   0  0  0  0  0  0  0  0  0  0  0  0
   -3.7855   28.8689   54.0207 C   0  0  0  0  0  0  0  0  0  0  0  0
   -4.7798   29.8624   53.7184 C   0  0  0  0  0  0  0  0  0  0  0  0
   -4.5174   31.2172   54.1469 C   0  0  0  0  0  0  0  0  0  0  0  0
   -5.4739   32.1517   53.8631 O   0  0  0  0  0  0  0  0  0  0  0  0
   -5.8701   29.2198   53.0214 C   0  0  0  0  0  0  0  0  0  0  0  0
   -5.4844   27.8827   52.9136 C   0  0  0  0  0  0  0  0  0  0  0  0
   -4.2551   27.6829   53.5150 N   0  0  0  0  0  0  0  0  0  0  0  0
   -7.1298   29.8679   52.4813 C   0  0  0  0  0  0  0  0  0  0  0  0
   -7.9142   30.5512   53.5075 N   0  0  0  0  0  0  0  0  0  0  0  0
  1  2  1  0  0  0  0
  1  7  1  0  0  0  0
  2  3  1  0  0  0  0
  2  4  2  0  0  0  0
  4  5  1  0  0  0  0
  5  6  2  0  0  0  0
  5 11  1  0  0  0  0
  6  7  1  0  0  0  0
  6  9  1  0  0  0  0
  7  8  2  0  0  0  0
  9 10  2  0  0  0  0
  9 12  1  0  0  0  0
 10 11  1  0  0  0  0
 12 13  1  0  0  0  0
M  END
>  <CHROM.1>
-58.32910161,-4.53327924,30.01641129,53.98446409,0.25691985,-0.38995541,0.26401136

>  <Name>
ligand

>  <RI>
-1

>  <Rbt.Current_Directory>
/home/itssahil/PROJECTS/Mol_Feturizer/Test_systems_manuscript/rnas/4jf2

>  <Rbt.Executable>
rbdock ($Id: //depot/dev/client3/rdock/2013.1/src/exe/rbdock.cxx#4 $)

>  <Rbt.Library>
libRbt.so (2013.1, Build901 2013/11/27)

>  <Rbt.Parameter_File>
/export/apps/rDock/src/rDock_2013.1_src/data/scripts/dock_solv.prm

>  <Rbt.Receptor>
prm/pocket_docking_5.prm

>  <SCORE>
-14.9134

>  <SCORE.INTER>
-15.0949

>  <SCORE.INTER.CONST>
1

>  <SCORE.INTER.POLAR>
0

>  <SCORE.INTER.ROT>
1

>  <SCORE.INTER.SOLV>
17.6617

>  <SCORE.INTER.VDW>
-20.2171

>  <SCORE.INTER.norm>
-1.16115

>  <SCORE.INTRA>
0.181516

>  <SCORE.INTRA.DIHEDRAL>
-0.0933544

>  <SCORE.INTRA.DIHEDRAL.0>
1.75624

>  <SCORE.INTRA.POLAR>
0

>  <SCORE.INTRA.POLAR.0>
0

>  <SCORE.INTRA.REPUL>
0

>  <SCORE.INTRA.REPUL.0>
0

>  <SCORE.INTRA.SOLV>
0.492923

>  <SCORE.INTRA.SOLV.lig_0>
-46.5296

>  <SCORE.INTRA.VDW>
-0.0182677

>  <SCORE.INTRA.VDW.0>
-0.381873

>  <SCORE.INTRA.norm>
0.0139628

>  <SCORE.RESTR>
0

>  <SCORE.RESTR.CAVITY>
0

>  <SCORE.RESTR.norm>
0

>  <SCORE.SYSTEM>
0

>  <SCORE.SYSTEM.CONST>
0

>  <SCORE.SYSTEM.DIHEDRAL>
0

>  <SCORE.SYSTEM.SOLV>
0

>  <SCORE.SYSTEM.norm>
0

>  <SCORE.heavy>
13

>  <SCORE.norm>
-1.14718

>  <RMSD>
0.523

$$$$
ligand
 OpenBabel02271912143D
libRbt.so/2013.1/901 2013/11/27
 13 14  0  0  0  0  0  0  0  0999 V2000
   -3.3799   31.4839   54.8986 N   0  0  0  0  0  0  0  0  0  0  0  0
   -2.4632   30.4554   55.1709 C   0  0  0  0  0  0  0  0  0  0  0  0
   -1.2734   30.7478   55.9365 N   0  0  0  0  0  0  0  0  0  0  0  0
   -2.7019   29.1767   54.7211 N   0  0  0  0  0  0  0  0  0  0  0  0
   -3.8594   28.8534   53.9672 C   0  0  0  0  0  0  0  0  0  0  0  0
   -4.8068   29.8878   53.6523 C   0  0  0  0  0  0  0  0  0  0  0  0
   -4.5209   31.2200   54.1336 C   0  0  0  0  0  0  0  0  0  0  0  0
   -5.4333   32.1938   53.8369 O   0  0  0  0  0  0  0  0  0  0  0  0
   -5.8846   29.3027   52.8883 C   0  0  0  0  0  0  0  0  0  0  0  0
   -5.5373   27.9573   52.7563 C   0  0  0  0  0  0  0  0  0  0  0  0
   -4.3433   27.6990   53.4049 N   0  0  0  0  0  0  0  0  0  0  0  0
   -7.0974   30.0080   52.3135 C   0  0  0  0  0  0  0  0  0  0  0  0
   -7.9392   30.6329   53.3313 N   0  0  0  0  0  0  0  0  0  0  0  0
  1  2  1  0  0  0  0
  1  7  1  0  0  0  0
  2  3  1  0  0  0  0
  2  4  2  0  0  0  0
  4  5  1  0  0  0  0
  5  6  2  0  0  0  0
  5 11  1  0  0  0  0
  6  7  1  0  0  0  0
  6  9  1  0  0  0  0
  7  8  2  0  0  0  0
  9 10  2  0  0  0  0
  9 12  1  0  0  0  0
 10 11  1  0  0  0  0
 12 13  1  0  0  0  0
M  END
>  <CHROM.1>
-61.05845727,-4.57054883,30.02132150,53.93407023,0.23903521,-0.43910431,0.28548880

>  <Name>
ligand

>  <RI>
-1

>  <Rbt.Current_Directory>
/home/itssahil/PROJECTS/Mol_Feturizer/Test_systems_manuscript/rnas/4jf2

>  <Rbt.Executable>
rbdock ($Id: //depot/dev/client3/rdock/2013.1/src/exe/rbdock.cxx#4 $)

>  <Rbt.Library>
libRbt.so (2013.1, Build901 2013/11/27)

>  <Rbt.Parameter_File>
/export/apps/rDock/src/rDock_2013.1_src/data/scripts/dock_solv.prm

>  <Rbt.Receptor>
prm/pocket_docking_2.prm

>  <SCORE>
-14.7993

>  <SCORE.INTER>
-14.946

>  <SCORE.INTER.CONST>
1

>  <SCORE.INTER.POLAR>
0

>  <SCORE.INTER.ROT>
1

>  <SCORE.INTER.SOLV>
16.7119

>  <SCORE.INTER.VDW>
-19.8013

>  <SCORE.INTER.norm>
-1.14969

>  <SCORE.INTRA>
0.146729

>  <SCORE.INTRA.DIHEDRAL>
-0.0774748

>  <SCORE.INTRA.DIHEDRAL.0>
1.75624

>  <SCORE.INTRA.POLAR>
0

>  <SCORE.INTRA.POLAR.0>
0

>  <SCORE.INTRA.REPUL>
0

>  <SCORE.INTRA.REPUL.0>
0

>  <SCORE.INTRA.SOLV>
0.417197

>  <SCORE.INTRA.SOLV.lig_0>
-46.5296

>  <SCORE.INTRA.VDW>
-0.023132

>  <SCORE.INTRA.VDW.0>
-0.381873

>  <SCORE.INTRA.norm>
0.0112868

>  <SCORE.RESTR>
0

>  <SCORE.RESTR.CAVITY>
0

>  <SCORE.RESTR.norm>
0

>  <SCORE.SYSTEM>
0

>  <SCORE.SYSTEM.CONST>
0

>  <SCORE.SYSTEM.DIHEDRAL>
0

>  <SCORE.SYSTEM.SOLV>
0

>  <SCORE.SYSTEM.norm>
0

>  <SCORE.heavy>
13

>  <SCORE.norm>
-1.13841

>  <RMSD>
0.538

$$$$
ligand
 OpenBabel02271912143D
libRbt.so/2013.1/901 2013/11/27
 13 14  0  0  0  0  0  0  0  0999 V2000
   -3.3490   31.5337   54.8388 N   0  0  0  0  0  0  0  0  0  0  0  0
   -2.3927   30.5421   55.1115 C   0  0  0  0  0  0  0  0  0  0  0  0
   -1.1859   30.8949   55.8233 N   0  0  0  0  0  0  0  0  0  0  0  0
   -2.6084   29.2424   54.7133 N   0  0  0  0  0  0  0  0  0  0  0  0
   -3.7816   28.8600   54.0132 C   0  0  0  0  0  0  0  0  0  0  0  0
   -4.7703   29.8552   53.6987 C   0  0  0  0  0  0  0  0  0  0  0  0
   -4.5079   31.2108   54.1249 C   0  0  0  0  0  0  0  0  0  0  0  0
   -5.4592   32.1470   53.8295 O   0  0  0  0  0  0  0  0  0  0  0  0
   -5.8563   29.2134   52.9943 C   0  0  0  0  0  0  0  0  0  0  0  0
   -5.4734   27.8748   52.8944 C   0  0  0  0  0  0  0  0  0  0  0  0
   -4.2500   27.6736   53.5074 N   0  0  0  0  0  0  0  0  0  0  0  0
   -7.1093   29.8632   52.4409 C   0  0  0  0  0  0  0  0  0  0  0  0
   -7.8994   30.5544   53.4573 N   0  0  0  0  0  0  0  0  0  0  0  0
  1  2  1  0  0  0  0
  1  7  1  0  0  0  0
  2  3  1  0  0  0  0
  2  4  2  0  0  0  0
  4  5  1  0  0  0  0
  5  6  2  0  0  0  0
  5 11  1  0  0  0  0
  6  7  1  0  0  0  0
  6  9  1  0  0  0  0
  7  8  2  0  0  0  0
  9 10  2  0  0  0  0
  9 12  1  0  0  0  0
 10 11  1  0  0  0  0
 12 13  1  0  0  0  0
M  END
>  <CHROM.1>
-58.21170980,-4.52558829,30.00968109,53.96637065,0.25630005,-0.39933175,0.26041252

>  <Name>
ligand

>  <RI>
-1

>  <Rbt.Current_Directory>
/home/itssahil/PROJECTS/Mol_Feturizer/Test_systems_manuscript/rnas/4jf2

>  <Rbt.Executable>
rbdock ($Id: //depot/dev/client3/rdock/2013.1/src/exe/rbdock.cxx#4 $)

>  <Rbt.Library>
libRbt.so (2013.1, Build901 2013/11/27)

>  <Rbt.Parameter_File>
/export/apps/rDock/src/rDock_2013.1_src/data/scripts/dock_solv.prm

>  <Rbt.Receptor>
prm/pocket_docking_3.prm

>  <SCORE>
-14.9187

>  <SCORE.INTER>
-15.1019

>  <SCORE.INTER.CONST>
1

>  <SCORE.INTER.POLAR>
0

>  <SCORE.INTER.ROT>
1

>  <SCORE.INTER.SOLV>
17.4847

>  <SCORE.INTER.VDW>
-20.1628

>  <SCORE.INTER.norm>
-1.16168

>  <SCORE.INTRA>
0.183123

>  <SCORE.INTRA.DIHEDRAL>
-0.0940319

>  <SCORE.INTRA.DIHEDRAL.0>
1.75624

>  <SCORE.INTRA.POLAR>
0

>  <SCORE.INTRA.POLAR.0>
0

>  <SCORE.INTRA.REPUL>
0

>  <SCORE.INTRA.REPUL.0>
0

>  <SCORE.INTRA.SOLV>
0.496153

>  <SCORE.INTRA.SOLV.lig_0>
-46.5296

>  <SCORE.INTRA.VDW>
-0.0179373

>  <SCORE.INTRA.VDW.0>
-0.381873

>  <SCORE.INTRA.norm>
0.0140864

>  <SCORE.RESTR>
0

>  <SCORE.RESTR.CAVITY>
0

>  <SCORE.RESTR.norm>
0

>  <SCORE.SYSTEM>
0

>  <SCORE.SYSTEM.CONST>
0

>  <SCORE.SYSTEM.DIHEDRAL>
0

>  <SCORE.SYSTEM.SOLV>
0

>  <SCORE.SYSTEM.norm>
0

>  <SCORE.heavy>
13

>  <SCORE.norm>
-1.14759

>  <RMSD>
0.541

$$$$
ligand
 OpenBabel02271912143D
libRbt.so/2013.1/901 2013/11/27
 13 14  0  0  0  0  0  0  0  0999 V2000
   -3.3292   31.5214   54.8791 N   0  0  0  0  0  0  0  0  0  0  0  0
   -2.3837   30.5169   55.1425 C   0  0  0  0  0  0  0  0  0  0  0  0
   -1.1802   30.8467   55.8707 N   0  0  0  0  0  0  0  0  0  0  0  0
   -2.6071   29.2263   54.7197 N   0  0  0  0  0  0  0  0  0  0  0  0
   -3.7774   28.8666   54.0028 C   0  0  0  0  0  0  0  0  0  0  0  0
   -4.7548   29.8757   53.6976 C   0  0  0  0  0  0  0  0  0  0  0  0
   -4.4845   31.2212   54.1498 C   0  0  0  0  0  0  0  0  0  0  0  0
   -5.4252   32.1707   53.8628 O   0  0  0  0  0  0  0  0  0  0  0  0
   -5.8400   29.2558   52.9727 C   0  0  0  0  0  0  0  0  0  0  0  0
   -5.4678   27.9159   52.8525 C   0  0  0  0  0  0  0  0  0  0  0  0
   -4.2515   27.6933   53.4723 N   0  0  0  0  0  0  0  0  0  0  0  0
   -7.0826   29.9261   52.4202 C   0  0  0  0  0  0  0  0  0  0  0  0
   -7.9019   30.5631   53.4488 N   0  0  0  0  0  0  0  0  0  0  0  0
  1  2  1  0  0  0  0
  1  7  1  0  0  0  0
  2  3  1  0  0  0  0
  2  4  2  0  0  0  0
  4  5  1  0  0  0  0
  5  6  2  0  0  0  0
  5 11  1  0  0  0  0
  6  7  1  0  0  0  0
  6  9  1  0  0  0  0
  7  8  2  0  0  0  0
  9 10  2  0  0  0  0
  9 12  1  0  0  0  0
 10 11  1  0  0  0  0
 12 13  1  0  0  0  0
M  END
>  <CHROM.1>
-60.39250792,-4.51325585,30.01977245,53.97055286,0.25228375,-0.40779630,0.27525275

>  <Name>
ligand

>  <RI>
-1

>  <Rbt.Current_Directory>
/home/itssahil/PROJECTS/Mol_Feturizer/Test_systems_manuscript/rnas/4jf2

>  <Rbt.Executable>
rbdock ($Id: //depot/dev/client3/rdock/2013.1/src/exe/rbdock.cxx#4 $)

>  <Rbt.Library>
libRbt.so (2013.1, Build901 2013/11/27)

>  <Rbt.Parameter_File>
/export/apps/rDock/src/rDock_2013.1_src/data/scripts/dock_solv.prm

>  <Rbt.Receptor>
prm/pocket_docking_4.prm

>  <SCORE>
-14.9412

>  <SCORE.INTER>
-15.096

>  <SCORE.INTER.CONST>
1

>  <SCORE.INTER.POLAR>
0

>  <SCORE.INTER.ROT>
1

>  <SCORE.INTER.SOLV>
17.3274

>  <SCORE.INTER.VDW>
-20.1065

>  <SCORE.INTER.norm>
-1.16123

>  <SCORE.INTRA>
0.154804

>  <SCORE.INTRA.DIHEDRAL>
-0.0813641

>  <SCORE.INTRA.DIHEDRAL.0>
1.75624

>  <SCORE.INTRA.POLAR>
0

>  <SCORE.INTRA.POLAR.0>
0

>  <SCORE.INTRA.REPUL>
0

>  <SCORE.INTRA.REPUL.0>
0

>  <SCORE.INTRA.SOLV>
0.435779

>  <SCORE.INTRA.SOLV.lig_0>
-46.5296

>  <SCORE.INTRA.VDW>
-0.0224037

>  <SCORE.INTRA.VDW.0>
-0.381873

>  <SCORE.INTRA.norm>
0.011908

>  <SCORE.RESTR>
0

>  <SCORE.RESTR.CAVITY>
0

>  <SCORE.RESTR.norm>
0

>  <SCORE.SYSTEM>
0

>  <SCORE.SYSTEM.CONST>
0

>  <SCORE.SYSTEM.DIHEDRAL>
0

>  <SCORE.SYSTEM.SOLV>
0

>  <SCORE.SYSTEM.norm>
0

>  <SCORE.heavy>
13

>  <SCORE.norm>
-1.14932

>  <RMSD>
0.547

$$$$
ligand
 OpenBabel02271912143D
libRbt.so/2013.1/901 2013/11/27
 13 14  0  0  0  0  0  0  0  0999 V2000
   -3.2847   31.5533   54.9862 N   0  0  0  0  0  0  0  0  0  0  0  0
   -2.3287   30.5480   55.2042 C   0  0  0  0  0  0  0  0  0  0  0  0
   -1.1404   30.8505   55.9682 N   0  0  0  0  0  0  0  0  0  0  0  0
   -2.5276   29.2816   54.7033 N   0  0  0  0  0  0  0  0  0  0  0  0
   -3.6825   28.9488   53.9494 C   0  0  0  0  0  0  0  0  0  0  0  0
   -4.6699   29.9608   53.6893 C   0  0  0  0  0  0  0  0  0  0  0  0
   -4.4253   31.2810   54.2236 C   0  0  0  0  0  0  0  0  0  0  0  0
   -5.3754   32.2329   53.9788 O   0  0  0  0  0  0  0  0  0  0  0  0
   -5.7359   29.3700   52.9134 C   0  0  0  0  0  0  0  0  0  0  0  0
   -5.3428   28.0446   52.7204 C   0  0  0  0  0  0  0  0  0  0  0  0
   -4.1323   27.8024   53.3440 N   0  0  0  0  0  0  0  0  0  0  0  0
   -6.9802   30.0547   52.3827 C   0  0  0  0  0  0  0  0  0  0  0  0
   -7.8496   30.5721   53.4370 N   0  0  0  0  0  0  0  0  0  0  0  0
  1  2  1  0  0  0  0
  1  7  1  0  0  0  0
  2  3  1  0  0  0  0
  2  4  2  0  0  0  0
  4  5  1  0  0  0  0
  5  6  2  0  0  0  0
  5 11  1  0  0  0  0
  6  7  1  0  0  0  0
  6  9  1  0  0  0  0
  7  8  2  0  0  0  0
  9 10  2  0  0  0  0
  9 12  1  0  0  0  0
 10 11  1  0  0  0  0
 12 13  1  0  0  0  0
M  END
>  <CHROM.1>
-62.70351651,-4.43649185,30.08801879,53.97399264,0.27426122,-0.41517210,0.34130113

>  <Name>
ligand

>  <RI>
-1

>  <Rbt.Current_Directory>
/home/itssahil/PROJECTS/Mol_Feturizer/Test_systems_manuscript/rnas/4jf2

>  <Rbt.Executable>
rbdock ($Id: //depot/dev/client3/rdock/2013.1/src/exe/rbdock.cxx#4 $)

>  <Rbt.Library>
libRbt.so (2013.1, Build901 2013/11/27)

>  <Rbt.Parameter_File>
/export/apps/rDock/src/rDock_2013.1_src/data/scripts/dock_solv.prm

>  <Rbt.Receptor>
prm/pocket_docking_3.prm

>  <SCORE>
-14.8103

>  <SCORE.INTER>
-14.9387

>  <SCORE.INTER.CONST>
1

>  <SCORE.INTER.POLAR>
0

>  <SCORE.INTER.ROT>
1

>  <SCORE.INTER.SOLV>
17.1267

>  <SCORE.INTER.VDW>
-19.9347

>  <SCORE.INTER.norm>
-1.14913

>  <SCORE.INTRA>
0.12772

>  <SCORE.INTRA.DIHEDRAL>
-0.0678708

>  <SCORE.INTRA.DIHEDRAL.0>
1.75624

>  <SCORE.INTRA.POLAR>
0

>  <SCORE.INTRA.POLAR.0>
0

>  <SCORE.INTRA.REPUL>
0

>  <SCORE.INTRA.REPUL.0>
0

>  <SCORE.INTRA.SOLV>
0.371031

>  <SCORE.INTRA.SOLV.lig_0>
-46.5296

>  <SCORE.INTRA.VDW>
-0.0238602

>  <SCORE.INTRA.VDW.0>
-0.381873

>  <SCORE.INTRA.norm>
0.00982462

>  <SCORE.RESTR>
0.000673935

>  <SCORE.RESTR.CAVITY>
0.000673935

>  <SCORE.RESTR.norm>
5.18412e-05

>  <SCORE.SYSTEM>
0

>  <SCORE.SYSTEM.CONST>
0

>  <SCORE.SYSTEM.DIHEDRAL>
0

>  <SCORE.SYSTEM.SOLV>
0

>  <SCORE.SYSTEM.norm>
0

>  <SCORE.heavy>
13

>  <SCORE.norm>
-1.13925

>  <RMSD>
0.607

$$$$
ligand
 OpenBabel02271912143D
libRbt.so/2013.1/901 2013/11/27
 13 14  0  0  0  0  0  0  0  0999 V2000
   -3.3174   31.4710   54.8676 N   0  0  0  0  0  0  0  0  0  0  0  0
   -2.4152   30.4444   55.1905 C   0  0  0  0  0  0  0  0  0  0  0  0
   -1.2505   30.7469   55.9902 N   0  0  0  0  0  0  0  0  0  0  0  0
   -2.6443   29.1581   54.7577 N   0  0  0  0  0  0  0  0  0  0  0  0
   -3.7773   28.8247   53.9714 C   0  0  0  0  0  0  0  0  0  0  0  0
   -4.7087   29.8566   53.6047 C   0  0  0  0  0  0  0  0  0  0  0  0
   -4.4331   31.1967   54.0696 C   0  0  0  0  0  0  0  0  0  0  0  0
   -5.3305   32.1681   53.7234 O   0  0  0  0  0  0  0  0  0  0  0  0
   -5.7628   29.2609   52.8162 C   0  0  0  0  0  0  0  0  0  0  0  0
   -5.4174   27.9118   52.7220 C   0  0  0  0  0  0  0  0  0  0  0  0
   -4.2472   27.6615   53.4155 N   0  0  0  0  0  0  0  0  0  0  0  0
   -6.9522   29.9597   52.1871 C   0  0  0  0  0  0  0  0  0  0  0  0
   -7.8337   30.5940   53.1648 N   0  0  0  0  0  0  0  0  0  0  0  0
  1  2  1  0  0  0  0
  1  7  1  0  0  0  0
  2  3  1  0  0  0  0
  2  4  2  0  0  0  0
  4  5  1  0  0  0  0
  5  6  2  0  0  0  0
  5 11  1  0  0  0  0
  6  7  1  0  0  0  0
  6  9  1  0  0  0  0
  7  8  2  0  0  0  0
  9 10  2  0  0  0  0
  9 12  1  0  0  0  0
 10 11  1  0  0  0  0
 12 13  1  0  0  0  0
M  END
>  <CHROM.1>
-61.74658094,-4.48219572,29.99347410,53.89180485,0.24557037,-0.47215677,0.26851517

>  <Name>
ligand

>  <RI>
-1

>  <Rbt.Current_Directory>
/home/itssahil/PROJECTS/Mol_Feturizer/Test_systems_manuscript/rnas/4jf2

>  <Rbt.Executable>
rbdock ($Id: //depot/dev/client3/rdock/2013.1/src/exe/rbdock.cxx#4 $)

>  <Rbt.Library>
libRbt.so (2013.1, Build901 2013/11/27)

>  <Rbt.Parameter_File>
/export/apps/rDock/src/rDock_2013.1_src/data/scripts/dock_solv.prm

>  <Rbt.Receptor>
prm/pocket_docking_5.prm

>  <SCORE>
-14.8951

>  <SCORE.INTER>
-15.0337

>  <SCORE.INTER.CONST>
1

>  <SCORE.INTER.POLAR>
0

>  <SCORE.INTER.ROT>
1

>  <SCORE.INTER.SOLV>
16.3157

>  <SCORE.INTER.VDW>
-19.7277

>  <SCORE.INTER.norm>
-1.15644

>  <SCORE.INTRA>
0.138625

>  <SCORE.INTRA.DIHEDRAL>
-0.0734545

>  <SCORE.INTRA.DIHEDRAL.0>
1.75624

>  <SCORE.INTRA.POLAR>
0

>  <SCORE.INTRA.POLAR.0>
0

>  <SCORE.INTRA.REPUL>
0

>  <SCORE.INTRA.REPUL.0>
0

>  <SCORE.INTRA.SOLV>
0.39793

>  <SCORE.INTRA.SOLV.lig_0>
-46.5296

>  <SCORE.INTRA.VDW>
-0.0236122

>  <SCORE.INTRA.VDW.0>
-0.381873

>  <SCORE.INTRA.norm>
0.0106635

>  <SCORE.RESTR>
0

>  <SCORE.RESTR.CAVITY>
0

>  <SCORE.RESTR.norm>
0

>  <SCORE.SYSTEM>
0

>  <SCORE.SYSTEM.CONST>
0

>  <SCORE.SYSTEM.DIHEDRAL>
0

>  <SCORE.SYSTEM.SOLV>
0

>  <SCORE.SYSTEM.norm>
0

>  <SCORE.heavy>
13

>  <SCORE.norm>
-1.14578

>  <RMSD>
0.655

$$$$
ligand
 OpenBabel02271912143D
libRbt.so/2013.1/901 2013/11/27
 13 14  0  0  0  0  0  0  0  0999 V2000
   -3.3588   31.4668   54.8406 N   0  0  0  0  0  0  0  0  0  0  0  0
   -2.4510   30.4460   55.1661 C   0  0  0  0  0  0  0  0  0  0  0  0
   -1.2938   30.7547   55.9742 N   0  0  0  0  0  0  0  0  0  0  0  0
   -2.6678   29.1594   54.7280 N   0  0  0  0  0  0  0  0  0  0  0  0
   -3.7931   28.8200   53.9335 C   0  0  0  0  0  0  0  0  0  0  0  0
   -4.7300   29.8460   53.5639 C   0  0  0  0  0  0  0  0  0  0  0  0
   -4.4673   31.1867   54.0347 C   0  0  0  0  0  0  0  0  0  0  0  0
   -5.3698   32.1524   53.6858 O   0  0  0  0  0  0  0  0  0  0  0  0
   -5.7745   29.2450   52.7669 C   0  0  0  0  0  0  0  0  0  0  0  0
   -5.4184   27.8988   52.6708 C   0  0  0  0  0  0  0  0  0  0  0  0
   -4.2508   27.6551   53.3709 N   0  0  0  0  0  0  0  0  0  0  0  0
   -6.9651   29.9368   52.1324 C   0  0  0  0  0  0  0  0  0  0  0  0
   -7.8442   30.5827   53.1046 N   0  0  0  0  0  0  0  0  0  0  0  0
  1  2  1  0  0  0  0
  1  7  1  0  0  0  0
  2  3  1  0  0  0  0
  2  4  2  0  0  0  0
  4  5  1  0  0  0  0
  5  6  2  0  0  0  0
  5 11  1  0  0  0  0
  6  7  1  0  0  0  0
  6  9  1  0  0  0  0
  7  8  2  0  0  0  0
  9 10  2  0  0  0  0
  9 12  1  0  0  0  0
 10 11  1  0  0  0  0
 12 13  1  0  0  0  0
M  END
>  <CHROM.1>
-60.67284295,-4.50519929,29.98542690,53.85276715,0.25434219,-0.47727440,0.27635420

>  <Name>
ligand

>  <RI>
-1

>  <Rbt.Current_Directory>
/home/itssahil/PROJECTS/Mol_Feturizer/Test_systems_manuscript/rnas/4jf2

>  <Rbt.Executable>
rbdock ($Id: //depot/dev/client3/rdock/2013.1/src/exe/rbdock.cxx#4 $)

>  <Rbt.Library>
libRbt.so (2013.1, Build901 2013/11/27)

>  <Rbt.Parameter_File>
/export/apps/rDock/src/rDock_2013.1_src/data/scripts/dock_solv.prm

>  <Rbt.Receptor>
prm/pocket_docking_2.prm

>  <SCORE>
-14.8623

>  <SCORE.INTER>
-15.0137

>  <SCORE.INTER.CONST>
1

>  <SCORE.INTER.POLAR>
0

>  <SCORE.INTER.ROT>
1

>  <SCORE.INTER.SOLV>
16.25

>  <SCORE.INTER.VDW>
-19.6924

>  <SCORE.INTER.norm>
-1.1549

>  <SCORE.INTRA>
0.151375

>  <SCORE.INTRA.DIHEDRAL>
-0.0797274

>  <SCORE.INTRA.DIHEDRAL.0>
1.75624

>  <SCORE.INTRA.POLAR>
0

>  <SCORE.INTRA.POLAR.0>
0

>  <SCORE.INTRA.REPUL>
0

>  <SCORE.INTRA.REPUL.0>
0

>  <SCORE.INTRA.SOLV>
0.427965

>  <SCORE.INTRA.SOLV.lig_0>
-46.5296

>  <SCORE.INTRA.VDW>
-0.0227432

>  <SCORE.INTRA.VDW.0>
-0.381873

>  <SCORE.INTRA.norm>
0.0116443

>  <SCORE.RESTR>
0

>  <SCORE.RESTR.CAVITY>
0

>  <SCORE.RESTR.norm>
0

>  <SCORE.SYSTEM>
0

>  <SCORE.SYSTEM.CONST>
0

>  <SCORE.SYSTEM.DIHEDRAL>
0

>  <SCORE.SYSTEM.SOLV>
0

>  <SCORE.SYSTEM.norm>
0

>  <SCORE.heavy>
13

>  <SCORE.norm>
-1.14326

>  <RMSD>
0.658

$$$$
ligand
 OpenBabel02271912143D
libRbt.so/2013.1/901 2013/11/27
 13 14  0  0  0  0  0  0  0  0999 V2000
   -3.3447   31.4644   54.8367 N   0  0  0  0  0  0  0  0  0  0  0  0
   -2.4468   30.4380   55.1724 C   0  0  0  0  0  0  0  0  0  0  0  0
   -1.2877   30.7431   55.9791 N   0  0  0  0  0  0  0  0  0  0  0  0
   -2.6752   29.1497   54.7454 N   0  0  0  0  0  0  0  0  0  0  0  0
   -3.8028   28.8138   53.9525 C   0  0  0  0  0  0  0  0  0  0  0  0
   -4.7295   29.8452   53.5728 C   0  0  0  0  0  0  0  0  0  0  0  0
   -4.4549   31.1875   54.0319 C   0  0  0  0  0  0  0  0  0  0  0  0
   -5.3478   32.1585   53.6733 O   0  0  0  0  0  0  0  0  0  0  0  0
   -5.7787   29.2469   52.7798 C   0  0  0  0  0  0  0  0  0  0  0  0
   -5.4352   27.8966   52.6961 C   0  0  0  0  0  0  0  0  0  0  0  0
   -4.2707   27.6483   53.3998 N   0  0  0  0  0  0  0  0  0  0  0  0
   -6.9620   29.9442   52.1377 C   0  0  0  0  0  0  0  0  0  0  0  0
   -7.8478   30.5887   53.1047 N   0  0  0  0  0  0  0  0  0  0  0  0
  1  2  1  0  0  0  0
  1  7  1  0  0  0  0
  2  3  1  0  0  0  0
  2  4  2  0  0  0  0
  4  5  1  0  0  0  0
  5  6  2  0  0  0  0
  5 11  1  0  0  0  0
  6  7  1  0  0  0  0
  6  9  1  0  0  0  0
  7  8  2  0  0  0  0
  9 10  2  0  0  0  0
  9 12  1  0  0  0  0
 10 11  1  0  0  0  0
 12 13  1  0  0  0  0
M  END
>  <CHROM.1>
-61.59911040,-4.50472785,29.98359668,53.86075260,0.24559993,-0.48007139,0.26280359

>  <Name>
ligand

>  <RI>
-1

>  <Rbt.Current_Directory>
/home/itssahil/PROJECTS/Mol_Feturizer/Test_systems_manuscript/rnas/4jf2

>  <Rbt.Executable>
rbdock ($Id: //depot/dev/client3/rdock/2013.1/src/exe/rbdock.cxx#4 $)

>  <Rbt.Library>
libRbt.so (2013.1, Build901 2013/11/27)

>  <Rbt.Parameter_File>
/export/apps/rDock/src/rDock_2013.1_src/data/scripts/dock_solv.prm

>  <Rbt.Receptor>
prm/pocket_docking_2.prm

>  <SCORE>
-14.853

>  <SCORE.INTER>
-14.9933

>  <SCORE.INTER.CONST>
1

>  <SCORE.INTER.POLAR>
0

>  <SCORE.INTER.ROT>
1

>  <SCORE.INTER.SOLV>
16.2355

>  <SCORE.INTER.VDW>
-19.674

>  <SCORE.INTER.norm>
-1.15333

>  <SCORE.INTRA>
0.140343

>  <SCORE.INTRA.DIHEDRAL>
-0.074316

>  <SCORE.INTRA.DIHEDRAL.0>
1.75624

>  <SCORE.INTRA.POLAR>
0

>  <SCORE.INTRA.POLAR.0>
0

>  <SCORE.INTRA.REPUL>
0

>  <SCORE.INTRA.REPUL.0>
0

>  <SCORE.INTRA.SOLV>
0.402064

>  <SCORE.INTRA.SOLV.lig_0>
-46.5296

>  <SCORE.INTRA.VDW>
-0.0235315

>  <SCORE.INTRA.VDW.0>
-0.381873

>  <SCORE.INTRA.norm>
0.0107956

>  <SCORE.RESTR>
0

>  <SCORE.RESTR.CAVITY>
0

>  <SCORE.RESTR.norm>
0

>  <SCORE.SYSTEM>
0

>  <SCORE.SYSTEM.CONST>
0

>  <SCORE.SYSTEM.DIHEDRAL>
0

>  <SCORE.SYSTEM.SOLV>
0

>  <SCORE.SYSTEM.norm>
0

>  <SCORE.heavy>
13

>  <SCORE.norm>
-1.14254

>  <RMSD>
0.660

$$$$
ligand
 OpenBabel02271912143D
libRbt.so/2013.1/901 2013/11/27
 13 14  0  0  0  0  0  0  0  0999 V2000
   -3.3546   31.4658   54.8209 N   0  0  0  0  0  0  0  0  0  0  0  0
   -2.4518   30.4450   55.1601 C   0  0  0  0  0  0  0  0  0  0  0  0
   -1.2930   30.7590   55.9639 N   0  0  0  0  0  0  0  0  0  0  0  0
   -2.6750   29.1537   54.7394 N   0  0  0  0  0  0  0  0  0  0  0  0
   -3.8022   28.8092   53.9496 C   0  0  0  0  0  0  0  0  0  0  0  0
   -4.7339   29.8347   53.5663 C   0  0  0  0  0  0  0  0  0  0  0  0
   -4.4646   31.1803   54.0189 C   0  0  0  0  0  0  0  0  0  0  0  0
   -5.3623   32.1457   53.6570 O   0  0  0  0  0  0  0  0  0  0  0  0
   -5.7815   29.2281   52.7775 C   0  0  0  0  0  0  0  0  0  0  0  0
   -5.4321   27.8790   52.6996 C   0  0  0  0  0  0  0  0  0  0  0  0
   -4.2657   27.6390   53.4030 N   0  0  0  0  0  0  0  0  0  0  0  0
   -6.9687   29.9172   52.1338 C   0  0  0  0  0  0  0  0  0  0  0  0
   -7.8350   30.5953   53.0955 N   0  0  0  0  0  0  0  0  0  0  0  0
  1  2  1  0  0  0  0
  1  7  1  0  0  0  0
  2  3  1  0  0  0  0
  2  4  2  0  0  0  0
  4  5  1  0  0  0  0
  5  6  2  0  0  0  0
  5 11  1  0  0  0  0
  6  7  1  0  0  0  0
  6  9  1  0  0  0  0
  7  8  2  0  0  0  0
  9 10  2  0  0  0  0
  9 12  1  0  0  0  0
 10 11  1  0  0  0  0
 12 13  1  0  0  0  0
M  END
>  <CHROM.1>
-59.92008832,-4.50768476,29.97813023,53.85307215,0.24806453,-0.47921320,0.26042115

>  <Name>
ligand

>  <RI>
-1

>  <Rbt.Current_Directory>
/home/itssahil/PROJECTS/Mol_Feturizer/Test_systems_manuscript/rnas/4jf2

>  <Rbt.Executable>
rbdock ($Id: //depot/dev/client3/rdock/2013.1/src/exe/rbdock.cxx#4 $)

>  <Rbt.Library>
libRbt.so (2013.1, Build901 2013/11/27)

>  <Rbt.Parameter_File>
/export/apps/rDock/src/rDock_2013.1_src/data/scripts/dock_solv.prm

>  <Rbt.Receptor>
prm/pocket_docking_2.prm

>  <SCORE>
-14.8412

>  <SCORE.INTER>
-15.0019

>  <SCORE.INTER.CONST>
1

>  <SCORE.INTER.POLAR>
0

>  <SCORE.INTER.ROT>
1

>  <SCORE.INTER.SOLV>
16.2305

>  <SCORE.INTER.VDW>
-19.6781

>  <SCORE.INTER.norm>
-1.15399

>  <SCORE.INTRA>
0.160682

>  <SCORE.INTRA.DIHEDRAL>
-0.0841197

>  <SCORE.INTRA.DIHEDRAL.0>
1.75624

>  <SCORE.INTRA.POLAR>
0

>  <SCORE.INTRA.POLAR.0>
0

>  <SCORE.INTRA.REPUL>
0

>  <SCORE.INTRA.REPUL.0>
0

>  <SCORE.INTRA.SOLV>
0.448921

>  <SCORE.INTRA.SOLV.lig_0>
-46.5296

>  <SCORE.INTRA.VDW>
-0.0217184

>  <SCORE.INTRA.VDW.0>
-0.381873

>  <SCORE.INTRA.norm>
0.0123602

>  <SCORE.RESTR>
0

>  <SCORE.RESTR.CAVITY>
0

>  <SCORE.RESTR.norm>
0

>  <SCORE.SYSTEM>
0

>  <SCORE.SYSTEM.CONST>
0

>  <SCORE.SYSTEM.DIHEDRAL>
0

>  <SCORE.SYSTEM.SOLV>
0

>  <SCORE.SYSTEM.norm>
0

>  <SCORE.heavy>
13

>  <SCORE.norm>
-1.14163

>  <RMSD>
0.662

$$$$
ligand
 OpenBabel02271912143D
libRbt.so/2013.1/901 2013/11/27
 13 14  0  0  0  0  0  0  0  0999 V2000
   -3.3700   31.4655   54.8447 N   0  0  0  0  0  0  0  0  0  0  0  0
   -2.4619   30.4464   55.1752 C   0  0  0  0  0  0  0  0  0  0  0  0
   -1.3087   30.7578   55.9878 N   0  0  0  0  0  0  0  0  0  0  0  0
   -2.6748   29.1590   54.7374 N   0  0  0  0  0  0  0  0  0  0  0  0
   -3.7963   28.8171   53.9384 C   0  0  0  0  0  0  0  0  0  0  0  0
   -4.7331   29.8412   53.5639 C   0  0  0  0  0  0  0  0  0  0  0  0
   -4.4746   31.1828   54.0344 C   0  0  0  0  0  0  0  0  0  0  0  0
   -5.3771   32.1468   53.6807 O   0  0  0  0  0  0  0  0  0  0  0  0
   -5.7733   29.2377   52.7630 C   0  0  0  0  0  0  0  0  0  0  0  0
   -5.4147   27.8920   52.6698 C   0  0  0  0  0  0  0  0  0  0  0  0
   -4.2497   27.6508   53.3752 N   0  0  0  0  0  0  0  0  0  0  0  0
   -6.9623   29.9270   52.1228 C   0  0  0  0  0  0  0  0  0  0  0  0
   -7.8382   30.5857   53.0892 N   0  0  0  0  0  0  0  0  0  0  0  0
  1  2  1  0  0  0  0
  1  7  1  0  0  0  0
  2  3  1  0  0  0  0
  2  4  2  0  0  0  0
  4  5  1  0  0  0  0
  5  6  2  0  0  0  0
  5 11  1  0  0  0  0
  6  7  1  0  0  0  0
  6  9  1  0  0  0  0
  7  8  2  0  0  0  0
  9 10  2  0  0  0  0
  9 12  1  0  0  0  0
 10 11  1  0  0  0  0
 12 13  1  0  0  0  0
M  END
>  <CHROM.1>
-60.00553935,-4.50913546,29.98235376,53.85341625,0.25658283,-0.48157295,0.27680392

>  <Name>
ligand

>  <RI>
-1

>  <Rbt.Current_Directory>
/home/itssahil/PROJECTS/Mol_Feturizer/Test_systems_manuscript/rnas/4jf2

>  <Rbt.Executable>
rbdock ($Id: //depot/dev/client3/rdock/2013.1/src/exe/rbdock.cxx#4 $)

>  <Rbt.Library>
libRbt.so (2013.1, Build901 2013/11/27)

>  <Rbt.Parameter_File>
/export/apps/rDock/src/rDock_2013.1_src/data/scripts/dock_solv.prm

>  <Rbt.Receptor>
prm/pocket_docking_2.prm

>  <SCORE>
-14.8452

>  <SCORE.INTER>
-15.0048

>  <SCORE.INTER.CONST>
1

>  <SCORE.INTER.POLAR>
0

>  <SCORE.INTER.ROT>
1

>  <SCORE.INTER.SOLV>
16.2147

>  <SCORE.INTER.VDW>
-19.6748

>  <SCORE.INTER.norm>
-1.15422

>  <SCORE.INTRA>
0.159609

>  <SCORE.INTRA.DIHEDRAL>
-0.0836216

>  <SCORE.INTRA.DIHEDRAL.0>
1.75624

>  <SCORE.INTRA.POLAR>
0

>  <SCORE.INTRA.POLAR.0>
0

>  <SCORE.INTRA.REPUL>
0

>  <SCORE.INTRA.REPUL.0>
0

>  <SCORE.INTRA.SOLV>
0.446547

>  <SCORE.INTRA.SOLV.lig_0>
-46.5296

>  <SCORE.INTRA.VDW>
-0.0218532

>  <SCORE.INTRA.VDW.0>
-0.381873

>  <SCORE.INTRA.norm>
0.0122776

>  <SCORE.RESTR>
0

>  <SCORE.RESTR.CAVITY>
0

>  <SCORE.RESTR.norm>
0

>  <SCORE.SYSTEM>
0

>  <SCORE.SYSTEM.CONST>
0

>  <SCORE.SYSTEM.DIHEDRAL>
0

>  <SCORE.SYSTEM.SOLV>
0

>  <SCORE.SYSTEM.norm>
0

>  <SCORE.heavy>
13

>  <SCORE.norm>
-1.14194

>  <RMSD>
0.663

$$$$
ligand
 OpenBabel02271912143D
libRbt.so/2013.1/901 2013/11/27
 13 14  0  0  0  0  0  0  0  0999 V2000
   -3.4199   31.4730   54.7972 N   0  0  0  0  0  0  0  0  0  0  0  0
   -2.4905   30.4788   55.1433 C   0  0  0  0  0  0  0  0  0  0  0  0
   -1.3397   30.8290   55.9437 N   0  0  0  0  0  0  0  0  0  0  0  0
   -2.6801   29.1789   54.7326 N   0  0  0  0  0  0  0  0  0  0  0  0
   -3.7984   28.7991   53.9464 C   0  0  0  0  0  0  0  0  0  0  0  0
   -4.7570   29.7969   53.5562 C   0  0  0  0  0  0  0  0  0  0  0  0
   -4.5226   31.1526   53.9983 C   0  0  0  0  0  0  0  0  0  0  0  0
   -5.4455   32.0914   53.6300 O   0  0  0  0  0  0  0  0  0  0  0  0
   -5.7889   29.1572   52.7729 C   0  0  0  0  0  0  0  0  0  0  0  0
   -5.4044   27.8172   52.7049 C   0  0  0  0  0  0  0  0  0  0  0  0
   -4.2315   27.6131   53.4090 N   0  0  0  0  0  0  0  0  0  0  0  0
   -6.9941   29.8101   52.1251 C   0  0  0  0  0  0  0  0  0  0  0  0
   -7.8349   30.5399   53.0715 N   0  0  0  0  0  0  0  0  0  0  0  0
  1  2  1  0  0  0  0
  1  7  1  0  0  0  0
  2  3  1  0  0  0  0
  2  4  2  0  0  0  0
  4  5  1  0  0  0  0
  5  6  2  0  0  0  0
  5 11  1  0  0  0  0
  6  7  1  0  0  0  0
  6  9  1  0  0  0  0
  7  8  2  0  0  0  0
  9 10  2  0  0  0  0
  9 12  1  0  0  0  0
 10 11  1  0  0  0  0
 12 13  1  0  0  0  0
M  END
>  <CHROM.1>
-56.49410076,-4.53090152,29.95387862,53.84078594,0.27230806,-0.47508514,0.26596738

>  <Name>
ligand

>  <RI>
-1

>  <Rbt.Current_Directory>
/home/itssahil/PROJECTS/Mol_Feturizer/Test_systems_manuscript/rnas/4jf2

>  <Rbt.Executable>
rbdock ($Id: //depot/dev/client3/rdock/2013.1/src/exe/rbdock.cxx#4 $)

>  <Rbt.Library>
libRbt.so (2013.1, Build901 2013/11/27)

>  <Rbt.Parameter_File>
/export/apps/rDock/src/rDock_2013.1_src/data/scripts/dock_solv.prm

>  <Rbt.Receptor>
prm/pocket_docking_2.prm

>  <SCORE>
-14.7772

>  <SCORE.INTER>
-15.001

>  <SCORE.INTER.CONST>
1

>  <SCORE.INTER.POLAR>
0

>  <SCORE.INTER.ROT>
1

>  <SCORE.INTER.SOLV>
16.3751

>  <SCORE.INTER.VDW>
-19.7257

>  <SCORE.INTER.norm>
-1.15392

>  <SCORE.INTRA>
0.223744

>  <SCORE.INTRA.DIHEDRAL>
-0.103854

>  <SCORE.INTRA.DIHEDRAL.0>
1.75624

>  <SCORE.INTRA.POLAR>
0

>  <SCORE.INTRA.POLAR.0>
0

>  <SCORE.INTRA.REPUL>
0

>  <SCORE.INTRA.REPUL.0>
0

>  <SCORE.INTRA.SOLV>
0.543133

>  <SCORE.INTRA.SOLV.lig_0>
-46.5296

>  <SCORE.INTRA.VDW>
0.00410411

>  <SCORE.INTRA.VDW.0>
-0.381873

>  <SCORE.INTRA.norm>
0.017211

>  <SCORE.RESTR>
0

>  <SCORE.RESTR.CAVITY>
0

>  <SCORE.RESTR.norm>
0

>  <SCORE.SYSTEM>
0

>  <SCORE.SYSTEM.CONST>
0

>  <SCORE.SYSTEM.DIHEDRAL>
0

>  <SCORE.SYSTEM.SOLV>
0

>  <SCORE.SYSTEM.norm>
0

>  <SCORE.heavy>
13

>  <SCORE.norm>
-1.13671

>  <RMSD>
0.663

$$$$
ligand
 OpenBabel02271912143D
libRbt.so/2013.1/901 2013/11/27
 13 14  0  0  0  0  0  0  0  0999 V2000
   -3.3904   31.4670   54.8191 N   0  0  0  0  0  0  0  0  0  0  0  0
   -2.4906   30.4510   55.1803 C   0  0  0  0  0  0  0  0  0  0  0  0
   -1.3427   30.7748   55.9957 N   0  0  0  0  0  0  0  0  0  0  0  0
   -2.7066   29.1552   54.7699 N   0  0  0  0  0  0  0  0  0  0  0  0
   -3.8230   28.8010   53.9692 C   0  0  0  0  0  0  0  0  0  0  0  0
   -4.7512   29.8212   53.5635 C   0  0  0  0  0  0  0  0  0  0  0  0
   -4.4896   31.1717   54.0058 C   0  0  0  0  0  0  0  0  0  0  0  0
   -5.3838   32.1321   53.6227 O   0  0  0  0  0  0  0  0  0  0  0  0
   -5.7877   29.2051   52.7675 C   0  0  0  0  0  0  0  0  0  0  0  0
   -5.4355   27.8558   52.7078 C   0  0  0  0  0  0  0  0  0  0  0  0
   -4.2779   27.6247   53.4285 N   0  0  0  0  0  0  0  0  0  0  0  0
   -6.9675   29.8858   52.1016 C   0  0  0  0  0  0  0  0  0  0  0  0
   -7.8890   30.5056   53.0513 N   0  0  0  0  0  0  0  0  0  0  0  0
  1  2  1  0  0  0  0
  1  7  1  0  0  0  0
  2  3  1  0  0  0  0
  2  4  2  0  0  0  0
  4  5  1  0  0  0  0
  5  6  2  0  0  0  0
  5 11  1  0  0  0  0
  6  7  1  0  0  0  0
  6  9  1  0  0  0  0
  7  8  2  0  0  0  0
  9 10  2  0  0  0  0
  9 12  1  0  0  0  0
 10 11  1  0  0  0  0
 12 13  1  0  0  0  0
M  END
>  <CHROM.1>
-63.29827627,-4.53225186,29.96239775,53.85222238,0.25725546,-0.48822138,0.25215831

>  <Name>
ligand

>  <RI>
-1

>  <Rbt.Current_Directory>
/home/itssahil/PROJECTS/Mol_Feturizer/Test_systems_manuscript/rnas/4jf2

>  <Rbt.Executable>
rbdock ($Id: //depot/dev/client3/rdock/2013.1/src/exe/rbdock.cxx#4 $)

>  <Rbt.Library>
libRbt.so (2013.1, Build901 2013/11/27)

>  <Rbt.Parameter_File>
/export/apps/rDock/src/rDock_2013.1_src/data/scripts/dock_solv.prm

>  <Rbt.Receptor>
prm/pocket_docking_2.prm

>  <SCORE>
-14.8143

>  <SCORE.INTER>
-14.9354

>  <SCORE.INTER.CONST>
1

>  <SCORE.INTER.POLAR>
0

>  <SCORE.INTER.ROT>
1

>  <SCORE.INTER.SOLV>
16.408

>  <SCORE.INTER.VDW>
-19.6929

>  <SCORE.INTER.norm>
-1.14888

>  <SCORE.INTRA>
0.121133

>  <SCORE.INTRA.DIHEDRAL>
-0.0644101

>  <SCORE.INTRA.DIHEDRAL.0>
1.75624

>  <SCORE.INTRA.POLAR>
0

>  <SCORE.INTRA.POLAR.0>
0

>  <SCORE.INTRA.REPUL>
0

>  <SCORE.INTRA.REPUL.0>
0

>  <SCORE.INTRA.SOLV>
0.354255

>  <SCORE.INTRA.SOLV.lig_0>
-46.5296

>  <SCORE.INTRA.VDW>
-0.0237895

>  <SCORE.INTRA.VDW.0>
-0.381873

>  <SCORE.INTRA.norm>
0.00931793

>  <SCORE.RESTR>
0

>  <SCORE.RESTR.CAVITY>
0

>  <SCORE.RESTR.norm>
0

>  <SCORE.SYSTEM>
0

>  <SCORE.SYSTEM.CONST>
0

>  <SCORE.SYSTEM.DIHEDRAL>
0

>  <SCORE.SYSTEM.SOLV>
0

>  <SCORE.SYSTEM.norm>
0

>  <SCORE.heavy>
13

>  <SCORE.norm>
-1.13956

>  <RMSD>
0.665

$$$$
ligand
 OpenBabel02271912143D
libRbt.so/2013.1/901 2013/11/27
 13 14  0  0  0  0  0  0  0  0999 V2000
   -3.3579   31.4687   54.8257 N   0  0  0  0  0  0  0  0  0  0  0  0
   -2.4596   30.4477   55.1765 C   0  0  0  0  0  0  0  0  0  0  0  0
   -1.3044   30.7638   55.9846 N   0  0  0  0  0  0  0  0  0  0  0  0
   -2.6839   29.1543   54.7629 N   0  0  0  0  0  0  0  0  0  0  0  0
   -3.8076   28.8076   53.9692 C   0  0  0  0  0  0  0  0  0  0  0  0
   -4.7346   29.8330   53.5741 C   0  0  0  0  0  0  0  0  0  0  0  0
   -4.4642   31.1809   54.0195 C   0  0  0  0  0  0  0  0  0  0  0  0
   -5.3574   32.1462   53.6465 O   0  0  0  0  0  0  0  0  0  0  0  0
   -5.7794   29.2241   52.7835 C   0  0  0  0  0  0  0  0  0  0  0  0
   -5.4332   27.8736   52.7162 C   0  0  0  0  0  0  0  0  0  0  0  0
   -4.2712   27.6352   53.4275 N   0  0  0  0  0  0  0  0  0  0  0  0
   -6.9613   29.9121   52.1289 C   0  0  0  0  0  0  0  0  0  0  0  0
   -7.8361   30.5909   53.0824 N   0  0  0  0  0  0  0  0  0  0  0  0
  1  2  1  0  0  0  0
  1  7  1  0  0  0  0
  2  3  1  0  0  0  0
  2  4  2  0  0  0  0
  4  5  1  0  0  0  0
  5  6  2  0  0  0  0
  5 11  1  0  0  0  0
  6  7  1  0  0  0  0
  6  9  1  0  0  0  0
  7  8  2  0  0  0  0
  9 10  2  0  0  0  0
  9 12  1  0  0  0  0
 10 11  1  0  0  0  0
 12 13  1  0  0  0  0
M  END
>  <CHROM.1>
-60.31529392,-4.50993713,29.97710594,53.86129431,0.24724770,-0.48480043,0.25334563

>  <Name>
ligand

>  <RI>
-1

>  <Rbt.Current_Directory>
/home/itssahil/PROJECTS/Mol_Feturizer/Test_systems_manuscript/rnas/4jf2

>  <Rbt.Executable>
rbdock ($Id: //depot/dev/client3/rdock/2013.1/src/exe/rbdock.cxx#4 $)

>  <Rbt.Library>
libRbt.so (2013.1, Build901 2013/11/27)

>  <Rbt.Parameter_File>
/export/apps/rDock/src/rDock_2013.1_src/data/scripts/dock_solv.prm

>  <Rbt.Receptor>
prm/pocket_docking_2.prm

>  <SCORE>
-14.8356

>  <SCORE.INTER>
-14.9914

>  <SCORE.INTER.CONST>
1

>  <SCORE.INTER.POLAR>
0

>  <SCORE.INTER.ROT>
1

>  <SCORE.INTER.SOLV>
16.2173

>  <SCORE.INTER.VDW>
-19.6667

>  <SCORE.INTER.norm>
-1.15318

>  <SCORE.INTRA>
0.155756

>  <SCORE.INTRA.DIHEDRAL>
-0.0818148

>  <SCORE.INTRA.DIHEDRAL.0>
1.75624

>  <SCORE.INTRA.POLAR>
0

>  <SCORE.INTRA.POLAR.0>
0

>  <SCORE.INTRA.REPUL>
0

>  <SCORE.INTRA.REPUL.0>
0

>  <SCORE.INTRA.SOLV>
0.437929

>  <SCORE.INTRA.SOLV.lig_0>
-46.5296

>  <SCORE.INTRA.VDW>
-0.0223015

>  <SCORE.INTRA.VDW.0>
-0.381873

>  <SCORE.INTRA.norm>
0.0119812

>  <SCORE.RESTR>
1.63818e-05

>  <SCORE.RESTR.CAVITY>
1.63818e-05

>  <SCORE.RESTR.norm>
1.26014e-06

>  <SCORE.SYSTEM>
0

>  <SCORE.SYSTEM.CONST>
0

>  <SCORE.SYSTEM.DIHEDRAL>
0

>  <SCORE.SYSTEM.SOLV>
0

>  <SCORE.SYSTEM.norm>
0

>  <SCORE.heavy>
13

>  <SCORE.norm>
-1.1412

>  <RMSD>
0.667

$$$$
ligand
 OpenBabel02271912143D
libRbt.so/2013.1/901 2013/11/27
 13 14  0  0  0  0  0  0  0  0999 V2000
   -3.4713   31.4961   54.8134 N   0  0  0  0  0  0  0  0  0  0  0  0
   -2.5350   30.5167   55.1829 C   0  0  0  0  0  0  0  0  0  0  0  0
   -1.3991   30.8893   55.9943 N   0  0  0  0  0  0  0  0  0  0  0  0
   -2.7041   29.2103   54.7843 N   0  0  0  0  0  0  0  0  0  0  0  0
   -3.8074   28.8086   53.9878 C   0  0  0  0  0  0  0  0  0  0  0  0
   -4.7722   29.7907   53.5739 C   0  0  0  0  0  0  0  0  0  0  0  0
   -4.5595   31.1538   54.0038 C   0  0  0  0  0  0  0  0  0  0  0  0
   -5.4883   32.0775   53.6129 O   0  0  0  0  0  0  0  0  0  0  0  0
   -5.7861   29.1303   52.7844 C   0  0  0  0  0  0  0  0  0  0  0  0
   -5.3852   27.7941   52.7364 C   0  0  0  0  0  0  0  0  0  0  0  0
   -4.2195   27.6117   53.4581 N   0  0  0  0  0  0  0  0  0  0  0  0
   -6.9902   29.7617   52.1135 C   0  0  0  0  0  0  0  0  0  0  0  0
   -7.8729   30.4583   53.0466 N   0  0  0  0  0  0  0  0  0  0  0  0
  1  2  1  0  0  0  0
  1  7  1  0  0  0  0
  2  3  1  0  0  0  0
  2  4  2  0  0  0  0
  4  5  1  0  0  0  0
  5  6  2  0  0  0  0
  5 11  1  0  0  0  0
  6  7  1  0  0  0  0
  6  9  1  0  0  0  0
  7  8  2  0  0  0  0
  9 10  2  0  0  0  0
  9 12  1  0  0  0  0
 10 11  1  0  0  0  0
 12 13  1  0  0  0  0
M  END
>  <CHROM.1>
-58.20773105,-4.55346863,29.95069481,53.86012370,0.29088243,-0.48300389,0.26241748

>  <Name>
ligand

>  <RI>
-1

>  <Rbt.Current_Directory>
/home/itssahil/PROJECTS/Mol_Feturizer/Test_systems_manuscript/rnas/4jf2

>  <Rbt.Executable>
rbdock ($Id: //depot/dev/client3/rdock/2013.1/src/exe/rbdock.cxx#4 $)

>  <Rbt.Library>
libRbt.so (2013.1, Build901 2013/11/27)

>  <Rbt.Parameter_File>
/export/apps/rDock/src/rDock_2013.1_src/data/scripts/dock_solv.prm

>  <Rbt.Receptor>
prm/pocket_docking_7.prm

>  <SCORE>
-14.7305

>  <SCORE.INTER>
-14.9137

>  <SCORE.INTER.CONST>
1

>  <SCORE.INTER.POLAR>
0

>  <SCORE.INTER.ROT>
1

>  <SCORE.INTER.SOLV>
16.6006

>  <SCORE.INTER.VDW>
-19.7427

>  <SCORE.INTER.norm>
-1.14721

>  <SCORE.INTRA>
0.183178

>  <SCORE.INTRA.DIHEDRAL>
-0.0940549

>  <SCORE.INTRA.DIHEDRAL.0>
1.75624

>  <SCORE.INTRA.POLAR>
0

>  <SCORE.INTRA.POLAR.0>
0

>  <SCORE.INTRA.REPUL>
0

>  <SCORE.INTRA.REPUL.0>
0

>  <SCORE.INTRA.SOLV>
0.496262

>  <SCORE.INTRA.SOLV.lig_0>
-46.5296

>  <SCORE.INTRA.VDW>
-0.0179259

>  <SCORE.INTRA.VDW.0>
-0.381873

>  <SCORE.INTRA.norm>
0.0140906

>  <SCORE.RESTR>
0

>  <SCORE.RESTR.CAVITY>
0

>  <SCORE.RESTR.norm>
0

>  <SCORE.SYSTEM>
0

>  <SCORE.SYSTEM.CONST>
0

>  <SCORE.SYSTEM.DIHEDRAL>
0

>  <SCORE.SYSTEM.SOLV>
0

>  <SCORE.SYSTEM.norm>
0

>  <SCORE.heavy>
13

>  <SCORE.norm>
-1.13312

>  <RMSD>
0.668

$$$$
ligand
 OpenBabel02271912143D
libRbt.so/2013.1/901 2013/11/27
 13 14  0  0  0  0  0  0  0  0999 V2000
   -3.3141   31.4645   54.8121 N   0  0  0  0  0  0  0  0  0  0  0  0
   -2.4292   30.4301   55.1574 C   0  0  0  0  0  0  0  0  0  0  0  0
   -1.2680   30.7275   55.9640 N   0  0  0  0  0  0  0  0  0  0  0  0
   -2.6722   29.1413   54.7399 N   0  0  0  0  0  0  0  0  0  0  0  0
   -3.8023   28.8128   53.9475 C   0  0  0  0  0  0  0  0  0  0  0  0
   -4.7159   29.8523   53.5580 C   0  0  0  0  0  0  0  0  0  0  0  0
   -4.4261   31.1947   54.0074 C   0  0  0  0  0  0  0  0  0  0  0  0
   -5.3067   32.1736   53.6397 O   0  0  0  0  0  0  0  0  0  0  0  0
   -5.7707   29.2605   52.7677 C   0  0  0  0  0  0  0  0  0  0  0  0
   -5.4433   27.9056   52.6950 C   0  0  0  0  0  0  0  0  0  0  0  0
   -4.2832   27.6488   53.4028 N   0  0  0  0  0  0  0  0  0  0  0  0
   -6.9445   29.9669   52.1180 C   0  0  0  0  0  0  0  0  0  0  0  0
   -7.8568   30.5785   53.0818 N   0  0  0  0  0  0  0  0  0  0  0  0
  1  2  1  0  0  0  0
  1  7  1  0  0  0  0
  2  3  1  0  0  0  0
  2  4  2  0  0  0  0
  4  5  1  0  0  0  0
  5  6  2  0  0  0  0
  5 11  1  0  0  0  0
  6  7  1  0  0  0  0
  6  9  1  0  0  0  0
  7  8  2  0  0  0  0
  9 10  2  0  0  0  0
  9 12  1  0  0  0  0
 10 11  1  0  0  0  0
 12 13  1  0  0  0  0
M  END
>  <CHROM.1>
-64.18226711,-4.49267819,29.98606306,53.84563713,0.23612321,-0.48261682,0.24880433

>  <Name>
ligand

>  <RI>
-1

>  <Rbt.Current_Directory>
/home/itssahil/PROJECTS/Mol_Feturizer/Test_systems_manuscript/rnas/4jf2

>  <Rbt.Executable>
rbdock ($Id: //depot/dev/client3/rdock/2013.1/src/exe/rbdock.cxx#4 $)

>  <Rbt.Library>
libRbt.so (2013.1, Build901 2013/11/27)

>  <Rbt.Parameter_File>
/export/apps/rDock/src/rDock_2013.1_src/data/scripts/dock_solv.prm

>  <Rbt.Receptor>
prm/pocket_docking_2.prm

>  <SCORE>
-14.811

>  <SCORE.INTER>
-14.9226

>  <SCORE.INTER.CONST>
1

>  <SCORE.INTER.POLAR>
0

>  <SCORE.INTER.ROT>
1

>  <SCORE.INTER.SOLV>
16.2411

>  <SCORE.INTER.VDW>
-19.6288

>  <SCORE.INTER.norm>
-1.14789

>  <SCORE.INTRA>
0.111581

>  <SCORE.INTRA.DIHEDRAL>
-0.0592886

>  <SCORE.INTRA.DIHEDRAL.0>
1.75624

>  <SCORE.INTRA.POLAR>
0

>  <SCORE.INTRA.POLAR.0>
0

>  <SCORE.INTRA.REPUL>
0

>  <SCORE.INTRA.REPUL.0>
0

>  <SCORE.INTRA.SOLV>
0.329245

>  <SCORE.INTRA.SOLV.lig_0>
-46.5296

>  <SCORE.INTRA.VDW>
-0.0233966

>  <SCORE.INTRA.VDW.0>
-0.381873

>  <SCORE.INTRA.norm>
0.00858319

>  <SCORE.RESTR>
0

>  <SCORE.RESTR.CAVITY>
0

>  <SCORE.RESTR.norm>
0

>  <SCORE.SYSTEM>
0

>  <SCORE.SYSTEM.CONST>
0

>  <SCORE.SYSTEM.DIHEDRAL>
0

>  <SCORE.SYSTEM.SOLV>
0

>  <SCORE.SYSTEM.norm>
0

>  <SCORE.heavy>
13

>  <SCORE.norm>
-1.13931

>  <RMSD>
0.672

$$$$
ligand
 OpenBabel02271912143D
libRbt.so/2013.1/901 2013/11/27
 13 14  0  0  0  0  0  0  0  0999 V2000
   -3.3850   31.4077   54.7831 N   0  0  0  0  0  0  0  0  0  0  0  0
   -2.4946   30.3719   55.1094 C   0  0  0  0  0  0  0  0  0  0  0  0
   -1.3424   30.6579   55.9328 N   0  0  0  0  0  0  0  0  0  0  0  0
   -2.7238   29.0923   54.6575 N   0  0  0  0  0  0  0  0  0  0  0  0
   -3.8448   28.7751   53.8477 C   0  0  0  0  0  0  0  0  0  0  0  0
   -4.7636   29.8169   53.4772 C   0  0  0  0  0  0  0  0  0  0  0  0
   -4.4883   31.1497   53.9627 C   0  0  0  0  0  0  0  0  0  0  0  0
   -5.3738   32.1306   53.6126 O   0  0  0  0  0  0  0  0  0  0  0  0
   -5.8072   29.2370   52.6634 C   0  0  0  0  0  0  0  0  0  0  0  0
   -5.4683   27.8870   52.5592 C   0  0  0  0  0  0  0  0  0  0  0  0
   -4.3119   27.6215   53.2699 N   0  0  0  0  0  0  0  0  0  0  0  0
   -6.9814   29.9504   52.0222 C   0  0  0  0  0  0  0  0  0  0  0  0
   -7.8713   30.5858   52.9914 N   0  0  0  0  0  0  0  0  0  0  0  0
  1  2  1  0  0  0  0
  1  7  1  0  0  0  0
  2  3  1  0  0  0  0
  2  4  2  0  0  0  0
  4  5  1  0  0  0  0
  5  6  2  0  0  0  0
  5 11  1  0  0  0  0
  6  7  1  0  0  0  0
  6  9  1  0  0  0  0
  7  8  2  0  0  0  0
  9 10  2  0  0  0  0
  9 12  1  0  0  0  0
 10 11  1  0  0  0  0
 12 13  1  0  0  0  0
M  END
>  <CHROM.1>
-61.37399942,-4.54095481,29.94959880,53.76974160,0.24393690,-0.49088694,0.27986518

>  <Name>
ligand

>  <RI>
-1

>  <Rbt.Current_Directory>
/home/itssahil/PROJECTS/Mol_Feturizer/Test_systems_manuscript/rnas/4jf2

>  <Rbt.Executable>
rbdock ($Id: //depot/dev/client3/rdock/2013.1/src/exe/rbdock.cxx#4 $)

>  <Rbt.Library>
libRbt.so (2013.1, Build901 2013/11/27)

>  <Rbt.Parameter_File>
/export/apps/rDock/src/rDock_2013.1_src/data/scripts/dock_solv.prm

>  <Rbt.Receptor>
prm/pocket_docking_2.prm

>  <SCORE>
-14.7806

>  <SCORE.INTER>
-14.9235

>  <SCORE.INTER.CONST>
1

>  <SCORE.INTER.POLAR>
0

>  <SCORE.INTER.ROT>
1

>  <SCORE.INTER.SOLV>
16.0082

>  <SCORE.INTER.VDW>
-19.5518

>  <SCORE.INTER.norm>
-1.14797

>  <SCORE.INTRA>
0.142984

>  <SCORE.INTRA.DIHEDRAL>
-0.0756312

>  <SCORE.INTRA.DIHEDRAL.0>
1.75624

>  <SCORE.INTRA.POLAR>
0

>  <SCORE.INTRA.POLAR.0>
0

>  <SCORE.INTRA.REPUL>
0

>  <SCORE.INTRA.REPUL.0>
0

>  <SCORE.INTRA.SOLV>
0.40837

>  <SCORE.INTRA.SOLV.lig_0>
-46.5296

>  <SCORE.INTRA.VDW>
-0.0233852

>  <SCORE.INTRA.VDW.0>
-0.381873

>  <SCORE.INTRA.norm>
0.0109988

>  <SCORE.RESTR>
0

>  <SCORE.RESTR.CAVITY>
0

>  <SCORE.RESTR.norm>
0

>  <SCORE.SYSTEM>
0

>  <SCORE.SYSTEM.CONST>
0

>  <SCORE.SYSTEM.DIHEDRAL>
0

>  <SCORE.SYSTEM.SOLV>
0

>  <SCORE.SYSTEM.norm>
0

>  <SCORE.heavy>
13

>  <SCORE.norm>
-1.13697

>  <RMSD>
0.679

$$$$
ligand
 OpenBabel02271912143D
libRbt.so/2013.1/901 2013/11/27
 13 14  0  0  0  0  0  0  0  0999 V2000
   -3.4056   31.4034   54.7937 N   0  0  0  0  0  0  0  0  0  0  0  0
   -2.5114   30.3710   55.1201 C   0  0  0  0  0  0  0  0  0  0  0  0
   -1.3644   30.6598   55.9499 N   0  0  0  0  0  0  0  0  0  0  0  0
   -2.7318   29.0919   54.6623 N   0  0  0  0  0  0  0  0  0  0  0  0
   -3.8474   28.7720   53.8462 C   0  0  0  0  0  0  0  0  0  0  0  0
   -4.7699   29.8104   53.4753 C   0  0  0  0  0  0  0  0  0  0  0  0
   -4.5037   31.1428   53.9672 C   0  0  0  0  0  0  0  0  0  0  0  0
   -5.3927   32.1204   53.6167 O   0  0  0  0  0  0  0  0  0  0  0  0
   -5.8067   29.2283   52.6546 C   0  0  0  0  0  0  0  0  0  0  0  0
   -5.4603   27.8805   52.5468 C   0  0  0  0  0  0  0  0  0  0  0  0
   -4.3058   27.6182   53.2618 N   0  0  0  0  0  0  0  0  0  0  0  0
   -6.9816   29.9380   52.0106 C   0  0  0  0  0  0  0  0  0  0  0  0
   -7.8859   30.5546   52.9787 N   0  0  0  0  0  0  0  0  0  0  0  0
  1  2  1  0  0  0  0
  1  7  1  0  0  0  0
  2  3  1  0  0  0  0
  2  4  2  0  0  0  0
  4  5  1  0  0  0  0
  5  6  2  0  0  0  0
  5 11  1  0  0  0  0
  6  7  1  0  0  0  0
  6  9  1  0  0  0  0
  7  8  2  0  0  0  0
  9 10  2  0  0  0  0
  9 12  1  0  0  0  0
 10 11  1  0  0  0  0
 12 13  1  0  0  0  0
M  END
>  <CHROM.1>
-61.90427368,-4.54981193,29.94231535,53.76946005,0.25168212,-0.49337164,0.28695691

>  <Name>
ligand

>  <RI>
-1

>  <Rbt.Current_Directory>
/home/itssahil/PROJECTS/Mol_Feturizer/Test_systems_manuscript/rnas/4jf2

>  <Rbt.Executable>
rbdock ($Id: //depot/dev/client3/rdock/2013.1/src/exe/rbdock.cxx#4 $)

>  <Rbt.Library>
libRbt.so (2013.1, Build901 2013/11/27)

>  <Rbt.Parameter_File>
/export/apps/rDock/src/rDock_2013.1_src/data/scripts/dock_solv.prm

>  <Rbt.Receptor>
prm/pocket_docking_2.prm

>  <SCORE>
-14.7894

>  <SCORE.INTER>
-14.9262

>  <SCORE.INTER.CONST>
1

>  <SCORE.INTER.POLAR>
0

>  <SCORE.INTER.ROT>
1

>  <SCORE.INTER.SOLV>
16.0344

>  <SCORE.INTER.VDW>
-19.5623

>  <SCORE.INTER.norm>
-1.14817

>  <SCORE.INTRA>
0.1368

>  <SCORE.INTRA.DIHEDRAL>
-0.0725335

>  <SCORE.INTRA.DIHEDRAL.0>
1.75624

>  <SCORE.INTRA.POLAR>
0

>  <SCORE.INTRA.POLAR.0>
0

>  <SCORE.INTRA.REPUL>
0

>  <SCORE.INTRA.REPUL.0>
0

>  <SCORE.INTRA.SOLV>
0.393505

>  <SCORE.INTRA.SOLV.lig_0>
-46.5296

>  <SCORE.INTRA.VDW>
-0.0236855

>  <SCORE.INTRA.VDW.0>
-0.381873

>  <SCORE.INTRA.norm>
0.0105231

>  <SCORE.RESTR>
0

>  <SCORE.RESTR.CAVITY>
0

>  <SCORE.RESTR.norm>
0

>  <SCORE.SYSTEM>
0

>  <SCORE.SYSTEM.CONST>
0

>  <SCORE.SYSTEM.DIHEDRAL>
0

>  <SCORE.SYSTEM.SOLV>
0

>  <SCORE.SYSTEM.norm>
0

>  <SCORE.heavy>
13

>  <SCORE.norm>
-1.13764

>  <RMSD>
0.680

$$$$
ligand
 OpenBabel02271912143D
libRbt.so/2013.1/901 2013/11/27
 13 14  0  0  0  0  0  0  0  0999 V2000
   -3.7303   31.3428   54.8598 N   0  0  0  0  0  0  0  0  0  0  0  0
   -2.6419   30.4560   54.8236 C   0  0  0  0  0  0  0  0  0  0  0  0
   -1.3546   30.8901   55.3152 N   0  0  0  0  0  0  0  0  0  0  0  0
   -2.8031   29.1799   54.3338 N   0  0  0  0  0  0  0  0  0  0  0  0
   -4.0524   28.7197   53.8436 C   0  0  0  0  0  0  0  0  0  0  0  0
   -5.1814   29.6098   53.8460 C   0  0  0  0  0  0  0  0  0  0  0  0
   -4.9746   30.9443   54.3600 C   0  0  0  0  0  0  0  0  0  0  0  0
   -6.0572   31.7790   54.3668 O   0  0  0  0  0  0  0  0  0  0  0  0
   -6.3203   28.9041   53.3052 C   0  0  0  0  0  0  0  0  0  0  0  0
   -5.8327   27.6368   52.9819 C   0  0  0  0  0  0  0  0  0  0  0  0
   -4.4935   27.5340   53.3121 N   0  0  0  0  0  0  0  0  0  0  0  0
   -7.7215   29.4414   53.0890 C   0  0  0  0  0  0  0  0  0  0  0  0
   -7.7772   30.5414   52.1288 N   0  0  0  0  0  0  0  0  0  0  0  0
  1  2  1  0  0  0  0
  1  7  1  0  0  0  0
  2  3  1  0  0  0  0
  2  4  2  0  0  0  0
  4  5  1  0  0  0  0
  5  6  2  0  0  0  0
  5 11  1  0  0  0  0
  6  7  1  0  0  0  0
  6  9  1  0  0  0  0
  7  8  2  0  0  0  0
  9 10  2  0  0  0  0
  9 12  1  0  0  0  0
 10 11  1  0  0  0  0
 12 13  1  0  0  0  0
M  END
>  <CHROM.1>
62.84498792,-4.85652759,29.81797922,53.89718213,0.29321283,-0.34101914,0.29463561

>  <Name>
ligand

>  <RI>
0

>  <Rbt.Current_Directory>
/home/itssahil/PROJECTS/Mol_Feturizer/Test_systems_manuscript/rnas/4jf2

>  <Rbt.Executable>
rbdock ($Id: //depot/dev/client3/rdock/2013.1/src/exe/rbdock.cxx#4 $)

>  <Rbt.Library>
libRbt.so (2013.1, Build901 2013/11/27)

>  <Rbt.Parameter_File>
/export/apps/rDock/src/rDock_2013.1_src/data/scripts/dock_solv.prm

>  <Rbt.Receptor>
prm/pocket_docking_8.prm

>  <SCORE>
-15.7311

>  <SCORE.INTER>
-15.8203

>  <SCORE.INTER.CONST>
1

>  <SCORE.INTER.POLAR>
0

>  <SCORE.INTER.ROT>
1

>  <SCORE.INTER.SOLV>
17.0548

>  <SCORE.INTER.VDW>
-20.4985

>  <SCORE.INTER.norm>
-1.21695

>  <SCORE.INTRA>
0.089198

>  <SCORE.INTRA.DIHEDRAL>
-0.100097

>  <SCORE.INTRA.DIHEDRAL.0>
1.75624

>  <SCORE.INTRA.POLAR>
0

>  <SCORE.INTRA.POLAR.0>
0

>  <SCORE.INTRA.REPUL>
0

>  <SCORE.INTRA.REPUL.0>
0

>  <SCORE.INTRA.SOLV>
0.331856

>  <SCORE.INTRA.SOLV.lig_0>
-46.5296

>  <SCORE.INTRA.VDW>
-0.0266815

>  <SCORE.INTRA.VDW.0>
-0.381873

>  <SCORE.INTRA.norm>
0.00686138

>  <SCORE.RESTR>
0

>  <SCORE.RESTR.CAVITY>
0

>  <SCORE.RESTR.norm>
0

>  <SCORE.SYSTEM>
0

>  <SCORE.SYSTEM.CONST>
0

>  <SCORE.SYSTEM.DIHEDRAL>
0

>  <SCORE.SYSTEM.SOLV>
0

>  <SCORE.SYSTEM.norm>
0

>  <SCORE.heavy>
13

>  <SCORE.norm>
-1.21009

>  <RMSD>
0.687

$$$$
ligand
 OpenBabel02271912143D
libRbt.so/2013.1/901 2013/11/27
 13 14  0  0  0  0  0  0  0  0999 V2000
   -3.4295   31.4202   54.7789 N   0  0  0  0  0  0  0  0  0  0  0  0
   -2.5373   30.3959   55.1350 C   0  0  0  0  0  0  0  0  0  0  0  0
   -1.3977   30.7035   55.9682 N   0  0  0  0  0  0  0  0  0  0  0  0
   -2.7528   29.1071   54.7028 N   0  0  0  0  0  0  0  0  0  0  0  0
   -3.8612   28.7687   53.8842 C   0  0  0  0  0  0  0  0  0  0  0  0
   -4.7813   29.7981   53.4834 C   0  0  0  0  0  0  0  0  0  0  0  0
   -4.5203   31.1410   53.9488 C   0  0  0  0  0  0  0  0  0  0  0  0
   -5.4070   32.1100   53.5699 O   0  0  0  0  0  0  0  0  0  0  0  0
   -5.8106   29.1975   52.6665 C   0  0  0  0  0  0  0  0  0  0  0  0
   -5.4622   27.8480   52.5905 C   0  0  0  0  0  0  0  0  0  0  0  0
   -4.3136   27.6022   53.3208 N   0  0  0  0  0  0  0  0  0  0  0  0
   -6.9804   29.8922   51.9974 C   0  0  0  0  0  0  0  0  0  0  0  0
   -7.8763   30.5555   52.9423 N   0  0  0  0  0  0  0  0  0  0  0  0
  1  2  1  0  0  0  0
  1  7  1  0  0  0  0
  2  3  1  0  0  0  0
  2  4  2  0  0  0  0
  4  5  1  0  0  0  0
  5  6  2  0  0  0  0
  5 11  1  0  0  0  0
  6  7  1  0  0  0  0
  6  9  1  0  0  0  0
  7  8  2  0  0  0  0
  9 10  2  0  0  0  0
  9 12  1  0  0  0  0
 10 11  1  0  0  0  0
 12 13  1  0  0  0  0
M  END
>  <CHROM.1>
-60.53533711,-4.56238056,29.93866118,53.77631355,0.25368570,-0.50261763,0.26746829

>  <Name>
ligand

>  <RI>
-1

>  <Rbt.Current_Directory>
/home/itssahil/PROJECTS/Mol_Feturizer/Test_systems_manuscript/rnas/4jf2

>  <Rbt.Executable>
rbdock ($Id: //depot/dev/client3/rdock/2013.1/src/exe/rbdock.cxx#4 $)

>  <Rbt.Library>
libRbt.so (2013.1, Build901 2013/11/27)

>  <Rbt.Parameter_File>
/export/apps/rDock/src/rDock_2013.1_src/data/scripts/dock_solv.prm

>  <Rbt.Receptor>
prm/pocket_docking_6.prm

>  <SCORE>
-14.7871

>  <SCORE.INTER>
-14.9402

>  <SCORE.INTER.CONST>
1

>  <SCORE.INTER.POLAR>
0

>  <SCORE.INTER.ROT>
1

>  <SCORE.INTER.SOLV>
16.0252

>  <SCORE.INTER.VDW>
-19.5685

>  <SCORE.INTER.norm>
-1.14924

>  <SCORE.INTRA>
0.153052

>  <SCORE.INTRA.DIHEDRAL>
-0.0805303

>  <SCORE.INTRA.DIHEDRAL.0>
1.75624

>  <SCORE.INTRA.POLAR>
0

>  <SCORE.INTRA.POLAR.0>
0

>  <SCORE.INTRA.REPUL>
0

>  <SCORE.INTRA.REPUL.0>
0

>  <SCORE.INTRA.SOLV>
0.431799

>  <SCORE.INTRA.SOLV.lig_0>
-46.5296

>  <SCORE.INTRA.VDW>
-0.0225828

>  <SCORE.INTRA.VDW.0>
-0.381873

>  <SCORE.INTRA.norm>
0.0117732

>  <SCORE.RESTR>
0

>  <SCORE.RESTR.CAVITY>
0

>  <SCORE.RESTR.norm>
0

>  <SCORE.SYSTEM>
0

>  <SCORE.SYSTEM.CONST>
0

>  <SCORE.SYSTEM.DIHEDRAL>
0

>  <SCORE.SYSTEM.SOLV>
0

>  <SCORE.SYSTEM.norm>
0

>  <SCORE.heavy>
13

>  <SCORE.norm>
-1.13747

>  <RMSD>
0.690

$$$$
ligand
 OpenBabel02271912143D
libRbt.so/2013.1/901 2013/11/27
 13 14  0  0  0  0  0  0  0  0999 V2000
   -3.4350   31.4575   54.7505 N   0  0  0  0  0  0  0  0  0  0  0  0
   -2.5544   30.4286   55.1220 C   0  0  0  0  0  0  0  0  0  0  0  0
   -1.4174   30.7337   55.9596 N   0  0  0  0  0  0  0  0  0  0  0  0
   -2.7789   29.1377   54.7005 N   0  0  0  0  0  0  0  0  0  0  0  0
   -3.8850   28.8017   53.8780 C   0  0  0  0  0  0  0  0  0  0  0  0
   -4.7931   29.8355   53.4615 C   0  0  0  0  0  0  0  0  0  0  0  0
   -4.5229   31.1803   53.9160 C   0  0  0  0  0  0  0  0  0  0  0  0
   -5.3983   32.1537   53.5223 O   0  0  0  0  0  0  0  0  0  0  0  0
   -5.8226   29.2366   52.6436 C   0  0  0  0  0  0  0  0  0  0  0  0
   -5.4860   27.8833   52.5826 C   0  0  0  0  0  0  0  0  0  0  0  0
   -4.3444   27.6341   53.3226 N   0  0  0  0  0  0  0  0  0  0  0  0
   -6.9818   29.9354   51.9606 C   0  0  0  0  0  0  0  0  0  0  0  0
   -7.9145   30.5583   52.8972 N   0  0  0  0  0  0  0  0  0  0  0  0
  1  2  1  0  0  0  0
  1  7  1  0  0  0  0
  2  3  1  0  0  0  0
  2  4  2  0  0  0  0
  4  5  1  0  0  0  0
  5  6  2  0  0  0  0
  5 11  1  0  0  0  0
  6  7  1  0  0  0  0
  6  9  1  0  0  0  0
  7  8  2  0  0  0  0
  9 10  2  0  0  0  0
  9 12  1  0  0  0  0
 10 11  1  0  0  0  0
 12 13  1  0  0  0  0
M  END
>  <CHROM.1>
-63.45368248,-4.57784864,29.97217757,53.75485834,0.24896733,-0.50852189,0.25360164

>  <Name>
ligand

>  <RI>
-1

>  <Rbt.Current_Directory>
/home/itssahil/PROJECTS/Mol_Feturizer/Test_systems_manuscript/rnas/4jf2

>  <Rbt.Executable>
rbdock ($Id: //depot/dev/client3/rdock/2013.1/src/exe/rbdock.cxx#4 $)

>  <Rbt.Library>
libRbt.so (2013.1, Build901 2013/11/27)

>  <Rbt.Parameter_File>
/export/apps/rDock/src/rDock_2013.1_src/data/scripts/dock_solv.prm

>  <Rbt.Receptor>
prm/pocket_docking_6.prm

>  <SCORE>
-14.8427

>  <SCORE.INTER>
-14.9621

>  <SCORE.INTER.CONST>
1

>  <SCORE.INTER.POLAR>
0

>  <SCORE.INTER.ROT>
1

>  <SCORE.INTER.SOLV>
16.0402

>  <SCORE.INTER.VDW>
-19.5882

>  <SCORE.INTER.norm>
-1.15093

>  <SCORE.INTRA>
0.119434

>  <SCORE.INTRA.DIHEDRAL>
-0.0635076

>  <SCORE.INTRA.DIHEDRAL.0>
1.75624

>  <SCORE.INTRA.POLAR>
0

>  <SCORE.INTRA.POLAR.0>
0

>  <SCORE.INTRA.REPUL>
0

>  <SCORE.INTRA.REPUL.0>
0

>  <SCORE.INTRA.SOLV>
0.349865

>  <SCORE.INTRA.SOLV.lig_0>
-46.5296

>  <SCORE.INTRA.VDW>
-0.0237446

>  <SCORE.INTRA.VDW.0>
-0.381873

>  <SCORE.INTRA.norm>
0.00918724

>  <SCORE.RESTR>
0

>  <SCORE.RESTR.CAVITY>
0

>  <SCORE.RESTR.norm>
0

>  <SCORE.SYSTEM>
0

>  <SCORE.SYSTEM.CONST>
0

>  <SCORE.SYSTEM.DIHEDRAL>
0

>  <SCORE.SYSTEM.SOLV>
0

>  <SCORE.SYSTEM.norm>
0

>  <SCORE.heavy>
13

>  <SCORE.norm>
-1.14175

>  <RMSD>
0.691

$$$$
ligand
 OpenBabel02271912143D
libRbt.so/2013.1/901 2013/11/27
 13 14  0  0  0  0  0  0  0  0999 V2000
   -3.4472   31.4687   54.7554 N   0  0  0  0  0  0  0  0  0  0  0  0
   -2.5394   30.4638   55.1272 C   0  0  0  0  0  0  0  0  0  0  0  0
   -1.4045   30.8017   55.9551 N   0  0  0  0  0  0  0  0  0  0  0  0
   -2.7353   29.1652   54.7153 N   0  0  0  0  0  0  0  0  0  0  0  0
   -3.8384   28.7972   53.9025 C   0  0  0  0  0  0  0  0  0  0  0  0
   -4.7741   29.8060   53.4859 C   0  0  0  0  0  0  0  0  0  0  0  0
   -4.5337   31.1598   53.9302 C   0  0  0  0  0  0  0  0  0  0  0  0
   -5.4351   32.1092   53.5365 O   0  0  0  0  0  0  0  0  0  0  0  0
   -5.7943   29.1771   52.6788 C   0  0  0  0  0  0  0  0  0  0  0  0
   -5.4253   27.8321   52.6239 C   0  0  0  0  0  0  0  0  0  0  0  0
   -4.2730   27.6153   53.3575 N   0  0  0  0  0  0  0  0  0  0  0  0
   -6.9747   29.8433   51.9994 C   0  0  0  0  0  0  0  0  0  0  0  0
   -7.8737   30.5183   52.9329 N   0  0  0  0  0  0  0  0  0  0  0  0
  1  2  1  0  0  0  0
  1  7  1  0  0  0  0
  2  3  1  0  0  0  0
  2  4  2  0  0  0  0
  4  5  1  0  0  0  0
  5  6  2  0  0  0  0
  5 11  1  0  0  0  0
  6  7  1  0  0  0  0
  6  9  1  0  0  0  0
  7  8  2  0  0  0  0
  9 10  2  0  0  0  0
  9 12  1  0  0  0  0
 10 11  1  0  0  0  0
 12 13  1  0  0  0  0
M  END
>  <CHROM.1>
-59.99056477,-4.55685495,29.95535116,53.77643117,0.26979104,-0.49893675,0.25992979

>  <Name>
ligand

>  <RI>
-1

>  <Rbt.Current_Directory>
/home/itssahil/PROJECTS/Mol_Feturizer/Test_systems_manuscript/rnas/4jf2

>  <Rbt.Executable>
rbdock ($Id: //depot/dev/client3/rdock/2013.1/src/exe/rbdock.cxx#4 $)

>  <Rbt.Library>
libRbt.so (2013.1, Build901 2013/11/27)

>  <Rbt.Parameter_File>
/export/apps/rDock/src/rDock_2013.1_src/data/scripts/dock_solv.prm

>  <Rbt.Receptor>
prm/pocket_docking_7.prm

>  <SCORE>
-14.8678

>  <SCORE.INTER>
-15.0276

>  <SCORE.INTER.CONST>
1

>  <SCORE.INTER.POLAR>
0

>  <SCORE.INTER.ROT>
1

>  <SCORE.INTER.SOLV>
16.1902

>  <SCORE.INTER.VDW>
-19.6818

>  <SCORE.INTER.norm>
-1.15597

>  <SCORE.INTRA>
0.159797

>  <SCORE.INTRA.DIHEDRAL>
-0.0837089

>  <SCORE.INTRA.DIHEDRAL.0>
1.75624

>  <SCORE.INTRA.POLAR>
0

>  <SCORE.INTRA.POLAR.0>
0

>  <SCORE.INTRA.REPUL>
0

>  <SCORE.INTRA.REPUL.0>
0

>  <SCORE.INTRA.SOLV>
0.446963

>  <SCORE.INTRA.SOLV.lig_0>
-46.5296

>  <SCORE.INTRA.VDW>
-0.0218299

>  <SCORE.INTRA.VDW.0>
-0.381873

>  <SCORE.INTRA.norm>
0.0122921

>  <SCORE.RESTR>
0

>  <SCORE.RESTR.CAVITY>
0

>  <SCORE.RESTR.norm>
0

>  <SCORE.SYSTEM>
0

>  <SCORE.SYSTEM.CONST>
0

>  <SCORE.SYSTEM.DIHEDRAL>
0

>  <SCORE.SYSTEM.SOLV>
0

>  <SCORE.SYSTEM.norm>
0

>  <SCORE.heavy>
13

>  <SCORE.norm>
-1.14368

>  <RMSD>
0.695

$$$$
ligand
 OpenBabel02271912143D
libRbt.so/2013.1/901 2013/11/27
 13 14  0  0  0  0  0  0  0  0999 V2000
   -3.4447   31.4716   54.7567 N   0  0  0  0  0  0  0  0  0  0  0  0
   -2.5391   30.4663   55.1331 C   0  0  0  0  0  0  0  0  0  0  0  0
   -1.4055   30.8049   55.9623 N   0  0  0  0  0  0  0  0  0  0  0  0
   -2.7361   29.1670   54.7242 N   0  0  0  0  0  0  0  0  0  0  0  0
   -3.8381   28.7985   53.9102 C   0  0  0  0  0  0  0  0  0  0  0  0
   -4.7715   29.8075   53.4889 C   0  0  0  0  0  0  0  0  0  0  0  0
   -4.5299   31.1622   53.9300 C   0  0  0  0  0  0  0  0  0  0  0  0
   -5.4291   32.1118   53.5319 O   0  0  0  0  0  0  0  0  0  0  0  0
   -5.7909   29.1780   52.6815 C   0  0  0  0  0  0  0  0  0  0  0  0
   -5.4238   27.8322   52.6309 C   0  0  0  0  0  0  0  0  0  0  0  0
   -4.2734   27.6157   53.3675 N   0  0  0  0  0  0  0  0  0  0  0  0
   -6.9689   29.8441   51.9978 C   0  0  0  0  0  0  0  0  0  0  0  0
   -7.8720   30.5179   52.9282 N   0  0  0  0  0  0  0  0  0  0  0  0
  1  2  1  0  0  0  0
  1  7  1  0  0  0  0
  2  3  1  0  0  0  0
  2  4  2  0  0  0  0
  4  5  1  0  0  0  0
  5  6  2  0  0  0  0
  5 11  1  0  0  0  0
  6  7  1  0  0  0  0
  6  9  1  0  0  0  0
  7  8  2  0  0  0  0
  9 10  2  0  0  0  0
  9 12  1  0  0  0  0
 10 11  1  0  0  0  0
 12 13  1  0  0  0  0
M  END
>  <CHROM.1>
-60.24544424,-4.55484079,29.95691199,53.77955080,0.26902589,-0.50107152,0.25668144

>  <Name>
ligand

>  <RI>
-1

>  <Rbt.Current_Directory>
/home/itssahil/PROJECTS/Mol_Feturizer/Test_systems_manuscript/rnas/4jf2

>  <Rbt.Executable>
rbdock ($Id: //depot/dev/client3/rdock/2013.1/src/exe/rbdock.cxx#4 $)

>  <Rbt.Library>
libRbt.so (2013.1, Build901 2013/11/27)

>  <Rbt.Parameter_File>
/export/apps/rDock/src/rDock_2013.1_src/data/scripts/dock_solv.prm

>  <Rbt.Receptor>
prm/pocket_docking_7.prm

>  <SCORE>
-14.87

>  <SCORE.INTER>
-15.0266

>  <SCORE.INTER.CONST>
1

>  <SCORE.INTER.POLAR>
0

>  <SCORE.INTER.ROT>
1

>  <SCORE.INTER.SOLV>
16.1861

>  <SCORE.INTER.VDW>
-19.6798

>  <SCORE.INTER.norm>
-1.15589

>  <SCORE.INTRA>
0.15662

>  <SCORE.INTRA.DIHEDRAL>
-0.0822224

>  <SCORE.INTRA.DIHEDRAL.0>
1.75624

>  <SCORE.INTRA.POLAR>
0

>  <SCORE.INTRA.POLAR.0>
0

>  <SCORE.INTRA.REPUL>
0

>  <SCORE.INTRA.REPUL.0>
0

>  <SCORE.INTRA.SOLV>
0.439874

>  <SCORE.INTRA.SOLV.lig_0>
-46.5296

>  <SCORE.INTRA.VDW>
-0.0222059

>  <SCORE.INTRA.VDW.0>
-0.381873

>  <SCORE.INTRA.norm>
0.0120477

>  <SCORE.RESTR>
0

>  <SCORE.RESTR.CAVITY>
0

>  <SCORE.RESTR.norm>
0

>  <SCORE.SYSTEM>
0

>  <SCORE.SYSTEM.CONST>
0

>  <SCORE.SYSTEM.DIHEDRAL>
0

>  <SCORE.SYSTEM.SOLV>
0

>  <SCORE.SYSTEM.norm>
0

>  <SCORE.heavy>
13

>  <SCORE.norm>
-1.14384

>  <RMSD>
0.698

$$$$
ligand
 OpenBabel02271912143D
libRbt.so/2013.1/901 2013/11/27
 13 14  0  0  0  0  0  0  0  0999 V2000
   -3.8005   31.3972   54.8637 N   0  0  0  0  0  0  0  0  0  0  0  0
   -2.6910   30.5367   54.8397 C   0  0  0  0  0  0  0  0  0  0  0  0
   -1.4191   31.0023   55.3428 N   0  0  0  0  0  0  0  0  0  0  0  0
   -2.8168   29.2563   54.3507 N   0  0  0  0  0  0  0  0  0  0  0  0
   -4.0499   28.7655   53.8494 C   0  0  0  0  0  0  0  0  0  0  0  0
   -5.1999   29.6282   53.8393 C   0  0  0  0  0  0  0  0  0  0  0  0
   -5.0300   30.9682   54.3528 C   0  0  0  0  0  0  0  0  0  0  0  0
   -6.1323   31.7767   54.3477 O   0  0  0  0  0  0  0  0  0  0  0  0
   -6.3163   28.8946   53.2889 C   0  0  0  0  0  0  0  0  0  0  0  0
   -5.7954   27.6388   52.9727 C   0  0  0  0  0  0  0  0  0  0  0  0
   -4.4574   27.5687   53.3159 N   0  0  0  0  0  0  0  0  0  0  0  0
   -7.7278   29.3978   53.0584 C   0  0  0  0  0  0  0  0  0  0  0  0
   -7.8044   30.4732   52.0721 N   0  0  0  0  0  0  0  0  0  0  0  0
  1  2  1  0  0  0  0
  1  7  1  0  0  0  0
  2  3  1  0  0  0  0
  2  4  2  0  0  0  0
  4  5  1  0  0  0  0
  5  6  2  0  0  0  0
  5 11  1  0  0  0  0
  6  7  1  0  0  0  0
  6  9  1  0  0  0  0
  7  8  2  0  0  0  0
  9 10  2  0  0  0  0
  9 12  1  0  0  0  0
 10 11  1  0  0  0  0
 12 13  1  0  0  0  0
M  END
>  <CHROM.1>
64.21213365,-4.88092124,29.84249861,53.89130308,0.32254602,-0.34419772,0.30258313

>  <Name>
ligand

>  <RI>
-1

>  <Rbt.Current_Directory>
/home/itssahil/PROJECTS/Mol_Feturizer/Test_systems_manuscript/rnas/4jf2

>  <Rbt.Executable>
rbdock ($Id: //depot/dev/client3/rdock/2013.1/src/exe/rbdock.cxx#4 $)

>  <Rbt.Library>
libRbt.so (2013.1, Build901 2013/11/27)

>  <Rbt.Parameter_File>
/export/apps/rDock/src/rDock_2013.1_src/data/scripts/dock_solv.prm

>  <Rbt.Receptor>
prm/pocket_docking_3.prm

>  <SCORE>
-15.7443

>  <SCORE.INTER>
-15.8119

>  <SCORE.INTER.CONST>
1

>  <SCORE.INTER.POLAR>
0

>  <SCORE.INTER.ROT>
1

>  <SCORE.INTER.SOLV>
17.2014

>  <SCORE.INTER.VDW>
-20.5417

>  <SCORE.INTER.norm>
-1.2163

>  <SCORE.INTRA>
0.0676024

>  <SCORE.INTRA.DIHEDRAL>
-0.107832

>  <SCORE.INTRA.DIHEDRAL.0>
1.75624

>  <SCORE.INTRA.POLAR>
0

>  <SCORE.INTRA.POLAR.0>
0

>  <SCORE.INTRA.REPUL>
0

>  <SCORE.INTRA.REPUL.0>
0

>  <SCORE.INTRA.SOLV>
0.29326

>  <SCORE.INTRA.SOLV.lig_0>
-46.5296

>  <SCORE.INTRA.VDW>
-0.0251114

>  <SCORE.INTRA.VDW.0>
-0.381873

>  <SCORE.INTRA.norm>
0.00520018

>  <SCORE.RESTR>
0

>  <SCORE.RESTR.CAVITY>
0

>  <SCORE.RESTR.norm>
0

>  <SCORE.SYSTEM>
0

>  <SCORE.SYSTEM.CONST>
0

>  <SCORE.SYSTEM.DIHEDRAL>
0

>  <SCORE.SYSTEM.SOLV>
0

>  <SCORE.SYSTEM.norm>
0

>  <SCORE.heavy>
13

>  <SCORE.norm>
-1.2111

>  <RMSD>
0.699

$$$$
ligand
 OpenBabel02271912143D
libRbt.so/2013.1/901 2013/11/27
 13 14  0  0  0  0  0  0  0  0999 V2000
   -3.4301   31.3937   54.7726 N   0  0  0  0  0  0  0  0  0  0  0  0
   -2.5367   30.3625   55.1049 C   0  0  0  0  0  0  0  0  0  0  0  0
   -1.3969   30.6523   55.9442 N   0  0  0  0  0  0  0  0  0  0  0  0
   -2.7511   29.0836   54.6437 N   0  0  0  0  0  0  0  0  0  0  0  0
   -3.8596   28.7628   53.8183 C   0  0  0  0  0  0  0  0  0  0  0  0
   -4.7810   29.8000   53.4414 C   0  0  0  0  0  0  0  0  0  0  0  0
   -4.5211   31.1323   53.9370 C   0  0  0  0  0  0  0  0  0  0  0  0
   -5.4090   32.1088   53.5807 O   0  0  0  0  0  0  0  0  0  0  0  0
   -5.8102   29.2171   52.6116 C   0  0  0  0  0  0  0  0  0  0  0  0
   -5.4604   27.8701   52.5049 C   0  0  0  0  0  0  0  0  0  0  0  0
   -4.3112   27.6089   53.2288 N   0  0  0  0  0  0  0  0  0  0  0  0
   -6.9811   29.9256   51.9592 C   0  0  0  0  0  0  0  0  0  0  0  0
   -7.8807   30.5608   52.9197 N   0  0  0  0  0  0  0  0  0  0  0  0
  1  2  1  0  0  0  0
  1  7  1  0  0  0  0
  2  3  1  0  0  0  0
  2  4  2  0  0  0  0
  4  5  1  0  0  0  0
  5  6  2  0  0  0  0
  5 11  1  0  0  0  0
  6  7  1  0  0  0  0
  6  9  1  0  0  0  0
  7  8  2  0  0  0  0
  9 10  2  0  0  0  0
  9 12  1  0  0  0  0
 10 11  1  0  0  0  0
 12 13  1  0  0  0  0
M  END
>  <CHROM.1>
-60.82031070,-4.56236053,29.93369870,53.73736064,0.25494308,-0.50152678,0.29056543

>  <Name>
ligand

>  <RI>
0

>  <Rbt.Current_Directory>
/home/itssahil/PROJECTS/Mol_Feturizer/Test_systems_manuscript/rnas/4jf2

>  <Rbt.Executable>
rbdock ($Id: //depot/dev/client3/rdock/2013.1/src/exe/rbdock.cxx#4 $)

>  <Rbt.Library>
libRbt.so (2013.1, Build901 2013/11/27)

>  <Rbt.Parameter_File>
/export/apps/rDock/src/rDock_2013.1_src/data/scripts/dock_solv.prm

>  <Rbt.Receptor>
prm/pocket_docking_8.prm

>  <SCORE>
-14.7769

>  <SCORE.INTER>
-14.9265

>  <SCORE.INTER.CONST>
1

>  <SCORE.INTER.POLAR>
0

>  <SCORE.INTER.ROT>
1

>  <SCORE.INTER.SOLV>
15.9308

>  <SCORE.INTER.VDW>
-19.528

>  <SCORE.INTER.norm>
-1.1482

>  <SCORE.INTRA>
0.149589

>  <SCORE.INTRA.DIHEDRAL>
-0.0788661

>  <SCORE.INTRA.DIHEDRAL.0>
1.75624

>  <SCORE.INTRA.POLAR>
0

>  <SCORE.INTRA.POLAR.0>
0

>  <SCORE.INTRA.REPUL>
0

>  <SCORE.INTRA.REPUL.0>
0

>  <SCORE.INTRA.SOLV>
0.423849

>  <SCORE.INTRA.SOLV.lig_0>
-46.5296

>  <SCORE.INTRA.VDW>
-0.0229024

>  <SCORE.INTRA.VDW.0>
-0.381873

>  <SCORE.INTRA.norm>
0.0115069

>  <SCORE.RESTR>
0

>  <SCORE.RESTR.CAVITY>
0

>  <SCORE.RESTR.norm>
0

>  <SCORE.SYSTEM>
0

>  <SCORE.SYSTEM.CONST>
0

>  <SCORE.SYSTEM.DIHEDRAL>
0

>  <SCORE.SYSTEM.SOLV>
0

>  <SCORE.SYSTEM.norm>
0

>  <SCORE.heavy>
13

>  <SCORE.norm>
-1.13669

>  <RMSD>
0.699

$$$$
ligand
 OpenBabel02271912143D
libRbt.so/2013.1/901 2013/11/27
 13 14  0  0  0  0  0  0  0  0999 V2000
   -3.4466   31.4711   54.7569 N   0  0  0  0  0  0  0  0  0  0  0  0
   -2.5449   30.4645   55.1386 C   0  0  0  0  0  0  0  0  0  0  0  0
   -1.4139   30.8018   55.9720 N   0  0  0  0  0  0  0  0  0  0  0  0
   -2.7431   29.1649   54.7311 N   0  0  0  0  0  0  0  0  0  0  0  0
   -3.8425   28.7975   53.9132 C   0  0  0  0  0  0  0  0  0  0  0  0
   -4.7720   29.8079   53.4864 C   0  0  0  0  0  0  0  0  0  0  0  0
   -4.5292   31.1627   53.9264 C   0  0  0  0  0  0  0  0  0  0  0  0
   -5.4246   32.1137   53.5230 O   0  0  0  0  0  0  0  0  0  0  0  0
   -5.7894   29.1793   52.6759 C   0  0  0  0  0  0  0  0  0  0  0  0
   -5.4252   27.8326   52.6290 C   0  0  0  0  0  0  0  0  0  0  0  0
   -4.2782   27.6148   53.3707 N   0  0  0  0  0  0  0  0  0  0  0  0
   -6.9632   29.8468   51.9863 C   0  0  0  0  0  0  0  0  0  0  0  0
   -7.8794   30.5070   52.9137 N   0  0  0  0  0  0  0  0  0  0  0  0
  1  2  1  0  0  0  0
  1  7  1  0  0  0  0
  2  3  1  0  0  0  0
  2  4  2  0  0  0  0
  4  5  1  0  0  0  0
  5  6  2  0  0  0  0
  5 11  1  0  0  0  0
  6  7  1  0  0  0  0
  6  9  1  0  0  0  0
  7  8  2  0  0  0  0
  9 10  2  0  0  0  0
  9 12  1  0  0  0  0
 10 11  1  0  0  0  0
 12 13  1  0  0  0  0
M  END
>  <CHROM.1>
-61.11638821,-4.55704035,29.95587722,53.77787292,0.26877231,-0.50476213,0.25431125

>  <Name>
ligand

>  <RI>
-1

>  <Rbt.Current_Directory>
/home/itssahil/PROJECTS/Mol_Feturizer/Test_systems_manuscript/rnas/4jf2

>  <Rbt.Executable>
rbdock ($Id: //depot/dev/client3/rdock/2013.1/src/exe/rbdock.cxx#4 $)

>  <Rbt.Library>
libRbt.so (2013.1, Build901 2013/11/27)

>  <Rbt.Parameter_File>
/export/apps/rDock/src/rDock_2013.1_src/data/scripts/dock_solv.prm

>  <Rbt.Receptor>
prm/pocket_docking_6.prm

>  <SCORE>
-14.8665

>  <SCORE.INTER>
-15.0125

>  <SCORE.INTER.CONST>
1

>  <SCORE.INTER.POLAR>
0

>  <SCORE.INTER.ROT>
1

>  <SCORE.INTER.SOLV>
16.1832

>  <SCORE.INTER.VDW>
-19.6694

>  <SCORE.INTER.norm>
-1.15481

>  <SCORE.INTRA>
0.146038

>  <SCORE.INTRA.DIHEDRAL>
-0.0771364

>  <SCORE.INTRA.DIHEDRAL.0>
1.75624

>  <SCORE.INTRA.POLAR>
0

>  <SCORE.INTRA.POLAR.0>
0

>  <SCORE.INTRA.REPUL>
0

>  <SCORE.INTRA.REPUL.0>
0

>  <SCORE.INTRA.SOLV>
0.415577

>  <SCORE.INTRA.SOLV.lig_0>
-46.5296

>  <SCORE.INTRA.VDW>
-0.0231827

>  <SCORE.INTRA.VDW.0>
-0.381873

>  <SCORE.INTRA.norm>
0.0112337

>  <SCORE.RESTR>
0

>  <SCORE.RESTR.CAVITY>
0

>  <SCORE.RESTR.norm>
0

>  <SCORE.SYSTEM>
0

>  <SCORE.SYSTEM.CONST>
0

>  <SCORE.SYSTEM.DIHEDRAL>
0

>  <SCORE.SYSTEM.SOLV>
0

>  <SCORE.SYSTEM.norm>
0

>  <SCORE.heavy>
13

>  <SCORE.norm>
-1.14357

>  <RMSD>
0.702

$$$$
ligand
 OpenBabel02271912143D
libRbt.so/2013.1/901 2013/11/27
 13 14  0  0  0  0  0  0  0  0999 V2000
   -3.4465   31.4741   54.7618 N   0  0  0  0  0  0  0  0  0  0  0  0
   -2.5405   30.4696   55.1390 C   0  0  0  0  0  0  0  0  0  0  0  0
   -1.4102   30.8083   55.9729 N   0  0  0  0  0  0  0  0  0  0  0  0
   -2.7338   29.1708   54.7267 N   0  0  0  0  0  0  0  0  0  0  0  0
   -3.8323   28.8021   53.9081 C   0  0  0  0  0  0  0  0  0  0  0  0
   -4.7661   29.8105   53.4859 C   0  0  0  0  0  0  0  0  0  0  0  0
   -4.5283   31.1646   53.9308 C   0  0  0  0  0  0  0  0  0  0  0  0
   -5.4278   32.1135   53.5317 O   0  0  0  0  0  0  0  0  0  0  0  0
   -5.7816   29.1809   52.6736 C   0  0  0  0  0  0  0  0  0  0  0  0
   -5.4120   27.8359   52.6214 C   0  0  0  0  0  0  0  0  0  0  0  0
   -4.2637   27.6198   53.3614 N   0  0  0  0  0  0  0  0  0  0  0  0
   -6.9585   29.8464   51.9874 C   0  0  0  0  0  0  0  0  0  0  0  0
   -7.8736   30.5043   52.9174 N   0  0  0  0  0  0  0  0  0  0  0  0
  1  2  1  0  0  0  0
  1  7  1  0  0  0  0
  2  3  1  0  0  0  0
  2  4  2  0  0  0  0
  4  5  1  0  0  0  0
  5  6  2  0  0  0  0
  5 11  1  0  0  0  0
  6  7  1  0  0  0  0
  6  9  1  0  0  0  0
  7  8  2  0  0  0  0
  9 10  2  0  0  0  0
  9 12  1  0  0  0  0
 10 11  1  0  0  0  0
 12 13  1  0  0  0  0
M  END
>  <CHROM.1>
-60.86889216,-4.55128462,29.95861059,53.77766831,0.27267125,-0.50331373,0.26018565

>  <Name>
ligand

>  <RI>
-1

>  <Rbt.Current_Directory>
/home/itssahil/PROJECTS/Mol_Feturizer/Test_systems_manuscript/rnas/4jf2

>  <Rbt.Executable>
rbdock ($Id: //depot/dev/client3/rdock/2013.1/src/exe/rbdock.cxx#4 $)

>  <Rbt.Library>
libRbt.so (2013.1, Build901 2013/11/27)

>  <Rbt.Parameter_File>
/export/apps/rDock/src/rDock_2013.1_src/data/scripts/dock_solv.prm

>  <Rbt.Receptor>
prm/pocket_docking_6.prm

>  <SCORE>
-14.858

>  <SCORE.INTER>
-15.007

>  <SCORE.INTER.CONST>
1

>  <SCORE.INTER.POLAR>
0

>  <SCORE.INTER.ROT>
1

>  <SCORE.INTER.SOLV>
16.1893

>  <SCORE.INTER.VDW>
-19.6677

>  <SCORE.INTER.norm>
-1.15438

>  <SCORE.INTRA>
0.149003

>  <SCORE.INTRA.DIHEDRAL>
-0.0785823

>  <SCORE.INTRA.DIHEDRAL.0>
1.75624

>  <SCORE.INTRA.POLAR>
0

>  <SCORE.INTRA.POLAR.0>
0

>  <SCORE.INTRA.REPUL>
0

>  <SCORE.INTRA.REPUL.0>
0

>  <SCORE.INTRA.SOLV>
0.422493

>  <SCORE.INTRA.SOLV.lig_0>
-46.5296

>  <SCORE.INTRA.VDW>
-0.022952

>  <SCORE.INTRA.VDW.0>
-0.381873

>  <SCORE.INTRA.norm>
0.0114618

>  <SCORE.RESTR>
0

>  <SCORE.RESTR.CAVITY>
0

>  <SCORE.RESTR.norm>
0

>  <SCORE.SYSTEM>
0

>  <SCORE.SYSTEM.CONST>
0

>  <SCORE.SYSTEM.DIHEDRAL>
0

>  <SCORE.SYSTEM.SOLV>
0

>  <SCORE.SYSTEM.norm>
0

>  <SCORE.heavy>
13

>  <SCORE.norm>
-1.14292

>  <RMSD>
0.704

$$$$
ligand
 OpenBabel02271912143D
libRbt.so/2013.1/901 2013/11/27
 13 14  0  0  0  0  0  0  0  0999 V2000
   -3.4427   31.4729   54.7586 N   0  0  0  0  0  0  0  0  0  0  0  0
   -2.5414   30.4665   55.1418 C   0  0  0  0  0  0  0  0  0  0  0  0
   -1.4105   30.8045   55.9751 N   0  0  0  0  0  0  0  0  0  0  0  0
   -2.7398   29.1665   54.7357 N   0  0  0  0  0  0  0  0  0  0  0  0
   -3.8391   28.7984   53.9178 C   0  0  0  0  0  0  0  0  0  0  0  0
   -4.7681   29.8085   53.4897 C   0  0  0  0  0  0  0  0  0  0  0  0
   -4.5251   31.1638   53.9281 C   0  0  0  0  0  0  0  0  0  0  0  0
   -5.4202   32.1146   53.5234 O   0  0  0  0  0  0  0  0  0  0  0  0
   -5.7855   29.1793   52.6795 C   0  0  0  0  0  0  0  0  0  0  0  0
   -5.4216   27.8325   52.6343 C   0  0  0  0  0  0  0  0  0  0  0  0
   -4.2749   27.6152   53.3766 N   0  0  0  0  0  0  0  0  0  0  0  0
   -6.9589   29.8464   51.9889 C   0  0  0  0  0  0  0  0  0  0  0  0
   -7.8643   30.5251   52.9134 N   0  0  0  0  0  0  0  0  0  0  0  0
  1  2  1  0  0  0  0
  1  7  1  0  0  0  0
  2  3  1  0  0  0  0
  2  4  2  0  0  0  0
  4  5  1  0  0  0  0
  5  6  2  0  0  0  0
  5 11  1  0  0  0  0
  6  7  1  0  0  0  0
  6  9  1  0  0  0  0
  7  8  2  0  0  0  0
  9 10  2  0  0  0  0
  9 12  1  0  0  0  0
 10 11  1  0  0  0  0
 12 13  1  0  0  0  0
M  END
>  <CHROM.1>
-60.24180159,-4.55236684,29.95823392,53.78084593,0.26756218,-0.50593941,0.25320555

>  <Name>
ligand

>  <RI>
0

>  <Rbt.Current_Directory>
/home/itssahil/PROJECTS/Mol_Feturizer/Test_systems_manuscript/rnas/4jf2

>  <Rbt.Executable>
rbdock ($Id: //depot/dev/client3/rdock/2013.1/src/exe/rbdock.cxx#4 $)

>  <Rbt.Library>
libRbt.so (2013.1, Build901 2013/11/27)

>  <Rbt.Parameter_File>
/export/apps/rDock/src/rDock_2013.1_src/data/scripts/dock_solv.prm

>  <Rbt.Receptor>
prm/pocket_docking_8.prm

>  <SCORE>
-14.8639

>  <SCORE.INTER>
-15.0206

>  <SCORE.INTER.CONST>
1

>  <SCORE.INTER.POLAR>
0

>  <SCORE.INTER.ROT>
1

>  <SCORE.INTER.SOLV>
16.1468

>  <SCORE.INTER.VDW>
-19.6626

>  <SCORE.INTER.norm>
-1.15543

>  <SCORE.INTRA>
0.156665

>  <SCORE.INTRA.DIHEDRAL>
-0.0822436

>  <SCORE.INTRA.DIHEDRAL.0>
1.75624

>  <SCORE.INTRA.POLAR>
0

>  <SCORE.INTRA.POLAR.0>
0

>  <SCORE.INTRA.REPUL>
0

>  <SCORE.INTRA.REPUL.0>
0

>  <SCORE.INTRA.SOLV>
0.439975

>  <SCORE.INTRA.SOLV.lig_0>
-46.5296

>  <SCORE.INTRA.VDW>
-0.0222008

>  <SCORE.INTRA.VDW.0>
-0.381873

>  <SCORE.INTRA.norm>
0.0120512

>  <SCORE.RESTR>
0

>  <SCORE.RESTR.CAVITY>
0

>  <SCORE.RESTR.norm>
0

>  <SCORE.SYSTEM>
0

>  <SCORE.SYSTEM.CONST>
0

>  <SCORE.SYSTEM.DIHEDRAL>
0

>  <SCORE.SYSTEM.SOLV>
0

>  <SCORE.SYSTEM.norm>
0

>  <SCORE.heavy>
13

>  <SCORE.norm>
-1.14338

>  <RMSD>
0.705

$$$$
ligand
 OpenBabel02271912143D
libRbt.so/2013.1/901 2013/11/27
 13 14  0  0  0  0  0  0  0  0999 V2000
   -3.7252   31.3442   54.8346 N   0  0  0  0  0  0  0  0  0  0  0  0
   -2.6325   30.4621   54.8165 C   0  0  0  0  0  0  0  0  0  0  0  0
   -1.3497   30.9093   55.3082 N   0  0  0  0  0  0  0  0  0  0  0  0
   -2.7853   29.1784   54.3442 N   0  0  0  0  0  0  0  0  0  0  0  0
   -4.0299   28.7053   53.8544 C   0  0  0  0  0  0  0  0  0  0  0  0
   -5.1631   29.5899   53.8385 C   0  0  0  0  0  0  0  0  0  0  0  0
   -4.9651   30.9327   54.3344 C   0  0  0  0  0  0  0  0  0  0  0  0
   -6.0516   31.7622   54.3239 O   0  0  0  0  0  0  0  0  0  0  0  0
   -6.2959   28.8712   53.3022 C   0  0  0  0  0  0  0  0  0  0  0  0
   -5.8008   27.6017   52.9996 C   0  0  0  0  0  0  0  0  0  0  0  0
   -4.4628   27.5101   53.3378 N   0  0  0  0  0  0  0  0  0  0  0  0
   -7.6985   29.3987   53.0716 C   0  0  0  0  0  0  0  0  0  0  0  0
   -7.7590   30.4626   52.0717 N   0  0  0  0  0  0  0  0  0  0  0  0
  1  2  1  0  0  0  0
  1  7  1  0  0  0  0
  2  3  1  0  0  0  0
  2  4  2  0  0  0  0
  4  5  1  0  0  0  0
  5  6  2  0  0  0  0
  5 11  1  0  0  0  0
  6  7  1  0  0  0  0
  6  9  1  0  0  0  0
  7  8  2  0  0  0  0
  9 10  2  0  0  0  0
  9 12  1  0  0  0  0
 10 11  1  0  0  0  0
 12 13  1  0  0  0  0
M  END
>  <CHROM.1>
64.23904353,-4.83980676,29.79860109,53.88640690,0.30157964,-0.34550839,0.28298209

>  <Name>
ligand

>  <RI>
-1

>  <Rbt.Current_Directory>
/home/itssahil/PROJECTS/Mol_Feturizer/Test_systems_manuscript/rnas/4jf2

>  <Rbt.Executable>
rbdock ($Id: //depot/dev/client3/rdock/2013.1/src/exe/rbdock.cxx#4 $)

>  <Rbt.Library>
libRbt.so (2013.1, Build901 2013/11/27)

>  <Rbt.Parameter_File>
/export/apps/rDock/src/rDock_2013.1_src/data/scripts/dock_solv.prm

>  <Rbt.Receptor>
prm/pocket_docking_4.prm

>  <SCORE>
-15.8026

>  <SCORE.INTER>
-15.8698

>  <SCORE.INTER.CONST>
1

>  <SCORE.INTER.POLAR>
0

>  <SCORE.INTER.ROT>
1

>  <SCORE.INTER.SOLV>
17.2246

>  <SCORE.INTER.VDW>
-20.5881

>  <SCORE.INTER.norm>
-1.22076

>  <SCORE.INTRA>
0.067183

>  <SCORE.INTRA.DIHEDRAL>
-0.107983

>  <SCORE.INTRA.DIHEDRAL.0>
1.75624

>  <SCORE.INTRA.POLAR>
0

>  <SCORE.INTRA.POLAR.0>
0

>  <SCORE.INTRA.REPUL>
0

>  <SCORE.INTRA.REPUL.0>
0

>  <SCORE.INTRA.SOLV>
0.292498

>  <SCORE.INTRA.SOLV.lig_0>
-46.5296

>  <SCORE.INTRA.VDW>
-0.0250747

>  <SCORE.INTRA.VDW.0>
-0.381873

>  <SCORE.INTRA.norm>
0.00516792

>  <SCORE.RESTR>
0

>  <SCORE.RESTR.CAVITY>
0

>  <SCORE.RESTR.norm>
0

>  <SCORE.SYSTEM>
0

>  <SCORE.SYSTEM.CONST>
0

>  <SCORE.SYSTEM.DIHEDRAL>
0

>  <SCORE.SYSTEM.SOLV>
0

>  <SCORE.SYSTEM.norm>
0

>  <SCORE.heavy>
13

>  <SCORE.norm>
-1.21559

>  <RMSD>
0.711

$$$$
ligand
 OpenBabel02271912143D
libRbt.so/2013.1/901 2013/11/27
 13 14  0  0  0  0  0  0  0  0999 V2000
   -3.4441   31.4740   54.7604 N   0  0  0  0  0  0  0  0  0  0  0  0
   -2.5450   30.4671   55.1477 C   0  0  0  0  0  0  0  0  0  0  0  0
   -1.4174   30.8047   55.9854 N   0  0  0  0  0  0  0  0  0  0  0  0
   -2.7427   29.1670   54.7414 N   0  0  0  0  0  0  0  0  0  0  0  0
   -3.8389   28.7993   53.9192 C   0  0  0  0  0  0  0  0  0  0  0  0
   -4.7655   29.8099   53.4868 C   0  0  0  0  0  0  0  0  0  0  0  0
   -4.5233   31.1652   53.9256 C   0  0  0  0  0  0  0  0  0  0  0  0
   -5.4161   32.1164   53.5168 O   0  0  0  0  0  0  0  0  0  0  0  0
   -5.7800   29.1810   52.6728 C   0  0  0  0  0  0  0  0  0  0  0  0
   -5.4168   27.8339   52.6297 C   0  0  0  0  0  0  0  0  0  0  0  0
   -4.2734   27.6162   53.3767 N   0  0  0  0  0  0  0  0  0  0  0  0
   -6.9501   29.8485   51.9771 C   0  0  0  0  0  0  0  0  0  0  0  0
   -7.8667   30.5158   52.8988 N   0  0  0  0  0  0  0  0  0  0  0  0
  1  2  1  0  0  0  0
  1  7  1  0  0  0  0
  2  3  1  0  0  0  0
  2  4  2  0  0  0  0
  4  5  1  0  0  0  0
  5  6  2  0  0  0  0
  5 11  1  0  0  0  0
  6  7  1  0  0  0  0
  6  9  1  0  0  0  0
  7  8  2  0  0  0  0
  9 10  2  0  0  0  0
  9 12  1  0  0  0  0
 10 11  1  0  0  0  0
 12 13  1  0  0  0  0
M  END
>  <CHROM.1>
-60.87825493,-4.55147942,29.95856656,53.77889104,0.26869681,-0.50946228,0.25283498

>  <Name>
ligand

>  <RI>
0

>  <Rbt.Current_Directory>
/home/itssahil/PROJECTS/Mol_Feturizer/Test_systems_manuscript/rnas/4jf2

>  <Rbt.Executable>
rbdock ($Id: //depot/dev/client3/rdock/2013.1/src/exe/rbdock.cxx#4 $)

>  <Rbt.Library>
libRbt.so (2013.1, Build901 2013/11/27)

>  <Rbt.Parameter_File>
/export/apps/rDock/src/rDock_2013.1_src/data/scripts/dock_solv.prm

>  <Rbt.Receptor>
prm/pocket_docking_8.prm

>  <SCORE>
-14.8555

>  <SCORE.INTER>
-15.0043

>  <SCORE.INTER.CONST>
1

>  <SCORE.INTER.POLAR>
0

>  <SCORE.INTER.ROT>
1

>  <SCORE.INTER.SOLV>
16.1381

>  <SCORE.INTER.VDW>
-19.6489

>  <SCORE.INTER.norm>
-1.15418

>  <SCORE.INTRA>
0.148891

>  <SCORE.INTRA.DIHEDRAL>
-0.0785276

>  <SCORE.INTRA.DIHEDRAL.0>
1.75624

>  <SCORE.INTRA.POLAR>
0

>  <SCORE.INTRA.POLAR.0>
0

>  <SCORE.INTRA.REPUL>
0

>  <SCORE.INTRA.REPUL.0>
0

>  <SCORE.INTRA.SOLV>
0.422231

>  <SCORE.INTRA.SOLV.lig_0>
-46.5296

>  <SCORE.INTRA.VDW>
-0.0229613

>  <SCORE.INTRA.VDW.0>
-0.381873

>  <SCORE.INTRA.norm>
0.0114531

>  <SCORE.RESTR>
0

>  <SCORE.RESTR.CAVITY>
0

>  <SCORE.RESTR.norm>
0

>  <SCORE.SYSTEM>
0

>  <SCORE.SYSTEM.CONST>
0

>  <SCORE.SYSTEM.DIHEDRAL>
0

>  <SCORE.SYSTEM.SOLV>
0

>  <SCORE.SYSTEM.norm>
0

>  <SCORE.heavy>
13

>  <SCORE.norm>
-1.14273

>  <RMSD>
0.711

$$$$
ligand
 OpenBabel02271912143D
libRbt.so/2013.1/901 2013/11/27
 13 14  0  0  0  0  0  0  0  0999 V2000
   -3.4321   31.4710   54.7642 N   0  0  0  0  0  0  0  0  0  0  0  0
   -2.5339   30.4588   55.1395 C   0  0  0  0  0  0  0  0  0  0  0  0
   -1.4043   30.7860   55.9788 N   0  0  0  0  0  0  0  0  0  0  0  0
   -2.7343   29.1633   54.7202 N   0  0  0  0  0  0  0  0  0  0  0  0
   -3.8325   28.8058   53.8961 C   0  0  0  0  0  0  0  0  0  0  0  0
   -4.7583   29.8223   53.4758 C   0  0  0  0  0  0  0  0  0  0  0  0
   -4.5132   31.1726   53.9282 C   0  0  0  0  0  0  0  0  0  0  0  0
   -5.4051   32.1294   53.5308 O   0  0  0  0  0  0  0  0  0  0  0  0
   -5.7752   29.2034   52.6571 C   0  0  0  0  0  0  0  0  0  0  0  0
   -5.4142   27.8563   52.5994 C   0  0  0  0  0  0  0  0  0  0  0  0
   -4.2698   27.6290   53.3422 N   0  0  0  0  0  0  0  0  0  0  0  0
   -6.9453   29.8800   51.9703 C   0  0  0  0  0  0  0  0  0  0  0  0
   -7.8493   30.5550   52.8989 N   0  0  0  0  0  0  0  0  0  0  0  0
  1  2  1  0  0  0  0
  1  7  1  0  0  0  0
  2  3  1  0  0  0  0
  2  4  2  0  0  0  0
  4  5  1  0  0  0  0
  5  6  2  0  0  0  0
  5 11  1  0  0  0  0
  6  7  1  0  0  0  0
  6  9  1  0  0  0  0
  7  8  2  0  0  0  0
  9 10  2  0  0  0  0
  9 12  1  0  0  0  0
 10 11  1  0  0  0  0
 12 13  1  0  0  0  0
M  END
>  <CHROM.1>
-60.07041091,-4.54267872,29.96888919,53.76889892,0.26552246,-0.50896967,0.26219994

>  <Name>
ligand

>  <RI>
-1

>  <Rbt.Current_Directory>
/home/itssahil/PROJECTS/Mol_Feturizer/Test_systems_manuscript/rnas/4jf2

>  <Rbt.Executable>
rbdock ($Id: //depot/dev/client3/rdock/2013.1/src/exe/rbdock.cxx#4 $)

>  <Rbt.Library>
libRbt.so (2013.1, Build901 2013/11/27)

>  <Rbt.Parameter_File>
/export/apps/rDock/src/rDock_2013.1_src/data/scripts/dock_solv.prm

>  <Rbt.Receptor>
prm/pocket_docking_2.prm

>  <SCORE>
-14.8342

>  <SCORE.INTER>
-14.993

>  <SCORE.INTER.CONST>
1

>  <SCORE.INTER.POLAR>
0

>  <SCORE.INTER.ROT>
1

>  <SCORE.INTER.SOLV>
16.0502

>  <SCORE.INTER.VDW>
-19.612

>  <SCORE.INTER.norm>
-1.15331

>  <SCORE.INTRA>
0.158798

>  <SCORE.INTRA.DIHEDRAL>
-0.0832433

>  <SCORE.INTRA.DIHEDRAL.0>
1.75624

>  <SCORE.INTRA.POLAR>
0

>  <SCORE.INTRA.POLAR.0>
0

>  <SCORE.INTRA.REPUL>
0

>  <SCORE.INTRA.REPUL.0>
0

>  <SCORE.INTRA.SOLV>
0.444743

>  <SCORE.INTRA.SOLV.lig_0>
-46.5296

>  <SCORE.INTRA.VDW>
-0.0219523

>  <SCORE.INTRA.VDW.0>
-0.381873

>  <SCORE.INTRA.norm>
0.0122152

>  <SCORE.RESTR>
0

>  <SCORE.RESTR.CAVITY>
0

>  <SCORE.RESTR.norm>
0

>  <SCORE.SYSTEM>
0

>  <SCORE.SYSTEM.CONST>
0

>  <SCORE.SYSTEM.DIHEDRAL>
0

>  <SCORE.SYSTEM.SOLV>
0

>  <SCORE.SYSTEM.norm>
0

>  <SCORE.heavy>
13

>  <SCORE.norm>
-1.14109

>  <RMSD>
0.713

$$$$
ligand
 OpenBabel02271912143D
libRbt.so/2013.1/901 2013/11/27
 13 14  0  0  0  0  0  0  0  0999 V2000
   -3.4114   31.4679   54.7781 N   0  0  0  0  0  0  0  0  0  0  0  0
   -2.5226   30.4477   55.1540 C   0  0  0  0  0  0  0  0  0  0  0  0
   -1.3924   30.7642   55.9966 N   0  0  0  0  0  0  0  0  0  0  0  0
   -2.7326   29.1546   54.7320 N   0  0  0  0  0  0  0  0  0  0  0  0
   -3.8317   28.8076   53.9046 C   0  0  0  0  0  0  0  0  0  0  0  0
   -4.7479   29.8323   53.4837 C   0  0  0  0  0  0  0  0  0  0  0  0
   -4.4928   31.1799   53.9389 C   0  0  0  0  0  0  0  0  0  0  0  0
   -5.3759   32.1445   53.5409 O   0  0  0  0  0  0  0  0  0  0  0  0
   -5.7679   29.2232   52.6614 C   0  0  0  0  0  0  0  0  0  0  0  0
   -5.4179   27.8732   52.6025 C   0  0  0  0  0  0  0  0  0  0  0  0
   -4.2773   27.6353   53.3477 N   0  0  0  0  0  0  0  0  0  0  0  0
   -6.9307   29.9105   51.9729 C   0  0  0  0  0  0  0  0  0  0  0  0
   -7.8654   30.5379   52.9045 N   0  0  0  0  0  0  0  0  0  0  0  0
  1  2  1  0  0  0  0
  1  7  1  0  0  0  0
  2  3  1  0  0  0  0
  2  4  2  0  0  0  0
  4  5  1  0  0  0  0
  5  6  2  0  0  0  0
  5 11  1  0  0  0  0
  6  7  1  0  0  0  0
  6  9  1  0  0  0  0
  7  8  2  0  0  0  0
  9 10  2  0  0  0  0
  9 12  1  0  0  0  0
 10 11  1  0  0  0  0
 12 13  1  0  0  0  0
M  END
>  <CHROM.1>
-62.78497602,-4.53463635,29.97228728,53.77790357,0.26025799,-0.51100193,0.25926077

>  <Name>
ligand

>  <RI>
-1

>  <Rbt.Current_Directory>
/home/itssahil/PROJECTS/Mol_Feturizer/Test_systems_manuscript/rnas/4jf2

>  <Rbt.Executable>
rbdock ($Id: //depot/dev/client3/rdock/2013.1/src/exe/rbdock.cxx#4 $)

>  <Rbt.Library>
libRbt.so (2013.1, Build901 2013/11/27)

>  <Rbt.Parameter_File>
/export/apps/rDock/src/rDock_2013.1_src/data/scripts/dock_solv.prm

>  <Rbt.Receptor>
prm/pocket_docking_2.prm

>  <SCORE>
-14.8575

>  <SCORE.INTER>
-14.9843

>  <SCORE.INTER.CONST>
1

>  <SCORE.INTER.POLAR>
0

>  <SCORE.INTER.ROT>
1

>  <SCORE.INTER.SOLV>
16.0718

>  <SCORE.INTER.VDW>
-19.6134

>  <SCORE.INTER.norm>
-1.15264

>  <SCORE.INTRA>
0.12681

>  <SCORE.INTRA.DIHEDRAL>
-0.0673963

>  <SCORE.INTRA.DIHEDRAL.0>
1.75624

>  <SCORE.INTRA.POLAR>
0

>  <SCORE.INTRA.POLAR.0>
0

>  <SCORE.INTRA.REPUL>
0

>  <SCORE.INTRA.REPUL.0>
0

>  <SCORE.INTRA.SOLV>
0.368736

>  <SCORE.INTRA.SOLV.lig_0>
-46.5296

>  <SCORE.INTRA.VDW>
-0.0238603

>  <SCORE.INTRA.VDW.0>
-0.381873

>  <SCORE.INTRA.norm>
0.00975459

>  <SCORE.RESTR>
0

>  <SCORE.RESTR.CAVITY>
0

>  <SCORE.RESTR.norm>
0

>  <SCORE.SYSTEM>
0

>  <SCORE.SYSTEM.CONST>
0

>  <SCORE.SYSTEM.DIHEDRAL>
0

>  <SCORE.SYSTEM.SOLV>
0

>  <SCORE.SYSTEM.norm>
0

>  <SCORE.heavy>
13

>  <SCORE.norm>
-1.14288

>  <RMSD>
0.714

$$$$
ligand
 OpenBabel02271912143D
libRbt.so/2013.1/901 2013/11/27
 13 14  0  0  0  0  0  0  0  0999 V2000
   -3.7002   31.4154   54.8587 N   0  0  0  0  0  0  0  0  0  0  0  0
   -2.5881   30.5582   54.8348 C   0  0  0  0  0  0  0  0  0  0  0  0
   -1.3222   31.0212   55.3550 N   0  0  0  0  0  0  0  0  0  0  0  0
   -2.7060   29.2833   54.3297 N   0  0  0  0  0  0  0  0  0  0  0  0
   -3.9331   28.7952   53.8113 C   0  0  0  0  0  0  0  0  0  0  0  0
   -5.0853   29.6550   53.8007 C   0  0  0  0  0  0  0  0  0  0  0  0
   -4.9238   30.9893   54.3314 C   0  0  0  0  0  0  0  0  0  0  0  0
   -6.0282   31.7949   54.3256 O   0  0  0  0  0  0  0  0  0  0  0  0
   -6.1946   28.9249   53.2316 C   0  0  0  0  0  0  0  0  0  0  0  0
   -5.6674   27.6743   52.9055 C   0  0  0  0  0  0  0  0  0  0  0  0
   -4.3324   27.6037   53.2601 N   0  0  0  0  0  0  0  0  0  0  0  0
   -7.6053   29.4271   52.9939 C   0  0  0  0  0  0  0  0  0  0  0  0
   -7.6725   30.5333   52.0415 N   0  0  0  0  0  0  0  0  0  0  0  0
  1  2  1  0  0  0  0
  1  7  1  0  0  0  0
  2  3  1  0  0  0  0
  2  4  2  0  0  0  0
  4  5  1  0  0  0  0
  5  6  2  0  0  0  0
  5 11  1  0  0  0  0
  6  7  1  0  0  0  0
  6  9  1  0  0  0  0
  7  8  2  0  0  0  0
  9 10  2  0  0  0  0
  9 12  1  0  0  0  0
 10 11  1  0  0  0  0
 12 13  1  0  0  0  0
M  END
>  <CHROM.1>
62.95256100,-4.76712235,29.87104586,53.85998334,0.32634759,-0.35119594,0.31572219

>  <Name>
ligand

>  <RI>
-1

>  <Rbt.Current_Directory>
/home/itssahil/PROJECTS/Mol_Feturizer/Test_systems_manuscript/rnas/4jf2

>  <Rbt.Executable>
rbdock ($Id: //depot/dev/client3/rdock/2013.1/src/exe/rbdock.cxx#4 $)

>  <Rbt.Library>
libRbt.so (2013.1, Build901 2013/11/27)

>  <Rbt.Parameter_File>
/export/apps/rDock/src/rDock_2013.1_src/data/scripts/dock_solv.prm

>  <Rbt.Receptor>
prm/pocket_docking_3.prm

>  <SCORE>
-15.8255

>  <SCORE.INTER>
-15.913

>  <SCORE.INTER.CONST>
1

>  <SCORE.INTER.POLAR>
0

>  <SCORE.INTER.ROT>
1

>  <SCORE.INTER.SOLV>
16.9503

>  <SCORE.INTER.VDW>
-20.5254

>  <SCORE.INTER.norm>
-1.22407

>  <SCORE.INTRA>
0.0874775

>  <SCORE.INTRA.DIHEDRAL>
-0.10071

>  <SCORE.INTRA.DIHEDRAL.0>
1.75624

>  <SCORE.INTRA.POLAR>
0

>  <SCORE.INTRA.POLAR.0>
0

>  <SCORE.INTRA.REPUL>
0

>  <SCORE.INTRA.REPUL.0>
0

>  <SCORE.INTRA.SOLV>
0.328826

>  <SCORE.INTRA.SOLV.lig_0>
-46.5296

>  <SCORE.INTRA.VDW>
-0.0265802

>  <SCORE.INTRA.VDW.0>
-0.381873

>  <SCORE.INTRA.norm>
0.00672904

>  <SCORE.RESTR>
0

>  <SCORE.RESTR.CAVITY>
0

>  <SCORE.RESTR.norm>
0

>  <SCORE.SYSTEM>
0

>  <SCORE.SYSTEM.CONST>
0

>  <SCORE.SYSTEM.DIHEDRAL>
0

>  <SCORE.SYSTEM.SOLV>
0

>  <SCORE.SYSTEM.norm>
0

>  <SCORE.heavy>
13

>  <SCORE.norm>
-1.21735

>  <RMSD>
0.714

$$$$
ligand
 OpenBabel02271912143D
libRbt.so/2013.1/901 2013/11/27
 13 14  0  0  0  0  0  0  0  0999 V2000
   -3.7189   31.3477   54.8495 N   0  0  0  0  0  0  0  0  0  0  0  0
   -2.6307   30.4608   54.8124 C   0  0  0  0  0  0  0  0  0  0  0  0
   -1.3438   30.8935   55.3063 N   0  0  0  0  0  0  0  0  0  0  0  0
   -2.7916   29.1858   54.3195 N   0  0  0  0  0  0  0  0  0  0  0  0
   -4.0405   28.7270   53.8269 C   0  0  0  0  0  0  0  0  0  0  0  0
   -5.1693   29.6172   53.8302 C   0  0  0  0  0  0  0  0  0  0  0  0
   -4.9628   30.9506   54.3475 C   0  0  0  0  0  0  0  0  0  0  0  0
   -6.0453   31.7854   54.3552 O   0  0  0  0  0  0  0  0  0  0  0  0
   -6.3078   28.9130   53.2866 C   0  0  0  0  0  0  0  0  0  0  0  0
   -5.8201   27.6464   52.9609 C   0  0  0  0  0  0  0  0  0  0  0  0
   -4.4813   27.5426   53.2922 N   0  0  0  0  0  0  0  0  0  0  0  0
   -7.7086   29.4511   53.0703 C   0  0  0  0  0  0  0  0  0  0  0  0
   -7.7964   30.4102   51.9714 N   0  0  0  0  0  0  0  0  0  0  0  0
  1  2  1  0  0  0  0
  1  7  1  0  0  0  0
  2  3  1  0  0  0  0
  2  4  2  0  0  0  0
  4  5  1  0  0  0  0
  5  6  2  0  0  0  0
  5 11  1  0  0  0  0
  6  7  1  0  0  0  0
  6  9  1  0  0  0  0
  7  8  2  0  0  0  0
  9 10  2  0  0  0  0
  9 12  1  0  0  0  0
 10 11  1  0  0  0  0
 12 13  1  0  0  0  0
M  END
>  <CHROM.1>
71.55463021,-4.84717085,29.81362300,53.87072679,0.30702020,-0.34781235,0.30126970

>  <Name>
ligand

>  <RI>
-1

>  <Rbt.Current_Directory>
/home/itssahil/PROJECTS/Mol_Feturizer/Test_systems_manuscript/rnas/4jf2

>  <Rbt.Executable>
rbdock ($Id: //depot/dev/client3/rdock/2013.1/src/exe/rbdock.cxx#4 $)

>  <Rbt.Library>
libRbt.so (2013.1, Build901 2013/11/27)

>  <Rbt.Parameter_File>
/export/apps/rDock/src/rDock_2013.1_src/data/scripts/dock_solv.prm

>  <Rbt.Receptor>
prm/pocket_docking_7.prm

>  <SCORE>
-15.8025

>  <SCORE.INTER>
-15.7619

>  <SCORE.INTER.CONST>
1

>  <SCORE.INTER.POLAR>
0

>  <SCORE.INTER.ROT>
1

>  <SCORE.INTER.SOLV>
17.375

>  <SCORE.INTER.VDW>
-20.5663

>  <SCORE.INTER.norm>
-1.21246

>  <SCORE.INTRA>
-0.0405326

>  <SCORE.INTRA.DIHEDRAL>
-0.145667

>  <SCORE.INTRA.DIHEDRAL.0>
1.75624

>  <SCORE.INTRA.POLAR>
0

>  <SCORE.INTRA.POLAR.0>
0

>  <SCORE.INTRA.REPUL>
0

>  <SCORE.INTRA.REPUL.0>
0

>  <SCORE.INTRA.SOLV>
0.0835842

>  <SCORE.INTRA.SOLV.lig_0>
-46.5296

>  <SCORE.INTRA.VDW>
-0.00949122

>  <SCORE.INTRA.VDW.0>
-0.381873

>  <SCORE.INTRA.norm>
-0.00311789

>  <SCORE.RESTR>
0

>  <SCORE.RESTR.CAVITY>
0

>  <SCORE.RESTR.norm>
0

>  <SCORE.SYSTEM>
0

>  <SCORE.SYSTEM.CONST>
0

>  <SCORE.SYSTEM.DIHEDRAL>
0

>  <SCORE.SYSTEM.SOLV>
0

>  <SCORE.SYSTEM.norm>
0

>  <SCORE.heavy>
13

>  <SCORE.norm>
-1.21557

>  <RMSD>
0.714

$$$$
ligand
 OpenBabel02271912143D
libRbt.so/2013.1/901 2013/11/27
 13 14  0  0  0  0  0  0  0  0999 V2000
   -3.5871   31.4960   54.9529 N   0  0  0  0  0  0  0  0  0  0  0  0
   -2.4874   30.6225   54.9392 C   0  0  0  0  0  0  0  0  0  0  0  0
   -1.2121   31.0771   55.4435 N   0  0  0  0  0  0  0  0  0  0  0  0
   -2.6264   29.3401   54.4592 N   0  0  0  0  0  0  0  0  0  0  0  0
   -3.8633   28.8599   53.9570 C   0  0  0  0  0  0  0  0  0  0  0  0
   -5.0032   29.7358   53.9364 C   0  0  0  0  0  0  0  0  0  0  0  0
   -4.8196   31.0775   54.4406 C   0  0  0  0  0  0  0  0  0  0  0  0
   -5.9125   31.8986   54.4256 O   0  0  0  0  0  0  0  0  0  0  0  0
   -6.1260   29.0111   53.3873 C   0  0  0  0  0  0  0  0  0  0  0  0
   -5.6186   27.7470   53.0823 C   0  0  0  0  0  0  0  0  0  0  0  0
   -4.2827   27.6640   53.4308 N   0  0  0  0  0  0  0  0  0  0  0  0
   -7.5308   29.5288   53.1480 C   0  0  0  0  0  0  0  0  0  0  0  0
   -7.6106   30.5034   52.0622 N   0  0  0  0  0  0  0  0  0  0  0  0
  1  2  1  0  0  0  0
  1  7  1  0  0  0  0
  2  3  1  0  0  0  0
  2  4  2  0  0  0  0
  4  5  1  0  0  0  0
  5  6  2  0  0  0  0
  5 11  1  0  0  0  0
  6  7  1  0  0  0  0
  6  9  1  0  0  0  0
  7  8  2  0  0  0  0
  9 10  2  0  0  0  0
  9 12  1  0  0  0  0
 10 11  1  0  0  0  0
 12 13  1  0  0  0  0
M  END
>  <CHROM.1>
69.88364194,-4.68347914,29.93905818,53.98054550,0.32082450,-0.35476159,0.29443604

>  <Name>
ligand

>  <RI>
-1

>  <Rbt.Current_Directory>
/home/itssahil/PROJECTS/Mol_Feturizer/Test_systems_manuscript/rnas/4jf2

>  <Rbt.Executable>
rbdock ($Id: //depot/dev/client3/rdock/2013.1/src/exe/rbdock.cxx#4 $)

>  <Rbt.Library>
libRbt.so (2013.1, Build901 2013/11/27)

>  <Rbt.Parameter_File>
/export/apps/rDock/src/rDock_2013.1_src/data/scripts/dock_solv.prm

>  <Rbt.Receptor>
prm/pocket_docking_2.prm

>  <SCORE>
-15.7712

>  <SCORE.INTER>
-15.7543

>  <SCORE.INTER.CONST>
1

>  <SCORE.INTER.POLAR>
0

>  <SCORE.INTER.ROT>
1

>  <SCORE.INTER.SOLV>
17.0921

>  <SCORE.INTER.VDW>
-20.4669

>  <SCORE.INTER.norm>
-1.21187

>  <SCORE.INTRA>
-0.0168834

>  <SCORE.INTRA.DIHEDRAL>
-0.137767

>  <SCORE.INTRA.DIHEDRAL.0>
1.75624

>  <SCORE.INTRA.POLAR>
0

>  <SCORE.INTRA.POLAR.0>
0

>  <SCORE.INTRA.REPUL>
0

>  <SCORE.INTRA.REPUL.0>
0

>  <SCORE.INTRA.SOLV>
0.131549

>  <SCORE.INTRA.SOLV.lig_0>
-46.5296

>  <SCORE.INTRA.VDW>
-0.0137744

>  <SCORE.INTRA.VDW.0>
-0.381873

>  <SCORE.INTRA.norm>
-0.00129872

>  <SCORE.RESTR>
0

>  <SCORE.RESTR.CAVITY>
0

>  <SCORE.RESTR.norm>
0

>  <SCORE.SYSTEM>
0

>  <SCORE.SYSTEM.CONST>
0

>  <SCORE.SYSTEM.DIHEDRAL>
0

>  <SCORE.SYSTEM.SOLV>
0

>  <SCORE.SYSTEM.norm>
0

>  <SCORE.heavy>
13

>  <SCORE.norm>
-1.21317

>  <RMSD>
0.719

$$$$
ligand
 OpenBabel02271912143D
libRbt.so/2013.1/901 2013/11/27
 13 14  0  0  0  0  0  0  0  0999 V2000
   -3.5470   31.5067   54.9485 N   0  0  0  0  0  0  0  0  0  0  0  0
   -2.4569   30.6216   54.9326 C   0  0  0  0  0  0  0  0  0  0  0  0
   -1.1754   31.0629   55.4331 N   0  0  0  0  0  0  0  0  0  0  0  0
   -2.6108   29.3403   54.4540 N   0  0  0  0  0  0  0  0  0  0  0  0
   -3.8542   28.8730   53.9555 C   0  0  0  0  0  0  0  0  0  0  0  0
   -4.9846   29.7610   53.9372 C   0  0  0  0  0  0  0  0  0  0  0  0
   -4.7854   31.1011   54.4399 C   0  0  0  0  0  0  0  0  0  0  0  0
   -5.8694   31.9338   54.4271 O   0  0  0  0  0  0  0  0  0  0  0  0
   -6.1166   29.0479   53.3918 C   0  0  0  0  0  0  0  0  0  0  0  0
   -5.6236   27.7783   53.0864 C   0  0  0  0  0  0  0  0  0  0  0  0
   -4.2877   27.6812   53.4314 N   0  0  0  0  0  0  0  0  0  0  0  0
   -7.5164   29.5805   53.1557 C   0  0  0  0  0  0  0  0  0  0  0  0
   -7.6007   30.5047   52.0271 N   0  0  0  0  0  0  0  0  0  0  0  0
  1  2  1  0  0  0  0
  1  7  1  0  0  0  0
  2  3  1  0  0  0  0
  2  4  2  0  0  0  0
  4  5  1  0  0  0  0
  5  6  2  0  0  0  0
  5 11  1  0  0  0  0
  6  7  1  0  0  0  0
  6  9  1  0  0  0  0
  7  8  2  0  0  0  0
  9 10  2  0  0  0  0
  9 12  1  0  0  0  0
 10 11  1  0  0  0  0
 12 13  1  0  0  0  0
M  END
>  <CHROM.1>
72.73480008,-4.66362857,29.95678588,53.97693432,0.31386540,-0.35679573,0.29129461

>  <Name>
ligand

>  <RI>
-1

>  <Rbt.Current_Directory>
/home/itssahil/PROJECTS/Mol_Feturizer/Test_systems_manuscript/rnas/4jf2

>  <Rbt.Executable>
rbdock ($Id: //depot/dev/client3/rdock/2013.1/src/exe/rbdock.cxx#4 $)

>  <Rbt.Library>
libRbt.so (2013.1, Build901 2013/11/27)

>  <Rbt.Parameter_File>
/export/apps/rDock/src/rDock_2013.1_src/data/scripts/dock_solv.prm

>  <Rbt.Receptor>
prm/pocket_docking_2.prm

>  <SCORE>
-15.801

>  <SCORE.INTER>
-15.744

>  <SCORE.INTER.CONST>
1

>  <SCORE.INTER.POLAR>
0

>  <SCORE.INTER.ROT>
1

>  <SCORE.INTER.SOLV>
17.0974

>  <SCORE.INTER.VDW>
-20.4618

>  <SCORE.INTER.norm>
-1.21108

>  <SCORE.INTRA>
-0.0569508

>  <SCORE.INTRA.DIHEDRAL>
-0.15093

>  <SCORE.INTRA.DIHEDRAL.0>
1.75624

>  <SCORE.INTRA.POLAR>
0

>  <SCORE.INTRA.POLAR.0>
0

>  <SCORE.INTRA.REPUL>
0

>  <SCORE.INTRA.REPUL.0>
0

>  <SCORE.INTRA.SOLV>
0.0496644

>  <SCORE.INTRA.SOLV.lig_0>
-46.5296

>  <SCORE.INTRA.VDW>
-0.00631822

>  <SCORE.INTRA.VDW.0>
-0.381873

>  <SCORE.INTRA.norm>
-0.00438083

>  <SCORE.RESTR>
0

>  <SCORE.RESTR.CAVITY>
0

>  <SCORE.RESTR.norm>
0

>  <SCORE.SYSTEM>
0

>  <SCORE.SYSTEM.CONST>
0

>  <SCORE.SYSTEM.DIHEDRAL>
0

>  <SCORE.SYSTEM.SOLV>
0

>  <SCORE.SYSTEM.norm>
0

>  <SCORE.heavy>
13

>  <SCORE.norm>
-1.21546

>  <RMSD>
0.722

$$$$
ligand
 OpenBabel02271912143D
libRbt.so/2013.1/901 2013/11/27
 13 14  0  0  0  0  0  0  0  0999 V2000
   -3.6883   31.3959   54.8677 N   0  0  0  0  0  0  0  0  0  0  0  0
   -2.5730   30.5434   54.8290 C   0  0  0  0  0  0  0  0  0  0  0  0
   -1.3060   31.0063   55.3465 N   0  0  0  0  0  0  0  0  0  0  0  0
   -2.6887   29.2730   54.3121 N   0  0  0  0  0  0  0  0  0  0  0  0
   -3.9168   28.7851   53.7960 C   0  0  0  0  0  0  0  0  0  0  0  0
   -5.0724   29.6403   53.8004 C   0  0  0  0  0  0  0  0  0  0  0  0
   -4.9132   30.9700   54.3432 C   0  0  0  0  0  0  0  0  0  0  0  0
   -6.0208   31.7712   54.3516 O   0  0  0  0  0  0  0  0  0  0  0  0
   -6.1820   28.9114   53.2304 C   0  0  0  0  0  0  0  0  0  0  0  0
   -5.6518   27.6662   52.8891 C   0  0  0  0  0  0  0  0  0  0  0  0
   -4.3145   27.5974   53.2354 N   0  0  0  0  0  0  0  0  0  0  0  0
   -7.5961   29.4102   53.0057 C   0  0  0  0  0  0  0  0  0  0  0  0
   -7.6780   30.4973   52.0328 N   0  0  0  0  0  0  0  0  0  0  0  0
  1  2  1  0  0  0  0
  1  7  1  0  0  0  0
  2  3  1  0  0  0  0
  2  4  2  0  0  0  0
  4  5  1  0  0  0  0
  5  6  2  0  0  0  0
  5 11  1  0  0  0  0
  6  7  1  0  0  0  0
  6  9  1  0  0  0  0
  7  8  2  0  0  0  0
  9 10  2  0  0  0  0
  9 12  1  0  0  0  0
 10 11  1  0  0  0  0
 12 13  1  0  0  0  0
M  END
>  <CHROM.1>
64.77967766,-4.75517234,29.85475553,53.85734716,0.33119786,-0.34588393,0.32702577

>  <Name>
ligand

>  <RI>
-1

>  <Rbt.Current_Directory>
/home/itssahil/PROJECTS/Mol_Feturizer/Test_systems_manuscript/rnas/4jf2

>  <Rbt.Executable>
rbdock ($Id: //depot/dev/client3/rdock/2013.1/src/exe/rbdock.cxx#4 $)

>  <Rbt.Library>
libRbt.so (2013.1, Build901 2013/11/27)

>  <Rbt.Parameter_File>
/export/apps/rDock/src/rDock_2013.1_src/data/scripts/dock_solv.prm

>  <Rbt.Receptor>
prm/pocket_docking_5.prm

>  <SCORE>
-15.7789

>  <SCORE.INTER>
-15.8377

>  <SCORE.INTER.CONST>
1

>  <SCORE.INTER.POLAR>
0

>  <SCORE.INTER.ROT>
1

>  <SCORE.INTER.SOLV>
17.0676

>  <SCORE.INTER.VDW>
-20.5143

>  <SCORE.INTER.norm>
-1.21829

>  <SCORE.INTRA>
0.0587997

>  <SCORE.INTRA.DIHEDRAL>
-0.110999

>  <SCORE.INTRA.DIHEDRAL.0>
1.75624

>  <SCORE.INTRA.POLAR>
0

>  <SCORE.INTRA.POLAR.0>
0

>  <SCORE.INTRA.REPUL>
0

>  <SCORE.INTRA.REPUL.0>
0

>  <SCORE.INTRA.SOLV>
0.277185

>  <SCORE.INTRA.SOLV.lig_0>
-46.5296

>  <SCORE.INTRA.VDW>
-0.0242934

>  <SCORE.INTRA.VDW.0>
-0.381873

>  <SCORE.INTRA.norm>
0.00452305

>  <SCORE.RESTR>
0

>  <SCORE.RESTR.CAVITY>
0

>  <SCORE.RESTR.norm>
0

>  <SCORE.SYSTEM>
0

>  <SCORE.SYSTEM.CONST>
0

>  <SCORE.SYSTEM.DIHEDRAL>
0

>  <SCORE.SYSTEM.SOLV>
0

>  <SCORE.SYSTEM.norm>
0

>  <SCORE.heavy>
13

>  <SCORE.norm>
-1.21376

>  <RMSD>
0.722

$$$$
ligand
 OpenBabel02271912143D
libRbt.so/2013.1/901 2013/11/27
 13 14  0  0  0  0  0  0  0  0999 V2000
   -3.4342   31.4868   54.7820 N   0  0  0  0  0  0  0  0  0  0  0  0
   -2.5315   30.4781   55.1560 C   0  0  0  0  0  0  0  0  0  0  0  0
   -1.4084   30.8075   56.0031 N   0  0  0  0  0  0  0  0  0  0  0  0
   -2.7214   29.1839   54.7279 N   0  0  0  0  0  0  0  0  0  0  0  0
   -3.8130   28.8244   53.8960 C   0  0  0  0  0  0  0  0  0  0  0  0
   -4.7430   29.8374   53.4769 C   0  0  0  0  0  0  0  0  0  0  0  0
   -4.5090   31.1866   53.9385 C   0  0  0  0  0  0  0  0  0  0  0  0
   -5.4049   32.1399   53.5421 O   0  0  0  0  0  0  0  0  0  0  0  0
   -5.7517   29.2169   52.6492 C   0  0  0  0  0  0  0  0  0  0  0  0
   -5.3818   27.8725   52.5855 C   0  0  0  0  0  0  0  0  0  0  0  0
   -4.2399   27.6481   53.3328 N   0  0  0  0  0  0  0  0  0  0  0  0
   -6.9226   29.8901   51.9603 C   0  0  0  0  0  0  0  0  0  0  0  0
   -7.8467   30.5361   52.8897 N   0  0  0  0  0  0  0  0  0  0  0  0
  1  2  1  0  0  0  0
  1  7  1  0  0  0  0
  2  3  1  0  0  0  0
  2  4  2  0  0  0  0
  4  5  1  0  0  0  0
  5  6  2  0  0  0  0
  5 11  1  0  0  0  0
  6  7  1  0  0  0  0
  6  9  1  0  0  0  0
  7  8  2  0  0  0  0
  9 10  2  0  0  0  0
  9 12  1  0  0  0  0
 10 11  1  0  0  0  0
 12 13  1  0  0  0  0
M  END
>  <CHROM.1>
-60.96842767,-4.53082486,29.98217982,53.77209619,0.27518463,-0.51147546,0.27221945

>  <Name>
ligand

>  <RI>
0

>  <Rbt.Current_Directory>
/home/itssahil/PROJECTS/Mol_Feturizer/Test_systems_manuscript/rnas/4jf2

>  <Rbt.Executable>
rbdock ($Id: //depot/dev/client3/rdock/2013.1/src/exe/rbdock.cxx#4 $)

>  <Rbt.Library>
libRbt.so (2013.1, Build901 2013/11/27)

>  <Rbt.Parameter_File>
/export/apps/rDock/src/rDock_2013.1_src/data/scripts/dock_solv.prm

>  <Rbt.Receptor>
prm/pocket_docking_8.prm

>  <SCORE>
-14.813

>  <SCORE.INTER>
-14.9608

>  <SCORE.INTER.CONST>
1

>  <SCORE.INTER.POLAR>
0

>  <SCORE.INTER.ROT>
1

>  <SCORE.INTER.SOLV>
16.07

>  <SCORE.INTER.VDW>
-19.5972

>  <SCORE.INTER.norm>
-1.15083

>  <SCORE.INTRA>
0.147807

>  <SCORE.INTRA.DIHEDRAL>
-0.0780008

>  <SCORE.INTRA.DIHEDRAL.0>
1.75624

>  <SCORE.INTRA.POLAR>
0

>  <SCORE.INTRA.POLAR.0>
0

>  <SCORE.INTRA.REPUL>
0

>  <SCORE.INTRA.REPUL.0>
0

>  <SCORE.INTRA.SOLV>
0.419713

>  <SCORE.INTRA.SOLV.lig_0>
-46.5296

>  <SCORE.INTRA.VDW>
-0.0230491

>  <SCORE.INTRA.VDW.0>
-0.381873

>  <SCORE.INTRA.norm>
0.0113698

>  <SCORE.RESTR>
0

>  <SCORE.RESTR.CAVITY>
0

>  <SCORE.RESTR.norm>
0

>  <SCORE.SYSTEM>
0

>  <SCORE.SYSTEM.CONST>
0

>  <SCORE.SYSTEM.DIHEDRAL>
0

>  <SCORE.SYSTEM.SOLV>
0

>  <SCORE.SYSTEM.norm>
0

>  <SCORE.heavy>
13

>  <SCORE.norm>
-1.13946

>  <RMSD>
0.722

$$$$
ligand
 OpenBabel02271912143D
libRbt.so/2013.1/901 2013/11/27
 13 14  0  0  0  0  0  0  0  0999 V2000
   -3.4551   31.3818   54.7211 N   0  0  0  0  0  0  0  0  0  0  0  0
   -2.5823   30.3508   55.1052 C   0  0  0  0  0  0  0  0  0  0  0  0
   -1.4472   30.6563   55.9452 N   0  0  0  0  0  0  0  0  0  0  0  0
   -2.8127   29.0578   54.6937 N   0  0  0  0  0  0  0  0  0  0  0  0
   -3.9172   28.7214   53.8692 C   0  0  0  0  0  0  0  0  0  0  0  0
   -4.8173   29.7569   53.4400 C   0  0  0  0  0  0  0  0  0  0  0  0
   -4.5410   31.1039   53.8842 C   0  0  0  0  0  0  0  0  0  0  0  0
   -5.4088   32.0791   53.4784 O   0  0  0  0  0  0  0  0  0  0  0  0
   -5.8468   29.1572   52.6227 C   0  0  0  0  0  0  0  0  0  0  0  0
   -5.5181   27.8015   52.5747 C   0  0  0  0  0  0  0  0  0  0  0  0
   -4.3813   27.5518   53.3218 N   0  0  0  0  0  0  0  0  0  0  0  0
   -6.9988   29.8571   51.9286 C   0  0  0  0  0  0  0  0  0  0  0  0
   -7.8479   30.6183   52.8423 N   0  0  0  0  0  0  0  0  0  0  0  0
  1  2  1  0  0  0  0
  1  7  1  0  0  0  0
  2  3  1  0  0  0  0
  2  4  2  0  0  0  0
  4  5  1  0  0  0  0
  5  6  2  0  0  0  0
  5 11  1  0  0  0  0
  6  7  1  0  0  0  0
  6  9  1  0  0  0  0
  7  8  2  0  0  0  0
  9 10  2  0  0  0  0
  9 12  1  0  0  0  0
 10 11  1  0  0  0  0
 12 13  1  0  0  0  0
M  END
>  <CHROM.1>
-57.00513644,-4.59565722,29.90499899,53.73202392,0.23601132,-0.52038214,0.24306735

>  <Name>
ligand

>  <RI>
0

>  <Rbt.Current_Directory>
/home/itssahil/PROJECTS/Mol_Feturizer/Test_systems_manuscript/rnas/4jf2

>  <Rbt.Executable>
rbdock ($Id: //depot/dev/client3/rdock/2013.1/src/exe/rbdock.cxx#4 $)

>  <Rbt.Library>
libRbt.so (2013.1, Build901 2013/11/27)

>  <Rbt.Parameter_File>
/export/apps/rDock/src/rDock_2013.1_src/data/scripts/dock_solv.prm

>  <Rbt.Receptor>
prm/pocket_docking_8.prm

>  <SCORE>
-14.7857

>  <SCORE.INTER>
-15.0019

>  <SCORE.INTER.CONST>
1

>  <SCORE.INTER.POLAR>
0

>  <SCORE.INTER.ROT>
1

>  <SCORE.INTER.SOLV>
15.728

>  <SCORE.INTER.VDW>
-19.5106

>  <SCORE.INTER.norm>
-1.15399

>  <SCORE.INTRA>
0.216146

>  <SCORE.INTRA.DIHEDRAL>
-0.100952

>  <SCORE.INTRA.DIHEDRAL.0>
1.75624

>  <SCORE.INTRA.POLAR>
0

>  <SCORE.INTRA.POLAR.0>
0

>  <SCORE.INTRA.REPUL>
0

>  <SCORE.INTRA.REPUL.0>
0

>  <SCORE.INTRA.SOLV>
0.529211

>  <SCORE.INTRA.SOLV.lig_0>
-46.5296

>  <SCORE.INTRA.VDW>
0.00201641

>  <SCORE.INTRA.VDW.0>
-0.381873

>  <SCORE.INTRA.norm>
0.0166266

>  <SCORE.RESTR>
0

>  <SCORE.RESTR.CAVITY>
0

>  <SCORE.RESTR.norm>
0

>  <SCORE.SYSTEM>
0

>  <SCORE.SYSTEM.CONST>
0

>  <SCORE.SYSTEM.DIHEDRAL>
0

>  <SCORE.SYSTEM.SOLV>
0

>  <SCORE.SYSTEM.norm>
0

>  <SCORE.heavy>
13

>  <SCORE.norm>
-1.13736

>  <RMSD>
0.723

$$$$
ligand
 OpenBabel02271912143D
libRbt.so/2013.1/901 2013/11/27
 13 14  0  0  0  0  0  0  0  0999 V2000
   -3.7169   31.3549   54.8208 N   0  0  0  0  0  0  0  0  0  0  0  0
   -2.6345   30.4605   54.7986 C   0  0  0  0  0  0  0  0  0  0  0  0
   -1.3459   30.8916   55.2897 N   0  0  0  0  0  0  0  0  0  0  0  0
   -2.8026   29.1800   54.3230 N   0  0  0  0  0  0  0  0  0  0  0  0
   -4.0532   28.7225   53.8337 C   0  0  0  0  0  0  0  0  0  0  0  0
   -5.1762   29.6201   53.8219 C   0  0  0  0  0  0  0  0  0  0  0  0
   -4.9622   30.9591   54.3212 C   0  0  0  0  0  0  0  0  0  0  0  0
   -6.0392   31.8010   54.3147 O   0  0  0  0  0  0  0  0  0  0  0  0
   -6.3180   28.9159   53.2853 C   0  0  0  0  0  0  0  0  0  0  0  0
   -5.8378   27.6417   52.9784 C   0  0  0  0  0  0  0  0  0  0  0  0
   -4.5005   27.5338   53.3144 N   0  0  0  0  0  0  0  0  0  0  0  0
   -7.7148   29.4600   53.0581 C   0  0  0  0  0  0  0  0  0  0  0  0
   -7.8117   30.3355   51.8923 N   0  0  0  0  0  0  0  0  0  0  0  0
  1  2  1  0  0  0  0
  1  7  1  0  0  0  0
  2  3  1  0  0  0  0
  2  4  2  0  0  0  0
  4  5  1  0  0  0  0
  5  6  2  0  0  0  0
  5 11  1  0  0  0  0
  6  7  1  0  0  0  0
  6  9  1  0  0  0  0
  7  8  2  0  0  0  0
  9 10  2  0  0  0  0
  9 12  1  0  0  0  0
 10 11  1  0  0  0  0
 12 13  1  0  0  0  0
M  END
>  <CHROM.1>
75.35532987,-4.85435697,29.80930084,53.85616986,0.30766801,-0.35376881,0.28793941

>  <Name>
ligand

>  <RI>
0

>  <Rbt.Current_Directory>
/home/itssahil/PROJECTS/Mol_Feturizer/Test_systems_manuscript/rnas/4jf2

>  <Rbt.Executable>
rbdock ($Id: //depot/dev/client3/rdock/2013.1/src/exe/rbdock.cxx#4 $)

>  <Rbt.Library>
libRbt.so (2013.1, Build901 2013/11/27)

>  <Rbt.Parameter_File>
/export/apps/rDock/src/rDock_2013.1_src/data/scripts/dock_solv.prm

>  <Rbt.Receptor>
prm/pocket_docking_8.prm

>  <SCORE>
-15.7301

>  <SCORE.INTER>
-15.6375

>  <SCORE.INTER.CONST>
1

>  <SCORE.INTER.POLAR>
0

>  <SCORE.INTER.ROT>
1

>  <SCORE.INTER.SOLV>
17.5572

>  <SCORE.INTER.VDW>
-20.5441

>  <SCORE.INTER.norm>
-1.20288

>  <SCORE.INTRA>
-0.0926213

>  <SCORE.INTRA.DIHEDRAL>
-0.161568

>  <SCORE.INTRA.DIHEDRAL.0>
1.75624

>  <SCORE.INTRA.POLAR>
0

>  <SCORE.INTRA.POLAR.0>
0

>  <SCORE.INTRA.REPUL>
0

>  <SCORE.INTRA.REPUL.0>
0

>  <SCORE.INTRA.SOLV>
-0.0256999

>  <SCORE.INTRA.SOLV.lig_0>
-46.5296

>  <SCORE.INTRA.VDW>
0.00101273

>  <SCORE.INTRA.VDW.0>
-0.381873

>  <SCORE.INTRA.norm>
-0.00712472

>  <SCORE.RESTR>
0

>  <SCORE.RESTR.CAVITY>
0

>  <SCORE.RESTR.norm>
0

>  <SCORE.SYSTEM>
0

>  <SCORE.SYSTEM.CONST>
0

>  <SCORE.SYSTEM.DIHEDRAL>
0

>  <SCORE.SYSTEM.SOLV>
0

>  <SCORE.SYSTEM.norm>
0

>  <SCORE.heavy>
13

>  <SCORE.norm>
-1.21001

>  <RMSD>
0.727

$$$$
ligand
 OpenBabel02271912143D
libRbt.so/2013.1/901 2013/11/27
 13 14  0  0  0  0  0  0  0  0999 V2000
   -3.3919   31.4689   54.7527 N   0  0  0  0  0  0  0  0  0  0  0  0
   -2.5115   30.4462   55.1416 C   0  0  0  0  0  0  0  0  0  0  0  0
   -1.3803   30.7636   55.9825 N   0  0  0  0  0  0  0  0  0  0  0  0
   -2.7307   29.1501   54.7338 N   0  0  0  0  0  0  0  0  0  0  0  0
   -3.8310   28.8021   53.9085 C   0  0  0  0  0  0  0  0  0  0  0  0
   -4.7387   29.8289   53.4744 C   0  0  0  0  0  0  0  0  0  0  0  0
   -4.4741   31.1795   53.9148 C   0  0  0  0  0  0  0  0  0  0  0  0
   -5.3491   32.1464   53.5044 O   0  0  0  0  0  0  0  0  0  0  0  0
   -5.7618   29.2183   52.6573 C   0  0  0  0  0  0  0  0  0  0  0  0
   -5.4220   27.8652   52.6142 C   0  0  0  0  0  0  0  0  0  0  0  0
   -4.2845   27.6270   53.3640 N   0  0  0  0  0  0  0  0  0  0  0  0
   -6.9183   29.9066   51.9590 C   0  0  0  0  0  0  0  0  0  0  0  0
   -7.8341   30.5760   52.8800 N   0  0  0  0  0  0  0  0  0  0  0  0
  1  2  1  0  0  0  0
  1  7  1  0  0  0  0
  2  3  1  0  0  0  0
  2  4  2  0  0  0  0
  4  5  1  0  0  0  0
  5  6  2  0  0  0  0
  5 11  1  0  0  0  0
  6  7  1  0  0  0  0
  6  9  1  0  0  0  0
  7  8  2  0  0  0  0
  9 10  2  0  0  0  0
  9 12  1  0  0  0  0
 10 11  1  0  0  0  0
 12 13  1  0  0  0  0
M  END
>  <CHROM.1>
-61.54684082,-4.52354406,29.97258256,53.76726887,0.25084763,-0.51567107,0.24430219

>  <Name>
ligand

>  <RI>
-1

>  <Rbt.Current_Directory>
/home/itssahil/PROJECTS/Mol_Feturizer/Test_systems_manuscript/rnas/4jf2

>  <Rbt.Executable>
rbdock ($Id: //depot/dev/client3/rdock/2013.1/src/exe/rbdock.cxx#4 $)

>  <Rbt.Library>
libRbt.so (2013.1, Build901 2013/11/27)

>  <Rbt.Parameter_File>
/export/apps/rDock/src/rDock_2013.1_src/data/scripts/dock_solv.prm

>  <Rbt.Receptor>
prm/pocket_docking_2.prm

>  <SCORE>
-14.8569

>  <SCORE.INTER>
-14.9979

>  <SCORE.INTER.CONST>
1

>  <SCORE.INTER.POLAR>
0

>  <SCORE.INTER.ROT>
1

>  <SCORE.INTER.SOLV>
15.9869

>  <SCORE.INTER.VDW>
-19.5942

>  <SCORE.INTER.norm>
-1.15368

>  <SCORE.INTRA>
0.140954

>  <SCORE.INTRA.DIHEDRAL>
-0.0746213

>  <SCORE.INTRA.DIHEDRAL.0>
1.75624

>  <SCORE.INTRA.POLAR>
0

>  <SCORE.INTRA.POLAR.0>
0

>  <SCORE.INTRA.REPUL>
0

>  <SCORE.INTRA.REPUL.0>
0

>  <SCORE.INTRA.SOLV>
0.403529

>  <SCORE.INTRA.SOLV.lig_0>
-46.5296

>  <SCORE.INTRA.VDW>
-0.0235

>  <SCORE.INTRA.VDW.0>
-0.381873

>  <SCORE.INTRA.norm>
0.0108426

>  <SCORE.RESTR>
0

>  <SCORE.RESTR.CAVITY>
0

>  <SCORE.RESTR.norm>
0

>  <SCORE.SYSTEM>
0

>  <SCORE.SYSTEM.CONST>
0

>  <SCORE.SYSTEM.DIHEDRAL>
0

>  <SCORE.SYSTEM.SOLV>
0

>  <SCORE.SYSTEM.norm>
0

>  <SCORE.heavy>
13

>  <SCORE.norm>
-1.14284

>  <RMSD>
0.730

$$$$
ligand
 OpenBabel02271912143D
libRbt.so/2013.1/901 2013/11/27
 13 14  0  0  0  0  0  0  0  0999 V2000
   -3.7255   31.4276   54.8661 N   0  0  0  0  0  0  0  0  0  0  0  0
   -2.5931   30.5986   54.8148 C   0  0  0  0  0  0  0  0  0  0  0  0
   -1.3295   31.0895   55.3147 N   0  0  0  0  0  0  0  0  0  0  0  0
   -2.6887   29.3248   54.3025 N   0  0  0  0  0  0  0  0  0  0  0  0
   -3.9129   28.8098   53.8035 C   0  0  0  0  0  0  0  0  0  0  0  0
   -5.0861   29.6405   53.8211 C   0  0  0  0  0  0  0  0  0  0  0  0
   -4.9478   30.9747   54.3587 C   0  0  0  0  0  0  0  0  0  0  0  0
   -6.0719   31.7524   54.3797 O   0  0  0  0  0  0  0  0  0  0  0  0
   -6.1875   28.8870   53.2673 C   0  0  0  0  0  0  0  0  0  0  0  0
   -5.6356   27.6523   52.9220 C   0  0  0  0  0  0  0  0  0  0  0  0
   -4.2928   27.6126   53.2510 N   0  0  0  0  0  0  0  0  0  0  0  0
   -7.6145   29.3554   53.0600 C   0  0  0  0  0  0  0  0  0  0  0  0
   -7.7461   30.3598   52.0070 N   0  0  0  0  0  0  0  0  0  0  0  0
  1  2  1  0  0  0  0
  1  7  1  0  0  0  0
  2  3  1  0  0  0  0
  2  4  2  0  0  0  0
  4  5  1  0  0  0  0
  5  6  2  0  0  0  0
  5 11  1  0  0  0  0
  6  7  1  0  0  0  0
  6  9  1  0  0  0  0
  7  8  2  0  0  0  0
  9 10  2  0  0  0  0
  9 12  1  0  0  0  0
 10 11  1  0  0  0  0
 12 13  1  0  0  0  0
M  END
>  <CHROM.1>
69.55298368,-4.77388664,29.85540873,53.86697748,0.35533407,-0.32980327,0.33252669

>  <Name>
ligand

>  <RI>
-1

>  <Rbt.Current_Directory>
/home/itssahil/PROJECTS/Mol_Feturizer/Test_systems_manuscript/rnas/4jf2

>  <Rbt.Executable>
rbdock ($Id: //depot/dev/client3/rdock/2013.1/src/exe/rbdock.cxx#4 $)

>  <Rbt.Library>
libRbt.so (2013.1, Build901 2013/11/27)

>  <Rbt.Parameter_File>
/export/apps/rDock/src/rDock_2013.1_src/data/scripts/dock_solv.prm

>  <Rbt.Receptor>
prm/pocket_docking_6.prm

>  <SCORE>
-15.7786

>  <SCORE.INTER>
-15.7664

>  <SCORE.INTER.CONST>
1

>  <SCORE.INTER.POLAR>
0

>  <SCORE.INTER.ROT>
1

>  <SCORE.INTER.SOLV>
17.5962

>  <SCORE.INTER.VDW>
-20.643

>  <SCORE.INTER.norm>
-1.2128

>  <SCORE.INTRA>
-0.0121446

>  <SCORE.INTRA.DIHEDRAL>
-0.136146

>  <SCORE.INTRA.DIHEDRAL.0>
1.75624

>  <SCORE.INTRA.POLAR>
0

>  <SCORE.INTRA.POLAR.0>
0

>  <SCORE.INTRA.REPUL>
0

>  <SCORE.INTRA.REPUL.0>
0

>  <SCORE.INTRA.SOLV>
0.141029

>  <SCORE.INTRA.SOLV.lig_0>
-46.5296

>  <SCORE.INTRA.VDW>
-0.014586

>  <SCORE.INTRA.VDW.0>
-0.381873

>  <SCORE.INTRA.norm>
-0.000934199

>  <SCORE.RESTR>
0

>  <SCORE.RESTR.CAVITY>
0

>  <SCORE.RESTR.norm>
0

>  <SCORE.SYSTEM>
0

>  <SCORE.SYSTEM.CONST>
0

>  <SCORE.SYSTEM.DIHEDRAL>
0

>  <SCORE.SYSTEM.SOLV>
0

>  <SCORE.SYSTEM.norm>
0

>  <SCORE.heavy>
13

>  <SCORE.norm>
-1.21373

>  <RMSD>
0.733

$$$$
ligand
 OpenBabel02271912143D
libRbt.so/2013.1/901 2013/11/27
 13 14  0  0  0  0  0  0  0  0999 V2000
   -3.7098   31.4512   54.8500 N   0  0  0  0  0  0  0  0  0  0  0  0
   -2.5795   30.6180   54.8300 C   0  0  0  0  0  0  0  0  0  0  0  0
   -1.3177   31.1197   55.3233 N   0  0  0  0  0  0  0  0  0  0  0  0
   -2.6757   29.3301   54.3542 N   0  0  0  0  0  0  0  0  0  0  0  0
   -3.8983   28.8042   53.8627 C   0  0  0  0  0  0  0  0  0  0  0  0
   -5.0691   29.6383   53.8487 C   0  0  0  0  0  0  0  0  0  0  0  0
   -4.9303   30.9871   54.3482 C   0  0  0  0  0  0  0  0  0  0  0  0
   -6.0522   31.7682   54.3395 O   0  0  0  0  0  0  0  0  0  0  0  0
   -6.1692   28.8720   53.3100 C   0  0  0  0  0  0  0  0  0  0  0  0
   -5.6188   27.6263   53.0042 C   0  0  0  0  0  0  0  0  0  0  0  0
   -4.2782   27.5925   53.3427 N   0  0  0  0  0  0  0  0  0  0  0  0
   -7.5935   29.3381   53.0802 C   0  0  0  0  0  0  0  0  0  0  0  0
   -7.7063   30.3645   52.0463 N   0  0  0  0  0  0  0  0  0  0  0  0
  1  2  1  0  0  0  0
  1  7  1  0  0  0  0
  2  3  1  0  0  0  0
  2  4  2  0  0  0  0
  4  5  1  0  0  0  0
  5  6  2  0  0  0  0
  5 11  1  0  0  0  0
  6  7  1  0  0  0  0
  6  9  1  0  0  0  0
  7  8  2  0  0  0  0
  9 10  2  0  0  0  0
  9 12  1  0  0  0  0
 10 11  1  0  0  0  0
 12 13  1  0  0  0  0
M  END
>  <CHROM.1>
66.46379632,-4.75581325,29.85782892,53.89424241,0.34962953,-0.33478160,0.30154525

>  <Name>
ligand

>  <RI>
-1

>  <Rbt.Current_Directory>
/home/itssahil/PROJECTS/Mol_Feturizer/Test_systems_manuscript/rnas/4jf2

>  <Rbt.Executable>
rbdock ($Id: //depot/dev/client3/rdock/2013.1/src/exe/rbdock.cxx#4 $)

>  <Rbt.Library>
libRbt.so (2013.1, Build901 2013/11/27)

>  <Rbt.Parameter_File>
/export/apps/rDock/src/rDock_2013.1_src/data/scripts/dock_solv.prm

>  <Rbt.Receptor>
prm/pocket_docking_7.prm

>  <SCORE>
-15.7194

>  <SCORE.INTER>
-15.7526

>  <SCORE.INTER.CONST>
1

>  <SCORE.INTER.POLAR>
0

>  <SCORE.INTER.ROT>
1

>  <SCORE.INTER.SOLV>
17.5484

>  <SCORE.INTER.VDW>
-20.6179

>  <SCORE.INTER.norm>
-1.21174

>  <SCORE.INTRA>
0.0331787

>  <SCORE.INTRA.DIHEDRAL>
-0.120202

>  <SCORE.INTRA.DIHEDRAL.0>
1.75624

>  <SCORE.INTRA.POLAR>
0

>  <SCORE.INTRA.POLAR.0>
0

>  <SCORE.INTRA.REPUL>
0

>  <SCORE.INTRA.REPUL.0>
0

>  <SCORE.INTRA.SOLV>
0.229322

>  <SCORE.INTRA.SOLV.lig_0>
-46.5296

>  <SCORE.INTRA.VDW>
-0.0213813

>  <SCORE.INTRA.VDW.0>
-0.381873

>  <SCORE.INTRA.norm>
0.00255221

>  <SCORE.RESTR>
0

>  <SCORE.RESTR.CAVITY>
0

>  <SCORE.RESTR.norm>
0

>  <SCORE.SYSTEM>
0

>  <SCORE.SYSTEM.CONST>
0

>  <SCORE.SYSTEM.DIHEDRAL>
0

>  <SCORE.SYSTEM.SOLV>
0

>  <SCORE.SYSTEM.norm>
0

>  <SCORE.heavy>
13

>  <SCORE.norm>
-1.20919

>  <RMSD>
0.736

$$$$
ligand
 OpenBabel02271912143D
libRbt.so/2013.1/901 2013/11/27
 13 14  0  0  0  0  0  0  0  0999 V2000
   -3.5183   31.5039   54.9542 N   0  0  0  0  0  0  0  0  0  0  0  0
   -2.4531   30.5887   54.9438 C   0  0  0  0  0  0  0  0  0  0  0  0
   -1.1687   30.9867   55.4724 N   0  0  0  0  0  0  0  0  0  0  0  0
   -2.6344   29.3192   54.4439 N   0  0  0  0  0  0  0  0  0  0  0  0
   -3.8814   28.8942   53.9175 C   0  0  0  0  0  0  0  0  0  0  0  0
   -4.9862   29.8138   53.8931 C   0  0  0  0  0  0  0  0  0  0  0  0
   -4.7584   31.1405   54.4187 C   0  0  0  0  0  0  0  0  0  0  0  0
   -5.8184   32.0035   54.3997 O   0  0  0  0  0  0  0  0  0  0  0  0
   -6.1280   29.1407   53.3181 C   0  0  0  0  0  0  0  0  0  0  0  0
   -5.6653   27.8621   53.0025 C   0  0  0  0  0  0  0  0  0  0  0  0
   -4.3389   27.7227   53.3687 N   0  0  0  0  0  0  0  0  0  0  0  0
   -7.5080   29.7157   53.0661 C   0  0  0  0  0  0  0  0  0  0  0  0
   -7.6092   30.4443   51.8035 N   0  0  0  0  0  0  0  0  0  0  0  0
  1  2  1  0  0  0  0
  1  7  1  0  0  0  0
  2  3  1  0  0  0  0
  2  4  2  0  0  0  0
  4  5  1  0  0  0  0
  5  6  2  0  0  0  0
  5 11  1  0  0  0  0
  6  7  1  0  0  0  0
  6  9  1  0  0  0  0
  7  8  2  0  0  0  0
  9 10  2  0  0  0  0
  9 12  1  0  0  0  0
 10 11  1  0  0  0  0
 12 13  1  0  0  0  0
M  END
>  <CHROM.1>
84.12414236,-4.66566716,29.98253562,53.92920532,0.31156198,-0.38480573,0.30631682

>  <Name>
ligand

>  <RI>
0

>  <Rbt.Current_Directory>
/home/itssahil/PROJECTS/Mol_Feturizer/Test_systems_manuscript/rnas/4jf2

>  <Rbt.Executable>
rbdock ($Id: //depot/dev/client3/rdock/2013.1/src/exe/rbdock.cxx#4 $)

>  <Rbt.Library>
libRbt.so (2013.1, Build901 2013/11/27)

>  <Rbt.Parameter_File>
/export/apps/rDock/src/rDock_2013.1_src/data/scripts/dock_solv.prm

>  <Rbt.Receptor>
prm/pocket_docking_8.prm

>  <SCORE>
-15.7794

>  <SCORE.INTER>
-15.5749

>  <SCORE.INTER.CONST>
1

>  <SCORE.INTER.POLAR>
0

>  <SCORE.INTER.ROT>
1

>  <SCORE.INTER.SOLV>
17.0432

>  <SCORE.INTER.VDW>
-20.331

>  <SCORE.INTER.norm>
-1.19807

>  <SCORE.INTRA>
-0.204497

>  <SCORE.INTRA.DIHEDRAL>
-0.184603

>  <SCORE.INTRA.DIHEDRAL.0>
1.75624

>  <SCORE.INTRA.POLAR>
0

>  <SCORE.INTRA.POLAR.0>
0

>  <SCORE.INTRA.REPUL>
0

>  <SCORE.INTRA.REPUL.0>
0

>  <SCORE.INTRA.SOLV>
-0.276551

>  <SCORE.INTRA.SOLV.lig_0>
-46.5296

>  <SCORE.INTRA.VDW>
0.0260801

>  <SCORE.INTRA.VDW.0>
-0.381873

>  <SCORE.INTRA.norm>
-0.0157305

>  <SCORE.RESTR>
0

>  <SCORE.RESTR.CAVITY>
0

>  <SCORE.RESTR.norm>
0

>  <SCORE.SYSTEM>
0

>  <SCORE.SYSTEM.CONST>
0

>  <SCORE.SYSTEM.DIHEDRAL>
0

>  <SCORE.SYSTEM.SOLV>
0

>  <SCORE.SYSTEM.norm>
0

>  <SCORE.heavy>
13

>  <SCORE.norm>
-1.2138

>  <RMSD>
0.739

$$$$
ligand
 OpenBabel02271912143D
libRbt.so/2013.1/901 2013/11/27
 13 14  0  0  0  0  0  0  0  0999 V2000
   -3.6800   31.4312   54.8819 N   0  0  0  0  0  0  0  0  0  0  0  0
   -2.5569   30.5895   54.8312 C   0  0  0  0  0  0  0  0  0  0  0  0
   -1.2880   31.0663   55.3312 N   0  0  0  0  0  0  0  0  0  0  0  0
   -2.6667   29.3167   54.3192 N   0  0  0  0  0  0  0  0  0  0  0  0
   -3.8965   28.8153   53.8201 C   0  0  0  0  0  0  0  0  0  0  0  0
   -5.0603   29.6591   53.8370 C   0  0  0  0  0  0  0  0  0  0  0  0
   -4.9072   30.9918   54.3743 C   0  0  0  0  0  0  0  0  0  0  0  0
   -6.0225   31.7821   54.3947 O   0  0  0  0  0  0  0  0  0  0  0  0
   -6.1699   28.9178   53.2832 C   0  0  0  0  0  0  0  0  0  0  0  0
   -5.6318   27.6769   52.9385 C   0  0  0  0  0  0  0  0  0  0  0  0
   -4.2896   27.6222   53.2678 N   0  0  0  0  0  0  0  0  0  0  0  0
   -7.5915   29.4021   53.0754 C   0  0  0  0  0  0  0  0  0  0  0  0
   -7.7424   30.2686   51.9086 N   0  0  0  0  0  0  0  0  0  0  0  0
  1  2  1  0  0  0  0
  1  7  1  0  0  0  0
  2  3  1  0  0  0  0
  2  4  2  0  0  0  0
  4  5  1  0  0  0  0
  5  6  2  0  0  0  0
  5 11  1  0  0  0  0
  6  7  1  0  0  0  0
  6  9  1  0  0  0  0
  7  8  2  0  0  0  0
  9 10  2  0  0  0  0
  9 12  1  0  0  0  0
 10 11  1  0  0  0  0
 12 13  1  0  0  0  0
M  END
>  <CHROM.1>
77.33172622,-4.74821877,29.85919316,53.87373010,0.35760430,-0.33705482,0.33393128

>  <Name>
ligand

>  <RI>
-1

>  <Rbt.Current_Directory>
/home/itssahil/PROJECTS/Mol_Feturizer/Test_systems_manuscript/rnas/4jf2

>  <Rbt.Executable>
rbdock ($Id: //depot/dev/client3/rdock/2013.1/src/exe/rbdock.cxx#4 $)

>  <Rbt.Library>
libRbt.so (2013.1, Build901 2013/11/27)

>  <Rbt.Parameter_File>
/export/apps/rDock/src/rDock_2013.1_src/data/scripts/dock_solv.prm

>  <Rbt.Receptor>
prm/pocket_docking_7.prm

>  <SCORE>
-15.8111

>  <SCORE.INTER>
-15.6923

>  <SCORE.INTER.CONST>
1

>  <SCORE.INTER.POLAR>
0

>  <SCORE.INTER.ROT>
1

>  <SCORE.INTER.SOLV>
17.7763

>  <SCORE.INTER.VDW>
-20.6536

>  <SCORE.INTER.norm>
-1.2071

>  <SCORE.INTRA>
-0.118838

>  <SCORE.INTRA.DIHEDRAL>
-0.168541

>  <SCORE.INTRA.DIHEDRAL.0>
1.75624

>  <SCORE.INTRA.POLAR>
0

>  <SCORE.INTRA.POLAR.0>
0

>  <SCORE.INTRA.REPUL>
0

>  <SCORE.INTRA.REPUL.0>
0

>  <SCORE.INTRA.SOLV>
-0.082505

>  <SCORE.INTRA.SOLV.lig_0>
-46.5296

>  <SCORE.INTRA.VDW>
0.00668446

>  <SCORE.INTRA.VDW.0>
-0.381873

>  <SCORE.INTRA.norm>
-0.00914141

>  <SCORE.RESTR>
0

>  <SCORE.RESTR.CAVITY>
0

>  <SCORE.RESTR.norm>
0

>  <SCORE.SYSTEM>
0

>  <SCORE.SYSTEM.CONST>
0

>  <SCORE.SYSTEM.DIHEDRAL>
0

>  <SCORE.SYSTEM.SOLV>
0

>  <SCORE.SYSTEM.norm>
0

>  <SCORE.heavy>
13

>  <SCORE.norm>
-1.21624

>  <RMSD>
0.746

$$$$
ligand
 OpenBabel02271912143D
libRbt.so/2013.1/901 2013/11/27
 13 14  0  0  0  0  0  0  0  0999 V2000
   -3.5577   31.5096   54.9349 N   0  0  0  0  0  0  0  0  0  0  0  0
   -2.4582   30.6365   54.9053 C   0  0  0  0  0  0  0  0  0  0  0  0
   -1.1826   31.0821   55.4169 N   0  0  0  0  0  0  0  0  0  0  0  0
   -2.5974   29.3627   54.4029 N   0  0  0  0  0  0  0  0  0  0  0  0
   -3.8346   28.8915   53.8930 C   0  0  0  0  0  0  0  0  0  0  0  0
   -4.9744   29.7676   53.8883 C   0  0  0  0  0  0  0  0  0  0  0  0
   -4.7906   31.1002   54.4160 C   0  0  0  0  0  0  0  0  0  0  0  0
   -5.8834   31.9215   54.4159 O   0  0  0  0  0  0  0  0  0  0  0  0
   -6.0976   29.0527   53.3272 C   0  0  0  0  0  0  0  0  0  0  0  0
   -5.5903   27.7942   52.9997 C   0  0  0  0  0  0  0  0  0  0  0  0
   -4.2543   27.7050   53.3461 N   0  0  0  0  0  0  0  0  0  0  0  0
   -7.5024   29.5746   53.0977 C   0  0  0  0  0  0  0  0  0  0  0  0
   -7.6606   30.2669   51.8207 N   0  0  0  0  0  0  0  0  0  0  0  0
  1  2  1  0  0  0  0
  1  7  1  0  0  0  0
  2  3  1  0  0  0  0
  2  4  2  0  0  0  0
  4  5  1  0  0  0  0
  5  6  2  0  0  0  0
  5 11  1  0  0  0  0
  6  7  1  0  0  0  0
  6  9  1  0  0  0  0
  7  8  2  0  0  0  0
  9 10  2  0  0  0  0
  9 12  1  0  0  0  0
 10 11  1  0  0  0  0
 12 13  1  0  0  0  0
M  END
>  <CHROM.1>
85.92538215,-4.66102192,29.94554630,53.91894611,0.34981203,-0.35899100,0.32440548

>  <Name>
ligand

>  <RI>
-1

>  <Rbt.Current_Directory>
/home/itssahil/PROJECTS/Mol_Feturizer/Test_systems_manuscript/rnas/4jf2

>  <Rbt.Executable>
rbdock ($Id: //depot/dev/client3/rdock/2013.1/src/exe/rbdock.cxx#4 $)

>  <Rbt.Library>
libRbt.so (2013.1, Build901 2013/11/27)

>  <Rbt.Parameter_File>
/export/apps/rDock/src/rDock_2013.1_src/data/scripts/dock_solv.prm

>  <Rbt.Receptor>
prm/pocket_docking_3.prm

>  <SCORE>
-15.742

>  <SCORE.INTER>
-15.516

>  <SCORE.INTER.CONST>
1

>  <SCORE.INTER.POLAR>
0

>  <SCORE.INTER.ROT>
1

>  <SCORE.INTER.SOLV>
17.6424

>  <SCORE.INTER.VDW>
-20.4914

>  <SCORE.INTER.norm>
-1.19354

>  <SCORE.INTRA>
-0.226015

>  <SCORE.INTRA.DIHEDRAL>
-0.186631

>  <SCORE.INTRA.DIHEDRAL.0>
1.75624

>  <SCORE.INTRA.POLAR>
0

>  <SCORE.INTRA.POLAR.0>
0

>  <SCORE.INTRA.REPUL>
0

>  <SCORE.INTRA.REPUL.0>
0

>  <SCORE.INTRA.SOLV>
-0.327483

>  <SCORE.INTRA.SOLV.lig_0>
-46.5296

>  <SCORE.INTRA.VDW>
0.0310426

>  <SCORE.INTRA.VDW.0>
-0.381873

>  <SCORE.INTRA.norm>
-0.0173857

>  <SCORE.RESTR>
0

>  <SCORE.RESTR.CAVITY>
0

>  <SCORE.RESTR.norm>
0

>  <SCORE.SYSTEM>
0

>  <SCORE.SYSTEM.CONST>
0

>  <SCORE.SYSTEM.DIHEDRAL>
0

>  <SCORE.SYSTEM.SOLV>
0

>  <SCORE.SYSTEM.norm>
0

>  <SCORE.heavy>
13

>  <SCORE.norm>
-1.21092

>  <RMSD>
0.756

$$$$
ligand
 OpenBabel02271912143D
libRbt.so/2013.1/901 2013/11/27
 13 14  0  0  0  0  0  0  0  0999 V2000
   -3.4176   31.5651   54.9936 N   0  0  0  0  0  0  0  0  0  0  0  0
   -2.3648   30.6357   54.9846 C   0  0  0  0  0  0  0  0  0  0  0  0
   -1.0708   31.0223   55.4978 N   0  0  0  0  0  0  0  0  0  0  0  0
   -2.5672   29.3632   54.5008 N   0  0  0  0  0  0  0  0  0  0  0  0
   -3.8243   28.9489   53.9899 C   0  0  0  0  0  0  0  0  0  0  0  0
   -4.9169   29.8829   53.9643 C   0  0  0  0  0  0  0  0  0  0  0  0
   -4.6671   31.2122   54.4728 C   0  0  0  0  0  0  0  0  0  0  0  0
   -5.7156   32.0891   54.4530 O   0  0  0  0  0  0  0  0  0  0  0  0
   -6.0725   29.2186   53.4067 C   0  0  0  0  0  0  0  0  0  0  0  0
   -5.6295   27.9305   53.1019 C   0  0  0  0  0  0  0  0  0  0  0  0
   -4.3020   27.7775   53.4584 N   0  0  0  0  0  0  0  0  0  0  0  0
   -7.4469   29.8092   53.1599 C   0  0  0  0  0  0  0  0  0  0  0  0
   -7.5777   30.4415   51.8491 N   0  0  0  0  0  0  0  0  0  0  0  0
  1  2  1  0  0  0  0
  1  7  1  0  0  0  0
  2  3  1  0  0  0  0
  2  4  2  0  0  0  0
  4  5  1  0  0  0  0
  5  6  2  0  0  0  0
  5 11  1  0  0  0  0
  6  7  1  0  0  0  0
  6  9  1  0  0  0  0
  7  8  2  0  0  0  0
  9 10  2  0  0  0  0
  9 12  1  0  0  0  0
 10 11  1  0  0  0  0
 12 13  1  0  0  0  0
M  END
>  <CHROM.1>
88.26308841,-4.59621494,30.04093705,53.99247167,0.30329790,-0.38071833,0.29269292

>  <Name>
ligand

>  <RI>
0

>  <Rbt.Current_Directory>
/home/itssahil/PROJECTS/Mol_Feturizer/Test_systems_manuscript/rnas/4jf2

>  <Rbt.Executable>
rbdock ($Id: //depot/dev/client3/rdock/2013.1/src/exe/rbdock.cxx#4 $)

>  <Rbt.Library>
libRbt.so (2013.1, Build901 2013/11/27)

>  <Rbt.Parameter_File>
/export/apps/rDock/src/rDock_2013.1_src/data/scripts/dock_solv.prm

>  <Rbt.Receptor>
prm/pocket_docking_8.prm

>  <SCORE>
-15.8596

>  <SCORE.INTER>
-15.6065

>  <SCORE.INTER.CONST>
1

>  <SCORE.INTER.POLAR>
0

>  <SCORE.INTER.ROT>
1

>  <SCORE.INTER.SOLV>
17.0937

>  <SCORE.INTER.VDW>
-20.3689

>  <SCORE.INTER.norm>
-1.2005

>  <SCORE.INTRA>
-0.253147

>  <SCORE.INTRA.DIHEDRAL>
-0.187799

>  <SCORE.INTRA.DIHEDRAL.0>
1.75624

>  <SCORE.INTRA.POLAR>
0

>  <SCORE.INTRA.POLAR.0>
0

>  <SCORE.INTRA.REPUL>
0

>  <SCORE.INTRA.REPUL.0>
0

>  <SCORE.INTRA.SOLV>
-0.393119

>  <SCORE.INTRA.SOLV.lig_0>
-46.5296

>  <SCORE.INTRA.VDW>
0.0373128

>  <SCORE.INTRA.VDW.0>
-0.381873

>  <SCORE.INTRA.norm>
-0.0194728

>  <SCORE.RESTR>
0

>  <SCORE.RESTR.CAVITY>
0

>  <SCORE.RESTR.norm>
0

>  <SCORE.SYSTEM>
0

>  <SCORE.SYSTEM.CONST>
0

>  <SCORE.SYSTEM.DIHEDRAL>
0

>  <SCORE.SYSTEM.SOLV>
0

>  <SCORE.SYSTEM.norm>
0

>  <SCORE.heavy>
13

>  <SCORE.norm>
-1.21997

>  <RMSD>
0.756

$$$$
ligand
 OpenBabel02271912143D
libRbt.so/2013.1/901 2013/11/27
 13 14  0  0  0  0  0  0  0  0999 V2000
   -3.4683   31.5387   54.9590 N   0  0  0  0  0  0  0  0  0  0  0  0
   -2.3988   30.6286   54.9513 C   0  0  0  0  0  0  0  0  0  0  0  0
   -1.1152   31.0356   55.4747 N   0  0  0  0  0  0  0  0  0  0  0  0
   -2.5752   29.3554   54.4590 N   0  0  0  0  0  0  0  0  0  0  0  0
   -3.8214   28.9214   53.9380 C   0  0  0  0  0  0  0  0  0  0  0  0
   -4.9306   29.8356   53.9109 C   0  0  0  0  0  0  0  0  0  0  0  0
   -4.7080   31.1663   54.4285 C   0  0  0  0  0  0  0  0  0  0  0  0
   -5.7721   32.0241   54.4071 O   0  0  0  0  0  0  0  0  0  0  0  0
   -6.0705   29.1538   53.3424 C   0  0  0  0  0  0  0  0  0  0  0  0
   -5.6024   27.8757   53.0330 C   0  0  0  0  0  0  0  0  0  0  0  0
   -4.2745   27.7446   53.3969 N   0  0  0  0  0  0  0  0  0  0  0  0
   -7.4538   29.7208   53.0904 C   0  0  0  0  0  0  0  0  0  0  0  0
   -7.5604   30.4448   51.8257 N   0  0  0  0  0  0  0  0  0  0  0  0
  1  2  1  0  0  0  0
  1  7  1  0  0  0  0
  2  3  1  0  0  0  0
  2  4  2  0  0  0  0
  4  5  1  0  0  0  0
  5  6  2  0  0  0  0
  5 11  1  0  0  0  0
  6  7  1  0  0  0  0
  6  9  1  0  0  0  0
  7  8  2  0  0  0  0
  9 10  2  0  0  0  0
  9 12  1  0  0  0  0
 10 11  1  0  0  0  0
 12 13  1  0  0  0  0
M  END
>  <CHROM.1>
83.96497245,-4.61072230,30.00632718,53.94547491,0.31541818,-0.38113778,0.30207086

>  <Name>
ligand

>  <RI>
-1

>  <Rbt.Current_Directory>
/home/itssahil/PROJECTS/Mol_Feturizer/Test_systems_manuscript/rnas/4jf2

>  <Rbt.Executable>
rbdock ($Id: //depot/dev/client3/rdock/2013.1/src/exe/rbdock.cxx#4 $)

>  <Rbt.Library>
libRbt.so (2013.1, Build901 2013/11/27)

>  <Rbt.Parameter_File>
/export/apps/rDock/src/rDock_2013.1_src/data/scripts/dock_solv.prm

>  <Rbt.Receptor>
prm/pocket_docking_3.prm

>  <SCORE>
-15.8639

>  <SCORE.INTER>
-15.6614

>  <SCORE.INTER.CONST>
1

>  <SCORE.INTER.POLAR>
0

>  <SCORE.INTER.ROT>
1

>  <SCORE.INTER.SOLV>
17.0807

>  <SCORE.INTER.VDW>
-20.4012

>  <SCORE.INTER.norm>
-1.20472

>  <SCORE.INTRA>
-0.202571

>  <SCORE.INTRA.DIHEDRAL>
-0.184377

>  <SCORE.INTRA.DIHEDRAL.0>
1.75624

>  <SCORE.INTRA.POLAR>
0

>  <SCORE.INTRA.POLAR.0>
0

>  <SCORE.INTRA.REPUL>
0

>  <SCORE.INTRA.REPUL.0>
0

>  <SCORE.INTRA.SOLV>
-0.272037

>  <SCORE.INTRA.SOLV.lig_0>
-46.5296

>  <SCORE.INTRA.VDW>
0.0256365

>  <SCORE.INTRA.VDW.0>
-0.381873

>  <SCORE.INTRA.norm>
-0.0155824

>  <SCORE.RESTR>
0

>  <SCORE.RESTR.CAVITY>
0

>  <SCORE.RESTR.norm>
0

>  <SCORE.SYSTEM>
0

>  <SCORE.SYSTEM.CONST>
0

>  <SCORE.SYSTEM.DIHEDRAL>
0

>  <SCORE.SYSTEM.SOLV>
0

>  <SCORE.SYSTEM.norm>
0

>  <SCORE.heavy>
13

>  <SCORE.norm>
-1.2203

>  <RMSD>
0.757

$$$$
ligand
 OpenBabel02271912143D
libRbt.so/2013.1/901 2013/11/27
 13 14  0  0  0  0  0  0  0  0999 V2000
   -3.5275   31.5008   54.9386 N   0  0  0  0  0  0  0  0  0  0  0  0
   -2.4616   30.5865   54.9528 C   0  0  0  0  0  0  0  0  0  0  0  0
   -1.1843   30.9921   55.4925 N   0  0  0  0  0  0  0  0  0  0  0  0
   -2.6356   29.3108   54.4665 N   0  0  0  0  0  0  0  0  0  0  0  0
   -3.8757   28.8781   53.9298 C   0  0  0  0  0  0  0  0  0  0  0  0
   -4.9807   29.7963   53.8802 C   0  0  0  0  0  0  0  0  0  0  0  0
   -4.7606   31.1296   54.3922 C   0  0  0  0  0  0  0  0  0  0  0  0
   -5.8209   31.9914   54.3493 O   0  0  0  0  0  0  0  0  0  0  0  0
   -6.1147   29.1151   53.2994 C   0  0  0  0  0  0  0  0  0  0  0  0
   -5.6472   27.8332   53.0055 C   0  0  0  0  0  0  0  0  0  0  0  0
   -4.3253   27.6995   53.3899 N   0  0  0  0  0  0  0  0  0  0  0  0
   -7.4920   29.6857   53.0231 C   0  0  0  0  0  0  0  0  0  0  0  0
   -7.5749   30.4085   51.7559 N   0  0  0  0  0  0  0  0  0  0  0  0
  1  2  1  0  0  0  0
  1  7  1  0  0  0  0
  2  3  1  0  0  0  0
  2  4  2  0  0  0  0
  4  5  1  0  0  0  0
  5  6  2  0  0  0  0
  5 11  1  0  0  0  0
  6  7  1  0  0  0  0
  6  9  1  0  0  0  0
  7  8  2  0  0  0  0
  9 10  2  0  0  0  0
  9 12  1  0  0  0  0
 10 11  1  0  0  0  0
 12 13  1  0  0  0  0
M  END
>  <CHROM.1>
83.62013787,-4.66059500,29.96660687,53.91870901,0.31545805,-0.39642863,0.29536018

>  <Name>
ligand

>  <RI>
0

>  <Rbt.Current_Directory>
/home/itssahil/PROJECTS/Mol_Feturizer/Test_systems_manuscript/rnas/4jf2

>  <Rbt.Executable>
rbdock ($Id: //depot/dev/client3/rdock/2013.1/src/exe/rbdock.cxx#4 $)

>  <Rbt.Library>
libRbt.so (2013.1, Build901 2013/11/27)

>  <Rbt.Parameter_File>
/export/apps/rDock/src/rDock_2013.1_src/data/scripts/dock_solv.prm

>  <Rbt.Receptor>
prm/pocket_docking_8.prm

>  <SCORE>
-15.8126

>  <SCORE.INTER>
-15.6142

>  <SCORE.INTER.CONST>
1

>  <SCORE.INTER.POLAR>
0

>  <SCORE.INTER.ROT>
1

>  <SCORE.INTER.SOLV>
17.022

>  <SCORE.INTER.VDW>
-20.3501

>  <SCORE.INTER.norm>
-1.20109

>  <SCORE.INTRA>
-0.198383

>  <SCORE.INTRA.DIHEDRAL>
-0.183862

>  <SCORE.INTRA.DIHEDRAL.0>
1.75624

>  <SCORE.INTRA.POLAR>
0

>  <SCORE.INTRA.POLAR.0>
0

>  <SCORE.INTRA.REPUL>
0

>  <SCORE.INTRA.REPUL.0>
0

>  <SCORE.INTRA.SOLV>
-0.262251

>  <SCORE.INTRA.SOLV.lig_0>
-46.5296

>  <SCORE.INTRA.VDW>
0.0246731

>  <SCORE.INTRA.VDW.0>
-0.381873

>  <SCORE.INTRA.norm>
-0.0152603

>  <SCORE.RESTR>
0

>  <SCORE.RESTR.CAVITY>
0

>  <SCORE.RESTR.norm>
0

>  <SCORE.SYSTEM>
0

>  <SCORE.SYSTEM.CONST>
0

>  <SCORE.SYSTEM.DIHEDRAL>
0

>  <SCORE.SYSTEM.SOLV>
0

>  <SCORE.SYSTEM.norm>
0

>  <SCORE.heavy>
13

>  <SCORE.norm>
-1.21635

>  <RMSD>
0.757

$$$$
ligand
 OpenBabel02271912143D
libRbt.so/2013.1/901 2013/11/27
 13 14  0  0  0  0  0  0  0  0999 V2000
   -3.4277   31.5334   55.0033 N   0  0  0  0  0  0  0  0  0  0  0  0
   -2.3421   30.6434   54.9601 C   0  0  0  0  0  0  0  0  0  0  0  0
   -1.0521   31.0714   55.4500 N   0  0  0  0  0  0  0  0  0  0  0  0
   -2.5085   29.3700   54.4651 N   0  0  0  0  0  0  0  0  0  0  0  0
   -3.7606   28.9158   53.9763 C   0  0  0  0  0  0  0  0  0  0  0  0
   -4.8869   29.8093   53.9859 C   0  0  0  0  0  0  0  0  0  0  0  0
   -4.6746   31.1409   54.5052 C   0  0  0  0  0  0  0  0  0  0  0  0
   -5.7546   31.9788   54.5188 O   0  0  0  0  0  0  0  0  0  0  0  0
   -6.0294   29.1095   53.4451 C   0  0  0  0  0  0  0  0  0  0  0  0
   -5.5466   27.8421   53.1149 C   0  0  0  0  0  0  0  0  0  0  0  0
   -4.2068   27.7339   53.4408 N   0  0  0  0  0  0  0  0  0  0  0  0
   -7.4296   29.6520   53.2354 C   0  0  0  0  0  0  0  0  0  0  0  0
   -7.5723   30.4227   52.0022 N   0  0  0  0  0  0  0  0  0  0  0  0
  1  2  1  0  0  0  0
  1  7  1  0  0  0  0
  2  3  1  0  0  0  0
  2  4  2  0  0  0  0
  4  5  1  0  0  0  0
  5  6  2  0  0  0  0
  5 11  1  0  0  0  0
  6  7  1  0  0  0  0
  6  9  1  0  0  0  0
  7  8  2  0  0  0  0
  9 10  2  0  0  0  0
  9 12  1  0  0  0  0
 10 11  1  0  0  0  0
 12 13  1  0  0  0  0
M  END
>  <CHROM.1>
81.85356860,-4.56837463,29.98909794,54.01445546,0.32135842,-0.34859172,0.30971375

>  <Name>
ligand

>  <RI>
-1

>  <Rbt.Current_Directory>
/home/itssahil/PROJECTS/Mol_Feturizer/Test_systems_manuscript/rnas/4jf2

>  <Rbt.Executable>
rbdock ($Id: //depot/dev/client3/rdock/2013.1/src/exe/rbdock.cxx#4 $)

>  <Rbt.Library>
libRbt.so (2013.1, Build901 2013/11/27)

>  <Rbt.Parameter_File>
/export/apps/rDock/src/rDock_2013.1_src/data/scripts/dock_solv.prm

>  <Rbt.Receptor>
prm/pocket_docking_2.prm

>  <SCORE>
-15.8021

>  <SCORE.INTER>
-15.6255

>  <SCORE.INTER.CONST>
1

>  <SCORE.INTER.POLAR>
0

>  <SCORE.INTER.ROT>
1

>  <SCORE.INTER.SOLV>
17.3443

>  <SCORE.INTER.VDW>
-20.4651

>  <SCORE.INTER.norm>
-1.20196

>  <SCORE.INTRA>
-0.176642

>  <SCORE.INTRA.DIHEDRAL>
-0.180677

>  <SCORE.INTRA.DIHEDRAL.0>
1.75624

>  <SCORE.INTRA.POLAR>
0

>  <SCORE.INTRA.POLAR.0>
0

>  <SCORE.INTRA.REPUL>
0

>  <SCORE.INTRA.REPUL.0>
0

>  <SCORE.INTRA.SOLV>
-0.21198

>  <SCORE.INTRA.SOLV.lig_0>
-46.5296

>  <SCORE.INTRA.VDW>
0.0196864

>  <SCORE.INTRA.VDW.0>
-0.381873

>  <SCORE.INTRA.norm>
-0.0135878

>  <SCORE.RESTR>
0

>  <SCORE.RESTR.CAVITY>
0

>  <SCORE.RESTR.norm>
0

>  <SCORE.SYSTEM>
0

>  <SCORE.SYSTEM.CONST>
0

>  <SCORE.SYSTEM.DIHEDRAL>
0

>  <SCORE.SYSTEM.SOLV>
0

>  <SCORE.SYSTEM.norm>
0

>  <SCORE.heavy>
13

>  <SCORE.norm>
-1.21555

>  <RMSD>
0.759

$$$$
ligand
 OpenBabel02271912143D
libRbt.so/2013.1/901 2013/11/27
 13 14  0  0  0  0  0  0  0  0999 V2000
   -3.4283   31.5427   55.0062 N   0  0  0  0  0  0  0  0  0  0  0  0
   -2.3513   30.6417   54.9803 C   0  0  0  0  0  0  0  0  0  0  0  0
   -1.0630   31.0591   55.4836 N   0  0  0  0  0  0  0  0  0  0  0  0
   -2.5247   29.3676   54.4893 N   0  0  0  0  0  0  0  0  0  0  0  0
   -3.7753   28.9236   53.9876 C   0  0  0  0  0  0  0  0  0  0  0  0
   -4.8925   29.8284   53.9794 C   0  0  0  0  0  0  0  0  0  0  0  0
   -4.6730   31.1603   54.4949 C   0  0  0  0  0  0  0  0  0  0  0  0
   -5.7446   32.0091   54.4916 O   0  0  0  0  0  0  0  0  0  0  0  0
   -6.0355   29.1375   53.4282 C   0  0  0  0  0  0  0  0  0  0  0  0
   -5.5616   27.8638   53.1098 C   0  0  0  0  0  0  0  0  0  0  0  0
   -4.2270   27.7436   53.4524 N   0  0  0  0  0  0  0  0  0  0  0  0
   -7.4275   29.6930   53.1991 C   0  0  0  0  0  0  0  0  0  0  0  0
   -7.5442   30.4704   51.9673 N   0  0  0  0  0  0  0  0  0  0  0  0
  1  2  1  0  0  0  0
  1  7  1  0  0  0  0
  2  3  1  0  0  0  0
  2  4  2  0  0  0  0
  4  5  1  0  0  0  0
  5  6  2  0  0  0  0
  5 11  1  0  0  0  0
  6  7  1  0  0  0  0
  6  9  1  0  0  0  0
  7  8  2  0  0  0  0
  9 10  2  0  0  0  0
  9 12  1  0  0  0  0
 10 11  1  0  0  0  0
 12 13  1  0  0  0  0
M  END
>  <CHROM.1>
81.27023456,-4.57228779,30.00607075,54.01150022,0.31387068,-0.36298367,0.30218960

>  <Name>
ligand

>  <RI>
-1

>  <Rbt.Current_Directory>
/home/itssahil/PROJECTS/Mol_Feturizer/Test_systems_manuscript/rnas/4jf2

>  <Rbt.Executable>
rbdock ($Id: //depot/dev/client3/rdock/2013.1/src/exe/rbdock.cxx#4 $)

>  <Rbt.Library>
libRbt.so (2013.1, Build901 2013/11/27)

>  <Rbt.Parameter_File>
/export/apps/rDock/src/rDock_2013.1_src/data/scripts/dock_solv.prm

>  <Rbt.Receptor>
prm/pocket_docking_2.prm

>  <SCORE>
-15.8412

>  <SCORE.INTER>
-15.6718

>  <SCORE.INTER.CONST>
1

>  <SCORE.INTER.POLAR>
0

>  <SCORE.INTER.ROT>
1

>  <SCORE.INTER.SOLV>
17.1354

>  <SCORE.INTER.VDW>
-20.4263

>  <SCORE.INTER.norm>
-1.20552

>  <SCORE.INTRA>
-0.169357

>  <SCORE.INTRA.DIHEDRAL>
-0.179427

>  <SCORE.INTRA.DIHEDRAL.0>
1.75624

>  <SCORE.INTRA.POLAR>
0

>  <SCORE.INTRA.POLAR.0>
0

>  <SCORE.INTRA.REPUL>
0

>  <SCORE.INTRA.REPUL.0>
0

>  <SCORE.INTRA.SOLV>
-0.195334

>  <SCORE.INTRA.SOLV.lig_0>
-46.5296

>  <SCORE.INTRA.VDW>
0.0180235

>  <SCORE.INTRA.VDW.0>
-0.381873

>  <SCORE.INTRA.norm>
-0.0130275

>  <SCORE.RESTR>
0

>  <SCORE.RESTR.CAVITY>
0

>  <SCORE.RESTR.norm>
0

>  <SCORE.SYSTEM>
0

>  <SCORE.SYSTEM.CONST>
0

>  <SCORE.SYSTEM.DIHEDRAL>
0

>  <SCORE.SYSTEM.SOLV>
0

>  <SCORE.SYSTEM.norm>
0

>  <SCORE.heavy>
13

>  <SCORE.norm>
-1.21855

>  <RMSD>
0.760

$$$$
ligand
 OpenBabel02271912143D
libRbt.so/2013.1/901 2013/11/27
 13 14  0  0  0  0  0  0  0  0999 V2000
   -3.4700   31.5311   54.9527 N   0  0  0  0  0  0  0  0  0  0  0  0
   -2.4037   30.6172   54.9525 C   0  0  0  0  0  0  0  0  0  0  0  0
   -1.1211   31.0213   55.4809 N   0  0  0  0  0  0  0  0  0  0  0  0
   -2.5821   29.3434   54.4628 N   0  0  0  0  0  0  0  0  0  0  0  0
   -3.8273   28.9123   53.9370 C   0  0  0  0  0  0  0  0  0  0  0  0
   -4.9332   29.8303   53.9022 C   0  0  0  0  0  0  0  0  0  0  0  0
   -4.7084   31.1616   54.4173 C   0  0  0  0  0  0  0  0  0  0  0  0
   -5.7695   32.0230   54.3885 O   0  0  0  0  0  0  0  0  0  0  0  0
   -6.0727   29.1509   53.3302 C   0  0  0  0  0  0  0  0  0  0  0  0
   -5.6077   27.8703   53.0264 C   0  0  0  0  0  0  0  0  0  0  0  0
   -4.2820   27.7357   53.3969 N   0  0  0  0  0  0  0  0  0  0  0  0
   -7.4529   29.7220   53.0701 C   0  0  0  0  0  0  0  0  0  0  0  0
   -7.5557   30.4281   51.7949 N   0  0  0  0  0  0  0  0  0  0  0  0
  1  2  1  0  0  0  0
  1  7  1  0  0  0  0
  2  3  1  0  0  0  0
  2  4  2  0  0  0  0
  4  5  1  0  0  0  0
  5  6  2  0  0  0  0
  5 11  1  0  0  0  0
  6  7  1  0  0  0  0
  6  9  1  0  0  0  0
  7  8  2  0  0  0  0
  9 10  2  0  0  0  0
  9 12  1  0  0  0  0
 10 11  1  0  0  0  0
 12 13  1  0  0  0  0
M  END
>  <CHROM.1>
84.71442643,-4.61329897,29.99875927,53.93720768,0.31482210,-0.38675777,0.29929165

>  <Name>
ligand

>  <RI>
-1

>  <Rbt.Current_Directory>
/home/itssahil/PROJECTS/Mol_Feturizer/Test_systems_manuscript/rnas/4jf2

>  <Rbt.Executable>
rbdock ($Id: //depot/dev/client3/rdock/2013.1/src/exe/rbdock.cxx#4 $)

>  <Rbt.Library>
libRbt.so (2013.1, Build901 2013/11/27)

>  <Rbt.Parameter_File>
/export/apps/rDock/src/rDock_2013.1_src/data/scripts/dock_solv.prm

>  <Rbt.Receptor>
prm/pocket_docking_7.prm

>  <SCORE>
-15.8658

>  <SCORE.INTER>
-15.6542

>  <SCORE.INTER.CONST>
1

>  <SCORE.INTER.POLAR>
0

>  <SCORE.INTER.ROT>
1

>  <SCORE.INTER.SOLV>
17.0672

>  <SCORE.INTER.VDW>
-20.3919

>  <SCORE.INTER.norm>
-1.20417

>  <SCORE.INTRA>
-0.211606

>  <SCORE.INTRA.DIHEDRAL>
-0.185375

>  <SCORE.INTRA.DIHEDRAL.0>
1.75624

>  <SCORE.INTRA.POLAR>
0

>  <SCORE.INTRA.POLAR.0>
0

>  <SCORE.INTRA.REPUL>
0

>  <SCORE.INTRA.REPUL.0>
0

>  <SCORE.INTRA.SOLV>
-0.293273

>  <SCORE.INTRA.SOLV.lig_0>
-46.5296

>  <SCORE.INTRA.VDW>
0.0277181

>  <SCORE.INTRA.VDW.0>
-0.381873

>  <SCORE.INTRA.norm>
-0.0162774

>  <SCORE.RESTR>
0

>  <SCORE.RESTR.CAVITY>
0

>  <SCORE.RESTR.norm>
0

>  <SCORE.SYSTEM>
0

>  <SCORE.SYSTEM.CONST>
0

>  <SCORE.SYSTEM.DIHEDRAL>
0

>  <SCORE.SYSTEM.SOLV>
0

>  <SCORE.SYSTEM.norm>
0

>  <SCORE.heavy>
13

>  <SCORE.norm>
-1.22045

>  <RMSD>
0.762

$$$$
ligand
 OpenBabel02271912143D
libRbt.so/2013.1/901 2013/11/27
 13 14  0  0  0  0  0  0  0  0999 V2000
   -3.4472   31.5238   54.9766 N   0  0  0  0  0  0  0  0  0  0  0  0
   -2.3625   30.6323   54.9484 C   0  0  0  0  0  0  0  0  0  0  0  0
   -1.0792   31.0578   55.4578 N   0  0  0  0  0  0  0  0  0  0  0  0
   -2.5235   29.3597   54.4495 N   0  0  0  0  0  0  0  0  0  0  0  0
   -3.7688   28.9079   53.9417 C   0  0  0  0  0  0  0  0  0  0  0  0
   -4.8938   29.8031   53.9356 C   0  0  0  0  0  0  0  0  0  0  0  0
   -4.6872   31.1338   54.4597 C   0  0  0  0  0  0  0  0  0  0  0  0
   -5.7661   31.9733   54.4583 O   0  0  0  0  0  0  0  0  0  0  0  0
   -6.0293   29.1056   53.3773 C   0  0  0  0  0  0  0  0  0  0  0  0
   -5.5435   27.8380   53.0527 C   0  0  0  0  0  0  0  0  0  0  0  0
   -4.2088   27.7273   53.3982 N   0  0  0  0  0  0  0  0  0  0  0  0
   -7.4253   29.6504   53.1475 C   0  0  0  0  0  0  0  0  0  0  0  0
   -7.5380   30.4601   51.9363 N   0  0  0  0  0  0  0  0  0  0  0  0
  1  2  1  0  0  0  0
  1  7  1  0  0  0  0
  2  3  1  0  0  0  0
  2  4  2  0  0  0  0
  4  5  1  0  0  0  0
  5  6  2  0  0  0  0
  5 11  1  0  0  0  0
  6  7  1  0  0  0  0
  6  9  1  0  0  0  0
  7  8  2  0  0  0  0
  9 10  2  0  0  0  0
  9 12  1  0  0  0  0
 10 11  1  0  0  0  0
 12 13  1  0  0  0  0
M  END
>  <CHROM.1>
79.92625079,-4.57461215,29.98541730,53.97103817,0.32103408,-0.36272685,0.31042038

>  <Name>
ligand

>  <RI>
-1

>  <Rbt.Current_Directory>
/home/itssahil/PROJECTS/Mol_Feturizer/Test_systems_manuscript/rnas/4jf2

>  <Rbt.Executable>
rbdock ($Id: //depot/dev/client3/rdock/2013.1/src/exe/rbdock.cxx#4 $)

>  <Rbt.Library>
libRbt.so (2013.1, Build901 2013/11/27)

>  <Rbt.Parameter_File>
/export/apps/rDock/src/rDock_2013.1_src/data/scripts/dock_solv.prm

>  <Rbt.Receptor>
prm/pocket_docking_2.prm

>  <SCORE>
-15.8511

>  <SCORE.INTER>
-15.6988

>  <SCORE.INTER.CONST>
1

>  <SCORE.INTER.POLAR>
0

>  <SCORE.INTER.ROT>
1

>  <SCORE.INTER.SOLV>
17.1421

>  <SCORE.INTER.VDW>
-20.4466

>  <SCORE.INTER.norm>
-1.2076

>  <SCORE.INTRA>
-0.152378

>  <SCORE.INTRA.DIHEDRAL>
-0.176184

>  <SCORE.INTRA.DIHEDRAL.0>
1.75624

>  <SCORE.INTRA.POLAR>
0

>  <SCORE.INTRA.POLAR.0>
0

>  <SCORE.INTRA.REPUL>
0

>  <SCORE.INTRA.REPUL.0>
0

>  <SCORE.INTRA.SOLV>
-0.15691

>  <SCORE.INTRA.SOLV.lig_0>
-46.5296

>  <SCORE.INTRA.VDW>
0.0141692

>  <SCORE.INTRA.VDW.0>
-0.381873

>  <SCORE.INTRA.norm>
-0.0117214

>  <SCORE.RESTR>
0

>  <SCORE.RESTR.CAVITY>
0

>  <SCORE.RESTR.norm>
0

>  <SCORE.SYSTEM>
0

>  <SCORE.SYSTEM.CONST>
0

>  <SCORE.SYSTEM.DIHEDRAL>
0

>  <SCORE.SYSTEM.SOLV>
0

>  <SCORE.SYSTEM.norm>
0

>  <SCORE.heavy>
13

>  <SCORE.norm>
-1.21932

>  <RMSD>
0.763

$$$$
ligand
 OpenBabel02271912143D
libRbt.so/2013.1/901 2013/11/27
 13 14  0  0  0  0  0  0  0  0999 V2000
   -3.4288   31.5468   54.9997 N   0  0  0  0  0  0  0  0  0  0  0  0
   -2.3504   30.6475   54.9781 C   0  0  0  0  0  0  0  0  0  0  0  0
   -1.0633   31.0687   55.4814 N   0  0  0  0  0  0  0  0  0  0  0  0
   -2.5212   29.3715   54.4912 N   0  0  0  0  0  0  0  0  0  0  0  0
   -3.7705   28.9239   53.9897 C   0  0  0  0  0  0  0  0  0  0  0  0
   -4.8892   29.8268   53.9772 C   0  0  0  0  0  0  0  0  0  0  0  0
   -4.6723   31.1608   54.4885 C   0  0  0  0  0  0  0  0  0  0  0  0
   -5.7453   32.0079   54.4811 O   0  0  0  0  0  0  0  0  0  0  0  0
   -6.0304   29.1322   53.4271 C   0  0  0  0  0  0  0  0  0  0  0  0
   -5.5542   27.8582   53.1136 C   0  0  0  0  0  0  0  0  0  0  0  0
   -4.2197   27.7413   53.4579 N   0  0  0  0  0  0  0  0  0  0  0  0
   -7.4231   29.6847   53.1946 C   0  0  0  0  0  0  0  0  0  0  0  0
   -7.5396   30.4582   51.9603 N   0  0  0  0  0  0  0  0  0  0  0  0
  1  2  1  0  0  0  0
  1  7  1  0  0  0  0
  2  3  1  0  0  0  0
  2  4  2  0  0  0  0
  4  5  1  0  0  0  0
  5  6  2  0  0  0  0
  5 11  1  0  0  0  0
  6  7  1  0  0  0  0
  6  9  1  0  0  0  0
  7  8  2  0  0  0  0
  9 10  2  0  0  0  0
  9 12  1  0  0  0  0
 10 11  1  0  0  0  0
 12 13  1  0  0  0  0
M  END
>  <CHROM.1>
81.25164219,-4.56927068,30.00511847,54.00905642,0.31581374,-0.36354775,0.29949925

>  <Name>
ligand

>  <RI>
-1

>  <Rbt.Current_Directory>
/home/itssahil/PROJECTS/Mol_Feturizer/Test_systems_manuscript/rnas/4jf2

>  <Rbt.Executable>
rbdock ($Id: //depot/dev/client3/rdock/2013.1/src/exe/rbdock.cxx#4 $)

>  <Rbt.Library>
libRbt.so (2013.1, Build901 2013/11/27)

>  <Rbt.Parameter_File>
/export/apps/rDock/src/rDock_2013.1_src/data/scripts/dock_solv.prm

>  <Rbt.Receptor>
prm/pocket_docking_2.prm

>  <SCORE>
-15.8721

>  <SCORE.INTER>
-15.703

>  <SCORE.INTER.CONST>
1

>  <SCORE.INTER.POLAR>
0

>  <SCORE.INTER.ROT>
1

>  <SCORE.INTER.SOLV>
17.1655

>  <SCORE.INTER.VDW>
-20.4571

>  <SCORE.INTER.norm>
-1.20792

>  <SCORE.INTRA>
-0.169124

>  <SCORE.INTRA.DIHEDRAL>
-0.179386

>  <SCORE.INTRA.DIHEDRAL.0>
1.75624

>  <SCORE.INTRA.POLAR>
0

>  <SCORE.INTRA.POLAR.0>
0

>  <SCORE.INTRA.REPUL>
0

>  <SCORE.INTRA.REPUL.0>
0

>  <SCORE.INTRA.SOLV>
-0.194803

>  <SCORE.INTRA.SOLV.lig_0>
-46.5296

>  <SCORE.INTRA.VDW>
0.0179704

>  <SCORE.INTRA.VDW.0>
-0.381873

>  <SCORE.INTRA.norm>
-0.0130095

>  <SCORE.RESTR>
0

>  <SCORE.RESTR.CAVITY>
0

>  <SCORE.RESTR.norm>
0

>  <SCORE.SYSTEM>
0

>  <SCORE.SYSTEM.CONST>
0

>  <SCORE.SYSTEM.DIHEDRAL>
0

>  <SCORE.SYSTEM.SOLV>
0

>  <SCORE.SYSTEM.norm>
0

>  <SCORE.heavy>
13

>  <SCORE.norm>
-1.22093

>  <RMSD>
0.763

$$$$
ligand
 OpenBabel02271912143D
libRbt.so/2013.1/901 2013/11/27
 13 14  0  0  0  0  0  0  0  0999 V2000
   -3.4503   31.5294   54.9719 N   0  0  0  0  0  0  0  0  0  0  0  0
   -2.3656   30.6377   54.9476 C   0  0  0  0  0  0  0  0  0  0  0  0
   -1.0826   31.0649   55.4564 N   0  0  0  0  0  0  0  0  0  0  0  0
   -2.5263   29.3634   54.4531 N   0  0  0  0  0  0  0  0  0  0  0  0
   -3.7714   28.9099   53.9461 C   0  0  0  0  0  0  0  0  0  0  0  0
   -4.8963   29.8050   53.9361 C   0  0  0  0  0  0  0  0  0  0  0  0
   -4.6899   31.1376   54.4556 C   0  0  0  0  0  0  0  0  0  0  0  0
   -5.7688   31.9772   54.4505 O   0  0  0  0  0  0  0  0  0  0  0  0
   -6.0314   29.1057   53.3795 C   0  0  0  0  0  0  0  0  0  0  0  0
   -5.5455   27.8369   53.0597 C   0  0  0  0  0  0  0  0  0  0  0  0
   -4.2111   27.7273   53.4065 N   0  0  0  0  0  0  0  0  0  0  0  0
   -7.4273   29.6498   53.1468 C   0  0  0  0  0  0  0  0  0  0  0  0
   -7.5375   30.4607   51.9363 N   0  0  0  0  0  0  0  0  0  0  0  0
  1  2  1  0  0  0  0
  1  7  1  0  0  0  0
  2  3  1  0  0  0  0
  2  4  2  0  0  0  0
  4  5  1  0  0  0  0
  5  6  2  0  0  0  0
  5 11  1  0  0  0  0
  6  7  1  0  0  0  0
  6  9  1  0  0  0  0
  7  8  2  0  0  0  0
  9 10  2  0  0  0  0
  9 12  1  0  0  0  0
 10 11  1  0  0  0  0
 12 13  1  0  0  0  0
M  END
>  <CHROM.1>
79.63347938,-4.57697362,29.98797160,53.97138105,0.32064514,-0.36331746,0.30667378

>  <Name>
ligand

>  <RI>
-1

>  <Rbt.Current_Directory>
/home/itssahil/PROJECTS/Mol_Feturizer/Test_systems_manuscript/rnas/4jf2

>  <Rbt.Executable>
rbdock ($Id: //depot/dev/client3/rdock/2013.1/src/exe/rbdock.cxx#4 $)

>  <Rbt.Library>
libRbt.so (2013.1, Build901 2013/11/27)

>  <Rbt.Parameter_File>
/export/apps/rDock/src/rDock_2013.1_src/data/scripts/dock_solv.prm

>  <Rbt.Receptor>
prm/pocket_docking_2.prm

>  <SCORE>
-15.8567

>  <SCORE.INTER>
-15.7081

>  <SCORE.INTER.CONST>
1

>  <SCORE.INTER.POLAR>
0

>  <SCORE.INTER.ROT>
1

>  <SCORE.INTER.SOLV>
17.149

>  <SCORE.INTER.VDW>
-20.455

>  <SCORE.INTER.norm>
-1.20831

>  <SCORE.INTRA>
-0.148643

>  <SCORE.INTRA.DIHEDRAL>
-0.175412

>  <SCORE.INTRA.DIHEDRAL.0>
1.75624

>  <SCORE.INTRA.POLAR>
0

>  <SCORE.INTRA.POLAR.0>
0

>  <SCORE.INTRA.REPUL>
0

>  <SCORE.INTRA.REPUL.0>
0

>  <SCORE.INTRA.SOLV>
-0.148527

>  <SCORE.INTRA.SOLV.lig_0>
-46.5296

>  <SCORE.INTRA.VDW>
0.0133263

>  <SCORE.INTRA.VDW.0>
-0.381873

>  <SCORE.INTRA.norm>
-0.0114341

>  <SCORE.RESTR>
0

>  <SCORE.RESTR.CAVITY>
0

>  <SCORE.RESTR.norm>
0

>  <SCORE.SYSTEM>
0

>  <SCORE.SYSTEM.CONST>
0

>  <SCORE.SYSTEM.DIHEDRAL>
0

>  <SCORE.SYSTEM.SOLV>
0

>  <SCORE.SYSTEM.norm>
0

>  <SCORE.heavy>
13

>  <SCORE.norm>
-1.21975

>  <RMSD>
0.763

$$$$
ligand
 OpenBabel02271912143D
libRbt.so/2013.1/901 2013/11/27
 13 14  0  0  0  0  0  0  0  0999 V2000
   -3.4289   31.5419   55.0095 N   0  0  0  0  0  0  0  0  0  0  0  0
   -2.3547   30.6375   54.9908 C   0  0  0  0  0  0  0  0  0  0  0  0
   -1.0679   31.0516   55.5007 N   0  0  0  0  0  0  0  0  0  0  0  0
   -2.5292   29.3633   54.5006 N   0  0  0  0  0  0  0  0  0  0  0  0
   -3.7784   28.9225   53.9926 C   0  0  0  0  0  0  0  0  0  0  0  0
   -4.8928   29.8307   53.9769 C   0  0  0  0  0  0  0  0  0  0  0  0
   -4.6720   31.1627   54.4919 C   0  0  0  0  0  0  0  0  0  0  0  0
   -5.7409   32.0148   54.4814 O   0  0  0  0  0  0  0  0  0  0  0  0
   -6.0348   29.1426   53.4204 C   0  0  0  0  0  0  0  0  0  0  0  0
   -5.5631   27.8670   53.1064 C   0  0  0  0  0  0  0  0  0  0  0  0
   -4.2308   27.7432   53.4565 N   0  0  0  0  0  0  0  0  0  0  0  0
   -7.4238   29.7021   53.1827 C   0  0  0  0  0  0  0  0  0  0  0  0
   -7.5377   30.4569   51.9368 N   0  0  0  0  0  0  0  0  0  0  0  0
  1  2  1  0  0  0  0
  1  7  1  0  0  0  0
  2  3  1  0  0  0  0
  2  4  2  0  0  0  0
  4  5  1  0  0  0  0
  5  6  2  0  0  0  0
  5 11  1  0  0  0  0
  6  7  1  0  0  0  0
  6  9  1  0  0  0  0
  7  8  2  0  0  0  0
  9 10  2  0  0  0  0
  9 12  1  0  0  0  0
 10 11  1  0  0  0  0
 12 13  1  0  0  0  0
M  END
>  <CHROM.1>
82.35976618,-4.57271213,30.00573250,54.00956546,0.31454247,-0.36939822,0.30125898

>  <Name>
ligand

>  <RI>
-1

>  <Rbt.Current_Directory>
/home/itssahil/PROJECTS/Mol_Feturizer/Test_systems_manuscript/rnas/4jf2

>  <Rbt.Executable>
rbdock ($Id: //depot/dev/client3/rdock/2013.1/src/exe/rbdock.cxx#4 $)

>  <Rbt.Library>
libRbt.so (2013.1, Build901 2013/11/27)

>  <Rbt.Parameter_File>
/export/apps/rDock/src/rDock_2013.1_src/data/scripts/dock_solv.prm

>  <Rbt.Receptor>
prm/pocket_docking_2.prm

>  <SCORE>
-15.859

>  <SCORE.INTER>
-15.676

>  <SCORE.INTER.CONST>
1

>  <SCORE.INTER.POLAR>
0

>  <SCORE.INTER.ROT>
1

>  <SCORE.INTER.SOLV>
17.1058

>  <SCORE.INTER.VDW>
-20.4193

>  <SCORE.INTER.norm>
-1.20585

>  <SCORE.INTRA>
-0.182921

>  <SCORE.INTRA.DIHEDRAL>
-0.181682

>  <SCORE.INTRA.DIHEDRAL.0>
1.75624

>  <SCORE.INTRA.POLAR>
0

>  <SCORE.INTRA.POLAR.0>
0

>  <SCORE.INTRA.REPUL>
0

>  <SCORE.INTRA.REPUL.0>
0

>  <SCORE.INTRA.SOLV>
-0.226407

>  <SCORE.INTRA.SOLV.lig_0>
-46.5296

>  <SCORE.INTRA.VDW>
0.0211233

>  <SCORE.INTRA.VDW.0>
-0.381873

>  <SCORE.INTRA.norm>
-0.0140708

>  <SCORE.RESTR>
0

>  <SCORE.RESTR.CAVITY>
0

>  <SCORE.RESTR.norm>
0

>  <SCORE.SYSTEM>
0

>  <SCORE.SYSTEM.CONST>
0

>  <SCORE.SYSTEM.DIHEDRAL>
0

>  <SCORE.SYSTEM.SOLV>
0

>  <SCORE.SYSTEM.norm>
0

>  <SCORE.heavy>
13

>  <SCORE.norm>
-1.21992

>  <RMSD>
0.764

$$$$
ligand
 OpenBabel02271912143D
libRbt.so/2013.1/901 2013/11/27
 13 14  0  0  0  0  0  0  0  0999 V2000
   -3.4289   31.5456   54.9998 N   0  0  0  0  0  0  0  0  0  0  0  0
   -2.3500   30.6470   54.9757 C   0  0  0  0  0  0  0  0  0  0  0  0
   -1.0627   31.0681   55.4786 N   0  0  0  0  0  0  0  0  0  0  0  0
   -2.5204   29.3717   54.4870 N   0  0  0  0  0  0  0  0  0  0  0  0
   -3.7699   28.9240   53.9859 C   0  0  0  0  0  0  0  0  0  0  0  0
   -4.8892   29.8263   53.9758 C   0  0  0  0  0  0  0  0  0  0  0  0
   -4.6727   31.1596   54.4891 C   0  0  0  0  0  0  0  0  0  0  0  0
   -5.7462   32.0060   54.4840 O   0  0  0  0  0  0  0  0  0  0  0  0
   -6.0305   29.1319   53.4257 C   0  0  0  0  0  0  0  0  0  0  0  0
   -5.5537   27.8587   53.1097 C   0  0  0  0  0  0  0  0  0  0  0  0
   -4.2189   27.7421   53.4526 N   0  0  0  0  0  0  0  0  0  0  0  0
   -7.4237   29.6839   53.1953 C   0  0  0  0  0  0  0  0  0  0  0  0
   -7.5463   30.4442   51.9535 N   0  0  0  0  0  0  0  0  0  0  0  0
  1  2  1  0  0  0  0
  1  7  1  0  0  0  0
  2  3  1  0  0  0  0
  2  4  2  0  0  0  0
  4  5  1  0  0  0  0
  5  6  2  0  0  0  0
  5 11  1  0  0  0  0
  6  7  1  0  0  0  0
  6  9  1  0  0  0  0
  7  8  2  0  0  0  0
  9 10  2  0  0  0  0
  9 12  1  0  0  0  0
 10 11  1  0  0  0  0
 12 13  1  0  0  0  0
M  END
>  <CHROM.1>
82.02264154,-4.56971456,30.00353712,54.00700065,0.31762387,-0.36262405,0.30189109

>  <Name>
ligand

>  <RI>
-1

>  <Rbt.Current_Directory>
/home/itssahil/PROJECTS/Mol_Feturizer/Test_systems_manuscript/rnas/4jf2

>  <Rbt.Executable>
rbdock ($Id: //depot/dev/client3/rdock/2013.1/src/exe/rbdock.cxx#4 $)

>  <Rbt.Library>
libRbt.so (2013.1, Build901 2013/11/27)

>  <Rbt.Parameter_File>
/export/apps/rDock/src/rDock_2013.1_src/data/scripts/dock_solv.prm

>  <Rbt.Receptor>
prm/pocket_docking_2.prm

>  <SCORE>
-15.8722

>  <SCORE.INTER>
-15.6934

>  <SCORE.INTER.CONST>
1

>  <SCORE.INTER.POLAR>
0

>  <SCORE.INTER.ROT>
1

>  <SCORE.INTER.SOLV>
17.1983

>  <SCORE.INTER.VDW>
-20.4617

>  <SCORE.INTER.norm>
-1.20719

>  <SCORE.INTRA>
-0.178743

>  <SCORE.INTRA.DIHEDRAL>
-0.181021

>  <SCORE.INTRA.DIHEDRAL.0>
1.75624

>  <SCORE.INTRA.POLAR>
0

>  <SCORE.INTRA.POLAR.0>
0

>  <SCORE.INTRA.REPUL>
0

>  <SCORE.INTRA.REPUL.0>
0

>  <SCORE.INTRA.SOLV>
-0.2168

>  <SCORE.INTRA.SOLV.lig_0>
-46.5296

>  <SCORE.INTRA.VDW>
0.020167

>  <SCORE.INTRA.VDW.0>
-0.381873

>  <SCORE.INTRA.norm>
-0.0137495

>  <SCORE.RESTR>
0

>  <SCORE.RESTR.CAVITY>
0

>  <SCORE.RESTR.norm>
0

>  <SCORE.SYSTEM>
0

>  <SCORE.SYSTEM.CONST>
0

>  <SCORE.SYSTEM.DIHEDRAL>
0

>  <SCORE.SYSTEM.SOLV>
0

>  <SCORE.SYSTEM.norm>
0

>  <SCORE.heavy>
13

>  <SCORE.norm>
-1.22094

>  <RMSD>
0.764

$$$$
ligand
 OpenBabel02271912143D
libRbt.so/2013.1/901 2013/11/27
 13 14  0  0  0  0  0  0  0  0999 V2000
   -3.4245   31.5412   54.9993 N   0  0  0  0  0  0  0  0  0  0  0  0
   -2.3457   30.6425   54.9721 C   0  0  0  0  0  0  0  0  0  0  0  0
   -1.0573   31.0631   55.4727 N   0  0  0  0  0  0  0  0  0  0  0  0
   -2.5173   29.3677   54.4826 N   0  0  0  0  0  0  0  0  0  0  0  0
   -3.7679   28.9206   53.9836 C   0  0  0  0  0  0  0  0  0  0  0  0
   -4.8870   29.8229   53.9767 C   0  0  0  0  0  0  0  0  0  0  0  0
   -4.6694   31.1558   54.4907 C   0  0  0  0  0  0  0  0  0  0  0  0
   -5.7428   32.0023   54.4886 O   0  0  0  0  0  0  0  0  0  0  0  0
   -6.0295   29.1292   53.4283 C   0  0  0  0  0  0  0  0  0  0  0  0
   -5.5535   27.8562   53.1101 C   0  0  0  0  0  0  0  0  0  0  0  0
   -4.2180   27.7392   53.4502 N   0  0  0  0  0  0  0  0  0  0  0  0
   -7.4231   29.6815   53.2012 C   0  0  0  0  0  0  0  0  0  0  0  0
   -7.5489   30.4407   51.9590 N   0  0  0  0  0  0  0  0  0  0  0  0
  1  2  1  0  0  0  0
  1  7  1  0  0  0  0
  2  3  1  0  0  0  0
  2  4  2  0  0  0  0
  4  5  1  0  0  0  0
  5  6  2  0  0  0  0
  5 11  1  0  0  0  0
  6  7  1  0  0  0  0
  6  9  1  0  0  0  0
  7  8  2  0  0  0  0
  9 10  2  0  0  0  0
  9 12  1  0  0  0  0
 10 11  1  0  0  0  0
 12 13  1  0  0  0  0
M  END
>  <CHROM.1>
82.13833169,-4.56753749,29.99996860,54.00722760,0.31709460,-0.36072987,0.30264080

>  <Name>
ligand

>  <RI>
-1

>  <Rbt.Current_Directory>
/home/itssahil/PROJECTS/Mol_Feturizer/Test_systems_manuscript/rnas/4jf2

>  <Rbt.Executable>
rbdock ($Id: //depot/dev/client3/rdock/2013.1/src/exe/rbdock.cxx#4 $)

>  <Rbt.Library>
libRbt.so (2013.1, Build901 2013/11/27)

>  <Rbt.Parameter_File>
/export/apps/rDock/src/rDock_2013.1_src/data/scripts/dock_solv.prm

>  <Rbt.Receptor>
prm/pocket_docking_2.prm

>  <SCORE>
-15.8636

>  <SCORE.INTER>
-15.6834

>  <SCORE.INTER.CONST>
1

>  <SCORE.INTER.POLAR>
0

>  <SCORE.INTER.ROT>
1

>  <SCORE.INTER.SOLV>
17.2123

>  <SCORE.INTER.VDW>
-20.4597

>  <SCORE.INTER.norm>
-1.20642

>  <SCORE.INTRA>
-0.180179

>  <SCORE.INTRA.DIHEDRAL>
-0.181251

>  <SCORE.INTRA.DIHEDRAL.0>
1.75624

>  <SCORE.INTRA.POLAR>
0

>  <SCORE.INTRA.POLAR.0>
0

>  <SCORE.INTRA.REPUL>
0

>  <SCORE.INTRA.REPUL.0>
0

>  <SCORE.INTRA.SOLV>
-0.220098

>  <SCORE.INTRA.SOLV.lig_0>
-46.5296

>  <SCORE.INTRA.VDW>
0.0204955

>  <SCORE.INTRA.VDW.0>
-0.381873

>  <SCORE.INTRA.norm>
-0.0138599

>  <SCORE.RESTR>
0

>  <SCORE.RESTR.CAVITY>
0

>  <SCORE.RESTR.norm>
0

>  <SCORE.SYSTEM>
0

>  <SCORE.SYSTEM.CONST>
0

>  <SCORE.SYSTEM.DIHEDRAL>
0

>  <SCORE.SYSTEM.SOLV>
0

>  <SCORE.SYSTEM.norm>
0

>  <SCORE.heavy>
13

>  <SCORE.norm>
-1.22028

>  <RMSD>
0.764

$$$$
ligand
 OpenBabel02271912143D
libRbt.so/2013.1/901 2013/11/27
 13 14  0  0  0  0  0  0  0  0999 V2000
   -3.4198   31.5438   54.9992 N   0  0  0  0  0  0  0  0  0  0  0  0
   -2.3435   30.6419   54.9774 C   0  0  0  0  0  0  0  0  0  0  0  0
   -1.0560   31.0591   55.4831 N   0  0  0  0  0  0  0  0  0  0  0  0
   -2.5167   29.3672   54.4882 N   0  0  0  0  0  0  0  0  0  0  0  0
   -3.7665   28.9233   53.9843 C   0  0  0  0  0  0  0  0  0  0  0  0
   -4.8830   29.8289   53.9719 C   0  0  0  0  0  0  0  0  0  0  0  0
   -4.6636   31.1616   54.4857 C   0  0  0  0  0  0  0  0  0  0  0  0
   -5.7345   32.0112   54.4783 O   0  0  0  0  0  0  0  0  0  0  0  0
   -6.0252   29.1380   53.4192 C   0  0  0  0  0  0  0  0  0  0  0  0
   -5.5515   27.8634   53.1041 C   0  0  0  0  0  0  0  0  0  0  0  0
   -4.2178   27.7427   53.4500 N   0  0  0  0  0  0  0  0  0  0  0  0
   -7.4161   29.6942   53.1858 C   0  0  0  0  0  0  0  0  0  0  0  0
   -7.5327   30.4583   51.9457 N   0  0  0  0  0  0  0  0  0  0  0  0
  1  2  1  0  0  0  0
  1  7  1  0  0  0  0
  2  3  1  0  0  0  0
  2  4  2  0  0  0  0
  4  5  1  0  0  0  0
  5  6  2  0  0  0  0
  5 11  1  0  0  0  0
  6  7  1  0  0  0  0
  6  9  1  0  0  0  0
  7  8  2  0  0  0  0
  9 10  2  0  0  0  0
  9 12  1  0  0  0  0
 10 11  1  0  0  0  0
 12 13  1  0  0  0  0
M  END
>  <CHROM.1>
81.84878975,-4.56294730,30.00549082,54.00391267,0.31490875,-0.36560147,0.30094304

>  <Name>
ligand

>  <RI>
-1

>  <Rbt.Current_Directory>
/home/itssahil/PROJECTS/Mol_Feturizer/Test_systems_manuscript/rnas/4jf2

>  <Rbt.Executable>
rbdock ($Id: //depot/dev/client3/rdock/2013.1/src/exe/rbdock.cxx#4 $)

>  <Rbt.Library>
libRbt.so (2013.1, Build901 2013/11/27)

>  <Rbt.Parameter_File>
/export/apps/rDock/src/rDock_2013.1_src/data/scripts/dock_solv.prm

>  <Rbt.Receptor>
prm/pocket_docking_2.prm

>  <SCORE>
-15.8556

>  <SCORE.INTER>
-15.679

>  <SCORE.INTER.CONST>
1

>  <SCORE.INTER.POLAR>
0

>  <SCORE.INTER.ROT>
1

>  <SCORE.INTER.SOLV>
17.1416

>  <SCORE.INTER.VDW>
-20.4332

>  <SCORE.INTER.norm>
-1.20608

>  <SCORE.INTRA>
-0.176582

>  <SCORE.INTRA.DIHEDRAL>
-0.180667

>  <SCORE.INTRA.DIHEDRAL.0>
1.75624

>  <SCORE.INTRA.POLAR>
0

>  <SCORE.INTRA.POLAR.0>
0

>  <SCORE.INTRA.REPUL>
0

>  <SCORE.INTRA.REPUL.0>
0

>  <SCORE.INTRA.SOLV>
-0.211843

>  <SCORE.INTRA.SOLV.lig_0>
-46.5296

>  <SCORE.INTRA.VDW>
0.0196728

>  <SCORE.INTRA.VDW.0>
-0.381873

>  <SCORE.INTRA.norm>
-0.0135833

>  <SCORE.RESTR>
0

>  <SCORE.RESTR.CAVITY>
0

>  <SCORE.RESTR.norm>
0

>  <SCORE.SYSTEM>
0

>  <SCORE.SYSTEM.CONST>
0

>  <SCORE.SYSTEM.DIHEDRAL>
0

>  <SCORE.SYSTEM.SOLV>
0

>  <SCORE.SYSTEM.norm>
0

>  <SCORE.heavy>
13

>  <SCORE.norm>
-1.21966

>  <RMSD>
0.767

$$$$
ligand
 OpenBabel02271912143D
libRbt.so/2013.1/901 2013/11/27
 13 14  0  0  0  0  0  0  0  0999 V2000
   -3.4682   31.5254   54.9544 N   0  0  0  0  0  0  0  0  0  0  0  0
   -2.4070   30.6057   54.9642 C   0  0  0  0  0  0  0  0  0  0  0  0
   -1.1266   31.0033   55.5028 N   0  0  0  0  0  0  0  0  0  0  0  0
   -2.5884   29.3322   54.4746 N   0  0  0  0  0  0  0  0  0  0  0  0
   -3.8315   28.9074   53.9389 C   0  0  0  0  0  0  0  0  0  0  0  0
   -4.9319   29.8314   53.8937 C   0  0  0  0  0  0  0  0  0  0  0  0
   -4.7041   31.1621   54.4090 C   0  0  0  0  0  0  0  0  0  0  0  0
   -5.7601   32.0294   54.3703 O   0  0  0  0  0  0  0  0  0  0  0  0
   -6.0704   29.1576   53.3129 C   0  0  0  0  0  0  0  0  0  0  0  0
   -5.6099   27.8741   53.0147 C   0  0  0  0  0  0  0  0  0  0  0  0
   -4.2881   27.7326   53.3965 N   0  0  0  0  0  0  0  0  0  0  0  0
   -7.4451   29.7360   53.0406 C   0  0  0  0  0  0  0  0  0  0  0  0
   -7.5327   30.4429   51.7647 N   0  0  0  0  0  0  0  0  0  0  0  0
  1  2  1  0  0  0  0
  1  7  1  0  0  0  0
  2  3  1  0  0  0  0
  2  4  2  0  0  0  0
  4  5  1  0  0  0  0
  5  6  2  0  0  0  0
  5 11  1  0  0  0  0
  6  7  1  0  0  0  0
  6  9  1  0  0  0  0
  7  8  2  0  0  0  0
  9 10  2  0  0  0  0
  9 12  1  0  0  0  0
 10 11  1  0  0  0  0
 12 13  1  0  0  0  0
M  END
>  <CHROM.1>
84.61930112,-4.61135593,29.99832710,53.93125685,0.31156173,-0.39641108,0.29677193

>  <Name>
ligand

>  <RI>
-1

>  <Rbt.Current_Directory>
/home/itssahil/PROJECTS/Mol_Feturizer/Test_systems_manuscript/rnas/4jf2

>  <Rbt.Executable>
rbdock ($Id: //depot/dev/client3/rdock/2013.1/src/exe/rbdock.cxx#4 $)

>  <Rbt.Library>
libRbt.so (2013.1, Build901 2013/11/27)

>  <Rbt.Parameter_File>
/export/apps/rDock/src/rDock_2013.1_src/data/scripts/dock_solv.prm

>  <Rbt.Receptor>
prm/pocket_docking_6.prm

>  <SCORE>
-15.8735

>  <SCORE.INTER>
-15.663

>  <SCORE.INTER.CONST>
1

>  <SCORE.INTER.POLAR>
0

>  <SCORE.INTER.ROT>
1

>  <SCORE.INTER.SOLV>
16.9598

>  <SCORE.INTER.VDW>
-20.3619

>  <SCORE.INTER.norm>
-1.20485

>  <SCORE.INTRA>
-0.210464

>  <SCORE.INTRA.DIHEDRAL>
-0.185257

>  <SCORE.INTRA.DIHEDRAL.0>
1.75624

>  <SCORE.INTRA.POLAR>
0

>  <SCORE.INTRA.POLAR.0>
0

>  <SCORE.INTRA.REPUL>
0

>  <SCORE.INTRA.REPUL.0>
0

>  <SCORE.INTRA.SOLV>
-0.290581

>  <SCORE.INTRA.SOLV.lig_0>
-46.5296

>  <SCORE.INTRA.VDW>
0.0274548

>  <SCORE.INTRA.VDW.0>
-0.381873

>  <SCORE.INTRA.norm>
-0.0161896

>  <SCORE.RESTR>
0

>  <SCORE.RESTR.CAVITY>
0

>  <SCORE.RESTR.norm>
0

>  <SCORE.SYSTEM>
0

>  <SCORE.SYSTEM.CONST>
0

>  <SCORE.SYSTEM.DIHEDRAL>
0

>  <SCORE.SYSTEM.SOLV>
0

>  <SCORE.SYSTEM.norm>
0

>  <SCORE.heavy>
13

>  <SCORE.norm>
-1.22104

>  <RMSD>
0.768

$$$$
ligand
 OpenBabel02271912143D
libRbt.so/2013.1/901 2013/11/27
 13 14  0  0  0  0  0  0  0  0999 V2000
   -3.4240   31.5406   55.0095 N   0  0  0  0  0  0  0  0  0  0  0  0
   -2.3479   30.6384   54.9900 C   0  0  0  0  0  0  0  0  0  0  0  0
   -1.0619   31.0545   55.5003 N   0  0  0  0  0  0  0  0  0  0  0  0
   -2.5200   29.3643   54.4987 N   0  0  0  0  0  0  0  0  0  0  0  0
   -3.7683   28.9215   53.9903 C   0  0  0  0  0  0  0  0  0  0  0  0
   -4.8844   29.8275   53.9754 C   0  0  0  0  0  0  0  0  0  0  0  0
   -4.6663   31.1594   54.4916 C   0  0  0  0  0  0  0  0  0  0  0  0
   -5.7369   32.0094   54.4819 O   0  0  0  0  0  0  0  0  0  0  0  0
   -6.0251   29.1376   53.4183 C   0  0  0  0  0  0  0  0  0  0  0  0
   -5.5509   27.8633   53.1031 C   0  0  0  0  0  0  0  0  0  0  0  0
   -4.2183   27.7418   53.4530 N   0  0  0  0  0  0  0  0  0  0  0  0
   -7.4152   29.6946   53.1811 C   0  0  0  0  0  0  0  0  0  0  0  0
   -7.5305   30.4505   51.9359 N   0  0  0  0  0  0  0  0  0  0  0  0
  1  2  1  0  0  0  0
  1  7  1  0  0  0  0
  2  3  1  0  0  0  0
  2  4  2  0  0  0  0
  4  5  1  0  0  0  0
  5  6  2  0  0  0  0
  5 11  1  0  0  0  0
  6  7  1  0  0  0  0
  6  9  1  0  0  0  0
  7  8  2  0  0  0  0
  9 10  2  0  0  0  0
  9 12  1  0  0  0  0
 10 11  1  0  0  0  0
 12 13  1  0  0  0  0
M  END
>  <CHROM.1>
82.35191772,-4.56470365,30.00312682,54.00821540,0.31654444,-0.36880867,0.30289501

>  <Name>
ligand

>  <RI>
-1

>  <Rbt.Current_Directory>
/home/itssahil/PROJECTS/Mol_Feturizer/Test_systems_manuscript/rnas/4jf2

>  <Rbt.Executable>
rbdock ($Id: //depot/dev/client3/rdock/2013.1/src/exe/rbdock.cxx#4 $)

>  <Rbt.Library>
libRbt.so (2013.1, Build901 2013/11/27)

>  <Rbt.Parameter_File>
/export/apps/rDock/src/rDock_2013.1_src/data/scripts/dock_solv.prm

>  <Rbt.Receptor>
prm/pocket_docking_2.prm

>  <SCORE>
-15.8567

>  <SCORE.INTER>
-15.6739

>  <SCORE.INTER.CONST>
1

>  <SCORE.INTER.POLAR>
0

>  <SCORE.INTER.ROT>
1

>  <SCORE.INTER.SOLV>
17.1189

>  <SCORE.INTER.VDW>
-20.4222

>  <SCORE.INTER.norm>
-1.20568

>  <SCORE.INTRA>
-0.182824

>  <SCORE.INTRA.DIHEDRAL>
-0.181667

>  <SCORE.INTRA.DIHEDRAL.0>
1.75624

>  <SCORE.INTRA.POLAR>
0

>  <SCORE.INTRA.POLAR.0>
0

>  <SCORE.INTRA.REPUL>
0

>  <SCORE.INTRA.REPUL.0>
0

>  <SCORE.INTRA.SOLV>
-0.226183

>  <SCORE.INTRA.SOLV.lig_0>
-46.5296

>  <SCORE.INTRA.VDW>
0.0211011

>  <SCORE.INTRA.VDW.0>
-0.381873

>  <SCORE.INTRA.norm>
-0.0140634

>  <SCORE.RESTR>
0

>  <SCORE.RESTR.CAVITY>
0

>  <SCORE.RESTR.norm>
0

>  <SCORE.SYSTEM>
0

>  <SCORE.SYSTEM.CONST>
0

>  <SCORE.SYSTEM.DIHEDRAL>
0

>  <SCORE.SYSTEM.SOLV>
0

>  <SCORE.SYSTEM.norm>
0

>  <SCORE.heavy>
13

>  <SCORE.norm>
-1.21975

>  <RMSD>
0.769

$$$$
ligand
 OpenBabel02271912143D
libRbt.so/2013.1/901 2013/11/27
 13 14  0  0  0  0  0  0  0  0999 V2000
   -3.4116   31.5410   54.9985 N   0  0  0  0  0  0  0  0  0  0  0  0
   -2.3368   30.6373   54.9749 C   0  0  0  0  0  0  0  0  0  0  0  0
   -1.0484   31.0516   55.4806 N   0  0  0  0  0  0  0  0  0  0  0  0
   -2.5125   29.3635   54.4840 N   0  0  0  0  0  0  0  0  0  0  0  0
   -3.7632   28.9225   53.9801 C   0  0  0  0  0  0  0  0  0  0  0  0
   -4.8782   29.8301   53.9695 C   0  0  0  0  0  0  0  0  0  0  0  0
   -4.6563   31.1616   54.4851 C   0  0  0  0  0  0  0  0  0  0  0  0
   -5.7257   32.0131   54.4795 O   0  0  0  0  0  0  0  0  0  0  0  0
   -6.0218   29.1419   53.4164 C   0  0  0  0  0  0  0  0  0  0  0  0
   -5.5505   27.8670   53.0992 C   0  0  0  0  0  0  0  0  0  0  0  0
   -4.2169   27.7435   53.4443 N   0  0  0  0  0  0  0  0  0  0  0  0
   -7.4120   29.7009   53.1844 C   0  0  0  0  0  0  0  0  0  0  0  0
   -7.5323   30.4522   51.9369 N   0  0  0  0  0  0  0  0  0  0  0  0
  1  2  1  0  0  0  0
  1  7  1  0  0  0  0
  2  3  1  0  0  0  0
  2  4  2  0  0  0  0
  4  5  1  0  0  0  0
  5  6  2  0  0  0  0
  5 11  1  0  0  0  0
  6  7  1  0  0  0  0
  6  9  1  0  0  0  0
  7  8  2  0  0  0  0
  9 10  2  0  0  0  0
  9 12  1  0  0  0  0
 10 11  1  0  0  0  0
 12 13  1  0  0  0  0
M  END
>  <CHROM.1>
82.60604133,-4.55820988,30.00487528,54.00091326,0.31443859,-0.36576944,0.30235948

>  <Name>
ligand

>  <RI>
-1

>  <Rbt.Current_Directory>
/home/itssahil/PROJECTS/Mol_Feturizer/Test_systems_manuscript/rnas/4jf2

>  <Rbt.Executable>
rbdock ($Id: //depot/dev/client3/rdock/2013.1/src/exe/rbdock.cxx#4 $)

>  <Rbt.Library>
libRbt.so (2013.1, Build901 2013/11/27)

>  <Rbt.Parameter_File>
/export/apps/rDock/src/rDock_2013.1_src/data/scripts/dock_solv.prm

>  <Rbt.Receptor>
prm/pocket_docking_2.prm

>  <SCORE>
-15.8581

>  <SCORE.INTER>
-15.6722

>  <SCORE.INTER.CONST>
1

>  <SCORE.INTER.POLAR>
0

>  <SCORE.INTER.ROT>
1

>  <SCORE.INTER.SOLV>
17.1458

>  <SCORE.INTER.VDW>
-20.4301

>  <SCORE.INTER.norm>
-1.20555

>  <SCORE.INTRA>
-0.185962

>  <SCORE.INTRA.DIHEDRAL>
-0.182144

>  <SCORE.INTRA.DIHEDRAL.0>
1.75624

>  <SCORE.INTRA.POLAR>
0

>  <SCORE.INTRA.POLAR.0>
0

>  <SCORE.INTRA.REPUL>
0

>  <SCORE.INTRA.REPUL.0>
0

>  <SCORE.INTRA.SOLV>
-0.23342

>  <SCORE.INTRA.SOLV.lig_0>
-46.5296

>  <SCORE.INTRA.VDW>
0.0218202

>  <SCORE.INTRA.VDW.0>
-0.381873

>  <SCORE.INTRA.norm>
-0.0143047

>  <SCORE.RESTR>
0

>  <SCORE.RESTR.CAVITY>
0

>  <SCORE.RESTR.norm>
0

>  <SCORE.SYSTEM>
0

>  <SCORE.SYSTEM.CONST>
0

>  <SCORE.SYSTEM.DIHEDRAL>
0

>  <SCORE.SYSTEM.SOLV>
0

>  <SCORE.SYSTEM.norm>
0

>  <SCORE.heavy>
13

>  <SCORE.norm>
-1.21986

>  <RMSD>
0.769

$$$$
ligand
 OpenBabel02271912143D
libRbt.so/2013.1/901 2013/11/27
 13 14  0  0  0  0  0  0  0  0999 V2000
   -3.4704   31.5262   54.9696 N   0  0  0  0  0  0  0  0  0  0  0  0
   -2.4070   30.6090   54.9761 C   0  0  0  0  0  0  0  0  0  0  0  0
   -1.1279   31.0072   55.5172 N   0  0  0  0  0  0  0  0  0  0  0  0
   -2.5850   29.3373   54.4807 N   0  0  0  0  0  0  0  0  0  0  0  0
   -3.8268   28.9118   53.9424 C   0  0  0  0  0  0  0  0  0  0  0  0
   -4.9294   29.8334   53.9006 C   0  0  0  0  0  0  0  0  0  0  0  0
   -4.7051   31.1623   54.4219 C   0  0  0  0  0  0  0  0  0  0  0  0
   -5.7631   32.0273   54.3864 O   0  0  0  0  0  0  0  0  0  0  0  0
   -6.0659   29.1594   53.3161 C   0  0  0  0  0  0  0  0  0  0  0  0
   -5.6022   27.8784   53.0125 C   0  0  0  0  0  0  0  0  0  0  0  0
   -4.2803   27.7383   53.3945 N   0  0  0  0  0  0  0  0  0  0  0  0
   -7.4419   29.7358   53.0455 C   0  0  0  0  0  0  0  0  0  0  0  0
   -7.5322   30.4420   51.7695 N   0  0  0  0  0  0  0  0  0  0  0  0
  1  2  1  0  0  0  0
  1  7  1  0  0  0  0
  2  3  1  0  0  0  0
  2  4  2  0  0  0  0
  4  5  1  0  0  0  0
  5  6  2  0  0  0  0
  5 11  1  0  0  0  0
  6  7  1  0  0  0  0
  6  9  1  0  0  0  0
  7  8  2  0  0  0  0
  9 10  2  0  0  0  0
  9 12  1  0  0  0  0
 10 11  1  0  0  0  0
 12 13  1  0  0  0  0
M  END
>  <CHROM.1>
84.92431755,-4.60941518,30.00041482,53.93881885,0.31484227,-0.39630266,0.30252026

>  <Name>
ligand

>  <RI>
-1

>  <Rbt.Current_Directory>
/home/itssahil/PROJECTS/Mol_Feturizer/Test_systems_manuscript/rnas/4jf2

>  <Rbt.Executable>
rbdock ($Id: //depot/dev/client3/rdock/2013.1/src/exe/rbdock.cxx#4 $)

>  <Rbt.Library>
libRbt.so (2013.1, Build901 2013/11/27)

>  <Rbt.Parameter_File>
/export/apps/rDock/src/rDock_2013.1_src/data/scripts/dock_solv.prm

>  <Rbt.Receptor>
prm/pocket_docking_4.prm

>  <SCORE>
-15.8746

>  <SCORE.INTER>
-15.6604

>  <SCORE.INTER.CONST>
1

>  <SCORE.INTER.POLAR>
0

>  <SCORE.INTER.ROT>
1

>  <SCORE.INTER.SOLV>
16.9556

>  <SCORE.INTER.VDW>
-20.3588

>  <SCORE.INTER.norm>
-1.20465

>  <SCORE.INTRA>
-0.21412

>  <SCORE.INTRA.DIHEDRAL>
-0.185624

>  <SCORE.INTRA.DIHEDRAL.0>
1.75624

>  <SCORE.INTRA.POLAR>
0

>  <SCORE.INTRA.POLAR.0>
0

>  <SCORE.INTRA.REPUL>
0

>  <SCORE.INTRA.REPUL.0>
0

>  <SCORE.INTRA.SOLV>
-0.299212

>  <SCORE.INTRA.SOLV.lig_0>
-46.5296

>  <SCORE.INTRA.VDW>
0.0282978

>  <SCORE.INTRA.VDW.0>
-0.381873

>  <SCORE.INTRA.norm>
-0.0164708

>  <SCORE.RESTR>
0

>  <SCORE.RESTR.CAVITY>
0

>  <SCORE.RESTR.norm>
0

>  <SCORE.SYSTEM>
0

>  <SCORE.SYSTEM.CONST>
0

>  <SCORE.SYSTEM.DIHEDRAL>
0

>  <SCORE.SYSTEM.SOLV>
0

>  <SCORE.SYSTEM.norm>
0

>  <SCORE.heavy>
13

>  <SCORE.norm>
-1.22112

>  <RMSD>
0.769

$$$$
ligand
 OpenBabel02271912143D
libRbt.so/2013.1/901 2013/11/27
 13 14  0  0  0  0  0  0  0  0999 V2000
   -3.4720   31.5276   54.9735 N   0  0  0  0  0  0  0  0  0  0  0  0
   -2.4092   30.6097   54.9824 C   0  0  0  0  0  0  0  0  0  0  0  0
   -1.1297   31.0088   55.5221 N   0  0  0  0  0  0  0  0  0  0  0  0
   -2.5881   29.3366   54.4910 N   0  0  0  0  0  0  0  0  0  0  0  0
   -3.8303   28.9104   53.9542 C   0  0  0  0  0  0  0  0  0  0  0  0
   -4.9324   29.8325   53.9100 C   0  0  0  0  0  0  0  0  0  0  0  0
   -4.7071   31.1628   54.4272 C   0  0  0  0  0  0  0  0  0  0  0  0
   -5.7646   32.0283   54.3893 O   0  0  0  0  0  0  0  0  0  0  0  0
   -6.0694   29.1575   53.3278 C   0  0  0  0  0  0  0  0  0  0  0  0
   -5.6066   27.8753   53.0279 C   0  0  0  0  0  0  0  0  0  0  0  0
   -4.2847   27.7355   53.4100 N   0  0  0  0  0  0  0  0  0  0  0  0
   -7.4451   29.7339   53.0558 C   0  0  0  0  0  0  0  0  0  0  0  0
   -7.5440   30.4090   51.7637 N   0  0  0  0  0  0  0  0  0  0  0  0
  1  2  1  0  0  0  0
  1  7  1  0  0  0  0
  2  3  1  0  0  0  0
  2  4  2  0  0  0  0
  4  5  1  0  0  0  0
  5  6  2  0  0  0  0
  5 11  1  0  0  0  0
  6  7  1  0  0  0  0
  6  9  1  0  0  0  0
  7  8  2  0  0  0  0
  9 10  2  0  0  0  0
  9 12  1  0  0  0  0
 10 11  1  0  0  0  0
 12 13  1  0  0  0  0
M  END
>  <CHROM.1>
86.28640084,-4.61297190,29.99719536,53.94643188,0.31681565,-0.39632157,0.30050418

>  <Name>
ligand

>  <RI>
-1

>  <Rbt.Current_Directory>
/home/itssahil/PROJECTS/Mol_Feturizer/Test_systems_manuscript/rnas/4jf2

>  <Rbt.Executable>
rbdock ($Id: //depot/dev/client3/rdock/2013.1/src/exe/rbdock.cxx#4 $)

>  <Rbt.Library>
libRbt.so (2013.1, Build901 2013/11/27)

>  <Rbt.Parameter_File>
/export/apps/rDock/src/rDock_2013.1_src/data/scripts/dock_solv.prm

>  <Rbt.Receptor>
prm/pocket_docking_6.prm

>  <SCORE>
-15.8723

>  <SCORE.INTER>
-15.6421

>  <SCORE.INTER.CONST>
1

>  <SCORE.INTER.POLAR>
0

>  <SCORE.INTER.ROT>
1

>  <SCORE.INTER.SOLV>
17.0186

>  <SCORE.INTER.VDW>
-20.3676

>  <SCORE.INTER.norm>
-1.20324

>  <SCORE.INTRA>
-0.230264

>  <SCORE.INTRA.DIHEDRAL>
-0.18692

>  <SCORE.INTRA.DIHEDRAL.0>
1.75624

>  <SCORE.INTRA.POLAR>
0

>  <SCORE.INTRA.POLAR.0>
0

>  <SCORE.INTRA.REPUL>
0

>  <SCORE.INTRA.REPUL.0>
0

>  <SCORE.INTRA.SOLV>
-0.337656

>  <SCORE.INTRA.SOLV.lig_0>
-46.5296

>  <SCORE.INTRA.VDW>
0.032024

>  <SCORE.INTRA.VDW.0>
-0.381873

>  <SCORE.INTRA.norm>
-0.0177126

>  <SCORE.RESTR>
0

>  <SCORE.RESTR.CAVITY>
0

>  <SCORE.RESTR.norm>
0

>  <SCORE.SYSTEM>
0

>  <SCORE.SYSTEM.CONST>
0

>  <SCORE.SYSTEM.DIHEDRAL>
0

>  <SCORE.SYSTEM.SOLV>
0

>  <SCORE.SYSTEM.norm>
0

>  <SCORE.heavy>
13

>  <SCORE.norm>
-1.22095

>  <RMSD>
0.769

$$$$
ligand
 OpenBabel02271912143D
libRbt.so/2013.1/901 2013/11/27
 13 14  0  0  0  0  0  0  0  0999 V2000
   -3.4650   31.5378   54.9547 N   0  0  0  0  0  0  0  0  0  0  0  0
   -2.3954   30.6278   54.9579 C   0  0  0  0  0  0  0  0  0  0  0  0
   -1.1144   31.0382   55.4852 N   0  0  0  0  0  0  0  0  0  0  0  0
   -2.5691   29.3517   54.4725 N   0  0  0  0  0  0  0  0  0  0  0  0
   -3.8127   28.9143   53.9478 C   0  0  0  0  0  0  0  0  0  0  0  0
   -4.9218   29.8282   53.9097 C   0  0  0  0  0  0  0  0  0  0  0  0
   -4.7020   31.1620   54.4202 C   0  0  0  0  0  0  0  0  0  0  0  0
   -5.7661   32.0196   54.3883 O   0  0  0  0  0  0  0  0  0  0  0  0
   -6.0588   29.1427   53.3396 C   0  0  0  0  0  0  0  0  0  0  0  0
   -5.5890   27.8629   53.0403 C   0  0  0  0  0  0  0  0  0  0  0  0
   -4.2629   27.7342   53.4116 N   0  0  0  0  0  0  0  0  0  0  0  0
   -7.4409   29.7080   53.0773 C   0  0  0  0  0  0  0  0  0  0  0  0
   -7.5472   30.4050   51.7974 N   0  0  0  0  0  0  0  0  0  0  0  0
  1  2  1  0  0  0  0
  1  7  1  0  0  0  0
  2  3  1  0  0  0  0
  2  4  2  0  0  0  0
  4  5  1  0  0  0  0
  5  6  2  0  0  0  0
  5 11  1  0  0  0  0
  6  7  1  0  0  0  0
  6  9  1  0  0  0  0
  7  8  2  0  0  0  0
  9 10  2  0  0  0  0
  9 12  1  0  0  0  0
 10 11  1  0  0  0  0
 12 13  1  0  0  0  0
M  END
>  <CHROM.1>
84.93246185,-4.60264699,29.99757803,53.94394329,0.31903785,-0.38596787,0.29752273

>  <Name>
ligand

>  <RI>
0

>  <Rbt.Current_Directory>
/home/itssahil/PROJECTS/Mol_Feturizer/Test_systems_manuscript/rnas/4jf2

>  <Rbt.Executable>
rbdock ($Id: //depot/dev/client3/rdock/2013.1/src/exe/rbdock.cxx#4 $)

>  <Rbt.Library>
libRbt.so (2013.1, Build901 2013/11/27)

>  <Rbt.Parameter_File>
/export/apps/rDock/src/rDock_2013.1_src/data/scripts/dock_solv.prm

>  <Rbt.Receptor>
prm/pocket_docking_8.prm

>  <SCORE>
-15.8634

>  <SCORE.INTER>
-15.6492

>  <SCORE.INTER.CONST>
1

>  <SCORE.INTER.POLAR>
0

>  <SCORE.INTER.ROT>
1

>  <SCORE.INTER.SOLV>
17.1156

>  <SCORE.INTER.VDW>
-20.4047

>  <SCORE.INTER.norm>
-1.20378

>  <SCORE.INTRA>
-0.214218

>  <SCORE.INTRA.DIHEDRAL>
-0.185634

>  <SCORE.INTRA.DIHEDRAL.0>
1.75624

>  <SCORE.INTRA.POLAR>
0

>  <SCORE.INTRA.POLAR.0>
0

>  <SCORE.INTRA.REPUL>
0

>  <SCORE.INTRA.REPUL.0>
0

>  <SCORE.INTRA.SOLV>
-0.299443

>  <SCORE.INTRA.SOLV.lig_0>
-46.5296

>  <SCORE.INTRA.VDW>
0.0283203

>  <SCORE.INTRA.VDW.0>
-0.381873

>  <SCORE.INTRA.norm>
-0.0164783

>  <SCORE.RESTR>
0

>  <SCORE.RESTR.CAVITY>
0

>  <SCORE.RESTR.norm>
0

>  <SCORE.SYSTEM>
0

>  <SCORE.SYSTEM.CONST>
0

>  <SCORE.SYSTEM.DIHEDRAL>
0

>  <SCORE.SYSTEM.SOLV>
0

>  <SCORE.SYSTEM.norm>
0

>  <SCORE.heavy>
13

>  <SCORE.norm>
-1.22026

>  <RMSD>
0.769

$$$$
ligand
 OpenBabel02271912143D
libRbt.so/2013.1/901 2013/11/27
 13 14  0  0  0  0  0  0  0  0999 V2000
   -3.4700   31.5178   54.9784 N   0  0  0  0  0  0  0  0  0  0  0  0
   -2.4068   30.6003   54.9822 C   0  0  0  0  0  0  0  0  0  0  0  0
   -1.1274   30.9970   55.5235 N   0  0  0  0  0  0  0  0  0  0  0  0
   -2.5854   29.3298   54.4840 N   0  0  0  0  0  0  0  0  0  0  0  0
   -3.8276   28.9059   53.9453 C   0  0  0  0  0  0  0  0  0  0  0  0
   -4.9301   29.8279   53.9063 C   0  0  0  0  0  0  0  0  0  0  0  0
   -4.7051   31.1555   54.4306 C   0  0  0  0  0  0  0  0  0  0  0  0
   -5.7629   32.0208   54.3976 O   0  0  0  0  0  0  0  0  0  0  0  0
   -6.0670   29.1555   53.3209 C   0  0  0  0  0  0  0  0  0  0  0  0
   -5.6038   27.8751   53.0140 C   0  0  0  0  0  0  0  0  0  0  0  0
   -4.2817   27.7338   53.3950 N   0  0  0  0  0  0  0  0  0  0  0  0
   -7.4430   29.7328   53.0524 C   0  0  0  0  0  0  0  0  0  0  0  0
   -7.5403   30.4221   51.7676 N   0  0  0  0  0  0  0  0  0  0  0  0
  1  2  1  0  0  0  0
  1  7  1  0  0  0  0
  2  3  1  0  0  0  0
  2  4  2  0  0  0  0
  4  5  1  0  0  0  0
  5  6  2  0  0  0  0
  5 11  1  0  0  0  0
  6  7  1  0  0  0  0
  6  9  1  0  0  0  0
  7  8  2  0  0  0  0
  9 10  2  0  0  0  0
  9 12  1  0  0  0  0
 10 11  1  0  0  0  0
 12 13  1  0  0  0  0
M  END
>  <CHROM.1>
85.92650360,-4.61051501,29.99307858,53.94387149,0.31638713,-0.39590532,0.30559259

>  <Name>
ligand

>  <RI>
0

>  <Rbt.Current_Directory>
/home/itssahil/PROJECTS/Mol_Feturizer/Test_systems_manuscript/rnas/4jf2

>  <Rbt.Executable>
rbdock ($Id: //depot/dev/client3/rdock/2013.1/src/exe/rbdock.cxx#4 $)

>  <Rbt.Library>
libRbt.so (2013.1, Build901 2013/11/27)

>  <Rbt.Parameter_File>
/export/apps/rDock/src/rDock_2013.1_src/data/scripts/dock_solv.prm

>  <Rbt.Receptor>
prm/pocket_docking_8.prm

>  <SCORE>
-15.8707

>  <SCORE.INTER>
-15.6447

>  <SCORE.INTER.CONST>
1

>  <SCORE.INTER.POLAR>
0

>  <SCORE.INTER.ROT>
1

>  <SCORE.INTER.SOLV>
16.9819

>  <SCORE.INTER.VDW>
-20.3571

>  <SCORE.INTER.norm>
-1.20344

>  <SCORE.INTRA>
-0.226028

>  <SCORE.INTRA.DIHEDRAL>
-0.186632

>  <SCORE.INTRA.DIHEDRAL.0>
1.75624

>  <SCORE.INTRA.POLAR>
0

>  <SCORE.INTRA.POLAR.0>
0

>  <SCORE.INTRA.REPUL>
0

>  <SCORE.INTRA.REPUL.0>
0

>  <SCORE.INTRA.SOLV>
-0.327515

>  <SCORE.INTRA.SOLV.lig_0>
-46.5296

>  <SCORE.INTRA.VDW>
0.0310457

>  <SCORE.INTRA.VDW.0>
-0.381873

>  <SCORE.INTRA.norm>
-0.0173868

>  <SCORE.RESTR>
0

>  <SCORE.RESTR.CAVITY>
0

>  <SCORE.RESTR.norm>
0

>  <SCORE.SYSTEM>
0

>  <SCORE.SYSTEM.CONST>
0

>  <SCORE.SYSTEM.DIHEDRAL>
0

>  <SCORE.SYSTEM.SOLV>
0

>  <SCORE.SYSTEM.norm>
0

>  <SCORE.heavy>
13

>  <SCORE.norm>
-1.22082

>  <RMSD>
0.769

$$$$
ligand
 OpenBabel02271912143D
libRbt.so/2013.1/901 2013/11/27
 13 14  0  0  0  0  0  0  0  0999 V2000
   -3.4679   31.5263   54.9756 N   0  0  0  0  0  0  0  0  0  0  0  0
   -2.4041   30.6095   54.9821 C   0  0  0  0  0  0  0  0  0  0  0  0
   -1.1250   31.0085   55.5227 N   0  0  0  0  0  0  0  0  0  0  0  0
   -2.5818   29.3375   54.4874 N   0  0  0  0  0  0  0  0  0  0  0  0
   -3.8236   28.9113   53.9497 C   0  0  0  0  0  0  0  0  0  0  0  0
   -4.9266   29.8324   53.9079 C   0  0  0  0  0  0  0  0  0  0  0  0
   -4.7026   31.1617   54.4285 C   0  0  0  0  0  0  0  0  0  0  0  0
   -5.7610   32.0262   54.3930 O   0  0  0  0  0  0  0  0  0  0  0  0
   -6.0630   29.1577   53.3242 C   0  0  0  0  0  0  0  0  0  0  0  0
   -5.5989   27.8768   53.0209 C   0  0  0  0  0  0  0  0  0  0  0  0
   -4.2768   27.7374   53.4025 N   0  0  0  0  0  0  0  0  0  0  0  0
   -7.4393   29.7334   53.0538 C   0  0  0  0  0  0  0  0  0  0  0  0
   -7.5389   30.4122   51.7636 N   0  0  0  0  0  0  0  0  0  0  0  0
  1  2  1  0  0  0  0
  1  7  1  0  0  0  0
  2  3  1  0  0  0  0
  2  4  2  0  0  0  0
  4  5  1  0  0  0  0
  5  6  2  0  0  0  0
  5 11  1  0  0  0  0
  6  7  1  0  0  0  0
  6  9  1  0  0  0  0
  7  8  2  0  0  0  0
  9 10  2  0  0  0  0
  9 12  1  0  0  0  0
 10 11  1  0  0  0  0
 12 13  1  0  0  0  0
M  END
>  <CHROM.1>
86.26685809,-4.60733770,29.99739282,53.94480675,0.31780434,-0.39591000,0.30343208

>  <Name>
ligand

>  <RI>
-1

>  <Rbt.Current_Directory>
/home/itssahil/PROJECTS/Mol_Feturizer/Test_systems_manuscript/rnas/4jf2

>  <Rbt.Executable>
rbdock ($Id: //depot/dev/client3/rdock/2013.1/src/exe/rbdock.cxx#4 $)

>  <Rbt.Library>
libRbt.so (2013.1, Build901 2013/11/27)

>  <Rbt.Parameter_File>
/export/apps/rDock/src/rDock_2013.1_src/data/scripts/dock_solv.prm

>  <Rbt.Receptor>
prm/pocket_docking_3.prm

>  <SCORE>
-15.8718

>  <SCORE.INTER>
-15.6418

>  <SCORE.INTER.CONST>
1

>  <SCORE.INTER.POLAR>
0

>  <SCORE.INTER.ROT>
1

>  <SCORE.INTER.SOLV>
17.01

>  <SCORE.INTER.VDW>
-20.3645

>  <SCORE.INTER.norm>
-1.20321

>  <SCORE.INTRA>
-0.230035

>  <SCORE.INTRA.DIHEDRAL>
-0.186906

>  <SCORE.INTRA.DIHEDRAL.0>
1.75624

>  <SCORE.INTRA.POLAR>
0

>  <SCORE.INTRA.POLAR.0>
0

>  <SCORE.INTRA.REPUL>
0

>  <SCORE.INTRA.REPUL.0>
0

>  <SCORE.INTRA.SOLV>
-0.337105

>  <SCORE.INTRA.SOLV.lig_0>
-46.5296

>  <SCORE.INTRA.VDW>
0.031971

>  <SCORE.INTRA.VDW.0>
-0.381873

>  <SCORE.INTRA.norm>
-0.017695

>  <SCORE.RESTR>
0

>  <SCORE.RESTR.CAVITY>
0

>  <SCORE.RESTR.norm>
0

>  <SCORE.SYSTEM>
0

>  <SCORE.SYSTEM.CONST>
0

>  <SCORE.SYSTEM.DIHEDRAL>
0

>  <SCORE.SYSTEM.SOLV>
0

>  <SCORE.SYSTEM.norm>
0

>  <SCORE.heavy>
13

>  <SCORE.norm>
-1.22091

>  <RMSD>
0.772

$$$$
ligand
 OpenBabel02271912143D
libRbt.so/2013.1/901 2013/11/27
 13 14  0  0  0  0  0  0  0  0999 V2000
   -3.4152   31.5530   54.9669 N   0  0  0  0  0  0  0  0  0  0  0  0
   -2.3342   30.6569   54.9443 C   0  0  0  0  0  0  0  0  0  0  0  0
   -1.0499   31.0792   55.4538 N   0  0  0  0  0  0  0  0  0  0  0  0
   -2.4997   29.3828   54.4508 N   0  0  0  0  0  0  0  0  0  0  0  0
   -3.7462   28.9339   53.9430 C   0  0  0  0  0  0  0  0  0  0  0  0
   -4.8674   29.8337   53.9313 C   0  0  0  0  0  0  0  0  0  0  0  0
   -4.6560   31.1659   54.4498 C   0  0  0  0  0  0  0  0  0  0  0  0
   -5.7314   32.0099   54.4430 O   0  0  0  0  0  0  0  0  0  0  0  0
   -6.0049   29.1385   53.3742 C   0  0  0  0  0  0  0  0  0  0  0  0
   -5.5239   27.8674   53.0560 C   0  0  0  0  0  0  0  0  0  0  0  0
   -4.1903   27.7527   53.4041 N   0  0  0  0  0  0  0  0  0  0  0  0
   -7.3983   29.6882   53.1399 C   0  0  0  0  0  0  0  0  0  0  0  0
   -7.5114   30.4732   51.9126 N   0  0  0  0  0  0  0  0  0  0  0  0
  1  2  1  0  0  0  0
  1  7  1  0  0  0  0
  2  3  1  0  0  0  0
  2  4  2  0  0  0  0
  4  5  1  0  0  0  0
  5  6  2  0  0  0  0
  5 11  1  0  0  0  0
  6  7  1  0  0  0  0
  6  9  1  0  0  0  0
  7  8  2  0  0  0  0
  9 10  2  0  0  0  0
  9 12  1  0  0  0  0
 10 11  1  0  0  0  0
 12 13  1  0  0  0  0
M  END
>  <CHROM.1>
80.94808188,-4.54795509,30.01328971,53.96537893,0.31920029,-0.36569292,0.30549978

>  <Name>
ligand

>  <RI>
-1

>  <Rbt.Current_Directory>
/home/itssahil/PROJECTS/Mol_Feturizer/Test_systems_manuscript/rnas/4jf2

>  <Rbt.Executable>
rbdock ($Id: //depot/dev/client3/rdock/2013.1/src/exe/rbdock.cxx#4 $)

>  <Rbt.Library>
libRbt.so (2013.1, Build901 2013/11/27)

>  <Rbt.Parameter_File>
/export/apps/rDock/src/rDock_2013.1_src/data/scripts/dock_solv.prm

>  <Rbt.Receptor>
prm/pocket_docking_2.prm

>  <SCORE>
-15.782

>  <SCORE.INTER>
-15.6167

>  <SCORE.INTER.CONST>
1

>  <SCORE.INTER.POLAR>
0

>  <SCORE.INTER.ROT>
1

>  <SCORE.INTER.SOLV>
17.1406

>  <SCORE.INTER.VDW>
-20.3913

>  <SCORE.INTER.norm>
-1.20129

>  <SCORE.INTRA>
-0.165312

>  <SCORE.INTRA.DIHEDRAL>
-0.178696

>  <SCORE.INTRA.DIHEDRAL.0>
1.75624

>  <SCORE.INTRA.POLAR>
0

>  <SCORE.INTRA.POLAR.0>
0

>  <SCORE.INTRA.REPUL>
0

>  <SCORE.INTRA.REPUL.0>
0

>  <SCORE.INTRA.SOLV>
-0.186133

>  <SCORE.INTRA.SOLV.lig_0>
-46.5296

>  <SCORE.INTRA.VDW>
0.0171023

>  <SCORE.INTRA.VDW.0>
-0.381873

>  <SCORE.INTRA.norm>
-0.0127163

>  <SCORE.RESTR>
0

>  <SCORE.RESTR.CAVITY>
0

>  <SCORE.RESTR.norm>
0

>  <SCORE.SYSTEM>
0

>  <SCORE.SYSTEM.CONST>
0

>  <SCORE.SYSTEM.DIHEDRAL>
0

>  <SCORE.SYSTEM.SOLV>
0

>  <SCORE.SYSTEM.norm>
0

>  <SCORE.heavy>
13

>  <SCORE.norm>
-1.214

>  <RMSD>
0.776

$$$$
ligand
 OpenBabel02271912143D
libRbt.so/2013.1/901 2013/11/27
 13 14  0  0  0  0  0  0  0  0999 V2000
   -3.3681   31.5443   54.9662 N   0  0  0  0  0  0  0  0  0  0  0  0
   -2.3308   30.5977   54.9784 C   0  0  0  0  0  0  0  0  0  0  0  0
   -1.0338   30.9710   55.4939 N   0  0  0  0  0  0  0  0  0  0  0  0
   -2.5513   29.3213   54.5131 N   0  0  0  0  0  0  0  0  0  0  0  0
   -3.8118   28.9199   54.0005 C   0  0  0  0  0  0  0  0  0  0  0  0
   -4.8887   29.8712   53.9535 C   0  0  0  0  0  0  0  0  0  0  0  0
   -4.6200   31.2040   54.4429 C   0  0  0  0  0  0  0  0  0  0  0  0
   -5.6537   32.0976   54.4027 O   0  0  0  0  0  0  0  0  0  0  0  0
   -6.0516   29.2174   53.3988 C   0  0  0  0  0  0  0  0  0  0  0  0
   -5.6281   27.9176   53.1168 C   0  0  0  0  0  0  0  0  0  0  0  0
   -4.3055   27.7483   53.4842 N   0  0  0  0  0  0  0  0  0  0  0  0
   -7.4145   29.8266   53.1340 C   0  0  0  0  0  0  0  0  0  0  0  0
   -7.5297   30.4320   51.8091 N   0  0  0  0  0  0  0  0  0  0  0  0
  1  2  1  0  0  0  0
  1  7  1  0  0  0  0
  2  3  1  0  0  0  0
  2  4  2  0  0  0  0
  4  5  1  0  0  0  0
  5  6  2  0  0  0  0
  5 11  1  0  0  0  0
  6  7  1  0  0  0  0
  6  9  1  0  0  0  0
  7  8  2  0  0  0  0
  9 10  2  0  0  0  0
  9 12  1  0  0  0  0
 10 11  1  0  0  0  0
 12 13  1  0  0  0  0
M  END
>  <CHROM.1>
88.68193728,-4.56581039,30.02368431,53.98092465,0.28892062,-0.39138219,0.27181887

>  <Name>
ligand

>  <RI>
-1

>  <Rbt.Current_Directory>
/home/itssahil/PROJECTS/Mol_Feturizer/Test_systems_manuscript/rnas/4jf2

>  <Rbt.Executable>
rbdock ($Id: //depot/dev/client3/rdock/2013.1/src/exe/rbdock.cxx#4 $)

>  <Rbt.Library>
libRbt.so (2013.1, Build901 2013/11/27)

>  <Rbt.Parameter_File>
/export/apps/rDock/src/rDock_2013.1_src/data/scripts/dock_solv.prm

>  <Rbt.Receptor>
prm/pocket_docking_4.prm

>  <SCORE>
-15.8521

>  <SCORE.INTER>
-15.5942

>  <SCORE.INTER.CONST>
1

>  <SCORE.INTER.POLAR>
0

>  <SCORE.INTER.ROT>
1

>  <SCORE.INTER.SOLV>
16.9951

>  <SCORE.INTER.VDW>
-20.3279

>  <SCORE.INTER.norm>
-1.19956

>  <SCORE.INTRA>
-0.257911

>  <SCORE.INTRA.DIHEDRAL>
-0.187833

>  <SCORE.INTRA.DIHEDRAL.0>
1.75624

>  <SCORE.INTRA.POLAR>
0

>  <SCORE.INTRA.POLAR.0>
0

>  <SCORE.INTRA.REPUL>
0

>  <SCORE.INTRA.REPUL.0>
0

>  <SCORE.INTRA.SOLV>
-0.404818

>  <SCORE.INTRA.SOLV.lig_0>
-46.5296

>  <SCORE.INTRA.VDW>
0.0384144

>  <SCORE.INTRA.VDW.0>
-0.381873

>  <SCORE.INTRA.norm>
-0.0198393

>  <SCORE.RESTR>
0

>  <SCORE.RESTR.CAVITY>
0

>  <SCORE.RESTR.norm>
0

>  <SCORE.SYSTEM>
0

>  <SCORE.SYSTEM.CONST>
0

>  <SCORE.SYSTEM.DIHEDRAL>
0

>  <SCORE.SYSTEM.SOLV>
0

>  <SCORE.SYSTEM.norm>
0

>  <SCORE.heavy>
13

>  <SCORE.norm>
-1.2194

>  <RMSD>
0.776

$$$$
ligand
 OpenBabel02271912143D
libRbt.so/2013.1/901 2013/11/27
 13 14  0  0  0  0  0  0  0  0999 V2000
   -3.4165   31.5179   54.9943 N   0  0  0  0  0  0  0  0  0  0  0  0
   -2.3411   30.6148   54.9835 C   0  0  0  0  0  0  0  0  0  0  0  0
   -1.0589   31.0299   55.5042 N   0  0  0  0  0  0  0  0  0  0  0  0
   -2.5102   29.3409   54.4907 N   0  0  0  0  0  0  0  0  0  0  0  0
   -3.7547   28.8991   53.9722 C   0  0  0  0  0  0  0  0  0  0  0  0
   -4.8699   29.8060   53.9483 C   0  0  0  0  0  0  0  0  0  0  0  0
   -4.6549   31.1377   54.4662 C   0  0  0  0  0  0  0  0  0  0  0  0
   -5.7247   31.9886   54.4478 O   0  0  0  0  0  0  0  0  0  0  0  0
   -6.0066   29.1170   53.3819 C   0  0  0  0  0  0  0  0  0  0  0  0
   -5.5308   27.8423   53.0705 C   0  0  0  0  0  0  0  0  0  0  0  0
   -4.2013   27.7197   53.4313 N   0  0  0  0  0  0  0  0  0  0  0  0
   -7.3942   29.6751   53.1334 C   0  0  0  0  0  0  0  0  0  0  0  0
   -7.4751   30.5134   51.9393 N   0  0  0  0  0  0  0  0  0  0  0  0
  1  2  1  0  0  0  0
  1  7  1  0  0  0  0
  2  3  1  0  0  0  0
  2  4  2  0  0  0  0
  4  5  1  0  0  0  0
  5  6  2  0  0  0  0
  5 11  1  0  0  0  0
  6  7  1  0  0  0  0
  6  9  1  0  0  0  0
  7  8  2  0  0  0  0
  9 10  2  0  0  0  0
  9 12  1  0  0  0  0
 10 11  1  0  0  0  0
 12 13  1  0  0  0  0
M  END
>  <CHROM.1>
78.07734631,-4.54839369,29.98803731,53.98791306,0.31026988,-0.37581447,0.29997480

>  <Name>
ligand

>  <RI>
-1

>  <Rbt.Current_Directory>
/home/itssahil/PROJECTS/Mol_Feturizer/Test_systems_manuscript/rnas/4jf2

>  <Rbt.Executable>
rbdock ($Id: //depot/dev/client3/rdock/2013.1/src/exe/rbdock.cxx#4 $)

>  <Rbt.Library>
libRbt.so (2013.1, Build901 2013/11/27)

>  <Rbt.Parameter_File>
/export/apps/rDock/src/rDock_2013.1_src/data/scripts/dock_solv.prm

>  <Rbt.Receptor>
prm/pocket_docking_2.prm

>  <SCORE>
-15.8189

>  <SCORE.INTER>
-15.6903

>  <SCORE.INTER.CONST>
1

>  <SCORE.INTER.POLAR>
0

>  <SCORE.INTER.ROT>
1

>  <SCORE.INTER.SOLV>
16.9368

>  <SCORE.INTER.VDW>
-20.3725

>  <SCORE.INTER.norm>
-1.20695

>  <SCORE.INTRA>
-0.128579

>  <SCORE.INTRA.DIHEDRAL>
-0.170918

>  <SCORE.INTRA.DIHEDRAL.0>
1.75624

>  <SCORE.INTRA.POLAR>
0

>  <SCORE.INTRA.POLAR.0>
0

>  <SCORE.INTRA.REPUL>
0

>  <SCORE.INTRA.REPUL.0>
0

>  <SCORE.INTRA.SOLV>
-0.103912

>  <SCORE.INTRA.SOLV.lig_0>
-46.5296

>  <SCORE.INTRA.VDW>
0.00883629

>  <SCORE.INTRA.VDW.0>
-0.381873

>  <SCORE.INTRA.norm>
-0.00989069

>  <SCORE.RESTR>
0

>  <SCORE.RESTR.CAVITY>
0

>  <SCORE.RESTR.norm>
0

>  <SCORE.SYSTEM>
0

>  <SCORE.SYSTEM.CONST>
0

>  <SCORE.SYSTEM.DIHEDRAL>
0

>  <SCORE.SYSTEM.SOLV>
0

>  <SCORE.SYSTEM.norm>
0

>  <SCORE.heavy>
13

>  <SCORE.norm>
-1.21684

>  <RMSD>
0.777

$$$$
ligand
 OpenBabel02271912143D
libRbt.so/2013.1/901 2013/11/27
 13 14  0  0  0  0  0  0  0  0999 V2000
   -3.4621   31.5360   54.9529 N   0  0  0  0  0  0  0  0  0  0  0  0
   -2.3912   30.6274   54.9591 C   0  0  0  0  0  0  0  0  0  0  0  0
   -1.1125   31.0393   55.4907 N   0  0  0  0  0  0  0  0  0  0  0  0
   -2.5617   29.3512   54.4726 N   0  0  0  0  0  0  0  0  0  0  0  0
   -3.8030   28.9125   53.9438 C   0  0  0  0  0  0  0  0  0  0  0  0
   -4.9132   29.8249   53.9025 C   0  0  0  0  0  0  0  0  0  0  0  0
   -4.6968   31.1588   54.4143 C   0  0  0  0  0  0  0  0  0  0  0  0
   -5.7619   32.0149   54.3793 O   0  0  0  0  0  0  0  0  0  0  0  0
   -6.0474   29.1381   53.3285 C   0  0  0  0  0  0  0  0  0  0  0  0
   -5.5750   27.8590   53.0302 C   0  0  0  0  0  0  0  0  0  0  0  0
   -4.2499   27.7320   53.4057 N   0  0  0  0  0  0  0  0  0  0  0  0
   -7.4295   29.7017   53.0620 C   0  0  0  0  0  0  0  0  0  0  0  0
   -7.5360   30.3882   51.7765 N   0  0  0  0  0  0  0  0  0  0  0  0
  1  2  1  0  0  0  0
  1  7  1  0  0  0  0
  2  3  1  0  0  0  0
  2  4  2  0  0  0  0
  4  5  1  0  0  0  0
  5  6  2  0  0  0  0
  5 11  1  0  0  0  0
  6  7  1  0  0  0  0
  6  9  1  0  0  0  0
  7  8  2  0  0  0  0
  9 10  2  0  0  0  0
  9 12  1  0  0  0  0
 10 11  1  0  0  0  0
 12 13  1  0  0  0  0
M  END
>  <CHROM.1>
85.47180952,-4.59465029,29.99378194,53.93742042,0.32249573,-0.38865282,0.29934244

>  <Name>
ligand

>  <RI>
-1

>  <Rbt.Current_Directory>
/home/itssahil/PROJECTS/Mol_Feturizer/Test_systems_manuscript/rnas/4jf2

>  <Rbt.Executable>
rbdock ($Id: //depot/dev/client3/rdock/2013.1/src/exe/rbdock.cxx#4 $)

>  <Rbt.Library>
libRbt.so (2013.1, Build901 2013/11/27)

>  <Rbt.Parameter_File>
/export/apps/rDock/src/rDock_2013.1_src/data/scripts/dock_solv.prm

>  <Rbt.Receptor>
prm/pocket_docking_7.prm

>  <SCORE>
-15.8558

>  <SCORE.INTER>
-15.6352

>  <SCORE.INTER.CONST>
1

>  <SCORE.INTER.POLAR>
0

>  <SCORE.INTER.ROT>
1

>  <SCORE.INTER.SOLV>
17.1203

>  <SCORE.INTER.VDW>
-20.3969

>  <SCORE.INTER.norm>
-1.20271

>  <SCORE.INTRA>
-0.220646

>  <SCORE.INTRA.DIHEDRAL>
-0.186212

>  <SCORE.INTRA.DIHEDRAL.0>
1.75624

>  <SCORE.INTRA.POLAR>
0

>  <SCORE.INTRA.POLAR.0>
0

>  <SCORE.INTRA.REPUL>
0

>  <SCORE.INTRA.REPUL.0>
0

>  <SCORE.INTRA.SOLV>
-0.314685

>  <SCORE.INTRA.SOLV.lig_0>
-46.5296

>  <SCORE.INTRA.VDW>
0.0298032

>  <SCORE.INTRA.VDW.0>
-0.381873

>  <SCORE.INTRA.norm>
-0.0169727

>  <SCORE.RESTR>
0

>  <SCORE.RESTR.CAVITY>
0

>  <SCORE.RESTR.norm>
0

>  <SCORE.SYSTEM>
0

>  <SCORE.SYSTEM.CONST>
0

>  <SCORE.SYSTEM.DIHEDRAL>
0

>  <SCORE.SYSTEM.SOLV>
0

>  <SCORE.SYSTEM.norm>
0

>  <SCORE.heavy>
13

>  <SCORE.norm>
-1.21968

>  <RMSD>
0.777

$$$$
ligand
 OpenBabel02271912143D
libRbt.so/2013.1/901 2013/11/27
 13 14  0  0  0  0  0  0  0  0999 V2000
   -3.4911   31.5270   54.9852 N   0  0  0  0  0  0  0  0  0  0  0  0
   -2.4251   30.6129   55.0009 C   0  0  0  0  0  0  0  0  0  0  0  0
   -1.1527   31.0141   55.5555 N   0  0  0  0  0  0  0  0  0  0  0  0
   -2.5943   29.3414   54.5019 N   0  0  0  0  0  0  0  0  0  0  0  0
   -3.8294   28.9132   53.9505 C   0  0  0  0  0  0  0  0  0  0  0  0
   -4.9343   29.8316   53.8990 C   0  0  0  0  0  0  0  0  0  0  0  0
   -4.7191   31.1603   54.4246 C   0  0  0  0  0  0  0  0  0  0  0  0
   -5.7793   32.0222   54.3797 O   0  0  0  0  0  0  0  0  0  0  0  0
   -6.0628   29.1551   53.3021 C   0  0  0  0  0  0  0  0  0  0  0  0
   -5.5923   27.8760   53.0012 C   0  0  0  0  0  0  0  0  0  0  0  0
   -4.2739   27.7392   53.3963 N   0  0  0  0  0  0  0  0  0  0  0  0
   -7.4377   29.7278   53.0186 C   0  0  0  0  0  0  0  0  0  0  0  0
   -7.5240   30.4141   51.7315 N   0  0  0  0  0  0  0  0  0  0  0  0
  1  2  1  0  0  0  0
  1  7  1  0  0  0  0
  2  3  1  0  0  0  0
  2  4  2  0  0  0  0
  4  5  1  0  0  0  0
  5  6  2  0  0  0  0
  5 11  1  0  0  0  0
  6  7  1  0  0  0  0
  6  9  1  0  0  0  0
  7  8  2  0  0  0  0
  9 10  2  0  0  0  0
  9 12  1  0  0  0  0
 10 11  1  0  0  0  0
 12 13  1  0  0  0  0
M  END
>  <CHROM.1>
86.00776830,-4.61570306,29.99768020,53.93976197,0.32333216,-0.40505099,0.30753980

>  <Name>
ligand

>  <RI>
-1

>  <Rbt.Current_Directory>
/home/itssahil/PROJECTS/Mol_Feturizer/Test_systems_manuscript/rnas/4jf2

>  <Rbt.Executable>
rbdock ($Id: //depot/dev/client3/rdock/2013.1/src/exe/rbdock.cxx#4 $)

>  <Rbt.Library>
libRbt.so (2013.1, Build901 2013/11/27)

>  <Rbt.Parameter_File>
/export/apps/rDock/src/rDock_2013.1_src/data/scripts/dock_solv.prm

>  <Rbt.Receptor>
prm/pocket_docking_7.prm

>  <SCORE>
-15.8599

>  <SCORE.INTER>
-15.6329

>  <SCORE.INTER.CONST>
1

>  <SCORE.INTER.POLAR>
0

>  <SCORE.INTER.ROT>
1

>  <SCORE.INTER.SOLV>
16.9365

>  <SCORE.INTER.VDW>
-20.3341

>  <SCORE.INTER.norm>
-1.20253

>  <SCORE.INTRA>
-0.226986

>  <SCORE.INTRA.DIHEDRAL>
-0.186701

>  <SCORE.INTRA.DIHEDRAL.0>
1.75624

>  <SCORE.INTRA.POLAR>
0

>  <SCORE.INTRA.POLAR.0>
0

>  <SCORE.INTRA.REPUL>
0

>  <SCORE.INTRA.REPUL.0>
0

>  <SCORE.INTRA.SOLV>
-0.329806

>  <SCORE.INTRA.SOLV.lig_0>
-46.5296

>  <SCORE.INTRA.VDW>
0.031267

>  <SCORE.INTRA.VDW.0>
-0.381873

>  <SCORE.INTRA.norm>
-0.0174605

>  <SCORE.RESTR>
0

>  <SCORE.RESTR.CAVITY>
0

>  <SCORE.RESTR.norm>
0

>  <SCORE.SYSTEM>
0

>  <SCORE.SYSTEM.CONST>
0

>  <SCORE.SYSTEM.DIHEDRAL>
0

>  <SCORE.SYSTEM.SOLV>
0

>  <SCORE.SYSTEM.norm>
0

>  <SCORE.heavy>
13

>  <SCORE.norm>
-1.21999

>  <RMSD>
0.778

$$$$
ligand
 OpenBabel02271912143D
libRbt.so/2013.1/901 2013/11/27
 13 14  0  0  0  0  0  0  0  0999 V2000
   -3.3722   31.5382   54.9758 N   0  0  0  0  0  0  0  0  0  0  0  0
   -2.3053   30.6251   54.9640 C   0  0  0  0  0  0  0  0  0  0  0  0
   -1.0150   31.0327   55.4704 N   0  0  0  0  0  0  0  0  0  0  0  0
   -2.4903   29.3485   54.4839 N   0  0  0  0  0  0  0  0  0  0  0  0
   -3.7432   28.9139   53.9797 C   0  0  0  0  0  0  0  0  0  0  0  0
   -4.8502   29.8310   53.9571 C   0  0  0  0  0  0  0  0  0  0  0  0
   -4.6184   31.1651   54.4615 C   0  0  0  0  0  0  0  0  0  0  0  0
   -5.6804   32.0257   54.4445 O   0  0  0  0  0  0  0  0  0  0  0  0
   -5.9979   29.1478   53.4062 C   0  0  0  0  0  0  0  0  0  0  0  0
   -5.5366   27.8659   53.1022 C   0  0  0  0  0  0  0  0  0  0  0  0
   -4.2053   27.7341   53.4529 N   0  0  0  0  0  0  0  0  0  0  0  0
   -7.3823   29.7166   53.1644 C   0  0  0  0  0  0  0  0  0  0  0  0
   -7.4741   30.5160   51.9447 N   0  0  0  0  0  0  0  0  0  0  0  0
  1  2  1  0  0  0  0
  1  7  1  0  0  0  0
  2  3  1  0  0  0  0
  2  4  2  0  0  0  0
  4  5  1  0  0  0  0
  5  6  2  0  0  0  0
  5 11  1  0  0  0  0
  6  7  1  0  0  0  0
  6  9  1  0  0  0  0
  7  8  2  0  0  0  0
  9 10  2  0  0  0  0
  9 12  1  0  0  0  0
 10 11  1  0  0  0  0
 12 13  1  0  0  0  0
M  END
>  <CHROM.1>
79.60618151,-4.52733854,30.00796107,53.99087887,0.30091944,-0.37094704,0.28799950

>  <Name>
ligand

>  <RI>
-1

>  <Rbt.Current_Directory>
/home/itssahil/PROJECTS/Mol_Feturizer/Test_systems_manuscript/rnas/4jf2

>  <Rbt.Executable>
rbdock ($Id: //depot/dev/client3/rdock/2013.1/src/exe/rbdock.cxx#4 $)

>  <Rbt.Library>
libRbt.so (2013.1, Build901 2013/11/27)

>  <Rbt.Parameter_File>
/export/apps/rDock/src/rDock_2013.1_src/data/scripts/dock_solv.prm

>  <Rbt.Receptor>
prm/pocket_docking_2.prm

>  <SCORE>
-15.8557

>  <SCORE.INTER>
-15.7074

>  <SCORE.INTER.CONST>
1

>  <SCORE.INTER.POLAR>
0

>  <SCORE.INTER.ROT>
1

>  <SCORE.INTER.SOLV>
17.0119

>  <SCORE.INTER.VDW>
-20.4089

>  <SCORE.INTER.norm>
-1.20826

>  <SCORE.INTRA>
-0.148294

>  <SCORE.INTRA.DIHEDRAL>
-0.175338

>  <SCORE.INTRA.DIHEDRAL.0>
1.75624

>  <SCORE.INTRA.POLAR>
0

>  <SCORE.INTRA.POLAR.0>
0

>  <SCORE.INTRA.REPUL>
0

>  <SCORE.INTRA.REPUL.0>
0

>  <SCORE.INTRA.SOLV>
-0.147745

>  <SCORE.INTRA.SOLV.lig_0>
-46.5296

>  <SCORE.INTRA.VDW>
0.0132477

>  <SCORE.INTRA.VDW.0>
-0.381873

>  <SCORE.INTRA.norm>
-0.0114072

>  <SCORE.RESTR>
0

>  <SCORE.RESTR.CAVITY>
0

>  <SCORE.RESTR.norm>
0

>  <SCORE.SYSTEM>
0

>  <SCORE.SYSTEM.CONST>
0

>  <SCORE.SYSTEM.DIHEDRAL>
0

>  <SCORE.SYSTEM.SOLV>
0

>  <SCORE.SYSTEM.norm>
0

>  <SCORE.heavy>
13

>  <SCORE.norm>
-1.21967

>  <RMSD>
0.781

$$$$
ligand
 OpenBabel02271912143D
libRbt.so/2013.1/901 2013/11/27
 13 14  0  0  0  0  0  0  0  0999 V2000
   -3.4855   31.5248   54.9979 N   0  0  0  0  0  0  0  0  0  0  0  0
   -2.4180   30.6124   55.0094 C   0  0  0  0  0  0  0  0  0  0  0  0
   -1.1460   31.0134   55.5650 N   0  0  0  0  0  0  0  0  0  0  0  0
   -2.5854   29.3426   54.5054 N   0  0  0  0  0  0  0  0  0  0  0  0
   -3.8201   28.9146   53.9529 C   0  0  0  0  0  0  0  0  0  0  0  0
   -4.9265   29.8313   53.9057 C   0  0  0  0  0  0  0  0  0  0  0  0
   -4.7132   31.1583   54.4364 C   0  0  0  0  0  0  0  0  0  0  0  0
   -5.7748   32.0186   54.3956 O   0  0  0  0  0  0  0  0  0  0  0  0
   -6.0542   29.1555   53.3066 C   0  0  0  0  0  0  0  0  0  0  0  0
   -5.5817   27.8783   53.0004 C   0  0  0  0  0  0  0  0  0  0  0  0
   -4.2629   27.7421   53.3942 N   0  0  0  0  0  0  0  0  0  0  0  0
   -7.4302   29.7270   53.0261 C   0  0  0  0  0  0  0  0  0  0  0  0
   -7.5235   30.4017   51.7333 N   0  0  0  0  0  0  0  0  0  0  0  0
  1  2  1  0  0  0  0
  1  7  1  0  0  0  0
  2  3  1  0  0  0  0
  2  4  2  0  0  0  0
  4  5  1  0  0  0  0
  5  6  2  0  0  0  0
  5 11  1  0  0  0  0
  6  7  1  0  0  0  0
  6  9  1  0  0  0  0
  7  8  2  0  0  0  0
  9 10  2  0  0  0  0
  9 12  1  0  0  0  0
 10 11  1  0  0  0  0
 12 13  1  0  0  0  0
M  END
>  <CHROM.1>
86.83202024,-4.60858012,29.99646140,53.94621829,0.32650937,-0.40407869,0.31291540

>  <Name>
ligand

>  <RI>
-1

>  <Rbt.Current_Directory>
/home/itssahil/PROJECTS/Mol_Feturizer/Test_systems_manuscript/rnas/4jf2

>  <Rbt.Executable>
rbdock ($Id: //depot/dev/client3/rdock/2013.1/src/exe/rbdock.cxx#4 $)

>  <Rbt.Library>
libRbt.so (2013.1, Build901 2013/11/27)

>  <Rbt.Parameter_File>
/export/apps/rDock/src/rDock_2013.1_src/data/scripts/dock_solv.prm

>  <Rbt.Receptor>
prm/pocket_docking_3.prm

>  <SCORE>
-15.8528

>  <SCORE.INTER>
-15.6162

>  <SCORE.INTER.CONST>
1

>  <SCORE.INTER.POLAR>
0

>  <SCORE.INTER.ROT>
1

>  <SCORE.INTER.SOLV>
16.9529

>  <SCORE.INTER.VDW>
-20.3284

>  <SCORE.INTER.norm>
-1.20125

>  <SCORE.INTRA>
-0.236646

>  <SCORE.INTRA.DIHEDRAL>
-0.187282

>  <SCORE.INTRA.DIHEDRAL.0>
1.75624

>  <SCORE.INTRA.POLAR>
0

>  <SCORE.INTRA.POLAR.0>
0

>  <SCORE.INTRA.REPUL>
0

>  <SCORE.INTRA.REPUL.0>
0

>  <SCORE.INTRA.SOLV>
-0.353006

>  <SCORE.INTRA.SOLV.lig_0>
-46.5296

>  <SCORE.INTRA.VDW>
0.0334983

>  <SCORE.INTRA.VDW.0>
-0.381873

>  <SCORE.INTRA.norm>
-0.0182035

>  <SCORE.RESTR>
0

>  <SCORE.RESTR.CAVITY>
0

>  <SCORE.RESTR.norm>
0

>  <SCORE.SYSTEM>
0

>  <SCORE.SYSTEM.CONST>
0

>  <SCORE.SYSTEM.DIHEDRAL>
0

>  <SCORE.SYSTEM.SOLV>
0

>  <SCORE.SYSTEM.norm>
0

>  <SCORE.heavy>
13

>  <SCORE.norm>
-1.21945

>  <RMSD>
0.781

$$$$
ligand
 OpenBabel02271912143D
libRbt.so/2013.1/901 2013/11/27
 13 14  0  0  0  0  0  0  0  0999 V2000
   -3.4904   31.5238   54.9643 N   0  0  0  0  0  0  0  0  0  0  0  0
   -2.4259   30.6081   54.9874 C   0  0  0  0  0  0  0  0  0  0  0  0
   -1.1545   31.0099   55.5438 N   0  0  0  0  0  0  0  0  0  0  0  0
   -2.5957   29.3346   54.4938 N   0  0  0  0  0  0  0  0  0  0  0  0
   -3.8298   28.9057   53.9408 C   0  0  0  0  0  0  0  0  0  0  0  0
   -4.9331   29.8255   53.8819 C   0  0  0  0  0  0  0  0  0  0  0  0
   -4.7174   31.1564   54.4018 C   0  0  0  0  0  0  0  0  0  0  0  0
   -5.7761   32.0197   54.3499 O   0  0  0  0  0  0  0  0  0  0  0  0
   -6.0610   29.1481   53.2849 C   0  0  0  0  0  0  0  0  0  0  0  0
   -5.5915   27.8668   52.9913 C   0  0  0  0  0  0  0  0  0  0  0  0
   -4.2745   27.7298   53.3908 N   0  0  0  0  0  0  0  0  0  0  0  0
   -7.4341   29.7215   52.9947 C   0  0  0  0  0  0  0  0  0  0  0  0
   -7.5138   30.4081   51.7072 N   0  0  0  0  0  0  0  0  0  0  0  0
  1  2  1  0  0  0  0
  1  7  1  0  0  0  0
  2  3  1  0  0  0  0
  2  4  2  0  0  0  0
  4  5  1  0  0  0  0
  5  6  2  0  0  0  0
  5 11  1  0  0  0  0
  6  7  1  0  0  0  0
  6  9  1  0  0  0  0
  7  8  2  0  0  0  0
  9 10  2  0  0  0  0
  9 12  1  0  0  0  0
 10 11  1  0  0  0  0
 12 13  1  0  0  0  0
M  END
>  <CHROM.1>
85.70439275,-4.61423740,29.99184180,53.92300329,0.32207105,-0.40826719,0.30232786

>  <Name>
ligand

>  <RI>
0

>  <Rbt.Current_Directory>
/home/itssahil/PROJECTS/Mol_Feturizer/Test_systems_manuscript/rnas/4jf2

>  <Rbt.Executable>
rbdock ($Id: //depot/dev/client3/rdock/2013.1/src/exe/rbdock.cxx#4 $)

>  <Rbt.Library>
libRbt.so (2013.1, Build901 2013/11/27)

>  <Rbt.Parameter_File>
/export/apps/rDock/src/rDock_2013.1_src/data/scripts/dock_solv.prm

>  <Rbt.Receptor>
prm/pocket_docking_8.prm

>  <SCORE>
-15.8588

>  <SCORE.INTER>
-15.6354

>  <SCORE.INTER.CONST>
1

>  <SCORE.INTER.POLAR>
0

>  <SCORE.INTER.ROT>
1

>  <SCORE.INTER.SOLV>
16.9277

>  <SCORE.INTER.VDW>
-20.3328

>  <SCORE.INTER.norm>
-1.20272

>  <SCORE.INTRA>
-0.223403

>  <SCORE.INTRA.DIHEDRAL>
-0.186435

>  <SCORE.INTRA.DIHEDRAL.0>
1.75624

>  <SCORE.INTRA.POLAR>
0

>  <SCORE.INTRA.POLAR.0>
0

>  <SCORE.INTRA.REPUL>
0

>  <SCORE.INTRA.REPUL.0>
0

>  <SCORE.INTRA.SOLV>
-0.32125

>  <SCORE.INTRA.SOLV.lig_0>
-46.5296

>  <SCORE.INTRA.VDW>
0.0304397

>  <SCORE.INTRA.VDW.0>
-0.381873

>  <SCORE.INTRA.norm>
-0.0171848

>  <SCORE.RESTR>
0

>  <SCORE.RESTR.CAVITY>
0

>  <SCORE.RESTR.norm>
0

>  <SCORE.SYSTEM>
0

>  <SCORE.SYSTEM.CONST>
0

>  <SCORE.SYSTEM.DIHEDRAL>
0

>  <SCORE.SYSTEM.SOLV>
0

>  <SCORE.SYSTEM.norm>
0

>  <SCORE.heavy>
13

>  <SCORE.norm>
-1.21991

>  <RMSD>
0.783

$$$$
ligand
 OpenBabel02271912143D
libRbt.so/2013.1/901 2013/11/27
 13 14  0  0  0  0  0  0  0  0999 V2000
   -3.4547   31.5288   54.9818 N   0  0  0  0  0  0  0  0  0  0  0  0
   -2.3922   30.6105   54.9925 C   0  0  0  0  0  0  0  0  0  0  0  0
   -1.1154   31.0070   55.5403 N   0  0  0  0  0  0  0  0  0  0  0  0
   -2.5690   29.3395   54.4950 N   0  0  0  0  0  0  0  0  0  0  0  0
   -3.8086   28.9158   53.9502 C   0  0  0  0  0  0  0  0  0  0  0  0
   -4.9101   29.8385   53.9040 C   0  0  0  0  0  0  0  0  0  0  0  0
   -4.6870   31.1667   54.4277 C   0  0  0  0  0  0  0  0  0  0  0  0
   -5.7441   32.0327   54.3879 O   0  0  0  0  0  0  0  0  0  0  0  0
   -6.0444   29.1663   53.3133 C   0  0  0  0  0  0  0  0  0  0  0  0
   -5.5804   27.8851   53.0106 C   0  0  0  0  0  0  0  0  0  0  0  0
   -4.2606   27.7433   53.3989 N   0  0  0  0  0  0  0  0  0  0  0  0
   -7.4185   29.7442   53.0366 C   0  0  0  0  0  0  0  0  0  0  0  0
   -7.5223   30.3883   51.7291 N   0  0  0  0  0  0  0  0  0  0  0  0
  1  2  1  0  0  0  0
  1  7  1  0  0  0  0
  2  3  1  0  0  0  0
  2  4  2  0  0  0  0
  4  5  1  0  0  0  0
  5  6  2  0  0  0  0
  5 11  1  0  0  0  0
  6  7  1  0  0  0  0
  6  9  1  0  0  0  0
  7  8  2  0  0  0  0
  9 10  2  0  0  0  0
  9 12  1  0  0  0  0
 10 11  1  0  0  0  0
 12 13  1  0  0  0  0
M  END
>  <CHROM.1>
88.07880018,-4.59181758,30.00000434,53.94133272,0.32172096,-0.40130057,0.30674560

>  <Name>
ligand

>  <RI>
-1

>  <Rbt.Current_Directory>
/home/itssahil/PROJECTS/Mol_Feturizer/Test_systems_manuscript/rnas/4jf2

>  <Rbt.Executable>
rbdock ($Id: //depot/dev/client3/rdock/2013.1/src/exe/rbdock.cxx#4 $)

>  <Rbt.Library>
libRbt.so (2013.1, Build901 2013/11/27)

>  <Rbt.Parameter_File>
/export/apps/rDock/src/rDock_2013.1_src/data/scripts/dock_solv.prm

>  <Rbt.Receptor>
prm/pocket_docking_7.prm

>  <SCORE>
-15.8655

>  <SCORE.INTER>
-15.6144

>  <SCORE.INTER.CONST>
1

>  <SCORE.INTER.POLAR>
0

>  <SCORE.INTER.ROT>
1

>  <SCORE.INTER.SOLV>
17.0021

>  <SCORE.INTER.VDW>
-20.3437

>  <SCORE.INTER.norm>
-1.20111

>  <SCORE.INTRA>
-0.251041

>  <SCORE.INTRA.DIHEDRAL>
-0.187768

>  <SCORE.INTRA.DIHEDRAL.0>
1.75624

>  <SCORE.INTRA.POLAR>
0

>  <SCORE.INTRA.POLAR.0>
0

>  <SCORE.INTRA.REPUL>
0

>  <SCORE.INTRA.REPUL.0>
0

>  <SCORE.INTRA.SOLV>
-0.387966

>  <SCORE.INTRA.SOLV.lig_0>
-46.5296

>  <SCORE.INTRA.VDW>
0.0368259

>  <SCORE.INTRA.VDW.0>
-0.381873

>  <SCORE.INTRA.norm>
-0.0193109

>  <SCORE.RESTR>
0

>  <SCORE.RESTR.CAVITY>
0

>  <SCORE.RESTR.norm>
0

>  <SCORE.SYSTEM>
0

>  <SCORE.SYSTEM.CONST>
0

>  <SCORE.SYSTEM.DIHEDRAL>
0

>  <SCORE.SYSTEM.SOLV>
0

>  <SCORE.SYSTEM.norm>
0

>  <SCORE.heavy>
13

>  <SCORE.norm>
-1.22042

>  <RMSD>
0.784

$$$$
ligand
 OpenBabel02271912143D
libRbt.so/2013.1/901 2013/11/27
 13 14  0  0  0  0  0  0  0  0999 V2000
   -3.4036   31.5361   54.9924 N   0  0  0  0  0  0  0  0  0  0  0  0
   -2.3529   30.6045   55.0023 C   0  0  0  0  0  0  0  0  0  0  0  0
   -1.0685   30.9871   55.5423 N   0  0  0  0  0  0  0  0  0  0  0  0
   -2.5482   29.3335   54.5116 N   0  0  0  0  0  0  0  0  0  0  0  0
   -3.7957   28.9232   53.9746 C   0  0  0  0  0  0  0  0  0  0  0  0
   -4.8856   29.8596   53.9294 C   0  0  0  0  0  0  0  0  0  0  0  0
   -4.6431   31.1872   54.4459 C   0  0  0  0  0  0  0  0  0  0  0  0
   -5.6892   32.0664   54.4071 O   0  0  0  0  0  0  0  0  0  0  0  0
   -6.0311   29.1992   53.3471 C   0  0  0  0  0  0  0  0  0  0  0  0
   -5.5849   27.9108   53.0482 C   0  0  0  0  0  0  0  0  0  0  0  0
   -4.2651   27.7540   53.4309 N   0  0  0  0  0  0  0  0  0  0  0  0
   -7.3991   29.7933   53.0743 C   0  0  0  0  0  0  0  0  0  0  0  0
   -7.5074   30.4139   51.7558 N   0  0  0  0  0  0  0  0  0  0  0  0
  1  2  1  0  0  0  0
  1  7  1  0  0  0  0
  2  3  1  0  0  0  0
  2  4  2  0  0  0  0
  4  5  1  0  0  0  0
  5  6  2  0  0  0  0
  5 11  1  0  0  0  0
  6  7  1  0  0  0  0
  6  9  1  0  0  0  0
  7  8  2  0  0  0  0
  9 10  2  0  0  0  0
  9 12  1  0  0  0  0
 10 11  1  0  0  0  0
 12 13  1  0  0  0  0
M  END
>  <CHROM.1>
89.00090942,-4.56559690,30.01567662,53.96374218,0.30884435,-0.40049364,0.29728635

>  <Name>
ligand

>  <RI>
-1

>  <Rbt.Current_Directory>
/home/itssahil/PROJECTS/Mol_Feturizer/Test_systems_manuscript/rnas/4jf2

>  <Rbt.Executable>
rbdock ($Id: //depot/dev/client3/rdock/2013.1/src/exe/rbdock.cxx#4 $)

>  <Rbt.Library>
libRbt.so (2013.1, Build901 2013/11/27)

>  <Rbt.Parameter_File>
/export/apps/rDock/src/rDock_2013.1_src/data/scripts/dock_solv.prm

>  <Rbt.Receptor>
prm/pocket_docking_3.prm

>  <SCORE>
-15.8914

>  <SCORE.INTER>
-15.6315

>  <SCORE.INTER.CONST>
1

>  <SCORE.INTER.POLAR>
0

>  <SCORE.INTER.ROT>
1

>  <SCORE.INTER.SOLV>
16.9426

>  <SCORE.INTER.VDW>
-20.3352

>  <SCORE.INTER.norm>
-1.20242

>  <SCORE.INTRA>
-0.259905

>  <SCORE.INTRA.DIHEDRAL>
-0.187822

>  <SCORE.INTRA.DIHEDRAL.0>
1.75624

>  <SCORE.INTRA.POLAR>
0

>  <SCORE.INTRA.POLAR.0>
0

>  <SCORE.INTRA.REPUL>
0

>  <SCORE.INTRA.REPUL.0>
0

>  <SCORE.INTRA.SOLV>
-0.410486

>  <SCORE.INTRA.SOLV.lig_0>
-46.5296

>  <SCORE.INTRA.VDW>
0.0392488

>  <SCORE.INTRA.VDW.0>
-0.381873

>  <SCORE.INTRA.norm>
-0.0199927

>  <SCORE.RESTR>
0

>  <SCORE.RESTR.CAVITY>
0

>  <SCORE.RESTR.norm>
0

>  <SCORE.SYSTEM>
0

>  <SCORE.SYSTEM.CONST>
0

>  <SCORE.SYSTEM.DIHEDRAL>
0

>  <SCORE.SYSTEM.SOLV>
0

>  <SCORE.SYSTEM.norm>
0

>  <SCORE.heavy>
13

>  <SCORE.norm>
-1.22241

>  <RMSD>
0.787

$$$$
ligand
 OpenBabel02271912143D
libRbt.so/2013.1/901 2013/11/27
 13 14  0  0  0  0  0  0  0  0999 V2000
   -3.4235   31.5351   54.9861 N   0  0  0  0  0  0  0  0  0  0  0  0
   -2.3709   30.6057   55.0013 C   0  0  0  0  0  0  0  0  0  0  0  0
   -1.0900   30.9911   55.5474 N   0  0  0  0  0  0  0  0  0  0  0  0
   -2.5612   29.3342   54.5099 N   0  0  0  0  0  0  0  0  0  0  0  0
   -3.8052   28.9212   53.9669 C   0  0  0  0  0  0  0  0  0  0  0  0
   -4.8968   29.8553   53.9161 C   0  0  0  0  0  0  0  0  0  0  0  0
   -4.6596   31.1835   54.4335 C   0  0  0  0  0  0  0  0  0  0  0  0
   -5.7073   32.0605   54.3894 O   0  0  0  0  0  0  0  0  0  0  0  0
   -6.0381   29.1923   53.3285 C   0  0  0  0  0  0  0  0  0  0  0  0
   -5.5878   27.9048   53.0320 C   0  0  0  0  0  0  0  0  0  0  0  0
   -4.2695   27.7509   53.4212 N   0  0  0  0  0  0  0  0  0  0  0  0
   -7.4059   29.7835   53.0488 C   0  0  0  0  0  0  0  0  0  0  0  0
   -7.5061   30.4123   51.7336 N   0  0  0  0  0  0  0  0  0  0  0  0
  1  2  1  0  0  0  0
  1  7  1  0  0  0  0
  2  3  1  0  0  0  0
  2  4  2  0  0  0  0
  4  5  1  0  0  0  0
  5  6  2  0  0  0  0
  5 11  1  0  0  0  0
  6  7  1  0  0  0  0
  6  9  1  0  0  0  0
  7  8  2  0  0  0  0
  9 10  2  0  0  0  0
  9 12  1  0  0  0  0
 10 11  1  0  0  0  0
 12 13  1  0  0  0  0
M  END
>  <CHROM.1>
88.57515013,-4.57704722,30.01273538,53.95237152,0.31171086,-0.40456682,0.29809850

>  <Name>
ligand

>  <RI>
-1

>  <Rbt.Current_Directory>
/home/itssahil/PROJECTS/Mol_Feturizer/Test_systems_manuscript/rnas/4jf2

>  <Rbt.Executable>
rbdock ($Id: //depot/dev/client3/rdock/2013.1/src/exe/rbdock.cxx#4 $)

>  <Rbt.Library>
libRbt.so (2013.1, Build901 2013/11/27)

>  <Rbt.Parameter_File>
/export/apps/rDock/src/rDock_2013.1_src/data/scripts/dock_solv.prm

>  <Rbt.Receptor>
prm/pocket_docking_6.prm

>  <SCORE>
-15.8696

>  <SCORE.INTER>
-15.6129

>  <SCORE.INTER.CONST>
1

>  <SCORE.INTER.POLAR>
0

>  <SCORE.INTER.ROT>
1

>  <SCORE.INTER.SOLV>
16.9281

>  <SCORE.INTER.VDW>
-20.318

>  <SCORE.INTER.norm>
-1.20099

>  <SCORE.INTRA>
-0.256699

>  <SCORE.INTRA.DIHEDRAL>
-0.187829

>  <SCORE.INTRA.DIHEDRAL.0>
1.75624

>  <SCORE.INTRA.POLAR>
0

>  <SCORE.INTRA.POLAR.0>
0

>  <SCORE.INTRA.REPUL>
0

>  <SCORE.INTRA.REPUL.0>
0

>  <SCORE.INTRA.SOLV>
-0.401837

>  <SCORE.INTRA.SOLV.lig_0>
-46.5296

>  <SCORE.INTRA.VDW>
0.0381342

>  <SCORE.INTRA.VDW.0>
-0.381873

>  <SCORE.INTRA.norm>
-0.0197461

>  <SCORE.RESTR>
0

>  <SCORE.RESTR.CAVITY>
0

>  <SCORE.RESTR.norm>
0

>  <SCORE.SYSTEM>
0

>  <SCORE.SYSTEM.CONST>
0

>  <SCORE.SYSTEM.DIHEDRAL>
0

>  <SCORE.SYSTEM.SOLV>
0

>  <SCORE.SYSTEM.norm>
0

>  <SCORE.heavy>
13

>  <SCORE.norm>
-1.22074

>  <RMSD>
0.787

$$$$
ligand
 OpenBabel02271912143D
libRbt.so/2013.1/901 2013/11/27
 13 14  0  0  0  0  0  0  0  0999 V2000
   -3.4499   31.5309   54.9737 N   0  0  0  0  0  0  0  0  0  0  0  0
   -2.3924   30.6071   54.9981 C   0  0  0  0  0  0  0  0  0  0  0  0
   -1.1158   31.0022   55.5474 N   0  0  0  0  0  0  0  0  0  0  0  0
   -2.5739   29.3322   54.5124 N   0  0  0  0  0  0  0  0  0  0  0  0
   -3.8134   28.9097   53.9665 C   0  0  0  0  0  0  0  0  0  0  0  0
   -4.9097   29.8377   53.9064 C   0  0  0  0  0  0  0  0  0  0  0  0
   -4.6818   31.1698   54.4179 C   0  0  0  0  0  0  0  0  0  0  0  0
   -5.7340   32.0410   54.3650 O   0  0  0  0  0  0  0  0  0  0  0  0
   -6.0451   29.1656   53.3175 C   0  0  0  0  0  0  0  0  0  0  0  0
   -5.5867   27.8791   53.0296 C   0  0  0  0  0  0  0  0  0  0  0  0
   -4.2692   27.7342   53.4249 N   0  0  0  0  0  0  0  0  0  0  0  0
   -7.4148   29.7481   53.0292 C   0  0  0  0  0  0  0  0  0  0  0  0
   -7.5080   30.3846   51.7172 N   0  0  0  0  0  0  0  0  0  0  0  0
  1  2  1  0  0  0  0
  1  7  1  0  0  0  0
  2  3  1  0  0  0  0
  2  4  2  0  0  0  0
  4  5  1  0  0  0  0
  5  6  2  0  0  0  0
  5 11  1  0  0  0  0
  6  7  1  0  0  0  0
  6  9  1  0  0  0  0
  7  8  2  0  0  0  0
  9 10  2  0  0  0  0
  9 12  1  0  0  0  0
 10 11  1  0  0  0  0
 12 13  1  0  0  0  0
M  END
>  <CHROM.1>
87.84236830,-4.59058199,29.99826503,53.94371247,0.31708930,-0.40696677,0.29496211

>  <Name>
ligand

>  <RI>
-1

>  <Rbt.Current_Directory>
/home/itssahil/PROJECTS/Mol_Feturizer/Test_systems_manuscript/rnas/4jf2

>  <Rbt.Executable>
rbdock ($Id: //depot/dev/client3/rdock/2013.1/src/exe/rbdock.cxx#4 $)

>  <Rbt.Library>
libRbt.so (2013.1, Build901 2013/11/27)

>  <Rbt.Parameter_File>
/export/apps/rDock/src/rDock_2013.1_src/data/scripts/dock_solv.prm

>  <Rbt.Receptor>
prm/pocket_docking_7.prm

>  <SCORE>
-15.862

>  <SCORE.INTER>
-15.6137

>  <SCORE.INTER.CONST>
1

>  <SCORE.INTER.POLAR>
0

>  <SCORE.INTER.ROT>
1

>  <SCORE.INTER.SOLV>
16.9732

>  <SCORE.INTER.VDW>
-20.3335

>  <SCORE.INTER.norm>
-1.20105

>  <SCORE.INTRA>
-0.248331

>  <SCORE.INTRA.DIHEDRAL>
-0.187712

>  <SCORE.INTRA.DIHEDRAL.0>
1.75624

>  <SCORE.INTRA.POLAR>
0

>  <SCORE.INTRA.POLAR.0>
0

>  <SCORE.INTRA.REPUL>
0

>  <SCORE.INTRA.REPUL.0>
0

>  <SCORE.INTRA.SOLV>
-0.381349

>  <SCORE.INTRA.SOLV.lig_0>
-46.5296

>  <SCORE.INTRA.VDW>
0.0361994

>  <SCORE.INTRA.VDW.0>
-0.381873

>  <SCORE.INTRA.norm>
-0.0191024

>  <SCORE.RESTR>
0

>  <SCORE.RESTR.CAVITY>
0

>  <SCORE.RESTR.norm>
0

>  <SCORE.SYSTEM>
0

>  <SCORE.SYSTEM.CONST>
0

>  <SCORE.SYSTEM.DIHEDRAL>
0

>  <SCORE.SYSTEM.SOLV>
0

>  <SCORE.SYSTEM.norm>
0

>  <SCORE.heavy>
13

>  <SCORE.norm>
-1.22015

>  <RMSD>
0.788

$$$$
ligand
 OpenBabel02271912143D
libRbt.so/2013.1/901 2013/11/27
 13 14  0  0  0  0  0  0  0  0999 V2000
   -3.4347   31.5413   54.9864 N   0  0  0  0  0  0  0  0  0  0  0  0
   -2.3619   30.6350   54.9891 C   0  0  0  0  0  0  0  0  0  0  0  0
   -1.0835   31.0483   55.5205 N   0  0  0  0  0  0  0  0  0  0  0  0
   -2.5301   29.3598   54.4995 N   0  0  0  0  0  0  0  0  0  0  0  0
   -3.7710   28.9197   53.9708 C   0  0  0  0  0  0  0  0  0  0  0  0
   -4.8832   29.8298   53.9330 C   0  0  0  0  0  0  0  0  0  0  0  0
   -4.6691   31.1629   54.4480 C   0  0  0  0  0  0  0  0  0  0  0  0
   -5.7362   32.0168   54.4163 O   0  0  0  0  0  0  0  0  0  0  0  0
   -6.0165   29.1421   53.3584 C   0  0  0  0  0  0  0  0  0  0  0  0
   -5.5417   27.8648   53.0563 C   0  0  0  0  0  0  0  0  0  0  0  0
   -4.2160   27.7397   53.4301 N   0  0  0  0  0  0  0  0  0  0  0  0
   -7.4001   29.7034   53.0947 C   0  0  0  0  0  0  0  0  0  0  0  0
   -7.5257   30.3410   51.7859 N   0  0  0  0  0  0  0  0  0  0  0  0
  1  2  1  0  0  0  0
  1  7  1  0  0  0  0
  2  3  1  0  0  0  0
  2  4  2  0  0  0  0
  4  5  1  0  0  0  0
  5  6  2  0  0  0  0
  5 11  1  0  0  0  0
  6  7  1  0  0  0  0
  6  9  1  0  0  0  0
  7  8  2  0  0  0  0
  9 10  2  0  0  0  0
  9 12  1  0  0  0  0
 10 11  1  0  0  0  0
 12 13  1  0  0  0  0
M  END
>  <CHROM.1>
88.03922814,-4.56632656,29.99508559,53.96596193,0.32948403,-0.38706902,0.30506433

>  <Name>
ligand

>  <RI>
-1

>  <Rbt.Current_Directory>
/home/itssahil/PROJECTS/Mol_Feturizer/Test_systems_manuscript/rnas/4jf2

>  <Rbt.Executable>
rbdock ($Id: //depot/dev/client3/rdock/2013.1/src/exe/rbdock.cxx#4 $)

>  <Rbt.Library>
libRbt.so (2013.1, Build901 2013/11/27)

>  <Rbt.Parameter_File>
/export/apps/rDock/src/rDock_2013.1_src/data/scripts/dock_solv.prm

>  <Rbt.Receptor>
prm/pocket_docking_4.prm

>  <SCORE>
-15.8687

>  <SCORE.INTER>
-15.6182

>  <SCORE.INTER.CONST>
1

>  <SCORE.INTER.POLAR>
0

>  <SCORE.INTER.ROT>
1

>  <SCORE.INTER.SOLV>
17.1873

>  <SCORE.INTER.VDW>
-20.4079

>  <SCORE.INTER.norm>
-1.2014

>  <SCORE.INTRA>
-0.250588

>  <SCORE.INTRA.DIHEDRAL>
-0.18776

>  <SCORE.INTRA.DIHEDRAL.0>
1.75624

>  <SCORE.INTRA.POLAR>
0

>  <SCORE.INTRA.POLAR.0>
0

>  <SCORE.INTRA.REPUL>
0

>  <SCORE.INTRA.REPUL.0>
0

>  <SCORE.INTRA.SOLV>
-0.386859

>  <SCORE.INTRA.SOLV.lig_0>
-46.5296

>  <SCORE.INTRA.VDW>
0.0367212

>  <SCORE.INTRA.VDW.0>
-0.381873

>  <SCORE.INTRA.norm>
-0.019276

>  <SCORE.RESTR>
0

>  <SCORE.RESTR.CAVITY>
0

>  <SCORE.RESTR.norm>
0

>  <SCORE.SYSTEM>
0

>  <SCORE.SYSTEM.CONST>
0

>  <SCORE.SYSTEM.DIHEDRAL>
0

>  <SCORE.SYSTEM.SOLV>
0

>  <SCORE.SYSTEM.norm>
0

>  <SCORE.heavy>
13

>  <SCORE.norm>
-1.22067

>  <RMSD>
0.790

$$$$
ligand
 OpenBabel02271912143D
libRbt.so/2013.1/901 2013/11/27
 13 14  0  0  0  0  0  0  0  0999 V2000
   -3.4454   31.5414   54.9683 N   0  0  0  0  0  0  0  0  0  0  0  0
   -2.3719   30.6360   54.9804 C   0  0  0  0  0  0  0  0  0  0  0  0
   -1.0964   31.0527   55.5159 N   0  0  0  0  0  0  0  0  0  0  0  0
   -2.5368   29.3583   54.4960 N   0  0  0  0  0  0  0  0  0  0  0  0
   -3.7748   28.9148   53.9635 C   0  0  0  0  0  0  0  0  0  0  0  0
   -4.8876   29.8238   53.9161 C   0  0  0  0  0  0  0  0  0  0  0  0
   -4.6770   31.1594   54.4259 C   0  0  0  0  0  0  0  0  0  0  0  0
   -5.7445   32.0124   54.3852 O   0  0  0  0  0  0  0  0  0  0  0  0
   -6.0176   29.1326   53.3394 C   0  0  0  0  0  0  0  0  0  0  0  0
   -5.5403   27.8542   53.0455 C   0  0  0  0  0  0  0  0  0  0  0  0
   -4.2163   27.7319   53.4262 N   0  0  0  0  0  0  0  0  0  0  0  0
   -7.4003   29.6915   53.0665 C   0  0  0  0  0  0  0  0  0  0  0  0
   -7.4986   30.3930   51.7885 N   0  0  0  0  0  0  0  0  0  0  0  0
  1  2  1  0  0  0  0
  1  7  1  0  0  0  0
  2  3  1  0  0  0  0
  2  4  2  0  0  0  0
  4  5  1  0  0  0  0
  5  6  2  0  0  0  0
  5 11  1  0  0  0  0
  6  7  1  0  0  0  0
  6  9  1  0  0  0  0
  7  8  2  0  0  0  0
  9 10  2  0  0  0  0
  9 12  1  0  0  0  0
 10 11  1  0  0  0  0
 12 13  1  0  0  0  0
M  END
>  <CHROM.1>
84.57781650,-4.56920189,29.99522045,53.95263481,0.32495257,-0.39130864,0.29802746

>  <Name>
ligand

>  <RI>
-1

>  <Rbt.Current_Directory>
/home/itssahil/PROJECTS/Mol_Feturizer/Test_systems_manuscript/rnas/4jf2

>  <Rbt.Executable>
rbdock ($Id: //depot/dev/client3/rdock/2013.1/src/exe/rbdock.cxx#4 $)

>  <Rbt.Library>
libRbt.so (2013.1, Build901 2013/11/27)

>  <Rbt.Parameter_File>
/export/apps/rDock/src/rDock_2013.1_src/data/scripts/dock_solv.prm

>  <Rbt.Receptor>
prm/pocket_docking_6.prm

>  <SCORE>
-15.8697

>  <SCORE.INTER>
-15.6597

>  <SCORE.INTER.CONST>
1

>  <SCORE.INTER.POLAR>
0

>  <SCORE.INTER.ROT>
1

>  <SCORE.INTER.SOLV>
17.0719

>  <SCORE.INTER.VDW>
-20.3971

>  <SCORE.INTER.norm>
-1.2046

>  <SCORE.INTRA>
-0.209966

>  <SCORE.INTRA.DIHEDRAL>
-0.185205

>  <SCORE.INTRA.DIHEDRAL.0>
1.75624

>  <SCORE.INTRA.POLAR>
0

>  <SCORE.INTRA.POLAR.0>
0

>  <SCORE.INTRA.REPUL>
0

>  <SCORE.INTRA.REPUL.0>
0

>  <SCORE.INTRA.SOLV>
-0.289406

>  <SCORE.INTRA.SOLV.lig_0>
-46.5296

>  <SCORE.INTRA.VDW>
0.0273399

>  <SCORE.INTRA.VDW.0>
-0.381873

>  <SCORE.INTRA.norm>
-0.0161512

>  <SCORE.RESTR>
0

>  <SCORE.RESTR.CAVITY>
0

>  <SCORE.RESTR.norm>
0

>  <SCORE.SYSTEM>
0

>  <SCORE.SYSTEM.CONST>
0

>  <SCORE.SYSTEM.DIHEDRAL>
0

>  <SCORE.SYSTEM.SOLV>
0

>  <SCORE.SYSTEM.norm>
0

>  <SCORE.heavy>
13

>  <SCORE.norm>
-1.22075

>  <RMSD>
0.790

$$$$
ligand
 OpenBabel02271912143D
libRbt.so/2013.1/901 2013/11/27
 13 14  0  0  0  0  0  0  0  0999 V2000
   -3.4621   31.5232   54.9918 N   0  0  0  0  0  0  0  0  0  0  0  0
   -2.4059   30.5982   55.0223 C   0  0  0  0  0  0  0  0  0  0  0  0
   -1.1347   30.9891   55.5868 N   0  0  0  0  0  0  0  0  0  0  0  0
   -2.5837   29.3259   54.5283 N   0  0  0  0  0  0  0  0  0  0  0  0
   -3.8179   28.9076   53.9675 C   0  0  0  0  0  0  0  0  0  0  0  0
   -4.9126   29.8371   53.9009 C   0  0  0  0  0  0  0  0  0  0  0  0
   -4.6886   31.1663   54.4215 C   0  0  0  0  0  0  0  0  0  0  0  0
   -5.7393   32.0388   54.3622 O   0  0  0  0  0  0  0  0  0  0  0  0
   -6.0425   29.1692   53.2969 C   0  0  0  0  0  0  0  0  0  0  0  0
   -5.5825   27.8837   53.0070 C   0  0  0  0  0  0  0  0  0  0  0  0
   -4.2693   27.7354   53.4152 N   0  0  0  0  0  0  0  0  0  0  0  0
   -7.4087   29.7546   52.9974 C   0  0  0  0  0  0  0  0  0  0  0  0
   -7.4725   30.4452   51.7113 N   0  0  0  0  0  0  0  0  0  0  0  0
  1  2  1  0  0  0  0
  1  7  1  0  0  0  0
  2  3  1  0  0  0  0
  2  4  2  0  0  0  0
  4  5  1  0  0  0  0
  5  6  2  0  0  0  0
  5 11  1  0  0  0  0
  6  7  1  0  0  0  0
  6  9  1  0  0  0  0
  7  8  2  0  0  0  0
  9 10  2  0  0  0  0
  9 12  1  0  0  0  0
 10 11  1  0  0  0  0
 12 13  1  0  0  0  0
M  END
>  <CHROM.1>
85.49515461,-4.59249132,30.00092136,53.94416433,0.31457634,-0.41709927,0.29874555

>  <Name>
ligand

>  <RI>
-1

>  <Rbt.Current_Directory>
/home/itssahil/PROJECTS/Mol_Feturizer/Test_systems_manuscript/rnas/4jf2

>  <Rbt.Executable>
rbdock ($Id: //depot/dev/client3/rdock/2013.1/src/exe/rbdock.cxx#4 $)

>  <Rbt.Library>
libRbt.so (2013.1, Build901 2013/11/27)

>  <Rbt.Parameter_File>
/export/apps/rDock/src/rDock_2013.1_src/data/scripts/dock_solv.prm

>  <Rbt.Receptor>
prm/pocket_docking_3.prm

>  <SCORE>
-15.8274

>  <SCORE.INTER>
-15.6065

>  <SCORE.INTER.CONST>
1

>  <SCORE.INTER.POLAR>
0

>  <SCORE.INTER.ROT>
1

>  <SCORE.INTER.SOLV>
16.7636

>  <SCORE.INTER.VDW>
-20.2589

>  <SCORE.INTER.norm>
-1.2005

>  <SCORE.INTRA>
-0.220923

>  <SCORE.INTRA.DIHEDRAL>
-0.186236

>  <SCORE.INTRA.DIHEDRAL.0>
1.75624

>  <SCORE.INTRA.POLAR>
0

>  <SCORE.INTRA.POLAR.0>
0

>  <SCORE.INTRA.REPUL>
0

>  <SCORE.INTRA.REPUL.0>
0

>  <SCORE.INTRA.SOLV>
-0.315344

>  <SCORE.INTRA.SOLV.lig_0>
-46.5296

>  <SCORE.INTRA.VDW>
0.0298672

>  <SCORE.INTRA.VDW.0>
-0.381873

>  <SCORE.INTRA.norm>
-0.0169941

>  <SCORE.RESTR>
0

>  <SCORE.RESTR.CAVITY>
0

>  <SCORE.RESTR.norm>
0

>  <SCORE.SYSTEM>
0

>  <SCORE.SYSTEM.CONST>
0

>  <SCORE.SYSTEM.DIHEDRAL>
0

>  <SCORE.SYSTEM.SOLV>
0

>  <SCORE.SYSTEM.norm>
0

>  <SCORE.heavy>
13

>  <SCORE.norm>
-1.2175

>  <RMSD>
0.792

$$$$
ligand
 OpenBabel02271912143D
libRbt.so/2013.1/901 2013/11/27
 13 14  0  0  0  0  0  0  0  0999 V2000
   -3.4353   31.5442   54.9784 N   0  0  0  0  0  0  0  0  0  0  0  0
   -2.3649   30.6352   54.9910 C   0  0  0  0  0  0  0  0  0  0  0  0
   -1.0885   31.0474   55.5281 N   0  0  0  0  0  0  0  0  0  0  0  0
   -2.5335   29.3584   54.5056 N   0  0  0  0  0  0  0  0  0  0  0  0
   -3.7725   28.9194   53.9716 C   0  0  0  0  0  0  0  0  0  0  0  0
   -4.8821   29.8321   53.9237 C   0  0  0  0  0  0  0  0  0  0  0  0
   -4.6676   31.1667   54.4345 C   0  0  0  0  0  0  0  0  0  0  0  0
   -5.7322   32.0232   54.3932 O   0  0  0  0  0  0  0  0  0  0  0  0
   -6.0139   29.1450   53.3453 C   0  0  0  0  0  0  0  0  0  0  0  0
   -5.5406   27.8653   53.0511 C   0  0  0  0  0  0  0  0  0  0  0  0
   -4.2174   27.7383   53.4331 N   0  0  0  0  0  0  0  0  0  0  0  0
   -7.3944   29.7087   53.0714 C   0  0  0  0  0  0  0  0  0  0  0  0
   -7.4931   30.3980   51.7867 N   0  0  0  0  0  0  0  0  0  0  0  0
  1  2  1  0  0  0  0
  1  7  1  0  0  0  0
  2  3  1  0  0  0  0
  2  4  2  0  0  0  0
  4  5  1  0  0  0  0
  5  6  2  0  0  0  0
  5 11  1  0  0  0  0
  6  7  1  0  0  0  0
  6  9  1  0  0  0  0
  7  8  2  0  0  0  0
  9 10  2  0  0  0  0
  9 12  1  0  0  0  0
 10 11  1  0  0  0  0
 12 13  1  0  0  0  0
M  END
>  <CHROM.1>
85.24596358,-4.56354883,30.00135015,53.96002691,0.32313842,-0.39330705,0.29808007

>  <Name>
ligand

>  <RI>
-1

>  <Rbt.Current_Directory>
/home/itssahil/PROJECTS/Mol_Feturizer/Test_systems_manuscript/rnas/4jf2

>  <Rbt.Executable>
rbdock ($Id: //depot/dev/client3/rdock/2013.1/src/exe/rbdock.cxx#4 $)

>  <Rbt.Library>
libRbt.so (2013.1, Build901 2013/11/27)

>  <Rbt.Parameter_File>
/export/apps/rDock/src/rDock_2013.1_src/data/scripts/dock_solv.prm

>  <Rbt.Receptor>
prm/pocket_docking_6.prm

>  <SCORE>
-15.8763

>  <SCORE.INTER>
-15.6584

>  <SCORE.INTER.CONST>
1

>  <SCORE.INTER.POLAR>
0

>  <SCORE.INTER.ROT>
1

>  <SCORE.INTER.SOLV>
17.0424

>  <SCORE.INTER.VDW>
-20.3864

>  <SCORE.INTER.norm>
-1.20449

>  <SCORE.INTRA>
-0.21796

>  <SCORE.INTRA.DIHEDRAL>
-0.185981

>  <SCORE.INTRA.DIHEDRAL.0>
1.75624

>  <SCORE.INTRA.POLAR>
0

>  <SCORE.INTRA.POLAR.0>
0

>  <SCORE.INTRA.REPUL>
0

>  <SCORE.INTRA.REPUL.0>
0

>  <SCORE.INTRA.SOLV>
-0.308306

>  <SCORE.INTRA.SOLV.lig_0>
-46.5296

>  <SCORE.INTRA.VDW>
0.0291834

>  <SCORE.INTRA.VDW.0>
-0.381873

>  <SCORE.INTRA.norm>
-0.0167661

>  <SCORE.RESTR>
0

>  <SCORE.RESTR.CAVITY>
0

>  <SCORE.RESTR.norm>
0

>  <SCORE.SYSTEM>
0

>  <SCORE.SYSTEM.CONST>
0

>  <SCORE.SYSTEM.DIHEDRAL>
0

>  <SCORE.SYSTEM.SOLV>
0

>  <SCORE.SYSTEM.norm>
0

>  <SCORE.heavy>
13

>  <SCORE.norm>
-1.22126

>  <RMSD>
0.792

$$$$
ligand
 OpenBabel02271912143D
libRbt.so/2013.1/901 2013/11/27
 13 14  0  0  0  0  0  0  0  0999 V2000
   -3.4330   31.5388   54.9828 N   0  0  0  0  0  0  0  0  0  0  0  0
   -2.3614   30.6311   54.9889 C   0  0  0  0  0  0  0  0  0  0  0  0
   -1.0842   31.0427   55.5245 N   0  0  0  0  0  0  0  0  0  0  0  0
   -2.5296   29.3562   54.4986 N   0  0  0  0  0  0  0  0  0  0  0  0
   -3.7693   28.9178   53.9658 C   0  0  0  0  0  0  0  0  0  0  0  0
   -4.8803   29.8294   53.9244 C   0  0  0  0  0  0  0  0  0  0  0  0
   -4.6661   31.1621   54.4404 C   0  0  0  0  0  0  0  0  0  0  0  0
   -5.7319   32.0174   54.4053 O   0  0  0  0  0  0  0  0  0  0  0  0
   -6.0126   29.1433   53.3460 C   0  0  0  0  0  0  0  0  0  0  0  0
   -5.5384   27.8654   53.0452 C   0  0  0  0  0  0  0  0  0  0  0  0
   -4.2141   27.7384   53.4234 N   0  0  0  0  0  0  0  0  0  0  0  0
   -7.3945   29.7064   53.0779 C   0  0  0  0  0  0  0  0  0  0  0  0
   -7.5071   30.3694   51.7806 N   0  0  0  0  0  0  0  0  0  0  0  0
  1  2  1  0  0  0  0
  1  7  1  0  0  0  0
  2  3  1  0  0  0  0
  2  4  2  0  0  0  0
  4  5  1  0  0  0  0
  5  6  2  0  0  0  0
  5 11  1  0  0  0  0
  6  7  1  0  0  0  0
  6  9  1  0  0  0  0
  7  8  2  0  0  0  0
  9 10  2  0  0  0  0
  9 12  1  0  0  0  0
 10 11  1  0  0  0  0
 12 13  1  0  0  0  0
M  END
>  <CHROM.1>
86.80831292,-4.56261131,29.99627743,53.95943894,0.32674544,-0.39060320,0.30394617

>  <Name>
ligand

>  <RI>
-1

>  <Rbt.Current_Directory>
/home/itssahil/PROJECTS/Mol_Feturizer/Test_systems_manuscript/rnas/4jf2

>  <Rbt.Executable>
rbdock ($Id: //depot/dev/client3/rdock/2013.1/src/exe/rbdock.cxx#4 $)

>  <Rbt.Library>
libRbt.so (2013.1, Build901 2013/11/27)

>  <Rbt.Parameter_File>
/export/apps/rDock/src/rDock_2013.1_src/data/scripts/dock_solv.prm

>  <Rbt.Receptor>
prm/pocket_docking_3.prm

>  <SCORE>
-15.8719

>  <SCORE.INTER>
-15.6356

>  <SCORE.INTER.CONST>
1

>  <SCORE.INTER.POLAR>
0

>  <SCORE.INTER.ROT>
1

>  <SCORE.INTER.SOLV>
17.1059

>  <SCORE.INTER.VDW>
-20.3923

>  <SCORE.INTER.norm>
-1.20274

>  <SCORE.INTRA>
-0.236369

>  <SCORE.INTRA.DIHEDRAL>
-0.187268

>  <SCORE.INTRA.DIHEDRAL.0>
1.75624

>  <SCORE.INTRA.POLAR>
0

>  <SCORE.INTRA.POLAR.0>
0

>  <SCORE.INTRA.REPUL>
0

>  <SCORE.INTRA.REPUL.0>
0

>  <SCORE.INTRA.SOLV>
-0.352339

>  <SCORE.INTRA.SOLV.lig_0>
-46.5296

>  <SCORE.INTRA.VDW>
0.0334345

>  <SCORE.INTRA.VDW.0>
-0.381873

>  <SCORE.INTRA.norm>
-0.0181823

>  <SCORE.RESTR>
0

>  <SCORE.RESTR.CAVITY>
0

>  <SCORE.RESTR.norm>
0

>  <SCORE.SYSTEM>
0

>  <SCORE.SYSTEM.CONST>
0

>  <SCORE.SYSTEM.DIHEDRAL>
0

>  <SCORE.SYSTEM.SOLV>
0

>  <SCORE.SYSTEM.norm>
0

>  <SCORE.heavy>
13

>  <SCORE.norm>
-1.22092

>  <RMSD>
0.793

$$$$
ligand
 OpenBabel02271912143D
libRbt.so/2013.1/901 2013/11/27
 13 14  0  0  0  0  0  0  0  0999 V2000
   -3.4528   31.5338   54.9605 N   0  0  0  0  0  0  0  0  0  0  0  0
   -2.3961   30.6092   54.9879 C   0  0  0  0  0  0  0  0  0  0  0  0
   -1.1212   31.0029   55.5421 N   0  0  0  0  0  0  0  0  0  0  0  0
   -2.5768   29.3348   54.5007 N   0  0  0  0  0  0  0  0  0  0  0  0
   -3.8146   28.9137   53.9500 C   0  0  0  0  0  0  0  0  0  0  0  0
   -4.9101   29.8425   53.8867 C   0  0  0  0  0  0  0  0  0  0  0  0
   -4.6830   31.1741   54.4000 C   0  0  0  0  0  0  0  0  0  0  0  0
   -5.7343   32.0460   54.3441 O   0  0  0  0  0  0  0  0  0  0  0  0
   -6.0438   29.1718   53.2932 C   0  0  0  0  0  0  0  0  0  0  0  0
   -5.5853   27.8851   53.0059 C   0  0  0  0  0  0  0  0  0  0  0  0
   -4.2694   27.7389   53.4058 N   0  0  0  0  0  0  0  0  0  0  0  0
   -7.4121   29.7555   53.0004 C   0  0  0  0  0  0  0  0  0  0  0  0
   -7.5027   30.3851   51.6850 N   0  0  0  0  0  0  0  0  0  0  0  0
  1  2  1  0  0  0  0
  1  7  1  0  0  0  0
  2  3  1  0  0  0  0
  2  4  2  0  0  0  0
  4  5  1  0  0  0  0
  5  6  2  0  0  0  0
  5 11  1  0  0  0  0
  6  7  1  0  0  0  0
  6  9  1  0  0  0  0
  7  8  2  0  0  0  0
  9 10  2  0  0  0  0
  9 12  1  0  0  0  0
 10 11  1  0  0  0  0
 12 13  1  0  0  0  0
M  END
>  <CHROM.1>
88.23158699,-4.59115429,30.00216567,53.92494557,0.31823587,-0.41059492,0.29626452

>  <Name>
ligand

>  <RI>
-1

>  <Rbt.Current_Directory>
/home/itssahil/PROJECTS/Mol_Feturizer/Test_systems_manuscript/rnas/4jf2

>  <Rbt.Executable>
rbdock ($Id: //depot/dev/client3/rdock/2013.1/src/exe/rbdock.cxx#4 $)

>  <Rbt.Library>
libRbt.so (2013.1, Build901 2013/11/27)

>  <Rbt.Parameter_File>
/export/apps/rDock/src/rDock_2013.1_src/data/scripts/dock_solv.prm

>  <Rbt.Receptor>
prm/pocket_docking_4.prm

>  <SCORE>
-15.8572

>  <SCORE.INTER>
-15.6044

>  <SCORE.INTER.CONST>
1

>  <SCORE.INTER.POLAR>
0

>  <SCORE.INTER.ROT>
1

>  <SCORE.INTER.SOLV>
16.9572

>  <SCORE.INTER.VDW>
-20.322

>  <SCORE.INTER.norm>
-1.20034

>  <SCORE.INTRA>
-0.252787

>  <SCORE.INTRA.DIHEDRAL>
-0.187795

>  <SCORE.INTRA.DIHEDRAL.0>
1.75624

>  <SCORE.INTRA.POLAR>
0

>  <SCORE.INTRA.POLAR.0>
0

>  <SCORE.INTRA.REPUL>
0

>  <SCORE.INTRA.REPUL.0>
0

>  <SCORE.INTRA.SOLV>
-0.392239

>  <SCORE.INTRA.SOLV.lig_0>
-46.5296

>  <SCORE.INTRA.VDW>
0.0372296

>  <SCORE.INTRA.VDW.0>
-0.381873

>  <SCORE.INTRA.norm>
-0.0194452

>  <SCORE.RESTR>
0

>  <SCORE.RESTR.CAVITY>
0

>  <SCORE.RESTR.norm>
0

>  <SCORE.SYSTEM>
0

>  <SCORE.SYSTEM.CONST>
0

>  <SCORE.SYSTEM.DIHEDRAL>
0

>  <SCORE.SYSTEM.SOLV>
0

>  <SCORE.SYSTEM.norm>
0

>  <SCORE.heavy>
13

>  <SCORE.norm>
-1.21978

>  <RMSD>
0.793

$$$$
ligand
 OpenBabel02271912143D
libRbt.so/2013.1/901 2013/11/27
 13 14  0  0  0  0  0  0  0  0999 V2000
   -3.4373   31.5461   54.9708 N   0  0  0  0  0  0  0  0  0  0  0  0
   -2.3664   30.6377   54.9851 C   0  0  0  0  0  0  0  0  0  0  0  0
   -1.0899   31.0519   55.5203 N   0  0  0  0  0  0  0  0  0  0  0  0
   -2.5346   29.3595   54.5031 N   0  0  0  0  0  0  0  0  0  0  0  0
   -3.7737   28.9185   53.9709 C   0  0  0  0  0  0  0  0  0  0  0  0
   -4.8838   29.8305   53.9213 C   0  0  0  0  0  0  0  0  0  0  0  0
   -4.6697   31.1665   54.4286 C   0  0  0  0  0  0  0  0  0  0  0  0
   -5.7348   32.0224   54.3857 O   0  0  0  0  0  0  0  0  0  0  0  0
   -6.0156   29.1413   53.3454 C   0  0  0  0  0  0  0  0  0  0  0  0
   -5.5418   27.8611   53.0543 C   0  0  0  0  0  0  0  0  0  0  0  0
   -4.2183   27.7358   53.4358 N   0  0  0  0  0  0  0  0  0  0  0  0
   -7.3966   29.7036   53.0709 C   0  0  0  0  0  0  0  0  0  0  0  0
   -7.5022   30.3705   51.7750 N   0  0  0  0  0  0  0  0  0  0  0  0
  1  2  1  0  0  0  0
  1  7  1  0  0  0  0
  2  3  1  0  0  0  0
  2  4  2  0  0  0  0
  4  5  1  0  0  0  0
  5  6  2  0  0  0  0
  5 11  1  0  0  0  0
  6  7  1  0  0  0  0
  6  9  1  0  0  0  0
  7  8  2  0  0  0  0
  9 10  2  0  0  0  0
  9 12  1  0  0  0  0
 10 11  1  0  0  0  0
 12 13  1  0  0  0  0
M  END
>  <CHROM.1>
86.18336166,-4.56579996,29.99847181,53.95627702,0.32535072,-0.39261861,0.29649504

>  <Name>
ligand

>  <RI>
-1

>  <Rbt.Current_Directory>
/home/itssahil/PROJECTS/Mol_Feturizer/Test_systems_manuscript/rnas/4jf2

>  <Rbt.Executable>
rbdock ($Id: //depot/dev/client3/rdock/2013.1/src/exe/rbdock.cxx#4 $)

>  <Rbt.Library>
libRbt.so (2013.1, Build901 2013/11/27)

>  <Rbt.Parameter_File>
/export/apps/rDock/src/rDock_2013.1_src/data/scripts/dock_solv.prm

>  <Rbt.Receptor>
prm/pocket_docking_6.prm

>  <SCORE>
-15.8723

>  <SCORE.INTER>
-15.6432

>  <SCORE.INTER.CONST>
1

>  <SCORE.INTER.POLAR>
0

>  <SCORE.INTER.ROT>
1

>  <SCORE.INTER.SOLV>
17.1054

>  <SCORE.INTER.VDW>
-20.3973

>  <SCORE.INTER.norm>
-1.20333

>  <SCORE.INTRA>
-0.229053

>  <SCORE.INTRA.DIHEDRAL>
-0.186842

>  <SCORE.INTRA.DIHEDRAL.0>
1.75624

>  <SCORE.INTRA.POLAR>
0

>  <SCORE.INTRA.POLAR.0>
0

>  <SCORE.INTRA.REPUL>
0

>  <SCORE.INTRA.REPUL.0>
0

>  <SCORE.INTRA.SOLV>
-0.334754

>  <SCORE.INTRA.SOLV.lig_0>
-46.5296

>  <SCORE.INTRA.VDW>
0.0317444

>  <SCORE.INTRA.VDW.0>
-0.381873

>  <SCORE.INTRA.norm>
-0.0176195

>  <SCORE.RESTR>
0

>  <SCORE.RESTR.CAVITY>
0

>  <SCORE.RESTR.norm>
0

>  <SCORE.SYSTEM>
0

>  <SCORE.SYSTEM.CONST>
0

>  <SCORE.SYSTEM.DIHEDRAL>
0

>  <SCORE.SYSTEM.SOLV>
0

>  <SCORE.SYSTEM.norm>
0

>  <SCORE.heavy>
13

>  <SCORE.norm>
-1.22095

>  <RMSD>
0.793

$$$$
ligand
 OpenBabel02271912143D
libRbt.so/2013.1/901 2013/11/27
 13 14  0  0  0  0  0  0  0  0999 V2000
   -3.4004   31.5380   54.9775 N   0  0  0  0  0  0  0  0  0  0  0  0
   -2.3322   30.6264   54.9696 C   0  0  0  0  0  0  0  0  0  0  0  0
   -1.0491   31.0302   55.4971 N   0  0  0  0  0  0  0  0  0  0  0  0
   -2.5092   29.3550   54.4732 N   0  0  0  0  0  0  0  0  0  0  0  0
   -3.7548   28.9243   53.9481 C   0  0  0  0  0  0  0  0  0  0  0  0
   -4.8626   29.8401   53.9211 C   0  0  0  0  0  0  0  0  0  0  0  0
   -4.6393   31.1689   54.4430 C   0  0  0  0  0  0  0  0  0  0  0  0
   -5.7023   32.0284   54.4217 O   0  0  0  0  0  0  0  0  0  0  0  0
   -6.0022   29.1615   53.3480 C   0  0  0  0  0  0  0  0  0  0  0  0
   -5.5352   27.8837   53.0360 C   0  0  0  0  0  0  0  0  0  0  0  0
   -4.2083   27.7497   53.4025 N   0  0  0  0  0  0  0  0  0  0  0  0
   -7.3842   29.7312   53.0945 C   0  0  0  0  0  0  0  0  0  0  0  0
   -7.5142   30.3735   51.7885 N   0  0  0  0  0  0  0  0  0  0  0  0
  1  2  1  0  0  0  0
  1  7  1  0  0  0  0
  2  3  1  0  0  0  0
  2  4  2  0  0  0  0
  4  5  1  0  0  0  0
  5  6  2  0  0  0  0
  5 11  1  0  0  0  0
  6  7  1  0  0  0  0
  6  9  1  0  0  0  0
  7  8  2  0  0  0  0
  9 10  2  0  0  0  0
  9 12  1  0  0  0  0
 10 11  1  0  0  0  0
 12 13  1  0  0  0  0
M  END
>  <CHROM.1>
88.21922964,-4.54485003,30.00328865,53.95338090,0.32311535,-0.38387377,0.30867527

>  <Name>
ligand

>  <RI>
-1

>  <Rbt.Current_Directory>
/home/itssahil/PROJECTS/Mol_Feturizer/Test_systems_manuscript/rnas/4jf2

>  <Rbt.Executable>
rbdock ($Id: //depot/dev/client3/rdock/2013.1/src/exe/rbdock.cxx#4 $)

>  <Rbt.Library>
libRbt.so (2013.1, Build901 2013/11/27)

>  <Rbt.Parameter_File>
/export/apps/rDock/src/rDock_2013.1_src/data/scripts/dock_solv.prm

>  <Rbt.Receptor>
prm/pocket_docking_7.prm

>  <SCORE>
-15.8191

>  <SCORE.INTER>
-15.5665

>  <SCORE.INTER.CONST>
1

>  <SCORE.INTER.POLAR>
0

>  <SCORE.INTER.ROT>
1

>  <SCORE.INTER.SOLV>
17.1441

>  <SCORE.INTER.VDW>
-20.359

>  <SCORE.INTER.norm>
-1.19742

>  <SCORE.INTRA>
-0.252646

>  <SCORE.INTRA.DIHEDRAL>
-0.187793

>  <SCORE.INTRA.DIHEDRAL.0>
1.75624

>  <SCORE.INTRA.POLAR>
0

>  <SCORE.INTRA.POLAR.0>
0

>  <SCORE.INTRA.REPUL>
0

>  <SCORE.INTRA.REPUL.0>
0

>  <SCORE.INTRA.SOLV>
-0.391893

>  <SCORE.INTRA.SOLV.lig_0>
-46.5296

>  <SCORE.INTRA.VDW>
0.037197

>  <SCORE.INTRA.VDW.0>
-0.381873

>  <SCORE.INTRA.norm>
-0.0194343

>  <SCORE.RESTR>
0

>  <SCORE.RESTR.CAVITY>
0

>  <SCORE.RESTR.norm>
0

>  <SCORE.SYSTEM>
0

>  <SCORE.SYSTEM.CONST>
0

>  <SCORE.SYSTEM.DIHEDRAL>
0

>  <SCORE.SYSTEM.SOLV>
0

>  <SCORE.SYSTEM.norm>
0

>  <SCORE.heavy>
13

>  <SCORE.norm>
-1.21686

>  <RMSD>
0.793

$$$$
ligand
 OpenBabel02271912143D
libRbt.so/2013.1/901 2013/11/27
 13 14  0  0  0  0  0  0  0  0999 V2000
   -3.4596   31.5258   54.9085 N   0  0  0  0  0  0  0  0  0  0  0  0
   -2.4087   30.5956   54.9591 C   0  0  0  0  0  0  0  0  0  0  0  0
   -1.1349   30.9916   55.5143 N   0  0  0  0  0  0  0  0  0  0  0  0
   -2.5941   29.3137   54.4936 N   0  0  0  0  0  0  0  0  0  0  0  0
   -3.8310   28.8902   53.9428 C   0  0  0  0  0  0  0  0  0  0  0  0
   -4.9204   29.8243   53.8559 C   0  0  0  0  0  0  0  0  0  0  0  0
   -4.6884   31.1634   54.3468 C   0  0  0  0  0  0  0  0  0  0  0  0
   -5.7341   32.0405   54.2685 O   0  0  0  0  0  0  0  0  0  0  0  0
   -6.0545   29.1497   53.2674 C   0  0  0  0  0  0  0  0  0  0  0  0
   -5.6020   27.8554   53.0060 C   0  0  0  0  0  0  0  0  0  0  0  0
   -4.2895   27.7086   53.4169 N   0  0  0  0  0  0  0  0  0  0  0  0
   -7.4174   29.7362   52.9556 C   0  0  0  0  0  0  0  0  0  0  0  0
   -7.4557   30.4702   51.6927 N   0  0  0  0  0  0  0  0  0  0  0  0
  1  2  1  0  0  0  0
  1  7  1  0  0  0  0
  2  3  1  0  0  0  0
  2  4  2  0  0  0  0
  4  5  1  0  0  0  0
  5  6  2  0  0  0  0
  5 11  1  0  0  0  0
  6  7  1  0  0  0  0
  6  9  1  0  0  0  0
  7  8  2  0  0  0  0
  9 10  2  0  0  0  0
  9 12  1  0  0  0  0
 10 11  1  0  0  0  0
 12 13  1  0  0  0  0
M  END
>  <CHROM.1>
81.89250934,-4.59749550,29.99303079,53.89856025,0.30121664,-0.41784014,0.27068029

>  <Name>
ligand

>  <RI>
0

>  <Rbt.Current_Directory>
/home/itssahil/PROJECTS/Mol_Feturizer/Test_systems_manuscript/rnas/4jf2

>  <Rbt.Executable>
rbdock ($Id: //depot/dev/client3/rdock/2013.1/src/exe/rbdock.cxx#4 $)

>  <Rbt.Library>
libRbt.so (2013.1, Build901 2013/11/27)

>  <Rbt.Parameter_File>
/export/apps/rDock/src/rDock_2013.1_src/data/scripts/dock_solv.prm

>  <Rbt.Receptor>
prm/pocket_docking_8.prm

>  <SCORE>
-15.8205

>  <SCORE.INTER>
-15.6434

>  <SCORE.INTER.CONST>
1

>  <SCORE.INTER.POLAR>
0

>  <SCORE.INTER.ROT>
1

>  <SCORE.INTER.SOLV>
16.7703

>  <SCORE.INTER.VDW>
-20.2857

>  <SCORE.INTER.norm>
-1.20334

>  <SCORE.INTRA>
-0.177126

>  <SCORE.INTRA.DIHEDRAL>
-0.180757

>  <SCORE.INTRA.DIHEDRAL.0>
1.75624

>  <SCORE.INTRA.POLAR>
0

>  <SCORE.INTRA.POLAR.0>
0

>  <SCORE.INTRA.REPUL>
0

>  <SCORE.INTRA.REPUL.0>
0

>  <SCORE.INTRA.SOLV>
-0.21309

>  <SCORE.INTRA.SOLV.lig_0>
-46.5296

>  <SCORE.INTRA.VDW>
0.0197971

>  <SCORE.INTRA.VDW.0>
-0.381873

>  <SCORE.INTRA.norm>
-0.0136251

>  <SCORE.RESTR>
0

>  <SCORE.RESTR.CAVITY>
0

>  <SCORE.RESTR.norm>
0

>  <SCORE.SYSTEM>
0

>  <SCORE.SYSTEM.CONST>
0

>  <SCORE.SYSTEM.DIHEDRAL>
0

>  <SCORE.SYSTEM.SOLV>
0

>  <SCORE.SYSTEM.norm>
0

>  <SCORE.heavy>
13

>  <SCORE.norm>
-1.21696

>  <RMSD>
0.793

$$$$
ligand
 OpenBabel02271912143D
libRbt.so/2013.1/901 2013/11/27
 13 14  0  0  0  0  0  0  0  0999 V2000
   -3.3448   31.5874   55.0258 N   0  0  0  0  0  0  0  0  0  0  0  0
   -2.2855   30.6658   55.0009 C   0  0  0  0  0  0  0  0  0  0  0  0
   -0.9930   31.0541   55.5167 N   0  0  0  0  0  0  0  0  0  0  0  0
   -2.4800   29.3990   54.4990 N   0  0  0  0  0  0  0  0  0  0  0  0
   -3.7353   28.9834   53.9849 C   0  0  0  0  0  0  0  0  0  0  0  0
   -4.8345   29.9099   53.9754 C   0  0  0  0  0  0  0  0  0  0  0  0
   -4.5929   31.2334   54.5026 C   0  0  0  0  0  0  0  0  0  0  0  0
   -5.6477   32.1030   54.4979 O   0  0  0  0  0  0  0  0  0  0  0  0
   -5.9867   29.2456   53.4107 C   0  0  0  0  0  0  0  0  0  0  0  0
   -5.5354   27.9653   53.0861 C   0  0  0  0  0  0  0  0  0  0  0  0
   -4.2059   27.8165   53.4374 N   0  0  0  0  0  0  0  0  0  0  0  0
   -7.3658   29.8299   53.1756 C   0  0  0  0  0  0  0  0  0  0  0  0
   -7.5188   30.4381   51.8558 N   0  0  0  0  0  0  0  0  0  0  0  0
  1  2  1  0  0  0  0
  1  7  1  0  0  0  0
  2  3  1  0  0  0  0
  2  4  2  0  0  0  0
  4  5  1  0  0  0  0
  5  6  2  0  0  0  0
  5 11  1  0  0  0  0
  6  7  1  0  0  0  0
  6  9  1  0  0  0  0
  7  8  2  0  0  0  0
  9 10  2  0  0  0  0
  9 12  1  0  0  0  0
 10 11  1  0  0  0  0
 12 13  1  0  0  0  0
M  END
>  <CHROM.1>
90.33769952,-4.51608710,30.06629995,54.00357467,0.31398888,-0.37630757,0.31170240

>  <Name>
ligand

>  <RI>
0

>  <Rbt.Current_Directory>
/home/itssahil/PROJECTS/Mol_Feturizer/Test_systems_manuscript/rnas/4jf2

>  <Rbt.Executable>
rbdock ($Id: //depot/dev/client3/rdock/2013.1/src/exe/rbdock.cxx#4 $)

>  <Rbt.Library>
libRbt.so (2013.1, Build901 2013/11/27)

>  <Rbt.Parameter_File>
/export/apps/rDock/src/rDock_2013.1_src/data/scripts/dock_solv.prm

>  <Rbt.Receptor>
prm/pocket_docking_8.prm

>  <SCORE>
-15.8876

>  <SCORE.INTER>
-15.6196

>  <SCORE.INTER.CONST>
1

>  <SCORE.INTER.POLAR>
0

>  <SCORE.INTER.ROT>
1

>  <SCORE.INTER.SOLV>
17.1219

>  <SCORE.INTER.VDW>
-20.387

>  <SCORE.INTER.norm>
-1.20151

>  <SCORE.INTRA>
-0.268011

>  <SCORE.INTRA.DIHEDRAL>
-0.187438

>  <SCORE.INTRA.DIHEDRAL.0>
1.75624

>  <SCORE.INTRA.POLAR>
0

>  <SCORE.INTRA.POLAR.0>
0

>  <SCORE.INTRA.REPUL>
0

>  <SCORE.INTRA.REPUL.0>
0

>  <SCORE.INTRA.SOLV>
-0.433988

>  <SCORE.INTRA.SOLV.lig_0>
-46.5296

>  <SCORE.INTRA.VDW>
0.0427022

>  <SCORE.INTRA.VDW.0>
-0.381873

>  <SCORE.INTRA.norm>
-0.0206162

>  <SCORE.RESTR>
0

>  <SCORE.RESTR.CAVITY>
0

>  <SCORE.RESTR.norm>
0

>  <SCORE.SYSTEM>
0

>  <SCORE.SYSTEM.CONST>
0

>  <SCORE.SYSTEM.DIHEDRAL>
0

>  <SCORE.SYSTEM.SOLV>
0

>  <SCORE.SYSTEM.norm>
0

>  <SCORE.heavy>
13

>  <SCORE.norm>
-1.22213

>  <RMSD>
0.793

$$$$
ligand
 OpenBabel02271912143D
libRbt.so/2013.1/901 2013/11/27
 13 14  0  0  0  0  0  0  0  0999 V2000
   -3.4384   31.5437   54.9793 N   0  0  0  0  0  0  0  0  0  0  0  0
   -2.3678   30.6350   54.9934 C   0  0  0  0  0  0  0  0  0  0  0  0
   -1.0921   31.0477   55.5317 N   0  0  0  0  0  0  0  0  0  0  0  0
   -2.5356   29.3580   54.5082 N   0  0  0  0  0  0  0  0  0  0  0  0
   -3.7738   28.9184   53.9730 C   0  0  0  0  0  0  0  0  0  0  0  0
   -4.8836   29.8309   53.9235 C   0  0  0  0  0  0  0  0  0  0  0  0
   -4.6700   31.1657   54.4342 C   0  0  0  0  0  0  0  0  0  0  0  0
   -5.7348   32.0219   54.3915 O   0  0  0  0  0  0  0  0  0  0  0  0
   -6.0146   29.1433   53.3442 C   0  0  0  0  0  0  0  0  0  0  0  0
   -5.5406   27.8636   53.0509 C   0  0  0  0  0  0  0  0  0  0  0  0
   -4.2178   27.7370   53.4343 N   0  0  0  0  0  0  0  0  0  0  0  0
   -7.3950   29.7065   53.0686 C   0  0  0  0  0  0  0  0  0  0  0  0
   -7.4960   30.3838   51.7777 N   0  0  0  0  0  0  0  0  0  0  0  0
  1  2  1  0  0  0  0
  1  7  1  0  0  0  0
  2  3  1  0  0  0  0
  2  4  2  0  0  0  0
  4  5  1  0  0  0  0
  5  6  2  0  0  0  0
  5 11  1  0  0  0  0
  6  7  1  0  0  0  0
  6  9  1  0  0  0  0
  7  8  2  0  0  0  0
  9 10  2  0  0  0  0
  9 12  1  0  0  0  0
 10 11  1  0  0  0  0
 12 13  1  0  0  0  0
M  END
>  <CHROM.1>
85.81895599,-4.56543967,29.99925803,53.95971042,0.32490935,-0.39429094,0.29854261

>  <Name>
ligand

>  <RI>
0

>  <Rbt.Current_Directory>
/home/itssahil/PROJECTS/Mol_Feturizer/Test_systems_manuscript/rnas/4jf2

>  <Rbt.Executable>
rbdock ($Id: //depot/dev/client3/rdock/2013.1/src/exe/rbdock.cxx#4 $)

>  <Rbt.Library>
libRbt.so (2013.1, Build901 2013/11/27)

>  <Rbt.Parameter_File>
/export/apps/rDock/src/rDock_2013.1_src/data/scripts/dock_solv.prm

>  <Rbt.Receptor>
prm/pocket_docking_8.prm

>  <SCORE>
-15.8747

>  <SCORE.INTER>
-15.65

>  <SCORE.INTER.CONST>
1

>  <SCORE.INTER.POLAR>
0

>  <SCORE.INTER.ROT>
1

>  <SCORE.INTER.SOLV>
17.0616

>  <SCORE.INTER.VDW>
-20.3872

>  <SCORE.INTER.norm>
-1.20384

>  <SCORE.INTRA>
-0.224758

>  <SCORE.INTRA.DIHEDRAL>
-0.186539

>  <SCORE.INTRA.DIHEDRAL.0>
1.75624

>  <SCORE.INTRA.POLAR>
0

>  <SCORE.INTRA.POLAR.0>
0

>  <SCORE.INTRA.REPUL>
0

>  <SCORE.INTRA.REPUL.0>
0

>  <SCORE.INTRA.SOLV>
-0.324482

>  <SCORE.INTRA.SOLV.lig_0>
-46.5296

>  <SCORE.INTRA.VDW>
0.0307525

>  <SCORE.INTRA.VDW.0>
-0.381873

>  <SCORE.INTRA.norm>
-0.0172891

>  <SCORE.RESTR>
0

>  <SCORE.RESTR.CAVITY>
0

>  <SCORE.RESTR.norm>
0

>  <SCORE.SYSTEM>
0

>  <SCORE.SYSTEM.CONST>
0

>  <SCORE.SYSTEM.DIHEDRAL>
0

>  <SCORE.SYSTEM.SOLV>
0

>  <SCORE.SYSTEM.norm>
0

>  <SCORE.heavy>
13

>  <SCORE.norm>
-1.22113

>  <RMSD>
0.793

$$$$
ligand
 OpenBabel02271912143D
libRbt.so/2013.1/901 2013/11/27
 13 14  0  0  0  0  0  0  0  0999 V2000
   -3.4384   31.5293   54.9887 N   0  0  0  0  0  0  0  0  0  0  0  0
   -2.3776   30.6091   55.0036 C   0  0  0  0  0  0  0  0  0  0  0  0
   -1.1021   31.0034   55.5559 N   0  0  0  0  0  0  0  0  0  0  0  0
   -2.5550   29.3382   54.5059 N   0  0  0  0  0  0  0  0  0  0  0  0
   -3.7934   28.9166   53.9568 C   0  0  0  0  0  0  0  0  0  0  0  0
   -4.8930   29.8414   53.9062 C   0  0  0  0  0  0  0  0  0  0  0  0
   -4.6694   31.1693   54.4302 C   0  0  0  0  0  0  0  0  0  0  0  0
   -5.7246   32.0373   54.3862 O   0  0  0  0  0  0  0  0  0  0  0  0
   -6.0264   29.1710   53.3116 C   0  0  0  0  0  0  0  0  0  0  0  0
   -5.5637   27.8888   53.0111 C   0  0  0  0  0  0  0  0  0  0  0  0
   -4.2455   27.7448   53.4043 N   0  0  0  0  0  0  0  0  0  0  0  0
   -7.3984   29.7514   53.0297 C   0  0  0  0  0  0  0  0  0  0  0  0
   -7.4946   30.4001   51.7239 N   0  0  0  0  0  0  0  0  0  0  0  0
  1  2  1  0  0  0  0
  1  7  1  0  0  0  0
  2  3  1  0  0  0  0
  2  4  2  0  0  0  0
  4  5  1  0  0  0  0
  5  6  2  0  0  0  0
  5 11  1  0  0  0  0
  6  7  1  0  0  0  0
  6  9  1  0  0  0  0
  7  8  2  0  0  0  0
  9 10  2  0  0  0  0
  9 12  1  0  0  0  0
 10 11  1  0  0  0  0
 12 13  1  0  0  0  0
M  END
>  <CHROM.1>
87.83590936,-4.57440847,30.00266321,53.94481961,0.32048911,-0.40534237,0.30582506

>  <Name>
ligand

>  <RI>
-1

>  <Rbt.Current_Directory>
/home/itssahil/PROJECTS/Mol_Feturizer/Test_systems_manuscript/rnas/4jf2

>  <Rbt.Executable>
rbdock ($Id: //depot/dev/client3/rdock/2013.1/src/exe/rbdock.cxx#4 $)

>  <Rbt.Library>
libRbt.so (2013.1, Build901 2013/11/27)

>  <Rbt.Parameter_File>
/export/apps/rDock/src/rDock_2013.1_src/data/scripts/dock_solv.prm

>  <Rbt.Receptor>
prm/pocket_docking_4.prm

>  <SCORE>
-15.8954

>  <SCORE.INTER>
-15.6471

>  <SCORE.INTER.CONST>
1

>  <SCORE.INTER.POLAR>
0

>  <SCORE.INTER.ROT>
1

>  <SCORE.INTER.SOLV>
16.9343

>  <SCORE.INTER.VDW>
-20.3428

>  <SCORE.INTER.norm>
-1.20362

>  <SCORE.INTRA>
-0.248257

>  <SCORE.INTRA.DIHEDRAL>
-0.18771

>  <SCORE.INTRA.DIHEDRAL.0>
1.75624

>  <SCORE.INTRA.POLAR>
0

>  <SCORE.INTRA.POLAR.0>
0

>  <SCORE.INTRA.REPUL>
0

>  <SCORE.INTRA.REPUL.0>
0

>  <SCORE.INTRA.SOLV>
-0.381168

>  <SCORE.INTRA.SOLV.lig_0>
-46.5296

>  <SCORE.INTRA.VDW>
0.0361822

>  <SCORE.INTRA.VDW.0>
-0.381873

>  <SCORE.INTRA.norm>
-0.0190967

>  <SCORE.RESTR>
0

>  <SCORE.RESTR.CAVITY>
0

>  <SCORE.RESTR.norm>
0

>  <SCORE.SYSTEM>
0

>  <SCORE.SYSTEM.CONST>
0

>  <SCORE.SYSTEM.DIHEDRAL>
0

>  <SCORE.SYSTEM.SOLV>
0

>  <SCORE.SYSTEM.norm>
0

>  <SCORE.heavy>
13

>  <SCORE.norm>
-1.22272

>  <RMSD>
0.794

$$$$
ligand
 OpenBabel02271912143D
libRbt.so/2013.1/901 2013/11/27
 13 14  0  0  0  0  0  0  0  0999 V2000
   -3.4171   31.5384   54.9882 N   0  0  0  0  0  0  0  0  0  0  0  0
   -2.3407   30.6364   54.9862 C   0  0  0  0  0  0  0  0  0  0  0  0
   -1.0609   31.0556   55.5095 N   0  0  0  0  0  0  0  0  0  0  0  0
   -2.5067   29.3597   54.4995 N   0  0  0  0  0  0  0  0  0  0  0  0
   -3.7488   28.9139   53.9787 C   0  0  0  0  0  0  0  0  0  0  0  0
   -4.8649   29.8196   53.9459 C   0  0  0  0  0  0  0  0  0  0  0  0
   -4.6531   31.1543   54.4576 C   0  0  0  0  0  0  0  0  0  0  0  0
   -5.7237   32.0039   54.4307 O   0  0  0  0  0  0  0  0  0  0  0  0
   -5.9988   29.1265   53.3789 C   0  0  0  0  0  0  0  0  0  0  0  0
   -5.5206   27.8506   53.0761 C   0  0  0  0  0  0  0  0  0  0  0  0
   -4.1923   27.7313   53.4424 N   0  0  0  0  0  0  0  0  0  0  0  0
   -7.3860   29.6819   53.1224 C   0  0  0  0  0  0  0  0  0  0  0  0
   -7.5070   30.3639   51.8357 N   0  0  0  0  0  0  0  0  0  0  0  0
  1  2  1  0  0  0  0
  1  7  1  0  0  0  0
  2  3  1  0  0  0  0
  2  4  2  0  0  0  0
  4  5  1  0  0  0  0
  5  6  2  0  0  0  0
  5 11  1  0  0  0  0
  6  7  1  0  0  0  0
  6  9  1  0  0  0  0
  7  8  2  0  0  0  0
  9 10  2  0  0  0  0
  9 12  1  0  0  0  0
 10 11  1  0  0  0  0
 12 13  1  0  0  0  0
M  END
>  <CHROM.1>
85.72902465,-4.54725305,29.98997944,53.97860376,0.32710844,-0.38037868,0.30214002

>  <Name>
ligand

>  <RI>
-1

>  <Rbt.Current_Directory>
/home/itssahil/PROJECTS/Mol_Feturizer/Test_systems_manuscript/rnas/4jf2

>  <Rbt.Executable>
rbdock ($Id: //depot/dev/client3/rdock/2013.1/src/exe/rbdock.cxx#4 $)

>  <Rbt.Library>
libRbt.so (2013.1, Build901 2013/11/27)

>  <Rbt.Parameter_File>
/export/apps/rDock/src/rDock_2013.1_src/data/scripts/dock_solv.prm

>  <Rbt.Receptor>
prm/pocket_docking_5.prm

>  <SCORE>
-15.8587

>  <SCORE.INTER>
-15.635

>  <SCORE.INTER.CONST>
1

>  <SCORE.INTER.POLAR>
0

>  <SCORE.INTER.ROT>
1

>  <SCORE.INTER.SOLV>
17.1913

>  <SCORE.INTER.VDW>
-20.4205

>  <SCORE.INTER.norm>
-1.20269

>  <SCORE.INTRA>
-0.223694

>  <SCORE.INTRA.DIHEDRAL>
-0.186458

>  <SCORE.INTRA.DIHEDRAL.0>
1.75624

>  <SCORE.INTRA.POLAR>
0

>  <SCORE.INTRA.POLAR.0>
0

>  <SCORE.INTRA.REPUL>
0

>  <SCORE.INTRA.REPUL.0>
0

>  <SCORE.INTRA.SOLV>
-0.321945

>  <SCORE.INTRA.SOLV.lig_0>
-46.5296

>  <SCORE.INTRA.VDW>
0.0305069

>  <SCORE.INTRA.VDW.0>
-0.381873

>  <SCORE.INTRA.norm>
-0.0172073

>  <SCORE.RESTR>
0

>  <SCORE.RESTR.CAVITY>
0

>  <SCORE.RESTR.norm>
0

>  <SCORE.SYSTEM>
0

>  <SCORE.SYSTEM.CONST>
0

>  <SCORE.SYSTEM.DIHEDRAL>
0

>  <SCORE.SYSTEM.SOLV>
0

>  <SCORE.SYSTEM.norm>
0

>  <SCORE.heavy>
13

>  <SCORE.norm>
-1.2199

>  <RMSD>
0.794

$$$$
ligand
 OpenBabel02271912143D
libRbt.so/2013.1/901 2013/11/27
 13 14  0  0  0  0  0  0  0  0999 V2000
   -3.4374   31.5291   54.9856 N   0  0  0  0  0  0  0  0  0  0  0  0
   -2.3787   30.6067   55.0056 C   0  0  0  0  0  0  0  0  0  0  0  0
   -1.1028   31.0007   55.5573 N   0  0  0  0  0  0  0  0  0  0  0  0
   -2.5583   29.3340   54.5133 N   0  0  0  0  0  0  0  0  0  0  0  0
   -3.7970   28.9126   53.9648 C   0  0  0  0  0  0  0  0  0  0  0  0
   -4.8946   29.8395   53.9091 C   0  0  0  0  0  0  0  0  0  0  0  0
   -4.6687   31.1692   54.4275 C   0  0  0  0  0  0  0  0  0  0  0  0
   -5.7220   32.0392   54.3788 O   0  0  0  0  0  0  0  0  0  0  0  0
   -6.0288   29.1688   53.3164 C   0  0  0  0  0  0  0  0  0  0  0  0
   -5.5686   27.8844   53.0220 C   0  0  0  0  0  0  0  0  0  0  0  0
   -4.2511   27.7393   53.4171 N   0  0  0  0  0  0  0  0  0  0  0  0
   -7.3993   29.7509   53.0306 C   0  0  0  0  0  0  0  0  0  0  0  0
   -7.4957   30.3856   51.7180 N   0  0  0  0  0  0  0  0  0  0  0  0
  1  2  1  0  0  0  0
  1  7  1  0  0  0  0
  2  3  1  0  0  0  0
  2  4  2  0  0  0  0
  4  5  1  0  0  0  0
  5  6  2  0  0  0  0
  5 11  1  0  0  0  0
  6  7  1  0  0  0  0
  6  9  1  0  0  0  0
  7  8  2  0  0  0  0
  9 10  2  0  0  0  0
  9 12  1  0  0  0  0
 10 11  1  0  0  0  0
 12 13  1  0  0  0  0
M  END
>  <CHROM.1>
88.25092548,-4.57593172,29.99956422,53.94704581,0.31944830,-0.40687064,0.30109731

>  <Name>
ligand

>  <RI>
-1

>  <Rbt.Current_Directory>
/home/itssahil/PROJECTS/Mol_Feturizer/Test_systems_manuscript/rnas/4jf2

>  <Rbt.Executable>
rbdock ($Id: //depot/dev/client3/rdock/2013.1/src/exe/rbdock.cxx#4 $)

>  <Rbt.Library>
libRbt.so (2013.1, Build901 2013/11/27)

>  <Rbt.Parameter_File>
/export/apps/rDock/src/rDock_2013.1_src/data/scripts/dock_solv.prm

>  <Rbt.Receptor>
prm/pocket_docking_4.prm

>  <SCORE>
-15.894

>  <SCORE.INTER>
-15.641

>  <SCORE.INTER.CONST>
1

>  <SCORE.INTER.POLAR>
0

>  <SCORE.INTER.ROT>
1

>  <SCORE.INTER.SOLV>
16.9525

>  <SCORE.INTER.VDW>
-20.3448

>  <SCORE.INTER.norm>
-1.20315

>  <SCORE.INTRA>
-0.253008

>  <SCORE.INTRA.DIHEDRAL>
-0.187798

>  <SCORE.INTRA.DIHEDRAL.0>
1.75624

>  <SCORE.INTRA.POLAR>
0

>  <SCORE.INTRA.POLAR.0>
0

>  <SCORE.INTRA.REPUL>
0

>  <SCORE.INTRA.REPUL.0>
0

>  <SCORE.INTRA.SOLV>
-0.392779

>  <SCORE.INTRA.SOLV.lig_0>
-46.5296

>  <SCORE.INTRA.VDW>
0.0372807

>  <SCORE.INTRA.VDW.0>
-0.381873

>  <SCORE.INTRA.norm>
-0.0194621

>  <SCORE.RESTR>
0

>  <SCORE.RESTR.CAVITY>
0

>  <SCORE.RESTR.norm>
0

>  <SCORE.SYSTEM>
0

>  <SCORE.SYSTEM.CONST>
0

>  <SCORE.SYSTEM.DIHEDRAL>
0

>  <SCORE.SYSTEM.SOLV>
0

>  <SCORE.SYSTEM.norm>
0

>  <SCORE.heavy>
13

>  <SCORE.norm>
-1.22261

>  <RMSD>
0.795

$$$$
ligand
 OpenBabel02271912143D
libRbt.so/2013.1/901 2013/11/27
 13 14  0  0  0  0  0  0  0  0999 V2000
   -3.4362   31.5298   54.9933 N   0  0  0  0  0  0  0  0  0  0  0  0
   -2.3756   30.6094   55.0106 C   0  0  0  0  0  0  0  0  0  0  0  0
   -1.1002   31.0047   55.5625 N   0  0  0  0  0  0  0  0  0  0  0  0
   -2.5530   29.3375   54.5156 N   0  0  0  0  0  0  0  0  0  0  0  0
   -3.7912   28.9149   53.9669 C   0  0  0  0  0  0  0  0  0  0  0  0
   -4.8907   29.8397   53.9139 C   0  0  0  0  0  0  0  0  0  0  0  0
   -4.6670   31.1688   54.4352 C   0  0  0  0  0  0  0  0  0  0  0  0
   -5.7221   32.0368   54.3890 O   0  0  0  0  0  0  0  0  0  0  0  0
   -6.0239   29.1682   53.3204 C   0  0  0  0  0  0  0  0  0  0  0  0
   -5.5613   27.8854   53.0228 C   0  0  0  0  0  0  0  0  0  0  0  0
   -4.2433   27.7420   53.4168 N   0  0  0  0  0  0  0  0  0  0  0  0
   -7.3957   29.7482   53.0367 C   0  0  0  0  0  0  0  0  0  0  0  0
   -7.4911   30.3948   51.7298 N   0  0  0  0  0  0  0  0  0  0  0  0
  1  2  1  0  0  0  0
  1  7  1  0  0  0  0
  2  3  1  0  0  0  0
  2  4  2  0  0  0  0
  4  5  1  0  0  0  0
  5  6  2  0  0  0  0
  5 11  1  0  0  0  0
  6  7  1  0  0  0  0
  6  9  1  0  0  0  0
  7  8  2  0  0  0  0
  9 10  2  0  0  0  0
  9 12  1  0  0  0  0
 10 11  1  0  0  0  0
 12 13  1  0  0  0  0
M  END
>  <CHROM.1>
87.80416162,-4.57203020,30.00112027,53.95235085,0.32038550,-0.40574266,0.30362941

>  <Name>
ligand

>  <RI>
-1

>  <Rbt.Current_Directory>
/home/itssahil/PROJECTS/Mol_Feturizer/Test_systems_manuscript/rnas/4jf2

>  <Rbt.Executable>
rbdock ($Id: //depot/dev/client3/rdock/2013.1/src/exe/rbdock.cxx#4 $)

>  <Rbt.Library>
libRbt.so (2013.1, Build901 2013/11/27)

>  <Rbt.Parameter_File>
/export/apps/rDock/src/rDock_2013.1_src/data/scripts/dock_solv.prm

>  <Rbt.Receptor>
prm/pocket_docking_5.prm

>  <SCORE>
-15.8931

>  <SCORE.INTER>
-15.6452

>  <SCORE.INTER.CONST>
1

>  <SCORE.INTER.POLAR>
0

>  <SCORE.INTER.ROT>
1

>  <SCORE.INTER.SOLV>
16.9368

>  <SCORE.INTER.VDW>
-20.3424

>  <SCORE.INTER.norm>
-1.20348

>  <SCORE.INTRA>
-0.247893

>  <SCORE.INTRA.DIHEDRAL>
-0.187702

>  <SCORE.INTRA.DIHEDRAL.0>
1.75624

>  <SCORE.INTRA.POLAR>
0

>  <SCORE.INTRA.POLAR.0>
0

>  <SCORE.INTRA.REPUL>
0

>  <SCORE.INTRA.REPUL.0>
0

>  <SCORE.INTRA.SOLV>
-0.380279

>  <SCORE.INTRA.SOLV.lig_0>
-46.5296

>  <SCORE.INTRA.VDW>
0.0360979

>  <SCORE.INTRA.VDW.0>
-0.381873

>  <SCORE.INTRA.norm>
-0.0190687

>  <SCORE.RESTR>
0

>  <SCORE.RESTR.CAVITY>
0

>  <SCORE.RESTR.norm>
0

>  <SCORE.SYSTEM>
0

>  <SCORE.SYSTEM.CONST>
0

>  <SCORE.SYSTEM.DIHEDRAL>
0

>  <SCORE.SYSTEM.SOLV>
0

>  <SCORE.SYSTEM.norm>
0

>  <SCORE.heavy>
13

>  <SCORE.norm>
-1.22255

>  <RMSD>
0.795

$$$$
ligand
 OpenBabel02271912143D
libRbt.so/2013.1/901 2013/11/27
 13 14  0  0  0  0  0  0  0  0999 V2000
   -3.4335   31.5451   54.9820 N   0  0  0  0  0  0  0  0  0  0  0  0
   -2.3638   30.6354   54.9955 C   0  0  0  0  0  0  0  0  0  0  0  0
   -1.0877   31.0464   55.5342 N   0  0  0  0  0  0  0  0  0  0  0  0
   -2.5328   29.3588   54.5095 N   0  0  0  0  0  0  0  0  0  0  0  0
   -3.7714   28.9209   53.9739 C   0  0  0  0  0  0  0  0  0  0  0  0
   -4.8804   29.8344   53.9249 C   0  0  0  0  0  0  0  0  0  0  0  0
   -4.6654   31.1687   54.4365 C   0  0  0  0  0  0  0  0  0  0  0  0
   -5.7294   32.0260   54.3942 O   0  0  0  0  0  0  0  0  0  0  0  0
   -6.0119   29.1483   53.3450 C   0  0  0  0  0  0  0  0  0  0  0  0
   -5.5392   27.8683   53.0510 C   0  0  0  0  0  0  0  0  0  0  0  0
   -4.2165   27.7402   53.4345 N   0  0  0  0  0  0  0  0  0  0  0  0
   -7.3917   29.7131   53.0697 C   0  0  0  0  0  0  0  0  0  0  0  0
   -7.4943   30.3838   51.7756 N   0  0  0  0  0  0  0  0  0  0  0  0
  1  2  1  0  0  0  0
  1  7  1  0  0  0  0
  2  3  1  0  0  0  0
  2  4  2  0  0  0  0
  4  5  1  0  0  0  0
  5  6  2  0  0  0  0
  5 11  1  0  0  0  0
  6  7  1  0  0  0  0
  6  9  1  0  0  0  0
  7  8  2  0  0  0  0
  9 10  2  0  0  0  0
  9 12  1  0  0  0  0
 10 11  1  0  0  0  0
 12 13  1  0  0  0  0
M  END
>  <CHROM.1>
86.18989507,-4.56218437,30.00185768,53.96095600,0.32464575,-0.39467543,0.29914116

>  <Name>
ligand

>  <RI>
-1

>  <Rbt.Current_Directory>
/home/itssahil/PROJECTS/Mol_Feturizer/Test_systems_manuscript/rnas/4jf2

>  <Rbt.Executable>
rbdock ($Id: //depot/dev/client3/rdock/2013.1/src/exe/rbdock.cxx#4 $)

>  <Rbt.Library>
libRbt.so (2013.1, Build901 2013/11/27)

>  <Rbt.Parameter_File>
/export/apps/rDock/src/rDock_2013.1_src/data/scripts/dock_solv.prm

>  <Rbt.Receptor>
prm/pocket_docking_5.prm

>  <SCORE>
-15.8764

>  <SCORE.INTER>
-15.6472

>  <SCORE.INTER.CONST>
1

>  <SCORE.INTER.POLAR>
0

>  <SCORE.INTER.ROT>
1

>  <SCORE.INTER.SOLV>
17.0565

>  <SCORE.INTER.VDW>
-20.3837

>  <SCORE.INTER.norm>
-1.20363

>  <SCORE.INTRA>
-0.22913

>  <SCORE.INTRA.DIHEDRAL>
-0.186847

>  <SCORE.INTRA.DIHEDRAL.0>
1.75624

>  <SCORE.INTRA.POLAR>
0

>  <SCORE.INTRA.POLAR.0>
0

>  <SCORE.INTRA.REPUL>
0

>  <SCORE.INTRA.REPUL.0>
0

>  <SCORE.INTRA.SOLV>
-0.334938

>  <SCORE.INTRA.SOLV.lig_0>
-46.5296

>  <SCORE.INTRA.VDW>
0.0317621

>  <SCORE.INTRA.VDW.0>
-0.381873

>  <SCORE.INTRA.norm>
-0.0176254

>  <SCORE.RESTR>
0

>  <SCORE.RESTR.CAVITY>
0

>  <SCORE.RESTR.norm>
0

>  <SCORE.SYSTEM>
0

>  <SCORE.SYSTEM.CONST>
0

>  <SCORE.SYSTEM.DIHEDRAL>
0

>  <SCORE.SYSTEM.SOLV>
0

>  <SCORE.SYSTEM.norm>
0

>  <SCORE.heavy>
13

>  <SCORE.norm>
-1.22126

>  <RMSD>
0.795

$$$$
ligand
 OpenBabel02271912143D
libRbt.so/2013.1/901 2013/11/27
 13 14  0  0  0  0  0  0  0  0999 V2000
   -3.4187   31.5539   54.9753 N   0  0  0  0  0  0  0  0  0  0  0  0
   -2.3361   30.6604   54.9342 C   0  0  0  0  0  0  0  0  0  0  0  0
   -1.0595   31.0648   55.4766 N   0  0  0  0  0  0  0  0  0  0  0  0
   -2.4929   29.4054   54.3913 N   0  0  0  0  0  0  0  0  0  0  0  0
   -3.7317   28.9745   53.8502 C   0  0  0  0  0  0  0  0  0  0  0  0
   -4.8540   29.8730   53.8567 C   0  0  0  0  0  0  0  0  0  0  0  0
   -4.6518   31.1851   54.4272 C   0  0  0  0  0  0  0  0  0  0  0  0
   -5.7282   32.0276   54.4372 O   0  0  0  0  0  0  0  0  0  0  0  0
   -5.9827   29.1978   53.2587 C   0  0  0  0  0  0  0  0  0  0  0  0
   -5.4955   27.9400   52.8999 C   0  0  0  0  0  0  0  0  0  0  0  0
   -4.1666   27.8138   53.2617 N   0  0  0  0  0  0  0  0  0  0  0  0
   -7.3737   29.7544   53.0259 C   0  0  0  0  0  0  0  0  0  0  0  0
   -7.4958   30.5017   51.7762 N   0  0  0  0  0  0  0  0  0  0  0  0
  1  2  1  0  0  0  0
  1  7  1  0  0  0  0
  2  3  1  0  0  0  0
  2  4  2  0  0  0  0
  4  5  1  0  0  0  0
  5  6  2  0  0  0  0
  5 11  1  0  0  0  0
  6  7  1  0  0  0  0
  6  9  1  0  0  0  0
  7  8  2  0  0  0  0
  9 10  2  0  0  0  0
  9 12  1  0  0  0  0
 10 11  1  0  0  0  0
 12 13  1  0  0  0  0
M  END
>  <CHROM.1>
85.23201006,-4.53732959,30.04473838,53.89763836,0.33346409,-0.37872888,0.34874687

>  <Name>
ligand

>  <RI>
-1

>  <Rbt.Current_Directory>
/home/itssahil/PROJECTS/Mol_Feturizer/Test_systems_manuscript/rnas/4jf2

>  <Rbt.Executable>
rbdock ($Id: //depot/dev/client3/rdock/2013.1/src/exe/rbdock.cxx#4 $)

>  <Rbt.Library>
libRbt.so (2013.1, Build901 2013/11/27)

>  <Rbt.Parameter_File>
/export/apps/rDock/src/rDock_2013.1_src/data/scripts/dock_solv.prm

>  <Rbt.Receptor>
prm/pocket_docking_7.prm

>  <SCORE>
-15.8355

>  <SCORE.INTER>
-15.6178

>  <SCORE.INTER.CONST>
1

>  <SCORE.INTER.POLAR>
0

>  <SCORE.INTER.ROT>
1

>  <SCORE.INTER.SOLV>
16.9732

>  <SCORE.INTER.VDW>
-20.3362

>  <SCORE.INTER.norm>
-1.20137

>  <SCORE.INTRA>
-0.217794

>  <SCORE.INTRA.DIHEDRAL>
-0.185966

>  <SCORE.INTRA.DIHEDRAL.0>
1.75624

>  <SCORE.INTRA.POLAR>
0

>  <SCORE.INTRA.POLAR.0>
0

>  <SCORE.INTRA.REPUL>
0

>  <SCORE.INTRA.REPUL.0>
0

>  <SCORE.INTRA.SOLV>
-0.307911

>  <SCORE.INTRA.SOLV.lig_0>
-46.5296

>  <SCORE.INTRA.VDW>
0.0291451

>  <SCORE.INTRA.VDW.0>
-0.381873

>  <SCORE.INTRA.norm>
-0.0167534

>  <SCORE.RESTR>
0

>  <SCORE.RESTR.CAVITY>
0

>  <SCORE.RESTR.norm>
0

>  <SCORE.SYSTEM>
0

>  <SCORE.SYSTEM.CONST>
0

>  <SCORE.SYSTEM.DIHEDRAL>
0

>  <SCORE.SYSTEM.SOLV>
0

>  <SCORE.SYSTEM.norm>
0

>  <SCORE.heavy>
13

>  <SCORE.norm>
-1.21812

>  <RMSD>
0.795

$$$$
ligand
 OpenBabel02271912143D
libRbt.so/2013.1/901 2013/11/27
 13 14  0  0  0  0  0  0  0  0999 V2000
   -3.4388   31.5330   54.9846 N   0  0  0  0  0  0  0  0  0  0  0  0
   -2.3789   30.6119   55.0034 C   0  0  0  0  0  0  0  0  0  0  0  0
   -1.1036   31.0067   55.5560 N   0  0  0  0  0  0  0  0  0  0  0  0
   -2.5568   29.3397   54.5093 N   0  0  0  0  0  0  0  0  0  0  0  0
   -3.7949   28.9176   53.9600 C   0  0  0  0  0  0  0  0  0  0  0  0
   -4.8937   29.8431   53.9055 C   0  0  0  0  0  0  0  0  0  0  0  0
   -4.6695   31.1724   54.4258 C   0  0  0  0  0  0  0  0  0  0  0  0
   -5.7239   32.0411   54.3781 O   0  0  0  0  0  0  0  0  0  0  0  0
   -6.0269   29.1719   53.3116 C   0  0  0  0  0  0  0  0  0  0  0  0
   -5.5650   27.8885   53.0154 C   0  0  0  0  0  0  0  0  0  0  0  0
   -4.2474   27.7445   53.4104 N   0  0  0  0  0  0  0  0  0  0  0  0
   -7.3981   29.7527   53.0264 C   0  0  0  0  0  0  0  0  0  0  0  0
   -7.4931   30.3949   51.7173 N   0  0  0  0  0  0  0  0  0  0  0  0
  1  2  1  0  0  0  0
  1  7  1  0  0  0  0
  2  3  1  0  0  0  0
  2  4  2  0  0  0  0
  4  5  1  0  0  0  0
  5  6  2  0  0  0  0
  5 11  1  0  0  0  0
  6  7  1  0  0  0  0
  6  9  1  0  0  0  0
  7  8  2  0  0  0  0
  9 10  2  0  0  0  0
  9 12  1  0  0  0  0
 10 11  1  0  0  0  0
 12 13  1  0  0  0  0
M  END
>  <CHROM.1>
87.97335560,-4.57502140,30.00401971,53.94386527,0.32025324,-0.40668048,0.30282196

>  <Name>
ligand

>  <RI>
-1

>  <Rbt.Current_Directory>
/home/itssahil/PROJECTS/Mol_Feturizer/Test_systems_manuscript/rnas/4jf2

>  <Rbt.Executable>
rbdock ($Id: //depot/dev/client3/rdock/2013.1/src/exe/rbdock.cxx#4 $)

>  <Rbt.Library>
libRbt.so (2013.1, Build901 2013/11/27)

>  <Rbt.Parameter_File>
/export/apps/rDock/src/rDock_2013.1_src/data/scripts/dock_solv.prm

>  <Rbt.Receptor>
prm/pocket_docking_7.prm

>  <SCORE>
-15.8957

>  <SCORE.INTER>
-15.6459

>  <SCORE.INTER.CONST>
1

>  <SCORE.INTER.POLAR>
0

>  <SCORE.INTER.ROT>
1

>  <SCORE.INTER.SOLV>
16.9418

>  <SCORE.INTER.VDW>
-20.3445

>  <SCORE.INTER.norm>
-1.20353

>  <SCORE.INTRA>
-0.249834

>  <SCORE.INTRA.DIHEDRAL>
-0.187745

>  <SCORE.INTRA.DIHEDRAL.0>
1.75624

>  <SCORE.INTRA.POLAR>
0

>  <SCORE.INTRA.POLAR.0>
0

>  <SCORE.INTRA.REPUL>
0

>  <SCORE.INTRA.REPUL.0>
0

>  <SCORE.INTRA.SOLV>
-0.385016

>  <SCORE.INTRA.SOLV.lig_0>
-46.5296

>  <SCORE.INTRA.VDW>
0.0365468

>  <SCORE.INTRA.VDW.0>
-0.381873

>  <SCORE.INTRA.norm>
-0.019218

>  <SCORE.RESTR>
0

>  <SCORE.RESTR.CAVITY>
0

>  <SCORE.RESTR.norm>
0

>  <SCORE.SYSTEM>
0

>  <SCORE.SYSTEM.CONST>
0

>  <SCORE.SYSTEM.DIHEDRAL>
0

>  <SCORE.SYSTEM.SOLV>
0

>  <SCORE.SYSTEM.norm>
0

>  <SCORE.heavy>
13

>  <SCORE.norm>
-1.22275

>  <RMSD>
0.795

$$$$
ligand
 OpenBabel02271912143D
libRbt.so/2013.1/901 2013/11/27
 13 14  0  0  0  0  0  0  0  0999 V2000
   -3.4779   31.5441   54.9805 N   0  0  0  0  0  0  0  0  0  0  0  0
   -2.4175   30.6241   55.0173 C   0  0  0  0  0  0  0  0  0  0  0  0
   -1.1489   31.0237   55.5817 N   0  0  0  0  0  0  0  0  0  0  0  0
   -2.5887   29.3486   54.5296 N   0  0  0  0  0  0  0  0  0  0  0  0
   -3.8202   28.9217   53.9690 C   0  0  0  0  0  0  0  0  0  0  0  0
   -4.9190   29.8459   53.8960 C   0  0  0  0  0  0  0  0  0  0  0  0
   -4.7019   31.1788   54.4102 C   0  0  0  0  0  0  0  0  0  0  0  0
   -5.7564   32.0462   54.3449 O   0  0  0  0  0  0  0  0  0  0  0  0
   -6.0450   29.1698   53.2938 C   0  0  0  0  0  0  0  0  0  0  0  0
   -5.5787   27.8849   53.0112 C   0  0  0  0  0  0  0  0  0  0  0  0
   -4.2655   27.7447   53.4220 N   0  0  0  0  0  0  0  0  0  0  0  0
   -7.4133   29.7475   52.9893 C   0  0  0  0  0  0  0  0  0  0  0  0
   -7.4967   30.3730   51.6714 N   0  0  0  0  0  0  0  0  0  0  0  0
  1  2  1  0  0  0  0
  1  7  1  0  0  0  0
  2  3  1  0  0  0  0
  2  4  2  0  0  0  0
  4  5  1  0  0  0  0
  5  6  2  0  0  0  0
  5 11  1  0  0  0  0
  6  7  1  0  0  0  0
  6  9  1  0  0  0  0
  7  8  2  0  0  0  0
  9 10  2  0  0  0  0
  9 12  1  0  0  0  0
 10 11  1  0  0  0  0
 12 13  1  0  0  0  0
M  END
>  <CHROM.1>
88.36523467,-4.60121703,30.00668632,53.93667223,0.32560420,-0.41720478,0.29850028

>  <Name>
ligand

>  <RI>
-1

>  <Rbt.Current_Directory>
/home/itssahil/PROJECTS/Mol_Feturizer/Test_systems_manuscript/rnas/4jf2

>  <Rbt.Executable>
rbdock ($Id: //depot/dev/client3/rdock/2013.1/src/exe/rbdock.cxx#4 $)

>  <Rbt.Library>
libRbt.so (2013.1, Build901 2013/11/27)

>  <Rbt.Parameter_File>
/export/apps/rDock/src/rDock_2013.1_src/data/scripts/dock_solv.prm

>  <Rbt.Receptor>
prm/pocket_docking_5.prm

>  <SCORE>
-15.8827

>  <SCORE.INTER>
-15.6284

>  <SCORE.INTER.CONST>
1

>  <SCORE.INTER.POLAR>
0

>  <SCORE.INTER.ROT>
1

>  <SCORE.INTER.SOLV>
16.9308

>  <SCORE.INTER.VDW>
-20.3292

>  <SCORE.INTER.norm>
-1.20218

>  <SCORE.INTRA>
-0.254311

>  <SCORE.INTRA.DIHEDRAL>
-0.187812

>  <SCORE.INTRA.DIHEDRAL.0>
1.75624

>  <SCORE.INTRA.POLAR>
0

>  <SCORE.INTRA.POLAR.0>
0

>  <SCORE.INTRA.REPUL>
0

>  <SCORE.INTRA.REPUL.0>
0

>  <SCORE.INTRA.SOLV>
-0.395974

>  <SCORE.INTRA.SOLV.lig_0>
-46.5296

>  <SCORE.INTRA.VDW>
0.0375821

>  <SCORE.INTRA.VDW.0>
-0.381873

>  <SCORE.INTRA.norm>
-0.0195624

>  <SCORE.RESTR>
0

>  <SCORE.RESTR.CAVITY>
0

>  <SCORE.RESTR.norm>
0

>  <SCORE.SYSTEM>
0

>  <SCORE.SYSTEM.CONST>
0

>  <SCORE.SYSTEM.DIHEDRAL>
0

>  <SCORE.SYSTEM.SOLV>
0

>  <SCORE.SYSTEM.norm>
0

>  <SCORE.heavy>
13

>  <SCORE.norm>
-1.22174

>  <RMSD>
0.796

$$$$
ligand
 OpenBabel02271912143D
libRbt.so/2013.1/901 2013/11/27
 13 14  0  0  0  0  0  0  0  0999 V2000
   -3.4594   31.5254   55.0069 N   0  0  0  0  0  0  0  0  0  0  0  0
   -2.4019   30.6017   55.0353 C   0  0  0  0  0  0  0  0  0  0  0  0
   -1.1308   30.9935   55.5992 N   0  0  0  0  0  0  0  0  0  0  0  0
   -2.5785   29.3299   54.5399 N   0  0  0  0  0  0  0  0  0  0  0  0
   -3.8127   28.9106   53.9796 C   0  0  0  0  0  0  0  0  0  0  0  0
   -4.9087   29.8388   53.9150 C   0  0  0  0  0  0  0  0  0  0  0  0
   -4.6859   31.1677   54.4372 C   0  0  0  0  0  0  0  0  0  0  0  0
   -5.7377   32.0390   54.3799 O   0  0  0  0  0  0  0  0  0  0  0  0
   -6.0382   29.1703   53.3112 C   0  0  0  0  0  0  0  0  0  0  0  0
   -5.5768   27.8857   53.0193 C   0  0  0  0  0  0  0  0  0  0  0  0
   -4.2632   27.7385   53.4262 N   0  0  0  0  0  0  0  0  0  0  0  0
   -7.4054   29.7544   53.0136 C   0  0  0  0  0  0  0  0  0  0  0  0
   -7.4924   30.3804   51.6962 N   0  0  0  0  0  0  0  0  0  0  0  0
  1  2  1  0  0  0  0
  1  7  1  0  0  0  0
  2  3  1  0  0  0  0
  2  4  2  0  0  0  0
  4  5  1  0  0  0  0
  5  6  2  0  0  0  0
  5 11  1  0  0  0  0
  6  7  1  0  0  0  0
  6  9  1  0  0  0  0
  7  8  2  0  0  0  0
  9 10  2  0  0  0  0
  9 12  1  0  0  0  0
 10 11  1  0  0  0  0
 12 13  1  0  0  0  0
M  END
>  <CHROM.1>
88.76313072,-4.59044957,29.99766493,53.95566956,0.32221709,-0.41591054,0.30353604

>  <Name>
ligand

>  <RI>
-1

>  <Rbt.Current_Directory>
/home/itssahil/PROJECTS/Mol_Feturizer/Test_systems_manuscript/rnas/4jf2

>  <Rbt.Executable>
rbdock ($Id: //depot/dev/client3/rdock/2013.1/src/exe/rbdock.cxx#4 $)

>  <Rbt.Library>
libRbt.so (2013.1, Build901 2013/11/27)

>  <Rbt.Parameter_File>
/export/apps/rDock/src/rDock_2013.1_src/data/scripts/dock_solv.prm

>  <Rbt.Receptor>
prm/pocket_docking_7.prm

>  <SCORE>
-15.8517

>  <SCORE.INTER>
-15.5932

>  <SCORE.INTER.CONST>
1

>  <SCORE.INTER.POLAR>
0

>  <SCORE.INTER.ROT>
1

>  <SCORE.INTER.SOLV>
16.8814

>  <SCORE.INTER.VDW>
-20.2893

>  <SCORE.INTER.norm>
-1.19948

>  <SCORE.INTRA>
-0.258432

>  <SCORE.INTRA.DIHEDRAL>
-0.187833

>  <SCORE.INTRA.DIHEDRAL.0>
1.75624

>  <SCORE.INTRA.POLAR>
0

>  <SCORE.INTRA.POLAR.0>
0

>  <SCORE.INTRA.REPUL>
0

>  <SCORE.INTRA.REPUL.0>
0

>  <SCORE.INTRA.SOLV>
-0.406285

>  <SCORE.INTRA.SOLV.lig_0>
-46.5296

>  <SCORE.INTRA.VDW>
0.0386272

>  <SCORE.INTRA.VDW.0>
-0.381873

>  <SCORE.INTRA.norm>
-0.0198794

>  <SCORE.RESTR>
0

>  <SCORE.RESTR.CAVITY>
0

>  <SCORE.RESTR.norm>
0

>  <SCORE.SYSTEM>
0

>  <SCORE.SYSTEM.CONST>
0

>  <SCORE.SYSTEM.DIHEDRAL>
0

>  <SCORE.SYSTEM.SOLV>
0

>  <SCORE.SYSTEM.norm>
0

>  <SCORE.heavy>
13

>  <SCORE.norm>
-1.21936

>  <RMSD>
0.796

$$$$
ligand
 OpenBabel02271912143D
libRbt.so/2013.1/901 2013/11/27
 13 14  0  0  0  0  0  0  0  0999 V2000
   -3.4743   31.5372   54.9813 N   0  0  0  0  0  0  0  0  0  0  0  0
   -2.4120   30.6191   55.0111 C   0  0  0  0  0  0  0  0  0  0  0  0
   -1.1428   31.0184   55.5741 N   0  0  0  0  0  0  0  0  0  0  0  0
   -2.5821   29.3455   54.5178 N   0  0  0  0  0  0  0  0  0  0  0  0
   -3.8142   28.9190   53.9584 C   0  0  0  0  0  0  0  0  0  0  0  0
   -4.9150   29.8413   53.8925 C   0  0  0  0  0  0  0  0  0  0  0  0
   -4.6990   31.1722   54.4123 C   0  0  0  0  0  0  0  0  0  0  0  0
   -5.7554   32.0379   54.3538 O   0  0  0  0  0  0  0  0  0  0  0  0
   -6.0411   29.1659   53.2899 C   0  0  0  0  0  0  0  0  0  0  0  0
   -5.5731   27.8833   53.0001 C   0  0  0  0  0  0  0  0  0  0  0  0
   -4.2586   27.7436   53.4070 N   0  0  0  0  0  0  0  0  0  0  0  0
   -7.4113   29.7424   52.9916 C   0  0  0  0  0  0  0  0  0  0  0  0
   -7.5016   30.3665   51.6735 N   0  0  0  0  0  0  0  0  0  0  0  0
  1  2  1  0  0  0  0
  1  7  1  0  0  0  0
  2  3  1  0  0  0  0
  2  4  2  0  0  0  0
  4  5  1  0  0  0  0
  5  6  2  0  0  0  0
  5 11  1  0  0  0  0
  6  7  1  0  0  0  0
  6  9  1  0  0  0  0
  7  8  2  0  0  0  0
  9 10  2  0  0  0  0
  9 12  1  0  0  0  0
 10 11  1  0  0  0  0
 12 13  1  0  0  0  0
M  END
>  <CHROM.1>
88.72560425,-4.59753130,30.00193391,53.93281312,0.32750784,-0.41419953,0.30399917

>  <Name>
ligand

>  <RI>
0

>  <Rbt.Current_Directory>
/home/itssahil/PROJECTS/Mol_Feturizer/Test_systems_manuscript/rnas/4jf2

>  <Rbt.Executable>
rbdock ($Id: //depot/dev/client3/rdock/2013.1/src/exe/rbdock.cxx#4 $)

>  <Rbt.Library>
libRbt.so (2013.1, Build901 2013/11/27)

>  <Rbt.Parameter_File>
/export/apps/rDock/src/rDock_2013.1_src/data/scripts/dock_solv.prm

>  <Rbt.Receptor>
prm/pocket_docking_8.prm

>  <SCORE>
-15.886

>  <SCORE.INTER>
-15.6278

>  <SCORE.INTER.CONST>
1

>  <SCORE.INTER.POLAR>
0

>  <SCORE.INTER.ROT>
1

>  <SCORE.INTER.SOLV>
16.9543

>  <SCORE.INTER.VDW>
-20.3366

>  <SCORE.INTER.norm>
-1.20214

>  <SCORE.INTRA>
-0.258199

>  <SCORE.INTRA.DIHEDRAL>
-0.187833

>  <SCORE.INTRA.DIHEDRAL.0>
1.75624

>  <SCORE.INTRA.POLAR>
0

>  <SCORE.INTRA.POLAR.0>
0

>  <SCORE.INTRA.REPUL>
0

>  <SCORE.INTRA.REPUL.0>
0

>  <SCORE.INTRA.SOLV>
-0.405622

>  <SCORE.INTRA.SOLV.lig_0>
-46.5296

>  <SCORE.INTRA.VDW>
0.0385289

>  <SCORE.INTRA.VDW.0>
-0.381873

>  <SCORE.INTRA.norm>
-0.0198614

>  <SCORE.RESTR>
0

>  <SCORE.RESTR.CAVITY>
0

>  <SCORE.RESTR.norm>
0

>  <SCORE.SYSTEM>
0

>  <SCORE.SYSTEM.CONST>
0

>  <SCORE.SYSTEM.DIHEDRAL>
0

>  <SCORE.SYSTEM.SOLV>
0

>  <SCORE.SYSTEM.norm>
0

>  <SCORE.heavy>
13

>  <SCORE.norm>
-1.222

>  <RMSD>
0.796

$$$$
ligand
 OpenBabel02271912143D
libRbt.so/2013.1/901 2013/11/27
 13 14  0  0  0  0  0  0  0  0999 V2000
   -3.4154   31.5476   54.9847 N   0  0  0  0  0  0  0  0  0  0  0  0
   -2.3479   30.6352   54.9902 C   0  0  0  0  0  0  0  0  0  0  0  0
   -1.0700   31.0393   55.5297 N   0  0  0  0  0  0  0  0  0  0  0  0
   -2.5209   29.3625   54.4955 N   0  0  0  0  0  0  0  0  0  0  0  0
   -3.7614   28.9314   53.9588 C   0  0  0  0  0  0  0  0  0  0  0  0
   -4.8682   29.8480   53.9180 C   0  0  0  0  0  0  0  0  0  0  0  0
   -4.6491   31.1781   54.4386 C   0  0  0  0  0  0  0  0  0  0  0  0
   -5.7111   32.0383   54.4040 O   0  0  0  0  0  0  0  0  0  0  0  0
   -6.0023   29.1688   53.3351 C   0  0  0  0  0  0  0  0  0  0  0  0
   -5.5332   27.8897   53.0313 C   0  0  0  0  0  0  0  0  0  0  0  0
   -4.2103   27.7557   53.4118 N   0  0  0  0  0  0  0  0  0  0  0  0
   -7.3812   29.7389   53.0659 C   0  0  0  0  0  0  0  0  0  0  0  0
   -7.4912   30.3967   51.7658 N   0  0  0  0  0  0  0  0  0  0  0  0
  1  2  1  0  0  0  0
  1  7  1  0  0  0  0
  2  3  1  0  0  0  0
  2  4  2  0  0  0  0
  4  5  1  0  0  0  0
  5  6  2  0  0  0  0
  5 11  1  0  0  0  0
  6  7  1  0  0  0  0
  6  9  1  0  0  0  0
  7  8  2  0  0  0  0
  9 10  2  0  0  0  0
  9 12  1  0  0  0  0
 10 11  1  0  0  0  0
 12 13  1  0  0  0  0
M  END
>  <CHROM.1>
87.28823455,-4.55008690,30.01256210,53.95378895,0.32376748,-0.39391330,0.30603004

>  <Name>
ligand

>  <RI>
-1

>  <Rbt.Current_Directory>
/home/itssahil/PROJECTS/Mol_Feturizer/Test_systems_manuscript/rnas/4jf2

>  <Rbt.Executable>
rbdock ($Id: //depot/dev/client3/rdock/2013.1/src/exe/rbdock.cxx#4 $)

>  <Rbt.Library>
libRbt.so (2013.1, Build901 2013/11/27)

>  <Rbt.Parameter_File>
/export/apps/rDock/src/rDock_2013.1_src/data/scripts/dock_solv.prm

>  <Rbt.Receptor>
prm/pocket_docking_3.prm

>  <SCORE>
-15.882

>  <SCORE.INTER>
-15.64

>  <SCORE.INTER.CONST>
1

>  <SCORE.INTER.POLAR>
0

>  <SCORE.INTER.ROT>
1

>  <SCORE.INTER.SOLV>
17.0311

>  <SCORE.INTER.VDW>
-20.3704

>  <SCORE.INTER.norm>
-1.20308

>  <SCORE.INTRA>
-0.241943

>  <SCORE.INTRA.DIHEDRAL>
-0.187515

>  <SCORE.INTRA.DIHEDRAL.0>
1.75624

>  <SCORE.INTRA.POLAR>
0

>  <SCORE.INTRA.POLAR.0>
0

>  <SCORE.INTRA.REPUL>
0

>  <SCORE.INTRA.REPUL.0>
0

>  <SCORE.INTRA.SOLV>
-0.365817

>  <SCORE.INTRA.SOLV.lig_0>
-46.5296

>  <SCORE.INTRA.VDW>
0.0347227

>  <SCORE.INTRA.VDW.0>
-0.381873

>  <SCORE.INTRA.norm>
-0.018611

>  <SCORE.RESTR>
0

>  <SCORE.RESTR.CAVITY>
0

>  <SCORE.RESTR.norm>
0

>  <SCORE.SYSTEM>
0

>  <SCORE.SYSTEM.CONST>
0

>  <SCORE.SYSTEM.DIHEDRAL>
0

>  <SCORE.SYSTEM.SOLV>
0

>  <SCORE.SYSTEM.norm>
0

>  <SCORE.heavy>
13

>  <SCORE.norm>
-1.22169

>  <RMSD>
0.797

$$$$
ligand
 OpenBabel02271912143D
libRbt.so/2013.1/901 2013/11/27
 13 14  0  0  0  0  0  0  0  0999 V2000
   -3.4163   31.5469   54.9917 N   0  0  0  0  0  0  0  0  0  0  0  0
   -2.3475   30.6360   54.9920 C   0  0  0  0  0  0  0  0  0  0  0  0
   -1.0701   31.0391   55.5335 N   0  0  0  0  0  0  0  0  0  0  0  0
   -2.5187   29.3658   54.4904 N   0  0  0  0  0  0  0  0  0  0  0  0
   -3.7587   28.9358   53.9516 C   0  0  0  0  0  0  0  0  0  0  0  0
   -4.8668   29.8511   53.9160 C   0  0  0  0  0  0  0  0  0  0  0  0
   -4.6496   31.1786   54.4438 C   0  0  0  0  0  0  0  0  0  0  0  0
   -5.7128   32.0374   54.4142 O   0  0  0  0  0  0  0  0  0  0  0  0
   -6.0001   29.1734   53.3296 C   0  0  0  0  0  0  0  0  0  0  0  0
   -5.5292   27.8967   53.0188 C   0  0  0  0  0  0  0  0  0  0  0  0
   -4.2059   27.7625   53.3982 N   0  0  0  0  0  0  0  0  0  0  0  0
   -7.3798   29.7429   53.0639 C   0  0  0  0  0  0  0  0  0  0  0  0
   -7.4927   30.4025   51.7649 N   0  0  0  0  0  0  0  0  0  0  0  0
  1  2  1  0  0  0  0
  1  7  1  0  0  0  0
  2  3  1  0  0  0  0
  2  4  2  0  0  0  0
  4  5  1  0  0  0  0
  5  6  2  0  0  0  0
  5 11  1  0  0  0  0
  6  7  1  0  0  0  0
  6  9  1  0  0  0  0
  7  8  2  0  0  0  0
  9 10  2  0  0  0  0
  9 12  1  0  0  0  0
 10 11  1  0  0  0  0
 12 13  1  0  0  0  0
M  END
>  <CHROM.1>
87.54325291,-4.54908045,30.01547058,53.95246695,0.32571931,-0.39326621,0.31230499

>  <Name>
ligand

>  <RI>
-1

>  <Rbt.Current_Directory>
/home/itssahil/PROJECTS/Mol_Feturizer/Test_systems_manuscript/rnas/4jf2

>  <Rbt.Executable>
rbdock ($Id: //depot/dev/client3/rdock/2013.1/src/exe/rbdock.cxx#4 $)

>  <Rbt.Library>
libRbt.so (2013.1, Build901 2013/11/27)

>  <Rbt.Parameter_File>
/export/apps/rDock/src/rDock_2013.1_src/data/scripts/dock_solv.prm

>  <Rbt.Receptor>
prm/pocket_docking_4.prm

>  <SCORE>
-15.8816

>  <SCORE.INTER>
-15.6367

>  <SCORE.INTER.CONST>
1

>  <SCORE.INTER.POLAR>
0

>  <SCORE.INTER.ROT>
1

>  <SCORE.INTER.SOLV>
17.0199

>  <SCORE.INTER.VDW>
-20.3645

>  <SCORE.INTER.norm>
-1.20282

>  <SCORE.INTRA>
-0.24489

>  <SCORE.INTRA.DIHEDRAL>
-0.187617

>  <SCORE.INTRA.DIHEDRAL.0>
1.75624

>  <SCORE.INTRA.POLAR>
0

>  <SCORE.INTRA.POLAR.0>
0

>  <SCORE.INTRA.REPUL>
0

>  <SCORE.INTRA.REPUL.0>
0

>  <SCORE.INTRA.SOLV>
-0.372969

>  <SCORE.INTRA.SOLV.lig_0>
-46.5296

>  <SCORE.INTRA.VDW>
0.0354037

>  <SCORE.INTRA.VDW.0>
-0.381873

>  <SCORE.INTRA.norm>
-0.0188377

>  <SCORE.RESTR>
0

>  <SCORE.RESTR.CAVITY>
0

>  <SCORE.RESTR.norm>
0

>  <SCORE.SYSTEM>
0

>  <SCORE.SYSTEM.CONST>
0

>  <SCORE.SYSTEM.DIHEDRAL>
0

>  <SCORE.SYSTEM.SOLV>
0

>  <SCORE.SYSTEM.norm>
0

>  <SCORE.heavy>
13

>  <SCORE.norm>
-1.22166

>  <RMSD>
0.797

$$$$
ligand
 OpenBabel02271912143D
libRbt.so/2013.1/901 2013/11/27
 13 14  0  0  0  0  0  0  0  0999 V2000
   -3.4178   31.5459   54.9969 N   0  0  0  0  0  0  0  0  0  0  0  0
   -2.3495   30.6343   54.9989 C   0  0  0  0  0  0  0  0  0  0  0  0
   -1.0722   31.0371   55.5409 N   0  0  0  0  0  0  0  0  0  0  0  0
   -2.5211   29.3637   54.4985 N   0  0  0  0  0  0  0  0  0  0  0  0
   -3.7610   28.9339   53.9592 C   0  0  0  0  0  0  0  0  0  0  0  0
   -4.8685   29.8498   53.9219 C   0  0  0  0  0  0  0  0  0  0  0  0
   -4.6509   31.1777   54.4485 C   0  0  0  0  0  0  0  0  0  0  0  0
   -5.7135   32.0372   54.4172 O   0  0  0  0  0  0  0  0  0  0  0  0
   -6.0018   29.1722   53.3354 C   0  0  0  0  0  0  0  0  0  0  0  0
   -5.5315   27.8949   53.0263 C   0  0  0  0  0  0  0  0  0  0  0  0
   -4.2086   27.7602   53.4069 N   0  0  0  0  0  0  0  0  0  0  0  0
   -7.3810   29.7423   53.0681 C   0  0  0  0  0  0  0  0  0  0  0  0
   -7.4931   30.3989   51.7675 N   0  0  0  0  0  0  0  0  0  0  0  0
  1  2  1  0  0  0  0
  1  7  1  0  0  0  0
  2  3  1  0  0  0  0
  2  4  2  0  0  0  0
  4  5  1  0  0  0  0
  5  6  2  0  0  0  0
  5 11  1  0  0  0  0
  6  7  1  0  0  0  0
  6  9  1  0  0  0  0
  7  8  2  0  0  0  0
  9 10  2  0  0  0  0
  9 12  1  0  0  0  0
 10 11  1  0  0  0  0
 12 13  1  0  0  0  0
M  END
>  <CHROM.1>
87.62803538,-4.55078419,30.01387822,53.95836238,0.32547945,-0.39415310,0.31116035

>  <Name>
ligand

>  <RI>
-1

>  <Rbt.Current_Directory>
/home/itssahil/PROJECTS/Mol_Feturizer/Test_systems_manuscript/rnas/4jf2

>  <Rbt.Executable>
rbdock ($Id: //depot/dev/client3/rdock/2013.1/src/exe/rbdock.cxx#4 $)

>  <Rbt.Library>
libRbt.so (2013.1, Build901 2013/11/27)

>  <Rbt.Parameter_File>
/export/apps/rDock/src/rDock_2013.1_src/data/scripts/dock_solv.prm

>  <Rbt.Receptor>
prm/pocket_docking_6.prm

>  <SCORE>
-15.8832

>  <SCORE.INTER>
-15.6374

>  <SCORE.INTER.CONST>
1

>  <SCORE.INTER.POLAR>
0

>  <SCORE.INTER.ROT>
1

>  <SCORE.INTER.SOLV>
17.0174

>  <SCORE.INTER.VDW>
-20.364

>  <SCORE.INTER.norm>
-1.20288

>  <SCORE.INTRA>
-0.245867

>  <SCORE.INTRA.DIHEDRAL>
-0.187647

>  <SCORE.INTRA.DIHEDRAL.0>
1.75624

>  <SCORE.INTRA.POLAR>
0

>  <SCORE.INTRA.POLAR.0>
0

>  <SCORE.INTRA.REPUL>
0

>  <SCORE.INTRA.REPUL.0>
0

>  <SCORE.INTRA.SOLV>
-0.375345

>  <SCORE.INTRA.SOLV.lig_0>
-46.5296

>  <SCORE.INTRA.VDW>
0.0356296

>  <SCORE.INTRA.VDW.0>
-0.381873

>  <SCORE.INTRA.norm>
-0.0189128

>  <SCORE.RESTR>
0

>  <SCORE.RESTR.CAVITY>
0

>  <SCORE.RESTR.norm>
0

>  <SCORE.SYSTEM>
0

>  <SCORE.SYSTEM.CONST>
0

>  <SCORE.SYSTEM.DIHEDRAL>
0

>  <SCORE.SYSTEM.SOLV>
0

>  <SCORE.SYSTEM.norm>
0

>  <SCORE.heavy>
13

>  <SCORE.norm>
-1.22179

>  <RMSD>
0.797

$$$$
ligand
 OpenBabel02271912143D
libRbt.so/2013.1/901 2013/11/27
 13 14  0  0  0  0  0  0  0  0999 V2000
   -3.3154   31.5763   55.0271 N   0  0  0  0  0  0  0  0  0  0  0  0
   -2.2544   30.6569   54.9918 C   0  0  0  0  0  0  0  0  0  0  0  0
   -0.9581   31.0477   55.4959 N   0  0  0  0  0  0  0  0  0  0  0  0
   -2.4509   29.3901   54.4909 N   0  0  0  0  0  0  0  0  0  0  0  0
   -3.7100   28.9720   53.9882 C   0  0  0  0  0  0  0  0  0  0  0  0
   -4.8113   29.8961   53.9895 C   0  0  0  0  0  0  0  0  0  0  0  0
   -4.5676   31.2198   54.5153 C   0  0  0  0  0  0  0  0  0  0  0  0
   -5.6242   32.0872   54.5209 O   0  0  0  0  0  0  0  0  0  0  0  0
   -5.9672   29.2297   53.4351 C   0  0  0  0  0  0  0  0  0  0  0  0
   -5.5161   27.9506   53.1055 C   0  0  0  0  0  0  0  0  0  0  0  0
   -4.1832   27.8044   53.4444 N   0  0  0  0  0  0  0  0  0  0  0  0
   -7.3497   29.8113   53.2132 C   0  0  0  0  0  0  0  0  0  0  0  0
   -7.4943   30.4826   51.9234 N   0  0  0  0  0  0  0  0  0  0  0  0
  1  2  1  0  0  0  0
  1  7  1  0  0  0  0
  2  3  1  0  0  0  0
  2  4  2  0  0  0  0
  4  5  1  0  0  0  0
  5  6  2  0  0  0  0
  5 11  1  0  0  0  0
  6  7  1  0  0  0  0
  6  9  1  0  0  0  0
  7  8  2  0  0  0  0
  9 10  2  0  0  0  0
  9 12  1  0  0  0  0
 10 11  1  0  0  0  0
 12 13  1  0  0  0  0
M  END
>  <CHROM.1>
87.25563359,-4.49114682,30.05835004,54.01714080,0.30701785,-0.36698238,0.30907031

>  <Name>
ligand

>  <RI>
-1

>  <Rbt.Current_Directory>
/home/itssahil/PROJECTS/Mol_Feturizer/Test_systems_manuscript/rnas/4jf2

>  <Rbt.Executable>
rbdock ($Id: //depot/dev/client3/rdock/2013.1/src/exe/rbdock.cxx#4 $)

>  <Rbt.Library>
libRbt.so (2013.1, Build901 2013/11/27)

>  <Rbt.Parameter_File>
/export/apps/rDock/src/rDock_2013.1_src/data/scripts/dock_solv.prm

>  <Rbt.Receptor>
prm/pocket_docking_2.prm

>  <SCORE>
-15.8532

>  <SCORE.INTER>
-15.6117

>  <SCORE.INTER.CONST>
1

>  <SCORE.INTER.POLAR>
0

>  <SCORE.INTER.ROT>
1

>  <SCORE.INTER.SOLV>
17.0922

>  <SCORE.INTER.VDW>
-20.3719

>  <SCORE.INTER.norm>
-1.2009

>  <SCORE.INTRA>
-0.241566

>  <SCORE.INTRA.DIHEDRAL>
-0.1875

>  <SCORE.INTRA.DIHEDRAL.0>
1.75624

>  <SCORE.INTRA.POLAR>
0

>  <SCORE.INTRA.POLAR.0>
0

>  <SCORE.INTRA.REPUL>
0

>  <SCORE.INTRA.REPUL.0>
0

>  <SCORE.INTRA.SOLV>
-0.364902

>  <SCORE.INTRA.SOLV.lig_0>
-46.5296

>  <SCORE.INTRA.VDW>
0.0346355

>  <SCORE.INTRA.VDW.0>
-0.381873

>  <SCORE.INTRA.norm>
-0.018582

>  <SCORE.RESTR>
0

>  <SCORE.RESTR.CAVITY>
0

>  <SCORE.RESTR.norm>
0

>  <SCORE.SYSTEM>
0

>  <SCORE.SYSTEM.CONST>
0

>  <SCORE.SYSTEM.DIHEDRAL>
0

>  <SCORE.SYSTEM.SOLV>
0

>  <SCORE.SYSTEM.norm>
0

>  <SCORE.heavy>
13

>  <SCORE.norm>
-1.21948

>  <RMSD>
0.798

$$$$
ligand
 OpenBabel02271912143D
libRbt.so/2013.1/901 2013/11/27
 13 14  0  0  0  0  0  0  0  0999 V2000
   -3.4259   31.5501   54.9803 N   0  0  0  0  0  0  0  0  0  0  0  0
   -2.3574   30.6389   54.9915 C   0  0  0  0  0  0  0  0  0  0  0  0
   -1.0817   31.0459   55.5341 N   0  0  0  0  0  0  0  0  0  0  0  0
   -2.5271   29.3648   54.4993 N   0  0  0  0  0  0  0  0  0  0  0  0
   -3.7654   28.9309   53.9596 C   0  0  0  0  0  0  0  0  0  0  0  0
   -4.8731   29.8461   53.9130 C   0  0  0  0  0  0  0  0  0  0  0  0
   -4.6574   31.1777   54.4310 C   0  0  0  0  0  0  0  0  0  0  0  0
   -5.7202   32.0365   54.3909 O   0  0  0  0  0  0  0  0  0  0  0  0
   -6.0046   29.1641   53.3280 C   0  0  0  0  0  0  0  0  0  0  0  0
   -5.5329   27.8849   53.0289 C   0  0  0  0  0  0  0  0  0  0  0  0
   -4.2111   27.7533   53.4140 N   0  0  0  0  0  0  0  0  0  0  0  0
   -7.3832   29.7318   53.0530 C   0  0  0  0  0  0  0  0  0  0  0  0
   -7.4865   30.3967   51.7559 N   0  0  0  0  0  0  0  0  0  0  0  0
  1  2  1  0  0  0  0
  1  7  1  0  0  0  0
  2  3  1  0  0  0  0
  2  4  2  0  0  0  0
  4  5  1  0  0  0  0
  5  6  2  0  0  0  0
  5 11  1  0  0  0  0
  6  7  1  0  0  0  0
  6  9  1  0  0  0  0
  7  8  2  0  0  0  0
  9 10  2  0  0  0  0
  9 12  1  0  0  0  0
 10 11  1  0  0  0  0
 12 13  1  0  0  0  0
M  END
>  <CHROM.1>
86.78081338,-4.55511143,30.01195551,53.94982206,0.32506504,-0.39665077,0.30401366

>  <Name>
ligand

>  <RI>
-1

>  <Rbt.Current_Directory>
/home/itssahil/PROJECTS/Mol_Feturizer/Test_systems_manuscript/rnas/4jf2

>  <Rbt.Executable>
rbdock ($Id: //depot/dev/client3/rdock/2013.1/src/exe/rbdock.cxx#4 $)

>  <Rbt.Library>
libRbt.so (2013.1, Build901 2013/11/27)

>  <Rbt.Parameter_File>
/export/apps/rDock/src/rDock_2013.1_src/data/scripts/dock_solv.prm

>  <Rbt.Receptor>
prm/pocket_docking_3.prm

>  <SCORE>
-15.8813

>  <SCORE.INTER>
-15.6452

>  <SCORE.INTER.CONST>
1

>  <SCORE.INTER.POLAR>
0

>  <SCORE.INTER.ROT>
1

>  <SCORE.INTER.SOLV>
17.0202

>  <SCORE.INTER.VDW>
-20.3702

>  <SCORE.INTER.norm>
-1.20348

>  <SCORE.INTRA>
-0.236049

>  <SCORE.INTRA.DIHEDRAL>
-0.187252

>  <SCORE.INTRA.DIHEDRAL.0>
1.75624

>  <SCORE.INTRA.POLAR>
0

>  <SCORE.INTRA.POLAR.0>
0

>  <SCORE.INTRA.REPUL>
0

>  <SCORE.INTRA.REPUL.0>
0

>  <SCORE.INTRA.SOLV>
-0.351566

>  <SCORE.INTRA.SOLV.lig_0>
-46.5296

>  <SCORE.INTRA.VDW>
0.0333604

>  <SCORE.INTRA.VDW.0>
-0.381873

>  <SCORE.INTRA.norm>
-0.0181576

>  <SCORE.RESTR>
0

>  <SCORE.RESTR.CAVITY>
0

>  <SCORE.RESTR.norm>
0

>  <SCORE.SYSTEM>
0

>  <SCORE.SYSTEM.CONST>
0

>  <SCORE.SYSTEM.DIHEDRAL>
0

>  <SCORE.SYSTEM.SOLV>
0

>  <SCORE.SYSTEM.norm>
0

>  <SCORE.heavy>
13

>  <SCORE.norm>
-1.22164

>  <RMSD>
0.798

$$$$
ligand
 OpenBabel02271912143D
libRbt.so/2013.1/901 2013/11/27
 13 14  0  0  0  0  0  0  0  0999 V2000
   -3.4203   31.5467   54.9818 N   0  0  0  0  0  0  0  0  0  0  0  0
   -2.3540   30.6328   54.9971 C   0  0  0  0  0  0  0  0  0  0  0  0
   -1.0762   31.0403   55.5342 N   0  0  0  0  0  0  0  0  0  0  0  0
   -2.5282   29.3558   54.5142 N   0  0  0  0  0  0  0  0  0  0  0  0
   -3.7687   28.9214   53.9801 C   0  0  0  0  0  0  0  0  0  0  0  0
   -4.8742   29.8391   53.9295 C   0  0  0  0  0  0  0  0  0  0  0  0
   -4.6539   31.1737   54.4378 C   0  0  0  0  0  0  0  0  0  0  0  0
   -5.7146   32.0350   54.3940 O   0  0  0  0  0  0  0  0  0  0  0  0
   -6.0086   29.1559   53.3518 C   0  0  0  0  0  0  0  0  0  0  0  0
   -5.5410   27.8735   53.0606 C   0  0  0  0  0  0  0  0  0  0  0  0
   -4.2186   27.7412   53.4437 N   0  0  0  0  0  0  0  0  0  0  0  0
   -7.3864   29.7254   53.0757 C   0  0  0  0  0  0  0  0  0  0  0  0
   -7.4974   30.3608   51.7646 N   0  0  0  0  0  0  0  0  0  0  0  0
  1  2  1  0  0  0  0
  1  7  1  0  0  0  0
  2  3  1  0  0  0  0
  2  4  2  0  0  0  0
  4  5  1  0  0  0  0
  5  6  2  0  0  0  0
  5 11  1  0  0  0  0
  6  7  1  0  0  0  0
  6  9  1  0  0  0  0
  7  8  2  0  0  0  0
  9 10  2  0  0  0  0
  9 12  1  0  0  0  0
 10 11  1  0  0  0  0
 12 13  1  0  0  0  0
M  END
>  <CHROM.1>
87.79343961,-4.55618649,30.00269276,53.96375621,0.32371809,-0.39535388,0.29670563

>  <Name>
ligand

>  <RI>
-1

>  <Rbt.Current_Directory>
/home/itssahil/PROJECTS/Mol_Feturizer/Test_systems_manuscript/rnas/4jf2

>  <Rbt.Executable>
rbdock ($Id: //depot/dev/client3/rdock/2013.1/src/exe/rbdock.cxx#4 $)

>  <Rbt.Library>
libRbt.so (2013.1, Build901 2013/11/27)

>  <Rbt.Parameter_File>
/export/apps/rDock/src/rDock_2013.1_src/data/scripts/dock_solv.prm

>  <Rbt.Receptor>
prm/pocket_docking_4.prm

>  <SCORE>
-15.8741

>  <SCORE.INTER>
-15.6264

>  <SCORE.INTER.CONST>
1

>  <SCORE.INTER.POLAR>
0

>  <SCORE.INTER.ROT>
1

>  <SCORE.INTER.SOLV>
17.0911

>  <SCORE.INTER.VDW>
-20.3813

>  <SCORE.INTER.norm>
-1.20203

>  <SCORE.INTRA>
-0.247769

>  <SCORE.INTRA.DIHEDRAL>
-0.187699

>  <SCORE.INTRA.DIHEDRAL.0>
1.75624

>  <SCORE.INTRA.POLAR>
0

>  <SCORE.INTRA.POLAR.0>
0

>  <SCORE.INTRA.REPUL>
0

>  <SCORE.INTRA.REPUL.0>
0

>  <SCORE.INTRA.SOLV>
-0.379979

>  <SCORE.INTRA.SOLV.lig_0>
-46.5296

>  <SCORE.INTRA.VDW>
0.0360695

>  <SCORE.INTRA.VDW.0>
-0.381873

>  <SCORE.INTRA.norm>
-0.0190592

>  <SCORE.RESTR>
0

>  <SCORE.RESTR.CAVITY>
0

>  <SCORE.RESTR.norm>
0

>  <SCORE.SYSTEM>
0

>  <SCORE.SYSTEM.CONST>
0

>  <SCORE.SYSTEM.DIHEDRAL>
0

>  <SCORE.SYSTEM.SOLV>
0

>  <SCORE.SYSTEM.norm>
0

>  <SCORE.heavy>
13

>  <SCORE.norm>
-1.22109

>  <RMSD>
0.798

$$$$
ligand
 OpenBabel02271912143D
libRbt.so/2013.1/901 2013/11/27
 13 14  0  0  0  0  0  0  0  0999 V2000
   -3.3075   31.5663   55.0504 N   0  0  0  0  0  0  0  0  0  0  0  0
   -2.2507   30.6421   55.0149 C   0  0  0  0  0  0  0  0  0  0  0  0
   -0.9536   31.0256   55.5227 N   0  0  0  0  0  0  0  0  0  0  0  0
   -2.4520   29.3775   54.5105 N   0  0  0  0  0  0  0  0  0  0  0  0
   -3.7120   28.9665   54.0041 C   0  0  0  0  0  0  0  0  0  0  0  0
   -4.8090   29.8958   54.0055 C   0  0  0  0  0  0  0  0  0  0  0  0
   -4.5603   31.2170   54.5352 C   0  0  0  0  0  0  0  0  0  0  0  0
   -5.6129   32.0892   54.5408 O   0  0  0  0  0  0  0  0  0  0  0  0
   -5.9668   29.2361   53.4471 C   0  0  0  0  0  0  0  0  0  0  0  0
   -5.5210   27.9557   53.1152 C   0  0  0  0  0  0  0  0  0  0  0  0
   -4.1895   27.8025   53.4564 N   0  0  0  0  0  0  0  0  0  0  0  0
   -7.3461   29.8246   53.2238 C   0  0  0  0  0  0  0  0  0  0  0  0
   -7.4838   30.5034   51.9372 N   0  0  0  0  0  0  0  0  0  0  0  0
  1  2  1  0  0  0  0
  1  7  1  0  0  0  0
  2  3  1  0  0  0  0
  2  4  2  0  0  0  0
  4  5  1  0  0  0  0
  5  6  2  0  0  0  0
  5 11  1  0  0  0  0
  6  7  1  0  0  0  0
  6  9  1  0  0  0  0
  7  8  2  0  0  0  0
  9 10  2  0  0  0  0
  9 12  1  0  0  0  0
 10 11  1  0  0  0  0
 12 13  1  0  0  0  0
M  END
>  <CHROM.1>
87.08009530,-4.48806444,30.05669916,54.03436532,0.30260711,-0.37034030,0.30996443

>  <Name>
ligand

>  <RI>
-1

>  <Rbt.Current_Directory>
/home/itssahil/PROJECTS/Mol_Feturizer/Test_systems_manuscript/rnas/4jf2

>  <Rbt.Executable>
rbdock ($Id: //depot/dev/client3/rdock/2013.1/src/exe/rbdock.cxx#4 $)

>  <Rbt.Library>
libRbt.so (2013.1, Build901 2013/11/27)

>  <Rbt.Parameter_File>
/export/apps/rDock/src/rDock_2013.1_src/data/scripts/dock_solv.prm

>  <Rbt.Receptor>
prm/pocket_docking_2.prm

>  <SCORE>
-15.8706

>  <SCORE.INTER>
-15.6311

>  <SCORE.INTER.CONST>
1

>  <SCORE.INTER.POLAR>
0

>  <SCORE.INTER.ROT>
1

>  <SCORE.INTER.SOLV>
17.0079

>  <SCORE.INTER.VDW>
-20.3567

>  <SCORE.INTER.norm>
-1.20239

>  <SCORE.INTRA>
-0.239531

>  <SCORE.INTRA.DIHEDRAL>
-0.187416

>  <SCORE.INTRA.DIHEDRAL.0>
1.75624

>  <SCORE.INTRA.POLAR>
0

>  <SCORE.INTRA.POLAR.0>
0

>  <SCORE.INTRA.REPUL>
0

>  <SCORE.INTRA.REPUL.0>
0

>  <SCORE.INTRA.SOLV>
-0.359975

>  <SCORE.INTRA.SOLV.lig_0>
-46.5296

>  <SCORE.INTRA.VDW>
0.0341651

>  <SCORE.INTRA.VDW.0>
-0.381873

>  <SCORE.INTRA.norm>
-0.0184254

>  <SCORE.RESTR>
0

>  <SCORE.RESTR.CAVITY>
0

>  <SCORE.RESTR.norm>
0

>  <SCORE.SYSTEM>
0

>  <SCORE.SYSTEM.CONST>
0

>  <SCORE.SYSTEM.DIHEDRAL>
0

>  <SCORE.SYSTEM.SOLV>
0

>  <SCORE.SYSTEM.norm>
0

>  <SCORE.heavy>
13

>  <SCORE.norm>
-1.22082

>  <RMSD>
0.799

$$$$
ligand
 OpenBabel02271912143D
libRbt.so/2013.1/901 2013/11/27
 13 14  0  0  0  0  0  0  0  0999 V2000
   -3.3405   31.5766   55.0355 N   0  0  0  0  0  0  0  0  0  0  0  0
   -2.2858   30.6494   55.0209 C   0  0  0  0  0  0  0  0  0  0  0  0
   -0.9947   31.0331   55.5436 N   0  0  0  0  0  0  0  0  0  0  0  0
   -2.4837   29.3818   54.5227 N   0  0  0  0  0  0  0  0  0  0  0  0
   -3.7378   28.9706   54.0021 C   0  0  0  0  0  0  0  0  0  0  0  0
   -4.8322   29.9027   53.9820 C   0  0  0  0  0  0  0  0  0  0  0  0
   -4.5870   31.2270   54.5057 C   0  0  0  0  0  0  0  0  0  0  0  0
   -5.6373   32.1020   54.4909 O   0  0  0  0  0  0  0  0  0  0  0  0
   -5.9841   29.2422   53.4125 C   0  0  0  0  0  0  0  0  0  0  0  0
   -5.5373   27.9583   53.0957 C   0  0  0  0  0  0  0  0  0  0  0  0
   -4.2109   27.8040   53.4561 N   0  0  0  0  0  0  0  0  0  0  0  0
   -7.3586   29.8327   53.1663 C   0  0  0  0  0  0  0  0  0  0  0  0
   -7.5046   30.4236   51.8379 N   0  0  0  0  0  0  0  0  0  0  0  0
  1  2  1  0  0  0  0
  1  7  1  0  0  0  0
  2  3  1  0  0  0  0
  2  4  2  0  0  0  0
  4  5  1  0  0  0  0
  5  6  2  0  0  0  0
  5 11  1  0  0  0  0
  6  7  1  0  0  0  0
  6  9  1  0  0  0  0
  7  8  2  0  0  0  0
  9 10  2  0  0  0  0
  9 12  1  0  0  0  0
 10 11  1  0  0  0  0
 12 13  1  0  0  0  0
M  END
>  <CHROM.1>
90.96366022,-4.51346320,30.05654732,54.01120692,0.31206632,-0.38391379,0.30729414

>  <Name>
ligand

>  <RI>
-1

>  <Rbt.Current_Directory>
/home/itssahil/PROJECTS/Mol_Feturizer/Test_systems_manuscript/rnas/4jf2

>  <Rbt.Executable>
rbdock ($Id: //depot/dev/client3/rdock/2013.1/src/exe/rbdock.cxx#4 $)

>  <Rbt.Library>
libRbt.so (2013.1, Build901 2013/11/27)

>  <Rbt.Parameter_File>
/export/apps/rDock/src/rDock_2013.1_src/data/scripts/dock_solv.prm

>  <Rbt.Receptor>
prm/pocket_docking_5.prm

>  <SCORE>
-15.8955

>  <SCORE.INTER>
-15.6238

>  <SCORE.INTER.CONST>
1

>  <SCORE.INTER.POLAR>
0

>  <SCORE.INTER.ROT>
1

>  <SCORE.INTER.SOLV>
17.0542

>  <SCORE.INTER.VDW>
-20.3673

>  <SCORE.INTER.norm>
-1.20183

>  <SCORE.INTRA>
-0.271703

>  <SCORE.INTRA.DIHEDRAL>
-0.187071

>  <SCORE.INTRA.DIHEDRAL.0>
1.75624

>  <SCORE.INTRA.POLAR>
0

>  <SCORE.INTRA.POLAR.0>
0

>  <SCORE.INTRA.REPUL>
0

>  <SCORE.INTRA.REPUL.0>
0

>  <SCORE.INTRA.SOLV>
-0.444926

>  <SCORE.INTRA.SOLV.lig_0>
-46.5296

>  <SCORE.INTRA.VDW>
0.044295

>  <SCORE.INTRA.VDW.0>
-0.381873

>  <SCORE.INTRA.norm>
-0.0209003

>  <SCORE.RESTR>
0

>  <SCORE.RESTR.CAVITY>
0

>  <SCORE.RESTR.norm>
0

>  <SCORE.SYSTEM>
0

>  <SCORE.SYSTEM.CONST>
0

>  <SCORE.SYSTEM.DIHEDRAL>
0

>  <SCORE.SYSTEM.SOLV>
0

>  <SCORE.SYSTEM.norm>
0

>  <SCORE.heavy>
13

>  <SCORE.norm>
-1.22273

>  <RMSD>
0.799

$$$$
ligand
 OpenBabel02271912143D
libRbt.so/2013.1/901 2013/11/27
 13 14  0  0  0  0  0  0  0  0999 V2000
   -3.4214   31.5496   54.9805 N   0  0  0  0  0  0  0  0  0  0  0  0
   -2.3534   30.6377   54.9902 C   0  0  0  0  0  0  0  0  0  0  0  0
   -1.0770   31.0435   55.5320 N   0  0  0  0  0  0  0  0  0  0  0  0
   -2.5245   29.3641   54.4974 N   0  0  0  0  0  0  0  0  0  0  0  0
   -3.7635   28.9313   53.9585 C   0  0  0  0  0  0  0  0  0  0  0  0
   -4.8707   29.8473   53.9134 C   0  0  0  0  0  0  0  0  0  0  0  0
   -4.6536   31.1785   54.4321 C   0  0  0  0  0  0  0  0  0  0  0  0
   -5.7158   32.0380   54.3934 O   0  0  0  0  0  0  0  0  0  0  0  0
   -6.0031   29.1664   53.3290 C   0  0  0  0  0  0  0  0  0  0  0  0
   -5.5326   27.8871   53.0287 C   0  0  0  0  0  0  0  0  0  0  0  0
   -4.2105   27.7544   53.4126 N   0  0  0  0  0  0  0  0  0  0  0  0
   -7.3816   29.7353   53.0555 C   0  0  0  0  0  0  0  0  0  0  0  0
   -7.4875   30.3950   51.7560 N   0  0  0  0  0  0  0  0  0  0  0  0
  1  2  1  0  0  0  0
  1  7  1  0  0  0  0
  2  3  1  0  0  0  0
  2  4  2  0  0  0  0
  4  5  1  0  0  0  0
  5  6  2  0  0  0  0
  5 11  1  0  0  0  0
  6  7  1  0  0  0  0
  6  9  1  0  0  0  0
  7  8  2  0  0  0  0
  9 10  2  0  0  0  0
  9 12  1  0  0  0  0
 10 11  1  0  0  0  0
 12 13  1  0  0  0  0
M  END
>  <CHROM.1>
87.07668645,-4.55264409,30.01245460,53.94983003,0.32466028,-0.39602581,0.30451147

>  <Name>
ligand

>  <RI>
-1

>  <Rbt.Current_Directory>
/home/itssahil/PROJECTS/Mol_Feturizer/Test_systems_manuscript/rnas/4jf2

>  <Rbt.Executable>
rbdock ($Id: //depot/dev/client3/rdock/2013.1/src/exe/rbdock.cxx#4 $)

>  <Rbt.Library>
libRbt.so (2013.1, Build901 2013/11/27)

>  <Rbt.Parameter_File>
/export/apps/rDock/src/rDock_2013.1_src/data/scripts/dock_solv.prm

>  <Rbt.Receptor>
prm/pocket_docking_6.prm

>  <SCORE>
-15.8811

>  <SCORE.INTER>
-15.6416

>  <SCORE.INTER.CONST>
1

>  <SCORE.INTER.POLAR>
0

>  <SCORE.INTER.ROT>
1

>  <SCORE.INTER.SOLV>
17.0256

>  <SCORE.INTER.VDW>
-20.3696

>  <SCORE.INTER.norm>
-1.2032

>  <SCORE.INTRA>
-0.239491

>  <SCORE.INTRA.DIHEDRAL>
-0.187415

>  <SCORE.INTRA.DIHEDRAL.0>
1.75624

>  <SCORE.INTRA.POLAR>
0

>  <SCORE.INTRA.POLAR.0>
0

>  <SCORE.INTRA.REPUL>
0

>  <SCORE.INTRA.REPUL.0>
0

>  <SCORE.INTRA.SOLV>
-0.359879

>  <SCORE.INTRA.SOLV.lig_0>
-46.5296

>  <SCORE.INTRA.VDW>
0.0341559

>  <SCORE.INTRA.VDW.0>
-0.381873

>  <SCORE.INTRA.norm>
-0.0184224

>  <SCORE.RESTR>
0

>  <SCORE.RESTR.CAVITY>
0

>  <SCORE.RESTR.norm>
0

>  <SCORE.SYSTEM>
0

>  <SCORE.SYSTEM.CONST>
0

>  <SCORE.SYSTEM.DIHEDRAL>
0

>  <SCORE.SYSTEM.SOLV>
0

>  <SCORE.SYSTEM.norm>
0

>  <SCORE.heavy>
13

>  <SCORE.norm>
-1.22162

>  <RMSD>
0.799

$$$$
ligand
 OpenBabel02271912143D
libRbt.so/2013.1/901 2013/11/27
 13 14  0  0  0  0  0  0  0  0999 V2000
   -3.3327   31.5866   55.0216 N   0  0  0  0  0  0  0  0  0  0  0  0
   -2.2775   30.6601   55.0016 C   0  0  0  0  0  0  0  0  0  0  0  0
   -0.9848   31.0437   55.5204 N   0  0  0  0  0  0  0  0  0  0  0  0
   -2.4763   29.3933   54.5017 N   0  0  0  0  0  0  0  0  0  0  0  0
   -3.7320   28.9822   53.9849 C   0  0  0  0  0  0  0  0  0  0  0  0
   -4.8270   29.9136   53.9703 C   0  0  0  0  0  0  0  0  0  0  0  0
   -4.5809   31.2371   54.4956 C   0  0  0  0  0  0  0  0  0  0  0  0
   -5.6317   32.1114   54.4861 O   0  0  0  0  0  0  0  0  0  0  0  0
   -5.9805   29.2534   53.4037 C   0  0  0  0  0  0  0  0  0  0  0  0
   -5.5340   27.9704   53.0830 C   0  0  0  0  0  0  0  0  0  0  0  0
   -4.2063   27.8163   53.4384 N   0  0  0  0  0  0  0  0  0  0  0  0
   -7.3563   29.8435   53.1635 C   0  0  0  0  0  0  0  0  0  0  0  0
   -7.5106   30.4278   51.8331 N   0  0  0  0  0  0  0  0  0  0  0  0
  1  2  1  0  0  0  0
  1  7  1  0  0  0  0
  2  3  1  0  0  0  0
  2  4  2  0  0  0  0
  4  5  1  0  0  0  0
  5  6  2  0  0  0  0
  5 11  1  0  0  0  0
  6  7  1  0  0  0  0
  6  9  1  0  0  0  0
  7  8  2  0  0  0  0
  9 10  2  0  0  0  0
  9 12  1  0  0  0  0
 10 11  1  0  0  0  0
 12 13  1  0  0  0  0
M  END
>  <CHROM.1>
91.39594349,-4.50856021,30.06689470,53.99840611,0.31244695,-0.38028838,0.30934681

>  <Name>
ligand

>  <RI>
-1

>  <Rbt.Current_Directory>
/home/itssahil/PROJECTS/Mol_Feturizer/Test_systems_manuscript/rnas/4jf2

>  <Rbt.Executable>
rbdock ($Id: //depot/dev/client3/rdock/2013.1/src/exe/rbdock.cxx#4 $)

>  <Rbt.Library>
libRbt.so (2013.1, Build901 2013/11/27)

>  <Rbt.Parameter_File>
/export/apps/rDock/src/rDock_2013.1_src/data/scripts/dock_solv.prm

>  <Rbt.Receptor>
prm/pocket_docking_7.prm

>  <SCORE>
-15.8895

>  <SCORE.INTER>
-15.6152

>  <SCORE.INTER.CONST>
1

>  <SCORE.INTER.POLAR>
0

>  <SCORE.INTER.ROT>
1

>  <SCORE.INTER.SOLV>
17.0989

>  <SCORE.INTER.VDW>
-20.3764

>  <SCORE.INTER.norm>
-1.20117

>  <SCORE.INTRA>
-0.274215

>  <SCORE.INTRA.DIHEDRAL>
-0.186748

>  <SCORE.INTRA.DIHEDRAL.0>
1.75624

>  <SCORE.INTRA.POLAR>
0

>  <SCORE.INTRA.POLAR.0>
0

>  <SCORE.INTRA.REPUL>
0

>  <SCORE.INTRA.REPUL.0>
0

>  <SCORE.INTRA.SOLV>
-0.452453

>  <SCORE.INTRA.SOLV.lig_0>
-46.5296

>  <SCORE.INTRA.VDW>
0.0453858

>  <SCORE.INTRA.VDW.0>
-0.381873

>  <SCORE.INTRA.norm>
-0.0210934

>  <SCORE.RESTR>
0

>  <SCORE.RESTR.CAVITY>
0

>  <SCORE.RESTR.norm>
0

>  <SCORE.SYSTEM>
0

>  <SCORE.SYSTEM.CONST>
0

>  <SCORE.SYSTEM.DIHEDRAL>
0

>  <SCORE.SYSTEM.SOLV>
0

>  <SCORE.SYSTEM.norm>
0

>  <SCORE.heavy>
13

>  <SCORE.norm>
-1.22227

>  <RMSD>
0.799

$$$$
ligand
 OpenBabel02271912143D
libRbt.so/2013.1/901 2013/11/27
 13 14  0  0  0  0  0  0  0  0999 V2000
   -3.4269   31.5507   54.9816 N   0  0  0  0  0  0  0  0  0  0  0  0
   -2.3574   30.6405   54.9900 C   0  0  0  0  0  0  0  0  0  0  0  0
   -1.0823   31.0468   55.5345 N   0  0  0  0  0  0  0  0  0  0  0  0
   -2.5259   29.3679   54.4935 N   0  0  0  0  0  0  0  0  0  0  0  0
   -3.7636   28.9347   53.9519 C   0  0  0  0  0  0  0  0  0  0  0  0
   -4.8722   29.8490   53.9081 C   0  0  0  0  0  0  0  0  0  0  0  0
   -4.6578   31.1790   54.4307 C   0  0  0  0  0  0  0  0  0  0  0  0
   -5.7214   32.0370   54.3933 O   0  0  0  0  0  0  0  0  0  0  0  0
   -6.0028   29.1680   53.3205 C   0  0  0  0  0  0  0  0  0  0  0  0
   -5.5299   27.8902   53.0171 C   0  0  0  0  0  0  0  0  0  0  0  0
   -4.2080   27.7586   53.4022 N   0  0  0  0  0  0  0  0  0  0  0  0
   -7.3819   29.7354   53.0469 C   0  0  0  0  0  0  0  0  0  0  0  0
   -7.4875   30.3980   51.7489 N   0  0  0  0  0  0  0  0  0  0  0  0
  1  2  1  0  0  0  0
  1  7  1  0  0  0  0
  2  3  1  0  0  0  0
  2  4  2  0  0  0  0
  4  5  1  0  0  0  0
  5  6  2  0  0  0  0
  5 11  1  0  0  0  0
  6  7  1  0  0  0  0
  6  9  1  0  0  0  0
  7  8  2  0  0  0  0
  9 10  2  0  0  0  0
  9 12  1  0  0  0  0
 10 11  1  0  0  0  0
 12 13  1  0  0  0  0
M  END
>  <CHROM.1>
87.10687369,-4.55446980,30.01451803,53.94532254,0.32676823,-0.39666370,0.30814352

>  <Name>
ligand

>  <RI>
0

>  <Rbt.Current_Directory>
/home/itssahil/PROJECTS/Mol_Feturizer/Test_systems_manuscript/rnas/4jf2

>  <Rbt.Executable>
rbdock ($Id: //depot/dev/client3/rdock/2013.1/src/exe/rbdock.cxx#4 $)

>  <Rbt.Library>
libRbt.so (2013.1, Build901 2013/11/27)

>  <Rbt.Parameter_File>
/export/apps/rDock/src/rDock_2013.1_src/data/scripts/dock_solv.prm

>  <Rbt.Receptor>
prm/pocket_docking_8.prm

>  <SCORE>
-15.8809

>  <SCORE.INTER>
-15.641

>  <SCORE.INTER.CONST>
1

>  <SCORE.INTER.POLAR>
0

>  <SCORE.INTER.ROT>
1

>  <SCORE.INTER.SOLV>
17.0166

>  <SCORE.INTER.VDW>
-20.3662

>  <SCORE.INTER.norm>
-1.20316

>  <SCORE.INTRA>
-0.239841

>  <SCORE.INTRA.DIHEDRAL>
-0.18743

>  <SCORE.INTRA.DIHEDRAL.0>
1.75624

>  <SCORE.INTRA.POLAR>
0

>  <SCORE.INTRA.POLAR.0>
0

>  <SCORE.INTRA.REPUL>
0

>  <SCORE.INTRA.REPUL.0>
0

>  <SCORE.INTRA.SOLV>
-0.360727

>  <SCORE.INTRA.SOLV.lig_0>
-46.5296

>  <SCORE.INTRA.VDW>
0.0342369

>  <SCORE.INTRA.VDW.0>
-0.381873

>  <SCORE.INTRA.norm>
-0.0184493

>  <SCORE.RESTR>
0

>  <SCORE.RESTR.CAVITY>
0

>  <SCORE.RESTR.norm>
0

>  <SCORE.SYSTEM>
0

>  <SCORE.SYSTEM.CONST>
0

>  <SCORE.SYSTEM.DIHEDRAL>
0

>  <SCORE.SYSTEM.SOLV>
0

>  <SCORE.SYSTEM.norm>
0

>  <SCORE.heavy>
13

>  <SCORE.norm>
-1.2216

>  <RMSD>
0.799

$$$$
ligand
 OpenBabel02271912143D
libRbt.so/2013.1/901 2013/11/27
 13 14  0  0  0  0  0  0  0  0999 V2000
   -3.4066   31.5433   54.9762 N   0  0  0  0  0  0  0  0  0  0  0  0
   -2.3435   30.6258   54.9914 C   0  0  0  0  0  0  0  0  0  0  0  0
   -1.0644   31.0286   55.5291 N   0  0  0  0  0  0  0  0  0  0  0  0
   -2.5219   29.3496   54.5080 N   0  0  0  0  0  0  0  0  0  0  0  0
   -3.7638   28.9196   53.9734 C   0  0  0  0  0  0  0  0  0  0  0  0
   -4.8661   29.8411   53.9228 C   0  0  0  0  0  0  0  0  0  0  0  0
   -4.6413   31.1748   54.4316 C   0  0  0  0  0  0  0  0  0  0  0  0
   -5.6990   32.0398   54.3878 O   0  0  0  0  0  0  0  0  0  0  0  0
   -6.0027   29.1622   53.3444 C   0  0  0  0  0  0  0  0  0  0  0  0
   -5.5393   27.8782   53.0528 C   0  0  0  0  0  0  0  0  0  0  0  0
   -4.2176   27.7412   53.4364 N   0  0  0  0  0  0  0  0  0  0  0  0
   -7.3784   29.7364   53.0681 C   0  0  0  0  0  0  0  0  0  0  0  0
   -7.4813   30.3896   51.7651 N   0  0  0  0  0  0  0  0  0  0  0  0
  1  2  1  0  0  0  0
  1  7  1  0  0  0  0
  2  3  1  0  0  0  0
  2  4  2  0  0  0  0
  4  5  1  0  0  0  0
  5  6  2  0  0  0  0
  5 11  1  0  0  0  0
  6  7  1  0  0  0  0
  6  9  1  0  0  0  0
  7  8  2  0  0  0  0
  9 10  2  0  0  0  0
  9 12  1  0  0  0  0
 10 11  1  0  0  0  0
 12 13  1  0  0  0  0
M  END
>  <CHROM.1>
86.96591020,-4.54706142,30.00502299,53.95779900,0.31857695,-0.39668146,0.29494631

>  <Name>
ligand

>  <RI>
-1

>  <Rbt.Current_Directory>
/home/itssahil/PROJECTS/Mol_Feturizer/Test_systems_manuscript/rnas/4jf2

>  <Rbt.Executable>
rbdock ($Id: //depot/dev/client3/rdock/2013.1/src/exe/rbdock.cxx#4 $)

>  <Rbt.Library>
libRbt.so (2013.1, Build901 2013/11/27)

>  <Rbt.Parameter_File>
/export/apps/rDock/src/rDock_2013.1_src/data/scripts/dock_solv.prm

>  <Rbt.Receptor>
prm/pocket_docking_6.prm

>  <SCORE>
-15.9081

>  <SCORE.INTER>
-15.6699

>  <SCORE.INTER.CONST>
1

>  <SCORE.INTER.POLAR>
0

>  <SCORE.INTER.ROT>
1

>  <SCORE.INTER.SOLV>
17.0231

>  <SCORE.INTER.VDW>
-20.3877

>  <SCORE.INTER.norm>
-1.20538

>  <SCORE.INTRA>
-0.238204

>  <SCORE.INTRA.DIHEDRAL>
-0.187357

>  <SCORE.INTRA.DIHEDRAL.0>
1.75624

>  <SCORE.INTRA.POLAR>
0

>  <SCORE.INTRA.POLAR.0>
0

>  <SCORE.INTRA.REPUL>
0

>  <SCORE.INTRA.REPUL.0>
0

>  <SCORE.INTRA.SOLV>
-0.356768

>  <SCORE.INTRA.SOLV.lig_0>
-46.5296

>  <SCORE.INTRA.VDW>
0.0338585

>  <SCORE.INTRA.VDW.0>
-0.381873

>  <SCORE.INTRA.norm>
-0.0183234

>  <SCORE.RESTR>
0

>  <SCORE.RESTR.CAVITY>
0

>  <SCORE.RESTR.norm>
0

>  <SCORE.SYSTEM>
0

>  <SCORE.SYSTEM.CONST>
0

>  <SCORE.SYSTEM.DIHEDRAL>
0

>  <SCORE.SYSTEM.SOLV>
0

>  <SCORE.SYSTEM.norm>
0

>  <SCORE.heavy>
13

>  <SCORE.norm>
-1.2237

>  <RMSD>
0.800

$$$$
ligand
 OpenBabel02271912143D
libRbt.so/2013.1/901 2013/11/27
 13 14  0  0  0  0  0  0  0  0999 V2000
   -3.4123   31.5483   54.9878 N   0  0  0  0  0  0  0  0  0  0  0  0
   -2.3488   30.6313   55.0050 C   0  0  0  0  0  0  0  0  0  0  0  0
   -1.0709   31.0348   55.5449 N   0  0  0  0  0  0  0  0  0  0  0  0
   -2.5257   29.3550   54.5213 N   0  0  0  0  0  0  0  0  0  0  0  0
   -3.7664   28.9244   53.9845 C   0  0  0  0  0  0  0  0  0  0  0  0
   -4.8690   29.8454   53.9319 C   0  0  0  0  0  0  0  0  0  0  0  0
   -4.6459   31.1792   54.4411 C   0  0  0  0  0  0  0  0  0  0  0  0
   -5.7039   32.0436   54.3954 O   0  0  0  0  0  0  0  0  0  0  0  0
   -6.0043   29.1658   53.3515 C   0  0  0  0  0  0  0  0  0  0  0  0
   -5.5398   27.8821   53.0608 C   0  0  0  0  0  0  0  0  0  0  0  0
   -4.2187   27.7458   53.4467 N   0  0  0  0  0  0  0  0  0  0  0  0
   -7.3798   29.7394   53.0728 C   0  0  0  0  0  0  0  0  0  0  0  0
   -7.4855   30.3777   51.7626 N   0  0  0  0  0  0  0  0  0  0  0  0
  1  2  1  0  0  0  0
  1  7  1  0  0  0  0
  2  3  1  0  0  0  0
  2  4  2  0  0  0  0
  4  5  1  0  0  0  0
  5  6  2  0  0  0  0
  5 11  1  0  0  0  0
  6  7  1  0  0  0  0
  6  9  1  0  0  0  0
  7  8  2  0  0  0  0
  9 10  2  0  0  0  0
  9 12  1  0  0  0  0
 10 11  1  0  0  0  0
 12 13  1  0  0  0  0
M  END
>  <CHROM.1>
87.69296078,-4.55056608,30.00824625,53.96689290,0.32110972,-0.39822975,0.29602966

>  <Name>
ligand

>  <RI>
-1

>  <Rbt.Current_Directory>
/home/itssahil/PROJECTS/Mol_Feturizer/Test_systems_manuscript/rnas/4jf2

>  <Rbt.Executable>
rbdock ($Id: //depot/dev/client3/rdock/2013.1/src/exe/rbdock.cxx#4 $)

>  <Rbt.Library>
libRbt.so (2013.1, Build901 2013/11/27)

>  <Rbt.Parameter_File>
/export/apps/rDock/src/rDock_2013.1_src/data/scripts/dock_solv.prm

>  <Rbt.Receptor>
prm/pocket_docking_7.prm

>  <SCORE>
-15.9138

>  <SCORE.INTER>
-15.6672

>  <SCORE.INTER.CONST>
1

>  <SCORE.INTER.POLAR>
0

>  <SCORE.INTER.ROT>
1

>  <SCORE.INTER.SOLV>
17.0342

>  <SCORE.INTER.VDW>
-20.3895

>  <SCORE.INTER.norm>
-1.20517

>  <SCORE.INTRA>
-0.246614

>  <SCORE.INTRA.DIHEDRAL>
-0.187668

>  <SCORE.INTRA.DIHEDRAL.0>
1.75624

>  <SCORE.INTRA.POLAR>
0

>  <SCORE.INTRA.POLAR.0>
0

>  <SCORE.INTRA.REPUL>
0

>  <SCORE.INTRA.REPUL.0>
0

>  <SCORE.INTRA.SOLV>
-0.377165

>  <SCORE.INTRA.SOLV.lig_0>
-46.5296

>  <SCORE.INTRA.VDW>
0.0358024

>  <SCORE.INTRA.VDW.0>
-0.381873

>  <SCORE.INTRA.norm>
-0.0189703

>  <SCORE.RESTR>
0

>  <SCORE.RESTR.CAVITY>
0

>  <SCORE.RESTR.norm>
0

>  <SCORE.SYSTEM>
0

>  <SCORE.SYSTEM.CONST>
0

>  <SCORE.SYSTEM.DIHEDRAL>
0

>  <SCORE.SYSTEM.SOLV>
0

>  <SCORE.SYSTEM.norm>
0

>  <SCORE.heavy>
13

>  <SCORE.norm>
-1.22414

>  <RMSD>
0.800

$$$$
ligand
 OpenBabel02271912143D
libRbt.so/2013.1/901 2013/11/27
 13 14  0  0  0  0  0  0  0  0999 V2000
   -3.4134   31.5439   54.9830 N   0  0  0  0  0  0  0  0  0  0  0  0
   -2.3486   30.6283   54.9983 C   0  0  0  0  0  0  0  0  0  0  0  0
   -1.0710   31.0327   55.5384 N   0  0  0  0  0  0  0  0  0  0  0  0
   -2.5240   29.3525   54.5127 N   0  0  0  0  0  0  0  0  0  0  0  0
   -3.7643   28.9211   53.9757 C   0  0  0  0  0  0  0  0  0  0  0  0
   -4.8682   29.8407   53.9250 C   0  0  0  0  0  0  0  0  0  0  0  0
   -4.6466   31.1740   54.4362 C   0  0  0  0  0  0  0  0  0  0  0  0
   -5.7059   32.0371   54.3923 O   0  0  0  0  0  0  0  0  0  0  0  0
   -6.0028   29.1605   53.3440 C   0  0  0  0  0  0  0  0  0  0  0  0
   -5.5367   27.8779   53.0511 C   0  0  0  0  0  0  0  0  0  0  0  0
   -4.2152   27.7427   53.4362 N   0  0  0  0  0  0  0  0  0  0  0  0
   -7.3792   29.7327   53.0667 C   0  0  0  0  0  0  0  0  0  0  0  0
   -7.4870   30.3705   51.7564 N   0  0  0  0  0  0  0  0  0  0  0  0
  1  2  1  0  0  0  0
  1  7  1  0  0  0  0
  2  3  1  0  0  0  0
  2  4  2  0  0  0  0
  4  5  1  0  0  0  0
  5  6  2  0  0  0  0
  5 11  1  0  0  0  0
  6  7  1  0  0  0  0
  6  9  1  0  0  0  0
  7  8  2  0  0  0  0
  9 10  2  0  0  0  0
  9 12  1  0  0  0  0
 10 11  1  0  0  0  0
 12 13  1  0  0  0  0
M  END
>  <CHROM.1>
87.81343051,-4.55004367,30.00372097,53.96003857,0.32261447,-0.39745012,0.29821563

>  <Name>
ligand

>  <RI>
-1

>  <Rbt.Current_Directory>
/home/itssahil/PROJECTS/Mol_Feturizer/Test_systems_manuscript/rnas/4jf2

>  <Rbt.Executable>
rbdock ($Id: //depot/dev/client3/rdock/2013.1/src/exe/rbdock.cxx#4 $)

>  <Rbt.Library>
libRbt.so (2013.1, Build901 2013/11/27)

>  <Rbt.Parameter_File>
/export/apps/rDock/src/rDock_2013.1_src/data/scripts/dock_solv.prm

>  <Rbt.Receptor>
prm/pocket_docking_3.prm

>  <SCORE>
-15.9101

>  <SCORE.INTER>
-15.6621

>  <SCORE.INTER.CONST>
1

>  <SCORE.INTER.POLAR>
0

>  <SCORE.INTER.ROT>
1

>  <SCORE.INTER.SOLV>
17.0504

>  <SCORE.INTER.VDW>
-20.3915

>  <SCORE.INTER.norm>
-1.20478

>  <SCORE.INTRA>
-0.247999

>  <SCORE.INTRA.DIHEDRAL>
-0.187704

>  <SCORE.INTRA.DIHEDRAL.0>
1.75624

>  <SCORE.INTRA.POLAR>
0

>  <SCORE.INTRA.POLAR.0>
0

>  <SCORE.INTRA.REPUL>
0

>  <SCORE.INTRA.REPUL.0>
0

>  <SCORE.INTRA.SOLV>
-0.380539

>  <SCORE.INTRA.SOLV.lig_0>
-46.5296

>  <SCORE.INTRA.VDW>
0.0361226

>  <SCORE.INTRA.VDW.0>
-0.381873

>  <SCORE.INTRA.norm>
-0.0190768

>  <SCORE.RESTR>
0

>  <SCORE.RESTR.CAVITY>
0

>  <SCORE.RESTR.norm>
0

>  <SCORE.SYSTEM>
0

>  <SCORE.SYSTEM.CONST>
0

>  <SCORE.SYSTEM.DIHEDRAL>
0

>  <SCORE.SYSTEM.SOLV>
0

>  <SCORE.SYSTEM.norm>
0

>  <SCORE.heavy>
13

>  <SCORE.norm>
-1.22385

>  <RMSD>
0.801

$$$$
ligand
 OpenBabel02271912143D
libRbt.so/2013.1/901 2013/11/27
 13 14  0  0  0  0  0  0  0  0999 V2000
   -3.3417   31.5859   55.0247 N   0  0  0  0  0  0  0  0  0  0  0  0
   -2.2868   30.6591   55.0122 C   0  0  0  0  0  0  0  0  0  0  0  0
   -0.9962   31.0438   55.5355 N   0  0  0  0  0  0  0  0  0  0  0  0
   -2.4838   29.3907   54.5154 N   0  0  0  0  0  0  0  0  0  0  0  0
   -3.7373   28.9785   53.9942 C   0  0  0  0  0  0  0  0  0  0  0  0
   -4.8319   29.9102   53.9720 C   0  0  0  0  0  0  0  0  0  0  0  0
   -4.5877   31.2352   54.4942 C   0  0  0  0  0  0  0  0  0  0  0  0
   -5.6382   32.1099   54.4773 O   0  0  0  0  0  0  0  0  0  0  0  0
   -5.9831   29.2486   53.4023 C   0  0  0  0  0  0  0  0  0  0  0  0
   -5.5357   27.9644   53.0875 C   0  0  0  0  0  0  0  0  0  0  0  0
   -4.2096   27.8110   53.4493 N   0  0  0  0  0  0  0  0  0  0  0  0
   -7.3576   29.8383   53.1541 C   0  0  0  0  0  0  0  0  0  0  0  0
   -7.5047   30.4217   51.8225 N   0  0  0  0  0  0  0  0  0  0  0  0
  1  2  1  0  0  0  0
  1  7  1  0  0  0  0
  2  3  1  0  0  0  0
  2  4  2  0  0  0  0
  4  5  1  0  0  0  0
  5  6  2  0  0  0  0
  5 11  1  0  0  0  0
  6  7  1  0  0  0  0
  6  9  1  0  0  0  0
  7  8  2  0  0  0  0
  9 10  2  0  0  0  0
  9 12  1  0  0  0  0
 10 11  1  0  0  0  0
 12 13  1  0  0  0  0
M  END
>  <CHROM.1>
91.24565703,-4.51347226,30.06370715,54.00108639,0.31325180,-0.38462893,0.30651197

>  <Name>
ligand

>  <RI>
-1

>  <Rbt.Current_Directory>
/home/itssahil/PROJECTS/Mol_Feturizer/Test_systems_manuscript/rnas/4jf2

>  <Rbt.Executable>
rbdock ($Id: //depot/dev/client3/rdock/2013.1/src/exe/rbdock.cxx#4 $)

>  <Rbt.Library>
libRbt.so (2013.1, Build901 2013/11/27)

>  <Rbt.Parameter_File>
/export/apps/rDock/src/rDock_2013.1_src/data/scripts/dock_solv.prm

>  <Rbt.Receptor>
prm/pocket_docking_4.prm

>  <SCORE>
-15.897

>  <SCORE.INTER>
-15.6236

>  <SCORE.INTER.CONST>
1

>  <SCORE.INTER.POLAR>
0

>  <SCORE.INTER.ROT>
1

>  <SCORE.INTER.SOLV>
17.0744

>  <SCORE.INTER.VDW>
-20.3739

>  <SCORE.INTER.norm>
-1.20182

>  <SCORE.INTRA>
-0.273345

>  <SCORE.INTRA.DIHEDRAL>
-0.186867

>  <SCORE.INTRA.DIHEDRAL.0>
1.75624

>  <SCORE.INTRA.POLAR>
0

>  <SCORE.INTRA.POLAR.0>
0

>  <SCORE.INTRA.REPUL>
0

>  <SCORE.INTRA.REPUL.0>
0

>  <SCORE.INTRA.SOLV>
-0.449838

>  <SCORE.INTRA.SOLV.lig_0>
-46.5296

>  <SCORE.INTRA.VDW>
0.0450074

>  <SCORE.INTRA.VDW.0>
-0.381873

>  <SCORE.INTRA.norm>
-0.0210265

>  <SCORE.RESTR>
0

>  <SCORE.RESTR.CAVITY>
0

>  <SCORE.RESTR.norm>
0

>  <SCORE.SYSTEM>
0

>  <SCORE.SYSTEM.CONST>
0

>  <SCORE.SYSTEM.DIHEDRAL>
0

>  <SCORE.SYSTEM.SOLV>
0

>  <SCORE.SYSTEM.norm>
0

>  <SCORE.heavy>
13

>  <SCORE.norm>
-1.22284

>  <RMSD>
0.801

$$$$
ligand
 OpenBabel02271912143D
libRbt.so/2013.1/901 2013/11/27
 13 14  0  0  0  0  0  0  0  0999 V2000
   -3.4101   31.5450   54.9776 N   0  0  0  0  0  0  0  0  0  0  0  0
   -2.3467   30.6279   54.9946 C   0  0  0  0  0  0  0  0  0  0  0  0
   -1.0685   31.0313   55.5339 N   0  0  0  0  0  0  0  0  0  0  0  0
   -2.5241   29.3514   54.5112 N   0  0  0  0  0  0  0  0  0  0  0  0
   -3.7650   28.9209   53.9751 C   0  0  0  0  0  0  0  0  0  0  0  0
   -4.8676   29.8421   53.9227 C   0  0  0  0  0  0  0  0  0  0  0  0
   -4.6440   31.1760   54.4315 C   0  0  0  0  0  0  0  0  0  0  0  0
   -5.7019   32.0405   54.3860 O   0  0  0  0  0  0  0  0  0  0  0  0
   -6.0032   29.1625   53.3430 C   0  0  0  0  0  0  0  0  0  0  0  0
   -5.5390   27.8786   53.0524 C   0  0  0  0  0  0  0  0  0  0  0  0
   -4.2177   27.7422   53.4378 N   0  0  0  0  0  0  0  0  0  0  0  0
   -7.3787   29.7363   53.0647 C   0  0  0  0  0  0  0  0  0  0  0  0
   -7.4839   30.3771   51.7557 N   0  0  0  0  0  0  0  0  0  0  0  0
  1  2  1  0  0  0  0
  1  7  1  0  0  0  0
  2  3  1  0  0  0  0
  2  4  2  0  0  0  0
  4  5  1  0  0  0  0
  5  6  2  0  0  0  0
  5 11  1  0  0  0  0
  6  7  1  0  0  0  0
  6  9  1  0  0  0  0
  7  8  2  0  0  0  0
  9 10  2  0  0  0  0
  9 12  1  0  0  0  0
 10 11  1  0  0  0  0
 12 13  1  0  0  0  0
M  END
>  <CHROM.1>
87.55081625,-4.54898216,30.00510375,53.95767499,0.32052131,-0.39787659,0.29551924

>  <Name>
ligand

>  <RI>
-1

>  <Rbt.Current_Directory>
/home/itssahil/PROJECTS/Mol_Feturizer/Test_systems_manuscript/rnas/4jf2

>  <Rbt.Executable>
rbdock ($Id: //depot/dev/client3/rdock/2013.1/src/exe/rbdock.cxx#4 $)

>  <Rbt.Library>
libRbt.so (2013.1, Build901 2013/11/27)

>  <Rbt.Parameter_File>
/export/apps/rDock/src/rDock_2013.1_src/data/scripts/dock_solv.prm

>  <Rbt.Receptor>
prm/pocket_docking_5.prm

>  <SCORE>
-15.9097

>  <SCORE.INTER>
-15.6648

>  <SCORE.INTER.CONST>
1

>  <SCORE.INTER.POLAR>
0

>  <SCORE.INTER.ROT>
1

>  <SCORE.INTER.SOLV>
17.0397

>  <SCORE.INTER.VDW>
-20.3897

>  <SCORE.INTER.norm>
-1.20498

>  <SCORE.INTRA>
-0.244977

>  <SCORE.INTRA.DIHEDRAL>
-0.18762

>  <SCORE.INTRA.DIHEDRAL.0>
1.75624

>  <SCORE.INTRA.POLAR>
0

>  <SCORE.INTRA.POLAR.0>
0

>  <SCORE.INTRA.REPUL>
0

>  <SCORE.INTRA.REPUL.0>
0

>  <SCORE.INTRA.SOLV>
-0.373181

>  <SCORE.INTRA.SOLV.lig_0>
-46.5296

>  <SCORE.INTRA.VDW>
0.0354239

>  <SCORE.INTRA.VDW.0>
-0.381873

>  <SCORE.INTRA.norm>
-0.0188444

>  <SCORE.RESTR>
0

>  <SCORE.RESTR.CAVITY>
0

>  <SCORE.RESTR.norm>
0

>  <SCORE.SYSTEM>
0

>  <SCORE.SYSTEM.CONST>
0

>  <SCORE.SYSTEM.DIHEDRAL>
0

>  <SCORE.SYSTEM.SOLV>
0

>  <SCORE.SYSTEM.norm>
0

>  <SCORE.heavy>
13

>  <SCORE.norm>
-1.22383

>  <RMSD>
0.801

$$$$
ligand
 OpenBabel02271912143D
libRbt.so/2013.1/901 2013/11/27
 13 14  0  0  0  0  0  0  0  0999 V2000
   -3.3878   31.5449   54.9952 N   0  0  0  0  0  0  0  0  0  0  0  0
   -2.3245   30.6275   54.9904 C   0  0  0  0  0  0  0  0  0  0  0  0
   -1.0442   31.0204   55.5325 N   0  0  0  0  0  0  0  0  0  0  0  0
   -2.5038   29.3606   54.4833 N   0  0  0  0  0  0  0  0  0  0  0  0
   -3.7469   28.9405   53.9437 C   0  0  0  0  0  0  0  0  0  0  0  0
   -4.8494   29.8626   53.9133 C   0  0  0  0  0  0  0  0  0  0  0  0
   -4.6237   31.1864   54.4468 C   0  0  0  0  0  0  0  0  0  0  0  0
   -5.6817   32.0518   54.4220 O   0  0  0  0  0  0  0  0  0  0  0  0
   -5.9873   29.1944   53.3249 C   0  0  0  0  0  0  0  0  0  0  0  0
   -5.5245   27.9163   53.0079 C   0  0  0  0  0  0  0  0  0  0  0  0
   -4.2017   27.7724   53.3856 N   0  0  0  0  0  0  0  0  0  0  0  0
   -7.3638   29.7735   53.0629 C   0  0  0  0  0  0  0  0  0  0  0  0
   -7.4693   30.4535   51.7739 N   0  0  0  0  0  0  0  0  0  0  0  0
  1  2  1  0  0  0  0
  1  7  1  0  0  0  0
  2  3  1  0  0  0  0
  2  4  2  0  0  0  0
  4  5  1  0  0  0  0
  5  6  2  0  0  0  0
  5 11  1  0  0  0  0
  6  7  1  0  0  0  0
  6  9  1  0  0  0  0
  7  8  2  0  0  0  0
  9 10  2  0  0  0  0
  9 12  1  0  0  0  0
 10 11  1  0  0  0  0
 12 13  1  0  0  0  0
M  END
>  <CHROM.1>
86.85198559,-4.53034608,30.02607614,53.95070122,0.31779099,-0.39428372,0.31359323

>  <Name>
ligand

>  <RI>
-1

>  <Rbt.Current_Directory>
/home/itssahil/PROJECTS/Mol_Feturizer/Test_systems_manuscript/rnas/4jf2

>  <Rbt.Executable>
rbdock ($Id: //depot/dev/client3/rdock/2013.1/src/exe/rbdock.cxx#4 $)

>  <Rbt.Library>
libRbt.so (2013.1, Build901 2013/11/27)

>  <Rbt.Parameter_File>
/export/apps/rDock/src/rDock_2013.1_src/data/scripts/dock_solv.prm

>  <Rbt.Receptor>
prm/pocket_docking_5.prm

>  <SCORE>
-15.8755

>  <SCORE.INTER>
-15.6386

>  <SCORE.INTER.CONST>
1

>  <SCORE.INTER.POLAR>
0

>  <SCORE.INTER.ROT>
1

>  <SCORE.INTER.SOLV>
16.9004

>  <SCORE.INTER.VDW>
-20.3259

>  <SCORE.INTER.norm>
-1.20297

>  <SCORE.INTRA>
-0.236878

>  <SCORE.INTRA.DIHEDRAL>
-0.187294

>  <SCORE.INTRA.DIHEDRAL.0>
1.75624

>  <SCORE.INTRA.POLAR>
0

>  <SCORE.INTRA.POLAR.0>
0

>  <SCORE.INTRA.REPUL>
0

>  <SCORE.INTRA.REPUL.0>
0

>  <SCORE.INTRA.SOLV>
-0.353567

>  <SCORE.INTRA.SOLV.lig_0>
-46.5296

>  <SCORE.INTRA.VDW>
0.0335521

>  <SCORE.INTRA.VDW.0>
-0.381873

>  <SCORE.INTRA.norm>
-0.0182214

>  <SCORE.RESTR>
0

>  <SCORE.RESTR.CAVITY>
0

>  <SCORE.RESTR.norm>
0

>  <SCORE.SYSTEM>
0

>  <SCORE.SYSTEM.CONST>
0

>  <SCORE.SYSTEM.DIHEDRAL>
0

>  <SCORE.SYSTEM.SOLV>
0

>  <SCORE.SYSTEM.norm>
0

>  <SCORE.heavy>
13

>  <SCORE.norm>
-1.22119

>  <RMSD>
0.801

$$$$
ligand
 OpenBabel02271912143D
libRbt.so/2013.1/901 2013/11/27
 13 14  0  0  0  0  0  0  0  0999 V2000
   -3.4164   31.5469   54.9784 N   0  0  0  0  0  0  0  0  0  0  0  0
   -2.3526   30.6302   54.9988 C   0  0  0  0  0  0  0  0  0  0  0  0
   -1.0757   31.0349   55.5402 N   0  0  0  0  0  0  0  0  0  0  0  0
   -2.5284   29.3531   54.5169 N   0  0  0  0  0  0  0  0  0  0  0  0
   -3.7681   28.9212   53.9787 C   0  0  0  0  0  0  0  0  0  0  0  0
   -4.8708   29.8419   53.9227 C   0  0  0  0  0  0  0  0  0  0  0  0
   -4.6489   31.1765   54.4302 C   0  0  0  0  0  0  0  0  0  0  0  0
   -5.7071   32.0406   54.3813 O   0  0  0  0  0  0  0  0  0  0  0  0
   -6.0049   29.1611   53.3415 C   0  0  0  0  0  0  0  0  0  0  0  0
   -5.5396   27.8769   53.0537 C   0  0  0  0  0  0  0  0  0  0  0  0
   -4.2191   27.7416   53.4421 N   0  0  0  0  0  0  0  0  0  0  0  0
   -7.3801   29.7338   53.0596 C   0  0  0  0  0  0  0  0  0  0  0  0
   -7.4801   30.3812   51.7534 N   0  0  0  0  0  0  0  0  0  0  0  0
  1  2  1  0  0  0  0
  1  7  1  0  0  0  0
  2  3  1  0  0  0  0
  2  4  2  0  0  0  0
  4  5  1  0  0  0  0
  5  6  2  0  0  0  0
  5 11  1  0  0  0  0
  6  7  1  0  0  0  0
  6  9  1  0  0  0  0
  7  8  2  0  0  0  0
  9 10  2  0  0  0  0
  9 12  1  0  0  0  0
 10 11  1  0  0  0  0
 12 13  1  0  0  0  0
M  END
>  <CHROM.1>
87.14150930,-4.55219501,30.00576083,53.95844844,0.32081309,-0.39977453,0.29419528

>  <Name>
ligand

>  <RI>
-1

>  <Rbt.Current_Directory>
/home/itssahil/PROJECTS/Mol_Feturizer/Test_systems_manuscript/rnas/4jf2

>  <Rbt.Executable>
rbdock ($Id: //depot/dev/client3/rdock/2013.1/src/exe/rbdock.cxx#4 $)

>  <Rbt.Library>
libRbt.so (2013.1, Build901 2013/11/27)

>  <Rbt.Parameter_File>
/export/apps/rDock/src/rDock_2013.1_src/data/scripts/dock_solv.prm

>  <Rbt.Receptor>
prm/pocket_docking_6.prm

>  <SCORE>
-15.9115

>  <SCORE.INTER>
-15.6712

>  <SCORE.INTER.CONST>
1

>  <SCORE.INTER.POLAR>
0

>  <SCORE.INTER.ROT>
1

>  <SCORE.INTER.SOLV>
17.0227

>  <SCORE.INTER.VDW>
-20.3884

>  <SCORE.INTER.norm>
-1.20548

>  <SCORE.INTRA>
-0.240243

>  <SCORE.INTRA.DIHEDRAL>
-0.187447

>  <SCORE.INTRA.DIHEDRAL.0>
1.75624

>  <SCORE.INTRA.POLAR>
0

>  <SCORE.INTRA.POLAR.0>
0

>  <SCORE.INTRA.REPUL>
0

>  <SCORE.INTRA.REPUL.0>
0

>  <SCORE.INTRA.SOLV>
-0.361699

>  <SCORE.INTRA.SOLV.lig_0>
-46.5296

>  <SCORE.INTRA.VDW>
0.0343298

>  <SCORE.INTRA.VDW.0>
-0.381873

>  <SCORE.INTRA.norm>
-0.0184803

>  <SCORE.RESTR>
0

>  <SCORE.RESTR.CAVITY>
0

>  <SCORE.RESTR.norm>
0

>  <SCORE.SYSTEM>
0

>  <SCORE.SYSTEM.CONST>
0

>  <SCORE.SYSTEM.DIHEDRAL>
0

>  <SCORE.SYSTEM.SOLV>
0

>  <SCORE.SYSTEM.norm>
0

>  <SCORE.heavy>
13

>  <SCORE.norm>
-1.22396

>  <RMSD>
0.801

$$$$
ligand
 OpenBabel02271912143D
libRbt.so/2013.1/901 2013/11/27
 13 14  0  0  0  0  0  0  0  0999 V2000
   -3.4098   31.5485   54.9616 N   0  0  0  0  0  0  0  0  0  0  0  0
   -2.3489   30.6288   54.9894 C   0  0  0  0  0  0  0  0  0  0  0  0
   -1.0723   31.0323   55.5325 N   0  0  0  0  0  0  0  0  0  0  0  0
   -2.5270   29.3499   54.5129 N   0  0  0  0  0  0  0  0  0  0  0  0
   -3.7665   28.9192   53.9733 C   0  0  0  0  0  0  0  0  0  0  0  0
   -4.8664   29.8428   53.9099 C   0  0  0  0  0  0  0  0  0  0  0  0
   -4.6419   31.1792   54.4117 C   0  0  0  0  0  0  0  0  0  0  0  0
   -5.6974   32.0461   54.3558 O   0  0  0  0  0  0  0  0  0  0  0  0
   -6.0008   29.1626   53.3288 C   0  0  0  0  0  0  0  0  0  0  0  0
   -5.5385   27.8758   53.0483 C   0  0  0  0  0  0  0  0  0  0  0  0
   -4.2195   27.7384   53.4410 N   0  0  0  0  0  0  0  0  0  0  0  0
   -7.3735   29.7381   53.0402 C   0  0  0  0  0  0  0  0  0  0  0  0
   -7.4422   30.4622   51.7729 N   0  0  0  0  0  0  0  0  0  0  0  0
  1  2  1  0  0  0  0
  1  7  1  0  0  0  0
  2  3  1  0  0  0  0
  2  4  2  0  0  0  0
  4  5  1  0  0  0  0
  5  6  2  0  0  0  0
  5 11  1  0  0  0  0
  6  7  1  0  0  0  0
  6  9  1  0  0  0  0
  7  8  2  0  0  0  0
  9 10  2  0  0  0  0
  9 12  1  0  0  0  0
 10 11  1  0  0  0  0
 12 13  1  0  0  0  0
M  END
>  <CHROM.1>
83.02890700,-4.54523384,30.01266443,53.94920755,0.31047002,-0.40302672,0.28483039

>  <Name>
ligand

>  <RI>
-1

>  <Rbt.Current_Directory>
/home/itssahil/PROJECTS/Mol_Feturizer/Test_systems_manuscript/rnas/4jf2

>  <Rbt.Executable>
rbdock ($Id: //depot/dev/client3/rdock/2013.1/src/exe/rbdock.cxx#4 $)

>  <Rbt.Library>
libRbt.so (2013.1, Build901 2013/11/27)

>  <Rbt.Parameter_File>
/export/apps/rDock/src/rDock_2013.1_src/data/scripts/dock_solv.prm

>  <Rbt.Receptor>
prm/pocket_docking_6.prm

>  <SCORE>
-15.8708

>  <SCORE.INTER>
-15.6797

>  <SCORE.INTER.CONST>
1

>  <SCORE.INTER.POLAR>
0

>  <SCORE.INTER.ROT>
1

>  <SCORE.INTER.SOLV>
16.8586

>  <SCORE.INTER.VDW>
-20.3393

>  <SCORE.INTER.norm>
-1.20613

>  <SCORE.INTRA>
-0.191161

>  <SCORE.INTRA.DIHEDRAL>
-0.182897

>  <SCORE.INTRA.DIHEDRAL.0>
1.75624

>  <SCORE.INTRA.POLAR>
0

>  <SCORE.INTRA.POLAR.0>
0

>  <SCORE.INTRA.REPUL>
0

>  <SCORE.INTRA.REPUL.0>
0

>  <SCORE.INTRA.SOLV>
-0.245451

>  <SCORE.INTRA.SOLV.lig_0>
-46.5296

>  <SCORE.INTRA.VDW>
0.0230132

>  <SCORE.INTRA.VDW.0>
-0.381873

>  <SCORE.INTRA.norm>
-0.0147047

>  <SCORE.RESTR>
0

>  <SCORE.RESTR.CAVITY>
0

>  <SCORE.RESTR.norm>
0

>  <SCORE.SYSTEM>
0

>  <SCORE.SYSTEM.CONST>
0

>  <SCORE.SYSTEM.DIHEDRAL>
0

>  <SCORE.SYSTEM.SOLV>
0

>  <SCORE.SYSTEM.norm>
0

>  <SCORE.heavy>
13

>  <SCORE.norm>
-1.22083

>  <RMSD>
0.801

$$$$
ligand
 OpenBabel02271912143D
libRbt.so/2013.1/901 2013/11/27
 13 14  0  0  0  0  0  0  0  0999 V2000
   -3.4205   31.5422   54.9747 N   0  0  0  0  0  0  0  0  0  0  0  0
   -2.3545   30.6281   54.9922 C   0  0  0  0  0  0  0  0  0  0  0  0
   -1.0783   31.0345   55.5340 N   0  0  0  0  0  0  0  0  0  0  0  0
   -2.5273   29.3517   54.5071 N   0  0  0  0  0  0  0  0  0  0  0  0
   -3.7662   28.9182   53.9685 C   0  0  0  0  0  0  0  0  0  0  0  0
   -4.8713   29.8363   53.9155 C   0  0  0  0  0  0  0  0  0  0  0  0
   -4.6524   31.1702   54.4262 C   0  0  0  0  0  0  0  0  0  0  0  0
   -5.7127   32.0318   54.3800 O   0  0  0  0  0  0  0  0  0  0  0  0
   -6.0041   29.1541   53.3331 C   0  0  0  0  0  0  0  0  0  0  0  0
   -5.5357   27.8719   53.0418 C   0  0  0  0  0  0  0  0  0  0  0  0
   -4.2147   27.7389   53.4291 N   0  0  0  0  0  0  0  0  0  0  0  0
   -7.3808   29.7243   53.0534 C   0  0  0  0  0  0  0  0  0  0  0  0
   -7.4802   30.3839   51.7533 N   0  0  0  0  0  0  0  0  0  0  0  0
  1  2  1  0  0  0  0
  1  7  1  0  0  0  0
  2  3  1  0  0  0  0
  2  4  2  0  0  0  0
  4  5  1  0  0  0  0
  5  6  2  0  0  0  0
  5 11  1  0  0  0  0
  6  7  1  0  0  0  0
  6  9  1  0  0  0  0
  7  8  2  0  0  0  0
  9 10  2  0  0  0  0
  9 12  1  0  0  0  0
 10 11  1  0  0  0  0
 12 13  1  0  0  0  0
M  END
>  <CHROM.1>
86.68771965,-4.55282291,30.00160612,53.95178270,0.32228910,-0.39854247,0.29723081

>  <Name>
ligand

>  <RI>
-1

>  <Rbt.Current_Directory>
/home/itssahil/PROJECTS/Mol_Feturizer/Test_systems_manuscript/rnas/4jf2

>  <Rbt.Executable>
rbdock ($Id: //depot/dev/client3/rdock/2013.1/src/exe/rbdock.cxx#4 $)

>  <Rbt.Library>
libRbt.so (2013.1, Build901 2013/11/27)

>  <Rbt.Parameter_File>
/export/apps/rDock/src/rDock_2013.1_src/data/scripts/dock_solv.prm

>  <Rbt.Receptor>
prm/pocket_docking_7.prm

>  <SCORE>
-15.9076

>  <SCORE.INTER>
-15.6726

>  <SCORE.INTER.CONST>
1

>  <SCORE.INTER.POLAR>
0

>  <SCORE.INTER.ROT>
1

>  <SCORE.INTER.SOLV>
17.024

>  <SCORE.INTER.VDW>
-20.3897

>  <SCORE.INTER.norm>
-1.20558

>  <SCORE.INTRA>
-0.234963

>  <SCORE.INTRA.DIHEDRAL>
-0.187195

>  <SCORE.INTRA.DIHEDRAL.0>
1.75624

>  <SCORE.INTRA.POLAR>
0

>  <SCORE.INTRA.POLAR.0>
0

>  <SCORE.INTRA.REPUL>
0

>  <SCORE.INTRA.REPUL.0>
0

>  <SCORE.INTRA.SOLV>
-0.348949

>  <SCORE.INTRA.SOLV.lig_0>
-46.5296

>  <SCORE.INTRA.VDW>
0.0331095

>  <SCORE.INTRA.VDW.0>
-0.381873

>  <SCORE.INTRA.norm>
-0.018074

>  <SCORE.RESTR>
0

>  <SCORE.RESTR.CAVITY>
0

>  <SCORE.RESTR.norm>
0

>  <SCORE.SYSTEM>
0

>  <SCORE.SYSTEM.CONST>
0

>  <SCORE.SYSTEM.DIHEDRAL>
0

>  <SCORE.SYSTEM.SOLV>
0

>  <SCORE.SYSTEM.norm>
0

>  <SCORE.heavy>
13

>  <SCORE.norm>
-1.22366

>  <RMSD>
0.801

$$$$
ligand
 OpenBabel02271912143D
libRbt.so/2013.1/901 2013/11/27
 13 14  0  0  0  0  0  0  0  0999 V2000
   -3.4147   31.5462   54.9907 N   0  0  0  0  0  0  0  0  0  0  0  0
   -2.3496   30.6311   55.0071 C   0  0  0  0  0  0  0  0  0  0  0  0
   -1.0727   31.0359   55.5484 N   0  0  0  0  0  0  0  0  0  0  0  0
   -2.5240   29.3552   54.5212 N   0  0  0  0  0  0  0  0  0  0  0  0
   -3.7636   28.9233   53.9830 C   0  0  0  0  0  0  0  0  0  0  0  0
   -4.8678   29.8425   53.9311 C   0  0  0  0  0  0  0  0  0  0  0  0
   -4.6472   31.1758   54.4426 C   0  0  0  0  0  0  0  0  0  0  0  0
   -5.7067   32.0385   54.3975 O   0  0  0  0  0  0  0  0  0  0  0  0
   -6.0015   29.1619   53.3489 C   0  0  0  0  0  0  0  0  0  0  0  0
   -5.5346   27.8794   53.0565 C   0  0  0  0  0  0  0  0  0  0  0  0
   -4.2135   27.7447   53.4431 N   0  0  0  0  0  0  0  0  0  0  0  0
   -7.3778   29.7335   53.0702 C   0  0  0  0  0  0  0  0  0  0  0  0
   -7.4822   30.3785   51.7632 N   0  0  0  0  0  0  0  0  0  0  0  0
  1  2  1  0  0  0  0
  1  7  1  0  0  0  0
  2  3  1  0  0  0  0
  2  4  2  0  0  0  0
  4  5  1  0  0  0  0
  5  6  2  0  0  0  0
  5 11  1  0  0  0  0
  6  7  1  0  0  0  0
  6  9  1  0  0  0  0
  7  8  2  0  0  0  0
  9 10  2  0  0  0  0
  9 12  1  0  0  0  0
 10 11  1  0  0  0  0
 12 13  1  0  0  0  0
M  END
>  <CHROM.1>
87.45509991,-4.54949766,30.00620101,53.96675804,0.32262378,-0.39834597,0.29814214

>  <Name>
ligand

>  <RI>
-1

>  <Rbt.Current_Directory>
/home/itssahil/PROJECTS/Mol_Feturizer/Test_systems_manuscript/rnas/4jf2

>  <Rbt.Executable>
rbdock ($Id: //depot/dev/client3/rdock/2013.1/src/exe/rbdock.cxx#4 $)

>  <Rbt.Library>
libRbt.so (2013.1, Build901 2013/11/27)

>  <Rbt.Parameter_File>
/export/apps/rDock/src/rDock_2013.1_src/data/scripts/dock_solv.prm

>  <Rbt.Receptor>
prm/pocket_docking_3.prm

>  <SCORE>
-15.911

>  <SCORE.INTER>
-15.6671

>  <SCORE.INTER.CONST>
1

>  <SCORE.INTER.POLAR>
0

>  <SCORE.INTER.ROT>
1

>  <SCORE.INTER.SOLV>
17.0266

>  <SCORE.INTER.VDW>
-20.3869

>  <SCORE.INTER.norm>
-1.20516

>  <SCORE.INTRA>
-0.243872

>  <SCORE.INTRA.DIHEDRAL>
-0.187584

>  <SCORE.INTRA.DIHEDRAL.0>
1.75624

>  <SCORE.INTRA.POLAR>
0

>  <SCORE.INTRA.POLAR.0>
0

>  <SCORE.INTRA.REPUL>
0

>  <SCORE.INTRA.REPUL.0>
0

>  <SCORE.INTRA.SOLV>
-0.370498

>  <SCORE.INTRA.SOLV.lig_0>
-46.5296

>  <SCORE.INTRA.VDW>
0.0351686

>  <SCORE.INTRA.VDW.0>
-0.381873

>  <SCORE.INTRA.norm>
-0.0187594

>  <SCORE.RESTR>
0

>  <SCORE.RESTR.CAVITY>
0

>  <SCORE.RESTR.norm>
0

>  <SCORE.SYSTEM>
0

>  <SCORE.SYSTEM.CONST>
0

>  <SCORE.SYSTEM.DIHEDRAL>
0

>  <SCORE.SYSTEM.SOLV>
0

>  <SCORE.SYSTEM.norm>
0

>  <SCORE.heavy>
13

>  <SCORE.norm>
-1.22392

>  <RMSD>
0.802

$$$$
ligand
 OpenBabel02271912143D
libRbt.so/2013.1/901 2013/11/27
 13 14  0  0  0  0  0  0  0  0999 V2000
   -3.4152   31.5503   54.9763 N   0  0  0  0  0  0  0  0  0  0  0  0
   -2.3522   30.6329   54.9991 C   0  0  0  0  0  0  0  0  0  0  0  0
   -1.0751   31.0377   55.5399 N   0  0  0  0  0  0  0  0  0  0  0  0
   -2.5289   29.3548   54.5199 N   0  0  0  0  0  0  0  0  0  0  0  0
   -3.7688   28.9227   53.9824 C   0  0  0  0  0  0  0  0  0  0  0  0
   -4.8708   29.8441   53.9241 C   0  0  0  0  0  0  0  0  0  0  0  0
   -4.6479   31.1797   54.4286 C   0  0  0  0  0  0  0  0  0  0  0  0
   -5.7054   32.0445   54.3775 O   0  0  0  0  0  0  0  0  0  0  0  0
   -6.0053   29.1628   53.3442 C   0  0  0  0  0  0  0  0  0  0  0  0
   -5.5409   27.8777   53.0594 C   0  0  0  0  0  0  0  0  0  0  0  0
   -4.2206   27.7422   53.4484 N   0  0  0  0  0  0  0  0  0  0  0  0
   -7.3800   29.7361   53.0606 C   0  0  0  0  0  0  0  0  0  0  0  0
   -7.4800   30.3780   51.7517 N   0  0  0  0  0  0  0  0  0  0  0  0
  1  2  1  0  0  0  0
  1  7  1  0  0  0  0
  2  3  1  0  0  0  0
  2  4  2  0  0  0  0
  4  5  1  0  0  0  0
  5  6  2  0  0  0  0
  5 11  1  0  0  0  0
  6  7  1  0  0  0  0
  6  9  1  0  0  0  0
  7  8  2  0  0  0  0
  9 10  2  0  0  0  0
  9 12  1  0  0  0  0
 10 11  1  0  0  0  0
 12 13  1  0  0  0  0
M  END
>  <CHROM.1>
87.26650223,-4.55210381,30.00758699,53.95946983,0.32032361,-0.40023765,0.29178288

>  <Name>
ligand

>  <RI>
-1

>  <Rbt.Current_Directory>
/home/itssahil/PROJECTS/Mol_Feturizer/Test_systems_manuscript/rnas/4jf2

>  <Rbt.Executable>
rbdock ($Id: //depot/dev/client3/rdock/2013.1/src/exe/rbdock.cxx#4 $)

>  <Rbt.Library>
libRbt.so (2013.1, Build901 2013/11/27)

>  <Rbt.Parameter_File>
/export/apps/rDock/src/rDock_2013.1_src/data/scripts/dock_solv.prm

>  <Rbt.Receptor>
prm/pocket_docking_3.prm

>  <SCORE>
-15.9103

>  <SCORE.INTER>
-15.6686

>  <SCORE.INTER.CONST>
1

>  <SCORE.INTER.POLAR>
0

>  <SCORE.INTER.ROT>
1

>  <SCORE.INTER.SOLV>
17.0307

>  <SCORE.INTER.VDW>
-20.3893

>  <SCORE.INTER.norm>
-1.20528

>  <SCORE.INTRA>
-0.241692

>  <SCORE.INTRA.DIHEDRAL>
-0.187505

>  <SCORE.INTRA.DIHEDRAL.0>
1.75624

>  <SCORE.INTRA.POLAR>
0

>  <SCORE.INTRA.POLAR.0>
0

>  <SCORE.INTRA.REPUL>
0

>  <SCORE.INTRA.REPUL.0>
0

>  <SCORE.INTRA.SOLV>
-0.365207

>  <SCORE.INTRA.SOLV.lig_0>
-46.5296

>  <SCORE.INTRA.VDW>
0.0346646

>  <SCORE.INTRA.VDW.0>
-0.381873

>  <SCORE.INTRA.norm>
-0.0185917

>  <SCORE.RESTR>
0

>  <SCORE.RESTR.CAVITY>
0

>  <SCORE.RESTR.norm>
0

>  <SCORE.SYSTEM>
0

>  <SCORE.SYSTEM.CONST>
0

>  <SCORE.SYSTEM.DIHEDRAL>
0

>  <SCORE.SYSTEM.SOLV>
0

>  <SCORE.SYSTEM.norm>
0

>  <SCORE.heavy>
13

>  <SCORE.norm>
-1.22387

>  <RMSD>
0.802

$$$$
ligand
 OpenBabel02271912143D
libRbt.so/2013.1/901 2013/11/27
 13 14  0  0  0  0  0  0  0  0999 V2000
   -3.4242   31.5592   54.9806 N   0  0  0  0  0  0  0  0  0  0  0  0
   -2.3563   30.6474   54.9926 C   0  0  0  0  0  0  0  0  0  0  0  0
   -1.0818   31.0524   55.5394 N   0  0  0  0  0  0  0  0  0  0  0  0
   -2.5256   29.3744   54.4974 N   0  0  0  0  0  0  0  0  0  0  0  0
   -3.7628   28.9424   53.9536 C   0  0  0  0  0  0  0  0  0  0  0  0
   -4.8698   29.8584   53.9061 C   0  0  0  0  0  0  0  0  0  0  0  0
   -4.6545   31.1888   54.4274 C   0  0  0  0  0  0  0  0  0  0  0  0
   -5.7167   32.0484   54.3864 O   0  0  0  0  0  0  0  0  0  0  0  0
   -6.0002   29.1783   53.3169 C   0  0  0  0  0  0  0  0  0  0  0  0
   -5.5286   27.8994   53.0163 C   0  0  0  0  0  0  0  0  0  0  0  0
   -4.2078   27.7662   53.4045 N   0  0  0  0  0  0  0  0  0  0  0  0
   -7.3778   29.7475   53.0395 C   0  0  0  0  0  0  0  0  0  0  0  0
   -7.4853   30.3899   51.7315 N   0  0  0  0  0  0  0  0  0  0  0  0
  1  2  1  0  0  0  0
  1  7  1  0  0  0  0
  2  3  1  0  0  0  0
  2  4  2  0  0  0  0
  4  5  1  0  0  0  0
  5  6  2  0  0  0  0
  5 11  1  0  0  0  0
  6  7  1  0  0  0  0
  6  9  1  0  0  0  0
  7  8  2  0  0  0  0
  9 10  2  0  0  0  0
  9 12  1  0  0  0  0
 10 11  1  0  0  0  0
 12 13  1  0  0  0  0
M  END
>  <CHROM.1>
88.01942012,-4.55241120,30.02191238,53.94310521,0.32771571,-0.39925348,0.30729822

>  <Name>
ligand

>  <RI>
-1

>  <Rbt.Current_Directory>
/home/itssahil/PROJECTS/Mol_Feturizer/Test_systems_manuscript/rnas/4jf2

>  <Rbt.Executable>
rbdock ($Id: //depot/dev/client3/rdock/2013.1/src/exe/rbdock.cxx#4 $)

>  <Rbt.Library>
libRbt.so (2013.1, Build901 2013/11/27)

>  <Rbt.Parameter_File>
/export/apps/rDock/src/rDock_2013.1_src/data/scripts/dock_solv.prm

>  <Rbt.Receptor>
prm/pocket_docking_4.prm

>  <SCORE>
-15.8804

>  <SCORE.INTER>
-15.63

>  <SCORE.INTER.CONST>
1

>  <SCORE.INTER.POLAR>
0

>  <SCORE.INTER.ROT>
1

>  <SCORE.INTER.SOLV>
17.0223

>  <SCORE.INTER.VDW>
-20.3608

>  <SCORE.INTER.norm>
-1.20231

>  <SCORE.INTRA>
-0.250361

>  <SCORE.INTRA.DIHEDRAL>
-0.187756

>  <SCORE.INTRA.DIHEDRAL.0>
1.75624

>  <SCORE.INTRA.POLAR>
0

>  <SCORE.INTRA.POLAR.0>
0

>  <SCORE.INTRA.REPUL>
0

>  <SCORE.INTRA.REPUL.0>
0

>  <SCORE.INTRA.SOLV>
-0.386305

>  <SCORE.INTRA.SOLV.lig_0>
-46.5296

>  <SCORE.INTRA.VDW>
0.0366688

>  <SCORE.INTRA.VDW.0>
-0.381873

>  <SCORE.INTRA.norm>
-0.0192586

>  <SCORE.RESTR>
0

>  <SCORE.RESTR.CAVITY>
0

>  <SCORE.RESTR.norm>
0

>  <SCORE.SYSTEM>
0

>  <SCORE.SYSTEM.CONST>
0

>  <SCORE.SYSTEM.DIHEDRAL>
0

>  <SCORE.SYSTEM.SOLV>
0

>  <SCORE.SYSTEM.norm>
0

>  <SCORE.heavy>
13

>  <SCORE.norm>
-1.22157

>  <RMSD>
0.802

$$$$
ligand
 OpenBabel02271912143D
libRbt.so/2013.1/901 2013/11/27
 13 14  0  0  0  0  0  0  0  0999 V2000
   -3.4231   31.5580   54.9773 N   0  0  0  0  0  0  0  0  0  0  0  0
   -2.3553   30.6459   54.9896 C   0  0  0  0  0  0  0  0  0  0  0  0
   -1.0803   31.0514   55.5347 N   0  0  0  0  0  0  0  0  0  0  0  0
   -2.5254   29.3724   54.4962 N   0  0  0  0  0  0  0  0  0  0  0  0
   -3.7631   28.9399   53.9540 C   0  0  0  0  0  0  0  0  0  0  0  0
   -4.8700   29.8561   53.9063 C   0  0  0  0  0  0  0  0  0  0  0  0
   -4.6540   31.1871   54.4257 C   0  0  0  0  0  0  0  0  0  0  0  0
   -5.7160   32.0468   54.3845 O   0  0  0  0  0  0  0  0  0  0  0  0
   -6.0010   29.1754   53.3189 C   0  0  0  0  0  0  0  0  0  0  0  0
   -5.5300   27.8961   53.0196 C   0  0  0  0  0  0  0  0  0  0  0  0
   -4.2089   27.7631   53.4068 N   0  0  0  0  0  0  0  0  0  0  0  0
   -7.3787   29.7446   53.0420 C   0  0  0  0  0  0  0  0  0  0  0  0
   -7.4850   30.3924   51.7366 N   0  0  0  0  0  0  0  0  0  0  0  0
  1  2  1  0  0  0  0
  1  7  1  0  0  0  0
  2  3  1  0  0  0  0
  2  4  2  0  0  0  0
  4  5  1  0  0  0  0
  5  6  2  0  0  0  0
  5 11  1  0  0  0  0
  6  7  1  0  0  0  0
  6  9  1  0  0  0  0
  7  8  2  0  0  0  0
  9 10  2  0  0  0  0
  9 12  1  0  0  0  0
 10 11  1  0  0  0  0
 12 13  1  0  0  0  0
M  END
>  <CHROM.1>
87.67084588,-4.55235862,30.02015902,53.94308277,0.32650643,-0.39848808,0.30548554

>  <Name>
ligand

>  <RI>
-1

>  <Rbt.Current_Directory>
/home/itssahil/PROJECTS/Mol_Feturizer/Test_systems_manuscript/rnas/4jf2

>  <Rbt.Executable>
rbdock ($Id: //depot/dev/client3/rdock/2013.1/src/exe/rbdock.cxx#4 $)

>  <Rbt.Library>
libRbt.so (2013.1, Build901 2013/11/27)

>  <Rbt.Parameter_File>
/export/apps/rDock/src/rDock_2013.1_src/data/scripts/dock_solv.prm

>  <Rbt.Receptor>
prm/pocket_docking_4.prm

>  <SCORE>
-15.8798

>  <SCORE.INTER>
-15.6335

>  <SCORE.INTER.CONST>
1

>  <SCORE.INTER.POLAR>
0

>  <SCORE.INTER.ROT>
1

>  <SCORE.INTER.SOLV>
17.0251

>  <SCORE.INTER.VDW>
-20.364

>  <SCORE.INTER.norm>
-1.20258

>  <SCORE.INTRA>
-0.24636

>  <SCORE.INTRA.DIHEDRAL>
-0.187661

>  <SCORE.INTRA.DIHEDRAL.0>
1.75624

>  <SCORE.INTRA.POLAR>
0

>  <SCORE.INTRA.POLAR.0>
0

>  <SCORE.INTRA.REPUL>
0

>  <SCORE.INTRA.REPUL.0>
0

>  <SCORE.INTRA.SOLV>
-0.376545

>  <SCORE.INTRA.SOLV.lig_0>
-46.5296

>  <SCORE.INTRA.VDW>
0.0357435

>  <SCORE.INTRA.VDW.0>
-0.381873

>  <SCORE.INTRA.norm>
-0.0189507

>  <SCORE.RESTR>
0

>  <SCORE.RESTR.CAVITY>
0

>  <SCORE.RESTR.norm>
0

>  <SCORE.SYSTEM>
0

>  <SCORE.SYSTEM.CONST>
0

>  <SCORE.SYSTEM.DIHEDRAL>
0

>  <SCORE.SYSTEM.SOLV>
0

>  <SCORE.SYSTEM.norm>
0

>  <SCORE.heavy>
13

>  <SCORE.norm>
-1.22153

>  <RMSD>
0.802

$$$$
ligand
 OpenBabel02271912143D
libRbt.so/2013.1/901 2013/11/27
 13 14  0  0  0  0  0  0  0  0999 V2000
   -3.4106   31.5367   54.9695 N   0  0  0  0  0  0  0  0  0  0  0  0
   -2.3456   30.6213   54.9821 C   0  0  0  0  0  0  0  0  0  0  0  0
   -1.0672   31.0254   55.5204 N   0  0  0  0  0  0  0  0  0  0  0  0
   -2.5215   29.3459   54.4955 N   0  0  0  0  0  0  0  0  0  0  0  0
   -3.7626   28.9147   53.9602 C   0  0  0  0  0  0  0  0  0  0  0  0
   -4.8668   29.8341   53.9122 C   0  0  0  0  0  0  0  0  0  0  0  0
   -4.6447   31.1670   54.4244 C   0  0  0  0  0  0  0  0  0  0  0  0
   -5.7042   32.0298   54.3831 O   0  0  0  0  0  0  0  0  0  0  0  0
   -6.0022   29.1542   53.3324 C   0  0  0  0  0  0  0  0  0  0  0  0
   -5.5363   27.8720   53.0375 C   0  0  0  0  0  0  0  0  0  0  0  0
   -4.2142   27.7368   53.4203 N   0  0  0  0  0  0  0  0  0  0  0  0
   -7.3792   29.7264   53.0580 C   0  0  0  0  0  0  0  0  0  0  0  0
   -7.4914   30.3591   51.7457 N   0  0  0  0  0  0  0  0  0  0  0  0
  1  2  1  0  0  0  0
  1  7  1  0  0  0  0
  2  3  1  0  0  0  0
  2  4  2  0  0  0  0
  4  5  1  0  0  0  0
  5  6  2  0  0  0  0
  5 11  1  0  0  0  0
  6  7  1  0  0  0  0
  6  9  1  0  0  0  0
  7  8  2  0  0  0  0
  9 10  2  0  0  0  0
  9 12  1  0  0  0  0
 10 11  1  0  0  0  0
 12 13  1  0  0  0  0
M  END
>  <CHROM.1>
88.12100219,-4.54879777,29.99666890,53.94665480,0.32295316,-0.39576809,0.29938048

>  <Name>
ligand

>  <RI>
-1

>  <Rbt.Current_Directory>
/home/itssahil/PROJECTS/Mol_Feturizer/Test_systems_manuscript/rnas/4jf2

>  <Rbt.Executable>
rbdock ($Id: //depot/dev/client3/rdock/2013.1/src/exe/rbdock.cxx#4 $)

>  <Rbt.Library>
libRbt.so (2013.1, Build901 2013/11/27)

>  <Rbt.Parameter_File>
/export/apps/rDock/src/rDock_2013.1_src/data/scripts/dock_solv.prm

>  <Rbt.Receptor>
prm/pocket_docking_6.prm

>  <SCORE>
-15.897

>  <SCORE.INTER>
-15.6454

>  <SCORE.INTER.CONST>
1

>  <SCORE.INTER.POLAR>
0

>  <SCORE.INTER.ROT>
1

>  <SCORE.INTER.SOLV>
17.0832

>  <SCORE.INTER.VDW>
-20.3914

>  <SCORE.INTER.norm>
-1.20349

>  <SCORE.INTRA>
-0.251524

>  <SCORE.INTRA.DIHEDRAL>
-0.187776

>  <SCORE.INTRA.DIHEDRAL.0>
1.75624

>  <SCORE.INTRA.POLAR>
0

>  <SCORE.INTRA.POLAR.0>
0

>  <SCORE.INTRA.REPUL>
0

>  <SCORE.INTRA.REPUL.0>
0

>  <SCORE.INTRA.SOLV>
-0.389147

>  <SCORE.INTRA.SOLV.lig_0>
-46.5296

>  <SCORE.INTRA.VDW>
0.0369375

>  <SCORE.INTRA.VDW.0>
-0.381873

>  <SCORE.INTRA.norm>
-0.019348

>  <SCORE.RESTR>
0

>  <SCORE.RESTR.CAVITY>
0

>  <SCORE.RESTR.norm>
0

>  <SCORE.SYSTEM>
0

>  <SCORE.SYSTEM.CONST>
0

>  <SCORE.SYSTEM.DIHEDRAL>
0

>  <SCORE.SYSTEM.SOLV>
0

>  <SCORE.SYSTEM.norm>
0

>  <SCORE.heavy>
13

>  <SCORE.norm>
-1.22284

>  <RMSD>
0.802

$$$$
ligand
 OpenBabel02271912143D
libRbt.so/2013.1/901 2013/11/27
 13 14  0  0  0  0  0  0  0  0999 V2000
   -3.4143   31.5437   54.9725 N   0  0  0  0  0  0  0  0  0  0  0  0
   -2.3500   30.6275   54.9903 C   0  0  0  0  0  0  0  0  0  0  0  0
   -1.0725   31.0322   55.5303 N   0  0  0  0  0  0  0  0  0  0  0  0
   -2.5259   29.3509   54.5071 N   0  0  0  0  0  0  0  0  0  0  0  0
   -3.7661   28.9191   53.9703 C   0  0  0  0  0  0  0  0  0  0  0  0
   -4.8695   29.8392   53.9170 C   0  0  0  0  0  0  0  0  0  0  0  0
   -4.6474   31.1734   54.4257 C   0  0  0  0  0  0  0  0  0  0  0  0
   -5.7061   32.0370   54.3795 O   0  0  0  0  0  0  0  0  0  0  0  0
   -6.0041   29.1585   53.3368 C   0  0  0  0  0  0  0  0  0  0  0  0
   -5.5386   27.8750   53.0467 C   0  0  0  0  0  0  0  0  0  0  0  0
   -4.2174   27.7399   53.4329 N   0  0  0  0  0  0  0  0  0  0  0  0
   -7.3800   29.7309   53.0575 C   0  0  0  0  0  0  0  0  0  0  0  0
   -7.4850   30.3713   51.7483 N   0  0  0  0  0  0  0  0  0  0  0  0
  1  2  1  0  0  0  0
  1  7  1  0  0  0  0
  2  3  1  0  0  0  0
  2  4  2  0  0  0  0
  4  5  1  0  0  0  0
  5  6  2  0  0  0  0
  5 11  1  0  0  0  0
  6  7  1  0  0  0  0
  6  9  1  0  0  0  0
  7  8  2  0  0  0  0
  9 10  2  0  0  0  0
  9 12  1  0  0  0  0
 10 11  1  0  0  0  0
 12 13  1  0  0  0  0
M  END
>  <CHROM.1>
87.55714015,-4.55106587,30.00253431,53.95216703,0.32169641,-0.39818998,0.29580401

>  <Name>
ligand

>  <RI>
-1

>  <Rbt.Current_Directory>
/home/itssahil/PROJECTS/Mol_Feturizer/Test_systems_manuscript/rnas/4jf2

>  <Rbt.Executable>
rbdock ($Id: //depot/dev/client3/rdock/2013.1/src/exe/rbdock.cxx#4 $)

>  <Rbt.Library>
libRbt.so (2013.1, Build901 2013/11/27)

>  <Rbt.Parameter_File>
/export/apps/rDock/src/rDock_2013.1_src/data/scripts/dock_solv.prm

>  <Rbt.Receptor>
prm/pocket_docking_6.prm

>  <SCORE>
-15.9071

>  <SCORE.INTER>
-15.6621

>  <SCORE.INTER.CONST>
1

>  <SCORE.INTER.POLAR>
0

>  <SCORE.INTER.ROT>
1

>  <SCORE.INTER.SOLV>
17.0515

>  <SCORE.INTER.VDW>
-20.3919

>  <SCORE.INTER.norm>
-1.20478

>  <SCORE.INTRA>
-0.24505

>  <SCORE.INTRA.DIHEDRAL>
-0.187622

>  <SCORE.INTRA.DIHEDRAL.0>
1.75624

>  <SCORE.INTRA.POLAR>
0

>  <SCORE.INTRA.POLAR.0>
0

>  <SCORE.INTRA.REPUL>
0

>  <SCORE.INTRA.REPUL.0>
0

>  <SCORE.INTRA.SOLV>
-0.373359

>  <SCORE.INTRA.SOLV.lig_0>
-46.5296

>  <SCORE.INTRA.VDW>
0.0354407

>  <SCORE.INTRA.VDW.0>
-0.381873

>  <SCORE.INTRA.norm>
-0.01885

>  <SCORE.RESTR>
0

>  <SCORE.RESTR.CAVITY>
0

>  <SCORE.RESTR.norm>
0

>  <SCORE.SYSTEM>
0

>  <SCORE.SYSTEM.CONST>
0

>  <SCORE.SYSTEM.DIHEDRAL>
0

>  <SCORE.SYSTEM.SOLV>
0

>  <SCORE.SYSTEM.norm>
0

>  <SCORE.heavy>
13

>  <SCORE.norm>
-1.22363

>  <RMSD>
0.802

$$$$
ligand
 OpenBabel02271912143D
libRbt.so/2013.1/901 2013/11/27
 13 14  0  0  0  0  0  0  0  0999 V2000
   -3.4153   31.5450   54.9743 N   0  0  0  0  0  0  0  0  0  0  0  0
   -2.3504   30.6296   54.9918 C   0  0  0  0  0  0  0  0  0  0  0  0
   -1.0730   31.0353   55.5312 N   0  0  0  0  0  0  0  0  0  0  0  0
   -2.5255   29.3527   54.5089 N   0  0  0  0  0  0  0  0  0  0  0  0
   -3.7657   28.9199   53.9726 C   0  0  0  0  0  0  0  0  0  0  0  0
   -4.8697   29.8392   53.9197 C   0  0  0  0  0  0  0  0  0  0  0  0
   -4.6484   31.1737   54.4280 C   0  0  0  0  0  0  0  0  0  0  0  0
   -5.7078   32.0365   54.3820 O   0  0  0  0  0  0  0  0  0  0  0  0
   -6.0041   29.1576   53.3400 C   0  0  0  0  0  0  0  0  0  0  0  0
   -5.5377   27.8744   53.0500 C   0  0  0  0  0  0  0  0  0  0  0  0
   -4.2163   27.7403   53.4357 N   0  0  0  0  0  0  0  0  0  0  0  0
   -7.3805   29.7290   53.0612 C   0  0  0  0  0  0  0  0  0  0  0  0
   -7.4872   30.3668   51.7509 N   0  0  0  0  0  0  0  0  0  0  0  0
  1  2  1  0  0  0  0
  1  7  1  0  0  0  0
  2  3  1  0  0  0  0
  2  4  2  0  0  0  0
  4  5  1  0  0  0  0
  5  6  2  0  0  0  0
  5 11  1  0  0  0  0
  6  7  1  0  0  0  0
  6  9  1  0  0  0  0
  7  8  2  0  0  0  0
  9 10  2  0  0  0  0
  9 12  1  0  0  0  0
 10 11  1  0  0  0  0
 12 13  1  0  0  0  0
M  END
>  <CHROM.1>
87.66686734,-4.55147549,30.00261385,53.95455597,0.32254983,-0.39758478,0.29596764

>  <Name>
ligand

>  <RI>
-1

>  <Rbt.Current_Directory>
/home/itssahil/PROJECTS/Mol_Feturizer/Test_systems_manuscript/rnas/4jf2

>  <Rbt.Executable>
rbdock ($Id: //depot/dev/client3/rdock/2013.1/src/exe/rbdock.cxx#4 $)

>  <Rbt.Library>
libRbt.so (2013.1, Build901 2013/11/27)

>  <Rbt.Parameter_File>
/export/apps/rDock/src/rDock_2013.1_src/data/scripts/dock_solv.prm

>  <Rbt.Receptor>
prm/pocket_docking_6.prm

>  <SCORE>
-15.9072

>  <SCORE.INTER>
-15.6609

>  <SCORE.INTER.CONST>
1

>  <SCORE.INTER.POLAR>
0

>  <SCORE.INTER.ROT>
1

>  <SCORE.INTER.SOLV>
17.0645

>  <SCORE.INTER.VDW>
-20.3954

>  <SCORE.INTER.norm>
-1.20468

>  <SCORE.INTRA>
-0.246314

>  <SCORE.INTRA.DIHEDRAL>
-0.18766

>  <SCORE.INTRA.DIHEDRAL.0>
1.75624

>  <SCORE.INTRA.POLAR>
0

>  <SCORE.INTRA.POLAR.0>
0

>  <SCORE.INTRA.REPUL>
0

>  <SCORE.INTRA.REPUL.0>
0

>  <SCORE.INTRA.SOLV>
-0.376434

>  <SCORE.INTRA.SOLV.lig_0>
-46.5296

>  <SCORE.INTRA.VDW>
0.035733

>  <SCORE.INTRA.VDW.0>
-0.381873

>  <SCORE.INTRA.norm>
-0.0189472

>  <SCORE.RESTR>
0

>  <SCORE.RESTR.CAVITY>
0

>  <SCORE.RESTR.norm>
0

>  <SCORE.SYSTEM>
0

>  <SCORE.SYSTEM.CONST>
0

>  <SCORE.SYSTEM.DIHEDRAL>
0

>  <SCORE.SYSTEM.SOLV>
0

>  <SCORE.SYSTEM.norm>
0

>  <SCORE.heavy>
13

>  <SCORE.norm>
-1.22363

>  <RMSD>
0.802

$$$$
ligand
 OpenBabel02271912143D
libRbt.so/2013.1/901 2013/11/27
 13 14  0  0  0  0  0  0  0  0999 V2000
   -3.4196   31.5549   54.9872 N   0  0  0  0  0  0  0  0  0  0  0  0
   -2.3532   30.6413   54.9983 C   0  0  0  0  0  0  0  0  0  0  0  0
   -1.0797   31.0417   55.5509 N   0  0  0  0  0  0  0  0  0  0  0  0
   -2.5230   29.3709   54.4968 N   0  0  0  0  0  0  0  0  0  0  0  0
   -3.7592   28.9433   53.9473 C   0  0  0  0  0  0  0  0  0  0  0  0
   -4.8646   29.8613   53.9005 C   0  0  0  0  0  0  0  0  0  0  0  0
   -4.6488   31.1890   54.4285 C   0  0  0  0  0  0  0  0  0  0  0  0
   -5.7094   32.0505   54.3881 O   0  0  0  0  0  0  0  0  0  0  0  0
   -5.9942   29.1858   53.3047 C   0  0  0  0  0  0  0  0  0  0  0  0
   -5.5238   27.9075   52.9997 C   0  0  0  0  0  0  0  0  0  0  0  0
   -4.2044   27.7704   53.3914 N   0  0  0  0  0  0  0  0  0  0  0  0
   -7.3700   29.7585   53.0256 C   0  0  0  0  0  0  0  0  0  0  0  0
   -7.4538   30.4665   51.7501 N   0  0  0  0  0  0  0  0  0  0  0  0
  1  2  1  0  0  0  0
  1  7  1  0  0  0  0
  2  3  1  0  0  0  0
  2  4  2  0  0  0  0
  4  5  1  0  0  0  0
  5  6  2  0  0  0  0
  5 11  1  0  0  0  0
  6  7  1  0  0  0  0
  6  9  1  0  0  0  0
  7  8  2  0  0  0  0
  9 10  2  0  0  0  0
  9 12  1  0  0  0  0
 10 11  1  0  0  0  0
 12 13  1  0  0  0  0
M  END
>  <CHROM.1>
85.06453899,-4.54552302,30.02902381,53.94165321,0.32114820,-0.40266724,0.30880338

>  <Name>
ligand

>  <RI>
-1

>  <Rbt.Current_Directory>
/home/itssahil/PROJECTS/Mol_Feturizer/Test_systems_manuscript/rnas/4jf2

>  <Rbt.Executable>
rbdock ($Id: //depot/dev/client3/rdock/2013.1/src/exe/rbdock.cxx#4 $)

>  <Rbt.Library>
libRbt.so (2013.1, Build901 2013/11/27)

>  <Rbt.Parameter_File>
/export/apps/rDock/src/rDock_2013.1_src/data/scripts/dock_solv.prm

>  <Rbt.Receptor>
prm/pocket_docking_6.prm

>  <SCORE>
-15.8896

>  <SCORE.INTER>
-15.6738

>  <SCORE.INTER.CONST>
1

>  <SCORE.INTER.POLAR>
0

>  <SCORE.INTER.ROT>
1

>  <SCORE.INTER.SOLV>
16.8432

>  <SCORE.INTER.VDW>
-20.3303

>  <SCORE.INTER.norm>
-1.20568

>  <SCORE.INTRA>
-0.215796

>  <SCORE.INTRA.DIHEDRAL>
-0.185783

>  <SCORE.INTRA.DIHEDRAL.0>
1.75624

>  <SCORE.INTRA.POLAR>
0

>  <SCORE.INTRA.POLAR.0>
0

>  <SCORE.INTRA.REPUL>
0

>  <SCORE.INTRA.REPUL.0>
0

>  <SCORE.INTRA.SOLV>
-0.303178

>  <SCORE.INTRA.SOLV.lig_0>
-46.5296

>  <SCORE.INTRA.VDW>
0.0286843

>  <SCORE.INTRA.VDW.0>
-0.381873

>  <SCORE.INTRA.norm>
-0.0165997

>  <SCORE.RESTR>
0

>  <SCORE.RESTR.CAVITY>
0

>  <SCORE.RESTR.norm>
0

>  <SCORE.SYSTEM>
0

>  <SCORE.SYSTEM.CONST>
0

>  <SCORE.SYSTEM.DIHEDRAL>
0

>  <SCORE.SYSTEM.SOLV>
0

>  <SCORE.SYSTEM.norm>
0

>  <SCORE.heavy>
13

>  <SCORE.norm>
-1.22228

>  <RMSD>
0.802

$$$$
ligand
 OpenBabel02271912143D
libRbt.so/2013.1/901 2013/11/27
 13 14  0  0  0  0  0  0  0  0999 V2000
   -3.4739   31.5345   54.9688 N   0  0  0  0  0  0  0  0  0  0  0  0
   -2.4115   30.6168   55.0059 C   0  0  0  0  0  0  0  0  0  0  0  0
   -1.1440   31.0190   55.5710 N   0  0  0  0  0  0  0  0  0  0  0  0
   -2.5797   29.3410   54.5178 N   0  0  0  0  0  0  0  0  0  0  0  0
   -3.8100   28.9117   53.9565 C   0  0  0  0  0  0  0  0  0  0  0  0
   -4.9108   29.8334   53.8832 C   0  0  0  0  0  0  0  0  0  0  0  0
   -4.6968   31.1667   54.3979 C   0  0  0  0  0  0  0  0  0  0  0  0
   -5.7532   32.0318   54.3323 O   0  0  0  0  0  0  0  0  0  0  0  0
   -6.0350   29.1551   53.2803 C   0  0  0  0  0  0  0  0  0  0  0  0
   -5.5658   27.8713   52.9976 C   0  0  0  0  0  0  0  0  0  0  0  0
   -4.2525   27.7338   53.4091 N   0  0  0  0  0  0  0  0  0  0  0  0
   -7.4044   29.7299   52.9753 C   0  0  0  0  0  0  0  0  0  0  0  0
   -7.4837   30.3707   51.6645 N   0  0  0  0  0  0  0  0  0  0  0  0
  1  2  1  0  0  0  0
  1  7  1  0  0  0  0
  2  3  1  0  0  0  0
  2  4  2  0  0  0  0
  4  5  1  0  0  0  0
  5  6  2  0  0  0  0
  5 11  1  0  0  0  0
  6  7  1  0  0  0  0
  6  9  1  0  0  0  0
  7  8  2  0  0  0  0
  9 10  2  0  0  0  0
  9 12  1  0  0  0  0
 10 11  1  0  0  0  0
 12 13  1  0  0  0  0
M  END
>  <CHROM.1>
87.62156583,-4.59297037,29.99616054,53.92465583,0.32650446,-0.41705552,0.29899955

>  <Name>
ligand

>  <RI>
-1

>  <Rbt.Current_Directory>
/home/itssahil/PROJECTS/Mol_Feturizer/Test_systems_manuscript/rnas/4jf2

>  <Rbt.Executable>
rbdock ($Id: //depot/dev/client3/rdock/2013.1/src/exe/rbdock.cxx#4 $)

>  <Rbt.Library>
libRbt.so (2013.1, Build901 2013/11/27)

>  <Rbt.Parameter_File>
/export/apps/rDock/src/rDock_2013.1_src/data/scripts/dock_solv.prm

>  <Rbt.Receptor>
prm/pocket_docking_7.prm

>  <SCORE>
-15.8773

>  <SCORE.INTER>
-15.6315

>  <SCORE.INTER.CONST>
1

>  <SCORE.INTER.POLAR>
0

>  <SCORE.INTER.ROT>
1

>  <SCORE.INTER.SOLV>
16.9282

>  <SCORE.INTER.VDW>
-20.3304

>  <SCORE.INTER.norm>
-1.20242

>  <SCORE.INTRA>
-0.245792

>  <SCORE.INTRA.DIHEDRAL>
-0.187645

>  <SCORE.INTRA.DIHEDRAL.0>
1.75624

>  <SCORE.INTRA.POLAR>
0

>  <SCORE.INTRA.POLAR.0>
0

>  <SCORE.INTRA.REPUL>
0

>  <SCORE.INTRA.REPUL.0>
0

>  <SCORE.INTRA.SOLV>
-0.375164

>  <SCORE.INTRA.SOLV.lig_0>
-46.5296

>  <SCORE.INTRA.VDW>
0.0356124

>  <SCORE.INTRA.VDW.0>
-0.381873

>  <SCORE.INTRA.norm>
-0.0189071

>  <SCORE.RESTR>
0

>  <SCORE.RESTR.CAVITY>
0

>  <SCORE.RESTR.norm>
0

>  <SCORE.SYSTEM>
0

>  <SCORE.SYSTEM.CONST>
0

>  <SCORE.SYSTEM.DIHEDRAL>
0

>  <SCORE.SYSTEM.SOLV>
0

>  <SCORE.SYSTEM.norm>
0

>  <SCORE.heavy>
13

>  <SCORE.norm>
-1.22133

>  <RMSD>
0.802

$$$$
ligand
 OpenBabel02271912143D
libRbt.so/2013.1/901 2013/11/27
 13 14  0  0  0  0  0  0  0  0999 V2000
   -3.4229   31.5479   54.9731 N   0  0  0  0  0  0  0  0  0  0  0  0
   -2.3581   30.6325   54.9961 C   0  0  0  0  0  0  0  0  0  0  0  0
   -1.0827   31.0391   55.5395 N   0  0  0  0  0  0  0  0  0  0  0  0
   -2.5314   29.3548   54.5147 N   0  0  0  0  0  0  0  0  0  0  0  0
   -3.7696   28.9211   53.9746 C   0  0  0  0  0  0  0  0  0  0  0  0
   -4.8734   29.8403   53.9160 C   0  0  0  0  0  0  0  0  0  0  0  0
   -4.6540   31.1756   54.4229 C   0  0  0  0  0  0  0  0  0  0  0  0
   -5.7132   32.0384   54.3715 O   0  0  0  0  0  0  0  0  0  0  0  0
   -6.0056   29.1577   53.3332 C   0  0  0  0  0  0  0  0  0  0  0  0
   -5.5382   27.8740   53.0472 C   0  0  0  0  0  0  0  0  0  0  0  0
   -4.2182   27.7405   53.4380 N   0  0  0  0  0  0  0  0  0  0  0  0
   -7.3810   29.7286   53.0484 C   0  0  0  0  0  0  0  0  0  0  0  0
   -7.4762   30.3851   51.7464 N   0  0  0  0  0  0  0  0  0  0  0  0
  1  2  1  0  0  0  0
  1  7  1  0  0  0  0
  2  3  1  0  0  0  0
  2  4  2  0  0  0  0
  4  5  1  0  0  0  0
  5  6  2  0  0  0  0
  5 11  1  0  0  0  0
  6  7  1  0  0  0  0
  6  9  1  0  0  0  0
  7  8  2  0  0  0  0
  9 10  2  0  0  0  0
  9 12  1  0  0  0  0
 10 11  1  0  0  0  0
 12 13  1  0  0  0  0
M  END
>  <CHROM.1>
86.63984948,-4.55476095,30.00545910,53.95257280,0.32164786,-0.40114869,0.29373053

>  <Name>
ligand

>  <RI>
0

>  <Rbt.Current_Directory>
/home/itssahil/PROJECTS/Mol_Feturizer/Test_systems_manuscript/rnas/4jf2

>  <Rbt.Executable>
rbdock ($Id: //depot/dev/client3/rdock/2013.1/src/exe/rbdock.cxx#4 $)

>  <Rbt.Library>
libRbt.so (2013.1, Build901 2013/11/27)

>  <Rbt.Parameter_File>
/export/apps/rDock/src/rDock_2013.1_src/data/scripts/dock_solv.prm

>  <Rbt.Receptor>
prm/pocket_docking_8.prm

>  <SCORE>
-15.9102

>  <SCORE.INTER>
-15.6758

>  <SCORE.INTER.CONST>
1

>  <SCORE.INTER.POLAR>
0

>  <SCORE.INTER.ROT>
1

>  <SCORE.INTER.SOLV>
17.0121

>  <SCORE.INTER.VDW>
-20.3879

>  <SCORE.INTER.norm>
-1.20583

>  <SCORE.INTRA>
-0.234404

>  <SCORE.INTRA.DIHEDRAL>
-0.187165

>  <SCORE.INTRA.DIHEDRAL.0>
1.75624

>  <SCORE.INTRA.POLAR>
0

>  <SCORE.INTRA.POLAR.0>
0

>  <SCORE.INTRA.REPUL>
0

>  <SCORE.INTRA.REPUL.0>
0

>  <SCORE.INTRA.SOLV>
-0.347603

>  <SCORE.INTRA.SOLV.lig_0>
-46.5296

>  <SCORE.INTRA.VDW>
0.0329803

>  <SCORE.INTRA.VDW.0>
-0.381873

>  <SCORE.INTRA.norm>
-0.018031

>  <SCORE.RESTR>
0

>  <SCORE.RESTR.CAVITY>
0

>  <SCORE.RESTR.norm>
0

>  <SCORE.SYSTEM>
0

>  <SCORE.SYSTEM.CONST>
0

>  <SCORE.SYSTEM.DIHEDRAL>
0

>  <SCORE.SYSTEM.SOLV>
0

>  <SCORE.SYSTEM.norm>
0

>  <SCORE.heavy>
13

>  <SCORE.norm>
-1.22387

>  <RMSD>
0.802

$$$$
ligand
 OpenBabel02271912143D
libRbt.so/2013.1/901 2013/11/27
 13 14  0  0  0  0  0  0  0  0999 V2000
   -3.4208   31.5465   55.0027 N   0  0  0  0  0  0  0  0  0  0  0  0
   -2.3566   30.6303   55.0220 C   0  0  0  0  0  0  0  0  0  0  0  0
   -1.0817   31.0329   55.5698 N   0  0  0  0  0  0  0  0  0  0  0  0
   -2.5301   29.3556   54.5329 N   0  0  0  0  0  0  0  0  0  0  0  0
   -3.7677   28.9259   53.9884 C   0  0  0  0  0  0  0  0  0  0  0  0
   -4.8708   29.8462   53.9335 C   0  0  0  0  0  0  0  0  0  0  0  0
   -4.6512   31.1784   54.4485 C   0  0  0  0  0  0  0  0  0  0  0  0
   -5.7097   32.0421   54.4005 O   0  0  0  0  0  0  0  0  0  0  0  0
   -6.0026   29.1678   53.3450 C   0  0  0  0  0  0  0  0  0  0  0  0
   -5.5357   27.8855   53.0522 C   0  0  0  0  0  0  0  0  0  0  0  0
   -4.2164   27.7488   53.4442 N   0  0  0  0  0  0  0  0  0  0  0  0
   -7.3771   29.7413   53.0614 C   0  0  0  0  0  0  0  0  0  0  0  0
   -7.4785   30.3786   51.7504 N   0  0  0  0  0  0  0  0  0  0  0  0
  1  2  1  0  0  0  0
  1  7  1  0  0  0  0
  2  3  1  0  0  0  0
  2  4  2  0  0  0  0
  4  5  1  0  0  0  0
  5  6  2  0  0  0  0
  5 11  1  0  0  0  0
  6  7  1  0  0  0  0
  6  9  1  0  0  0  0
  7  8  2  0  0  0  0
  9 10  2  0  0  0  0
  9 12  1  0  0  0  0
 10 11  1  0  0  0  0
 12 13  1  0  0  0  0
M  END
>  <CHROM.1>
87.96309198,-4.55280526,30.00873354,53.97047295,0.32406689,-0.40279289,0.30075055

>  <Name>
ligand

>  <RI>
-1

>  <Rbt.Current_Directory>
/home/itssahil/PROJECTS/Mol_Feturizer/Test_systems_manuscript/rnas/4jf2

>  <Rbt.Executable>
rbdock ($Id: //depot/dev/client3/rdock/2013.1/src/exe/rbdock.cxx#4 $)

>  <Rbt.Library>
libRbt.so (2013.1, Build901 2013/11/27)

>  <Rbt.Parameter_File>
/export/apps/rDock/src/rDock_2013.1_src/data/scripts/dock_solv.prm

>  <Rbt.Receptor>
prm/pocket_docking_3.prm

>  <SCORE>
-15.8786

>  <SCORE.INTER>
-15.6289

>  <SCORE.INTER.CONST>
1

>  <SCORE.INTER.POLAR>
0

>  <SCORE.INTER.ROT>
1

>  <SCORE.INTER.SOLV>
16.9878

>  <SCORE.INTER.VDW>
-20.3485

>  <SCORE.INTER.norm>
-1.20222

>  <SCORE.INTRA>
-0.249716

>  <SCORE.INTRA.DIHEDRAL>
-0.187743

>  <SCORE.INTRA.DIHEDRAL.0>
1.75624

>  <SCORE.INTRA.POLAR>
0

>  <SCORE.INTRA.POLAR.0>
0

>  <SCORE.INTRA.REPUL>
0

>  <SCORE.INTRA.REPUL.0>
0

>  <SCORE.INTRA.SOLV>
-0.384729

>  <SCORE.INTRA.SOLV.lig_0>
-46.5296

>  <SCORE.INTRA.VDW>
0.0365196

>  <SCORE.INTRA.VDW.0>
-0.381873

>  <SCORE.INTRA.norm>
-0.0192089

>  <SCORE.RESTR>
0

>  <SCORE.RESTR.CAVITY>
0

>  <SCORE.RESTR.norm>
0

>  <SCORE.SYSTEM>
0

>  <SCORE.SYSTEM.CONST>
0

>  <SCORE.SYSTEM.DIHEDRAL>
0

>  <SCORE.SYSTEM.SOLV>
0

>  <SCORE.SYSTEM.norm>
0

>  <SCORE.heavy>
13

>  <SCORE.norm>
-1.22143

>  <RMSD>
0.803

$$$$
ligand
 OpenBabel02271912143D
libRbt.so/2013.1/901 2013/11/27
 13 14  0  0  0  0  0  0  0  0999 V2000
   -3.4152   31.5581   54.9732 N   0  0  0  0  0  0  0  0  0  0  0  0
   -2.3449   30.6489   54.9734 C   0  0  0  0  0  0  0  0  0  0  0  0
   -1.0689   31.0529   55.5174 N   0  0  0  0  0  0  0  0  0  0  0  0
   -2.5134   29.3793   54.4692 N   0  0  0  0  0  0  0  0  0  0  0  0
   -3.7519   28.9483   53.9278 C   0  0  0  0  0  0  0  0  0  0  0  0
   -4.8615   29.8618   53.8924 C   0  0  0  0  0  0  0  0  0  0  0  0
   -4.6471   31.1888   54.4229 C   0  0  0  0  0  0  0  0  0  0  0  0
   -5.7116   32.0459   54.3933 O   0  0  0  0  0  0  0  0  0  0  0  0
   -5.9928   29.1834   53.3032 C   0  0  0  0  0  0  0  0  0  0  0  0
   -5.5195   27.9080   52.9907 C   0  0  0  0  0  0  0  0  0  0  0  0
   -4.1966   27.7753   53.3718 N   0  0  0  0  0  0  0  0  0  0  0  0
   -7.3731   29.7513   53.0365 C   0  0  0  0  0  0  0  0  0  0  0  0
   -7.4926   30.3898   51.7276 N   0  0  0  0  0  0  0  0  0  0  0  0
  1  2  1  0  0  0  0
  1  7  1  0  0  0  0
  2  3  1  0  0  0  0
  2  4  2  0  0  0  0
  4  5  1  0  0  0  0
  5  6  2  0  0  0  0
  5 11  1  0  0  0  0
  6  7  1  0  0  0  0
  6  9  1  0  0  0  0
  7  8  2  0  0  0  0
  9 10  2  0  0  0  0
  9 12  1  0  0  0  0
 10 11  1  0  0  0  0
 12 13  1  0  0  0  0
M  END
>  <CHROM.1>
88.68301061,-4.54467116,30.02479406,53.92868452,0.33010825,-0.39407576,0.31599243

>  <Name>
ligand

>  <RI>
-1

>  <Rbt.Current_Directory>
/home/itssahil/PROJECTS/Mol_Feturizer/Test_systems_manuscript/rnas/4jf2

>  <Rbt.Executable>
rbdock ($Id: //depot/dev/client3/rdock/2013.1/src/exe/rbdock.cxx#4 $)

>  <Rbt.Library>
libRbt.so (2013.1, Build901 2013/11/27)

>  <Rbt.Parameter_File>
/export/apps/rDock/src/rDock_2013.1_src/data/scripts/dock_solv.prm

>  <Rbt.Receptor>
prm/pocket_docking_3.prm

>  <SCORE>
-15.9004

>  <SCORE.INTER>
-15.6425

>  <SCORE.INTER.CONST>
1

>  <SCORE.INTER.POLAR>
0

>  <SCORE.INTER.ROT>
1

>  <SCORE.INTER.SOLV>
17.0655

>  <SCORE.INTER.VDW>
-20.3835

>  <SCORE.INTER.norm>
-1.20327

>  <SCORE.INTRA>
-0.257923

>  <SCORE.INTRA.DIHEDRAL>
-0.187833

>  <SCORE.INTRA.DIHEDRAL.0>
1.75624

>  <SCORE.INTRA.POLAR>
0

>  <SCORE.INTRA.POLAR.0>
0

>  <SCORE.INTRA.REPUL>
0

>  <SCORE.INTRA.REPUL.0>
0

>  <SCORE.INTRA.SOLV>
-0.404848

>  <SCORE.INTRA.SOLV.lig_0>
-46.5296

>  <SCORE.INTRA.VDW>
0.0384172

>  <SCORE.INTRA.VDW.0>
-0.381873

>  <SCORE.INTRA.norm>
-0.0198402

>  <SCORE.RESTR>
0

>  <SCORE.RESTR.CAVITY>
0

>  <SCORE.RESTR.norm>
0

>  <SCORE.SYSTEM>
0

>  <SCORE.SYSTEM.CONST>
0

>  <SCORE.SYSTEM.DIHEDRAL>
0

>  <SCORE.SYSTEM.SOLV>
0

>  <SCORE.SYSTEM.norm>
0

>  <SCORE.heavy>
13

>  <SCORE.norm>
-1.22311

>  <RMSD>
0.803

$$$$
ligand
 OpenBabel02271912143D
libRbt.so/2013.1/901 2013/11/27
 13 14  0  0  0  0  0  0  0  0999 V2000
   -3.4191   31.5505   54.9794 N   0  0  0  0  0  0  0  0  0  0  0  0
   -2.3549   30.6344   55.0012 C   0  0  0  0  0  0  0  0  0  0  0  0
   -1.0784   31.0403   55.5429 N   0  0  0  0  0  0  0  0  0  0  0  0
   -2.5298   29.3567   54.5204 N   0  0  0  0  0  0  0  0  0  0  0  0
   -3.7690   28.9238   53.9821 C   0  0  0  0  0  0  0  0  0  0  0  0
   -4.8722   29.8438   53.9247 C   0  0  0  0  0  0  0  0  0  0  0  0
   -4.6512   31.1791   54.4310 C   0  0  0  0  0  0  0  0  0  0  0  0
   -5.7098   32.0426   54.3808 O   0  0  0  0  0  0  0  0  0  0  0  0
   -6.0057   29.1619   53.3437 C   0  0  0  0  0  0  0  0  0  0  0  0
   -5.5396   27.8777   53.0573 C   0  0  0  0  0  0  0  0  0  0  0  0
   -4.2192   27.7434   53.4464 N   0  0  0  0  0  0  0  0  0  0  0  0
   -7.3810   29.7337   53.0605 C   0  0  0  0  0  0  0  0  0  0  0  0
   -7.4898   30.3519   51.7410 N   0  0  0  0  0  0  0  0  0  0  0  0
  1  2  1  0  0  0  0
  1  7  1  0  0  0  0
  2  3  1  0  0  0  0
  2  4  2  0  0  0  0
  4  5  1  0  0  0  0
  5  6  2  0  0  0  0
  5 11  1  0  0  0  0
  6  7  1  0  0  0  0
  6  9  1  0  0  0  0
  7  8  2  0  0  0  0
  9 10  2  0  0  0  0
  9 12  1  0  0  0  0
 10 11  1  0  0  0  0
 12 13  1  0  0  0  0
M  END
>  <CHROM.1>
88.50347706,-4.55440496,30.00561808,53.95943073,0.32421012,-0.40003562,0.29480255

>  <Name>
ligand

>  <RI>
-1

>  <Rbt.Current_Directory>
/home/itssahil/PROJECTS/Mol_Feturizer/Test_systems_manuscript/rnas/4jf2

>  <Rbt.Executable>
rbdock ($Id: //depot/dev/client3/rdock/2013.1/src/exe/rbdock.cxx#4 $)

>  <Rbt.Library>
libRbt.so (2013.1, Build901 2013/11/27)

>  <Rbt.Parameter_File>
/export/apps/rDock/src/rDock_2013.1_src/data/scripts/dock_solv.prm

>  <Rbt.Receptor>
prm/pocket_docking_4.prm

>  <SCORE>
-15.9096

>  <SCORE.INTER>
-15.6537

>  <SCORE.INTER.CONST>
1

>  <SCORE.INTER.POLAR>
0

>  <SCORE.INTER.ROT>
1

>  <SCORE.INTER.SOLV>
17.0788

>  <SCORE.INTER.VDW>
-20.3954

>  <SCORE.INTER.norm>
-1.20413

>  <SCORE.INTRA>
-0.255885

>  <SCORE.INTRA.DIHEDRAL>
-0.187825

>  <SCORE.INTRA.DIHEDRAL.0>
1.75624

>  <SCORE.INTRA.POLAR>
0

>  <SCORE.INTRA.POLAR.0>
0

>  <SCORE.INTRA.REPUL>
0

>  <SCORE.INTRA.REPUL.0>
0

>  <SCORE.INTRA.SOLV>
-0.399836

>  <SCORE.INTRA.SOLV.lig_0>
-46.5296

>  <SCORE.INTRA.VDW>
0.0379459

>  <SCORE.INTRA.VDW.0>
-0.381873

>  <SCORE.INTRA.norm>
-0.0196834

>  <SCORE.RESTR>
0

>  <SCORE.RESTR.CAVITY>
0

>  <SCORE.RESTR.norm>
0

>  <SCORE.SYSTEM>
0

>  <SCORE.SYSTEM.CONST>
0

>  <SCORE.SYSTEM.DIHEDRAL>
0

>  <SCORE.SYSTEM.SOLV>
0

>  <SCORE.SYSTEM.norm>
0

>  <SCORE.heavy>
13

>  <SCORE.norm>
-1.22382

>  <RMSD>
0.803

$$$$
ligand
 OpenBabel02271912143D
libRbt.so/2013.1/901 2013/11/27
 13 14  0  0  0  0  0  0  0  0999 V2000
   -3.0199   31.6363   55.2993 N   0  0  0  0  0  0  0  0  0  0  0  0
   -2.0201   30.6503   55.3151 C   0  0  0  0  0  0  0  0  0  0  0  0
   -0.7898   30.8967   56.0314 N   0  0  0  0  0  0  0  0  0  0  0  0
   -2.2151   29.4543   54.6625 N   0  0  0  0  0  0  0  0  0  0  0  0
   -3.4104   29.1779   53.9499 C   0  0  0  0  0  0  0  0  0  0  0  0
   -4.4449   30.1748   53.8955 C   0  0  0  0  0  0  0  0  0  0  0  0
   -4.2034   31.4215   54.5852 C   0  0  0  0  0  0  0  0  0  0  0  0
   -5.1977   32.3583   54.5353 O   0  0  0  0  0  0  0  0  0  0  0  0
   -5.5451   29.6493   53.1204 C   0  0  0  0  0  0  0  0  0  0  0  0
   -5.1261   28.3781   52.7246 C   0  0  0  0  0  0  0  0  0  0  0  0
   -3.8669   28.1045   53.2271 N   0  0  0  0  0  0  0  0  0  0  0  0
   -6.8449   30.3476   52.7716 C   0  0  0  0  0  0  0  0  0  0  0  0
   -7.9716   29.9179   53.5969 N   0  0  0  0  0  0  0  0  0  0  0  0
  1  2  1  0  0  0  0
  1  7  1  0  0  0  0
  2  3  1  0  0  0  0
  2  4  2  0  0  0  0
  4  5  1  0  0  0  0
  5  6  2  0  0  0  0
  5 11  1  0  0  0  0
  6  7  1  0  0  0  0
  6  9  1  0  0  0  0
  7  8  2  0  0  0  0
  9 10  2  0  0  0  0
  9 12  1  0  0  0  0
 10 11  1  0  0  0  0
 12 13  1  0  0  0  0
M  END
>  <CHROM.1>
-101.89695667,-4.22162639,30.21008105,54.15036238,0.33117676,-0.32724710
0.44977983

>  <Name>
ligand

>  <RI>
-1

>  <Rbt.Current_Directory>
/home/itssahil/PROJECTS/Mol_Feturizer/Test_systems_manuscript/rnas/4jf2

>  <Rbt.Executable>
rbdock ($Id: //depot/dev/client3/rdock/2013.1/src/exe/rbdock.cxx#4 $)

>  <Rbt.Library>
libRbt.so (2013.1, Build901 2013/11/27)

>  <Rbt.Parameter_File>
/export/apps/rDock/src/rDock_2013.1_src/data/scripts/dock_solv.prm

>  <Rbt.Receptor>
prm/pocket_docking_4.prm

>  <SCORE>
-14.5984

>  <SCORE.INTER>
-14.3696

>  <SCORE.INTER.CONST>
1

>  <SCORE.INTER.POLAR>
0

>  <SCORE.INTER.ROT>
1

>  <SCORE.INTER.SOLV>
19.2143

>  <SCORE.INTER.VDW>
-20.2511

>  <SCORE.INTER.norm>
-1.10535

>  <SCORE.INTRA>
-0.228816

>  <SCORE.INTRA.DIHEDRAL>
0.0185145

>  <SCORE.INTRA.DIHEDRAL.0>
1.75624

>  <SCORE.INTRA.POLAR>
0

>  <SCORE.INTRA.POLAR.0>
0

>  <SCORE.INTRA.REPUL>
0

>  <SCORE.INTRA.REPUL.0>
0

>  <SCORE.INTRA.SOLV>
-0.614087

>  <SCORE.INTRA.SOLV.lig_0>
-46.5296

>  <SCORE.INTRA.VDW>
0.0689706

>  <SCORE.INTRA.VDW.0>
-0.381873

>  <SCORE.INTRA.norm>
-0.0176012

>  <SCORE.RESTR>
0

>  <SCORE.RESTR.CAVITY>
0

>  <SCORE.RESTR.norm>
0

>  <SCORE.SYSTEM>
0

>  <SCORE.SYSTEM.CONST>
0

>  <SCORE.SYSTEM.DIHEDRAL>
0

>  <SCORE.SYSTEM.SOLV>
0

>  <SCORE.SYSTEM.norm>
0

>  <SCORE.heavy>
13

>  <SCORE.norm>
-1.12295

>  <RMSD>
0.803

$$$$
ligand
 OpenBabel02271912143D
libRbt.so/2013.1/901 2013/11/27
 13 14  0  0  0  0  0  0  0  0999 V2000
   -3.4141   31.5471   54.9771 N   0  0  0  0  0  0  0  0  0  0  0  0
   -2.3508   30.6300   54.9981 C   0  0  0  0  0  0  0  0  0  0  0  0
   -1.0739   31.0342   55.5400 N   0  0  0  0  0  0  0  0  0  0  0  0
   -2.5269   29.3528   54.5163 N   0  0  0  0  0  0  0  0  0  0  0  0
   -3.7666   28.9214   53.9777 C   0  0  0  0  0  0  0  0  0  0  0  0
   -4.8690   29.8425   53.9212 C   0  0  0  0  0  0  0  0  0  0  0  0
   -4.6466   31.1772   54.4285 C   0  0  0  0  0  0  0  0  0  0  0  0
   -5.7044   32.0417   54.3791 O   0  0  0  0  0  0  0  0  0  0  0  0
   -6.0031   29.1621   53.3397 C   0  0  0  0  0  0  0  0  0  0  0  0
   -5.5383   27.8778   53.0522 C   0  0  0  0  0  0  0  0  0  0  0  0
   -4.2180   27.7419   53.4411 N   0  0  0  0  0  0  0  0  0  0  0  0
   -7.3779   29.7355   53.0571 C   0  0  0  0  0  0  0  0  0  0  0  0
   -7.4771   30.3829   51.7508 N   0  0  0  0  0  0  0  0  0  0  0  0
  1  2  1  0  0  0  0
  1  7  1  0  0  0  0
  2  3  1  0  0  0  0
  2  4  2  0  0  0  0
  4  5  1  0  0  0  0
  5  6  2  0  0  0  0
  5 11  1  0  0  0  0
  6  7  1  0  0  0  0
  6  9  1  0  0  0  0
  7  8  2  0  0  0  0
  9 10  2  0  0  0  0
  9 12  1  0  0  0  0
 10 11  1  0  0  0  0
 12 13  1  0  0  0  0
M  END
>  <CHROM.1>
87.13159121,-4.55024804,30.00632166,53.95701331,0.32045795,-0.40027347,0.29390462

>  <Name>
ligand

>  <RI>
-1

>  <Rbt.Current_Directory>
/home/itssahil/PROJECTS/Mol_Feturizer/Test_systems_manuscript/rnas/4jf2

>  <Rbt.Executable>
rbdock ($Id: //depot/dev/client3/rdock/2013.1/src/exe/rbdock.cxx#4 $)

>  <Rbt.Library>
libRbt.so (2013.1, Build901 2013/11/27)

>  <Rbt.Parameter_File>
/export/apps/rDock/src/rDock_2013.1_src/data/scripts/dock_solv.prm

>  <Rbt.Receptor>
prm/pocket_docking_5.prm

>  <SCORE>
-15.9103

>  <SCORE.INTER>
-15.6702

>  <SCORE.INTER.CONST>
1

>  <SCORE.INTER.POLAR>
0

>  <SCORE.INTER.ROT>
1

>  <SCORE.INTER.SOLV>
17.0159

>  <SCORE.INTER.VDW>
-20.3854

>  <SCORE.INTER.norm>
-1.2054

>  <SCORE.INTRA>
-0.240128

>  <SCORE.INTRA.DIHEDRAL>
-0.187442

>  <SCORE.INTRA.DIHEDRAL.0>
1.75624

>  <SCORE.INTRA.POLAR>
0

>  <SCORE.INTRA.POLAR.0>
0

>  <SCORE.INTRA.REPUL>
0

>  <SCORE.INTRA.REPUL.0>
0

>  <SCORE.INTRA.SOLV>
-0.361421

>  <SCORE.INTRA.SOLV.lig_0>
-46.5296

>  <SCORE.INTRA.VDW>
0.0343032

>  <SCORE.INTRA.VDW.0>
-0.381873

>  <SCORE.INTRA.norm>
-0.0184714

>  <SCORE.RESTR>
0

>  <SCORE.RESTR.CAVITY>
0

>  <SCORE.RESTR.norm>
0

>  <SCORE.SYSTEM>
0

>  <SCORE.SYSTEM.CONST>
0

>  <SCORE.SYSTEM.DIHEDRAL>
0

>  <SCORE.SYSTEM.SOLV>
0

>  <SCORE.SYSTEM.norm>
0

>  <SCORE.heavy>
13

>  <SCORE.norm>
-1.22387

>  <RMSD>
0.803

$$$$
ligand
 OpenBabel02271912143D
libRbt.so/2013.1/901 2013/11/27
 13 14  0  0  0  0  0  0  0  0999 V2000
   -3.4221   31.5572   54.9879 N   0  0  0  0  0  0  0  0  0  0  0  0
   -2.3579   30.6411   55.0098 C   0  0  0  0  0  0  0  0  0  0  0  0
   -1.0831   31.0453   55.5564 N   0  0  0  0  0  0  0  0  0  0  0  0
   -2.5313   29.3650   54.5243 N   0  0  0  0  0  0  0  0  0  0  0  0
   -3.7689   28.9337   53.9810 C   0  0  0  0  0  0  0  0  0  0  0  0
   -4.8720   29.8538   53.9235 C   0  0  0  0  0  0  0  0  0  0  0  0
   -4.6526   31.1874   54.4348 C   0  0  0  0  0  0  0  0  0  0  0  0
   -5.7111   32.0509   54.3843 O   0  0  0  0  0  0  0  0  0  0  0  0
   -6.0038   29.1736   53.3370 C   0  0  0  0  0  0  0  0  0  0  0  0
   -5.5367   27.8905   53.0477 C   0  0  0  0  0  0  0  0  0  0  0  0
   -4.2174   27.7550   53.4402 N   0  0  0  0  0  0  0  0  0  0  0  0
   -7.3784   29.7462   53.0517 C   0  0  0  0  0  0  0  0  0  0  0  0
   -7.4778   30.3861   51.7418 N   0  0  0  0  0  0  0  0  0  0  0  0
  1  2  1  0  0  0  0
  1  7  1  0  0  0  0
  2  3  1  0  0  0  0
  2  4  2  0  0  0  0
  4  5  1  0  0  0  0
  5  6  2  0  0  0  0
  5 11  1  0  0  0  0
  6  7  1  0  0  0  0
  6  9  1  0  0  0  0
  7  8  2  0  0  0  0
  9 10  2  0  0  0  0
  9 12  1  0  0  0  0
 10 11  1  0  0  0  0
 12 13  1  0  0  0  0
M  END
>  <CHROM.1>
87.65455207,-4.55388944,30.01690988,53.96026944,0.32352186,-0.40278350,0.29765825

>  <Name>
ligand

>  <RI>
-1

>  <Rbt.Current_Directory>
/home/itssahil/PROJECTS/Mol_Feturizer/Test_systems_manuscript/rnas/4jf2

>  <Rbt.Executable>
rbdock ($Id: //depot/dev/client3/rdock/2013.1/src/exe/rbdock.cxx#4 $)

>  <Rbt.Library>
libRbt.so (2013.1, Build901 2013/11/27)

>  <Rbt.Parameter_File>
/export/apps/rDock/src/rDock_2013.1_src/data/scripts/dock_solv.prm

>  <Rbt.Receptor>
prm/pocket_docking_5.prm

>  <SCORE>
-15.8815

>  <SCORE.INTER>
-15.6354

>  <SCORE.INTER.CONST>
1

>  <SCORE.INTER.POLAR>
0

>  <SCORE.INTER.ROT>
1

>  <SCORE.INTER.SOLV>
16.9986

>  <SCORE.INTER.VDW>
-20.3564

>  <SCORE.INTER.norm>
-1.20272

>  <SCORE.INTRA>
-0.246172

>  <SCORE.INTRA.DIHEDRAL>
-0.187656

>  <SCORE.INTRA.DIHEDRAL.0>
1.75624

>  <SCORE.INTRA.POLAR>
0

>  <SCORE.INTRA.POLAR.0>
0

>  <SCORE.INTRA.REPUL>
0

>  <SCORE.INTRA.REPUL.0>
0

>  <SCORE.INTRA.SOLV>
-0.376089

>  <SCORE.INTRA.SOLV.lig_0>
-46.5296

>  <SCORE.INTRA.VDW>
0.0357002

>  <SCORE.INTRA.VDW.0>
-0.381873

>  <SCORE.INTRA.norm>
-0.0189363

>  <SCORE.RESTR>
0

>  <SCORE.RESTR.CAVITY>
0

>  <SCORE.RESTR.norm>
0

>  <SCORE.SYSTEM>
0

>  <SCORE.SYSTEM.CONST>
0

>  <SCORE.SYSTEM.DIHEDRAL>
0

>  <SCORE.SYSTEM.SOLV>
0

>  <SCORE.SYSTEM.norm>
0

>  <SCORE.heavy>
13

>  <SCORE.norm>
-1.22166

>  <RMSD>
0.803

$$$$
ligand
 OpenBabel02271912143D
libRbt.so/2013.1/901 2013/11/27
 13 14  0  0  0  0  0  0  0  0999 V2000
   -3.4426   31.5557   54.9971 N   0  0  0  0  0  0  0  0  0  0  0  0
   -2.3730   30.6459   55.0170 C   0  0  0  0  0  0  0  0  0  0  0  0
   -1.1013   31.0556   55.5670 N   0  0  0  0  0  0  0  0  0  0  0  0
   -2.5380   29.3706   54.5264 N   0  0  0  0  0  0  0  0  0  0  0  0
   -3.7723   28.9340   53.9797 C   0  0  0  0  0  0  0  0  0  0  0  0
   -4.8808   29.8477   53.9241 C   0  0  0  0  0  0  0  0  0  0  0  0
   -4.6701   31.1806   54.4408 C   0  0  0  0  0  0  0  0  0  0  0  0
   -5.7337   32.0380   54.3921 O   0  0  0  0  0  0  0  0  0  0  0  0
   -6.0077   29.1631   53.3334 C   0  0  0  0  0  0  0  0  0  0  0  0
   -5.5326   27.8838   53.0399 C   0  0  0  0  0  0  0  0  0  0  0  0
   -4.2130   27.7547   53.4337 N   0  0  0  0  0  0  0  0  0  0  0  0
   -7.3852   29.7285   53.0483 C   0  0  0  0  0  0  0  0  0  0  0  0
   -7.4990   30.3338   51.7232 N   0  0  0  0  0  0  0  0  0  0  0  0
  1  2  1  0  0  0  0
  1  7  1  0  0  0  0
  2  3  1  0  0  0  0
  2  4  2  0  0  0  0
  4  5  1  0  0  0  0
  5  6  2  0  0  0  0
  5 11  1  0  0  0  0
  6  7  1  0  0  0  0
  6  9  1  0  0  0  0
  7  8  2  0  0  0  0
  9 10  2  0  0  0  0
  9 12  1  0  0  0  0
 10 11  1  0  0  0  0
 12 13  1  0  0  0  0
M  END
>  <CHROM.1>
89.55342230,-4.56470800,30.00942338,53.96053985,0.33401154,-0.40225653,0.30591232

>  <Name>
ligand

>  <RI>
-1

>  <Rbt.Current_Directory>
/home/itssahil/PROJECTS/Mol_Feturizer/Test_systems_manuscript/rnas/4jf2

>  <Rbt.Executable>
rbdock ($Id: //depot/dev/client3/rdock/2013.1/src/exe/rbdock.cxx#4 $)

>  <Rbt.Library>
libRbt.so (2013.1, Build901 2013/11/27)

>  <Rbt.Parameter_File>
/export/apps/rDock/src/rDock_2013.1_src/data/scripts/dock_solv.prm

>  <Rbt.Receptor>
prm/pocket_docking_5.prm

>  <SCORE>
-15.8656

>  <SCORE.INTER>
-15.6023

>  <SCORE.INTER.CONST>
1

>  <SCORE.INTER.POLAR>
0

>  <SCORE.INTER.ROT>
1

>  <SCORE.INTER.SOLV>
17.0942

>  <SCORE.INTER.VDW>
-20.3663

>  <SCORE.INTER.norm>
-1.20018

>  <SCORE.INTRA>
-0.263292

>  <SCORE.INTRA.DIHEDRAL>
-0.187729

>  <SCORE.INTRA.DIHEDRAL.0>
1.75624

>  <SCORE.INTRA.POLAR>
0

>  <SCORE.INTRA.POLAR.0>
0

>  <SCORE.INTRA.REPUL>
0

>  <SCORE.INTRA.REPUL.0>
0

>  <SCORE.INTRA.SOLV>
-0.420223

>  <SCORE.INTRA.SOLV.lig_0>
-46.5296

>  <SCORE.INTRA.VDW>
0.0406847

>  <SCORE.INTRA.VDW.0>
-0.381873

>  <SCORE.INTRA.norm>
-0.0202532

>  <SCORE.RESTR>
0

>  <SCORE.RESTR.CAVITY>
0

>  <SCORE.RESTR.norm>
0

>  <SCORE.SYSTEM>
0

>  <SCORE.SYSTEM.CONST>
0

>  <SCORE.SYSTEM.DIHEDRAL>
0

>  <SCORE.SYSTEM.SOLV>
0

>  <SCORE.SYSTEM.norm>
0

>  <SCORE.heavy>
13

>  <SCORE.norm>
-1.22043

>  <RMSD>
0.803

$$$$
ligand
 OpenBabel02271912143D
libRbt.so/2013.1/901 2013/11/27
 13 14  0  0  0  0  0  0  0  0999 V2000
   -3.4230   31.5498   54.9869 N   0  0  0  0  0  0  0  0  0  0  0  0
   -2.3574   30.6353   55.0078 C   0  0  0  0  0  0  0  0  0  0  0  0
   -1.0820   31.0421   55.5513 N   0  0  0  0  0  0  0  0  0  0  0  0
   -2.5298   29.3583   54.5243 N   0  0  0  0  0  0  0  0  0  0  0  0
   -3.7679   28.9245   53.9840 C   0  0  0  0  0  0  0  0  0  0  0  0
   -4.8725   29.8429   53.9276 C   0  0  0  0  0  0  0  0  0  0  0  0
   -4.6540   31.1775   54.4367 C   0  0  0  0  0  0  0  0  0  0  0  0
   -5.7139   32.0394   54.3873 O   0  0  0  0  0  0  0  0  0  0  0  0
   -6.0044   29.1603   53.3442 C   0  0  0  0  0  0  0  0  0  0  0  0
   -5.5361   27.8775   53.0556 C   0  0  0  0  0  0  0  0  0  0  0  0
   -4.2158   27.7445   53.4456 N   0  0  0  0  0  0  0  0  0  0  0  0
   -7.3804   29.7305   53.0610 C   0  0  0  0  0  0  0  0  0  0  0  0
   -7.4891   30.3507   51.7424 N   0  0  0  0  0  0  0  0  0  0  0  0
  1  2  1  0  0  0  0
  1  7  1  0  0  0  0
  2  3  1  0  0  0  0
  2  4  2  0  0  0  0
  4  5  1  0  0  0  0
  5  6  2  0  0  0  0
  5 11  1  0  0  0  0
  6  7  1  0  0  0  0
  6  9  1  0  0  0  0
  7  8  2  0  0  0  0
  9 10  2  0  0  0  0
  9 12  1  0  0  0  0
 10 11  1  0  0  0  0
 12 13  1  0  0  0  0
M  END
>  <CHROM.1>
88.52394690,-4.55500773,30.00508752,53.96282015,0.32616866,-0.40038598,0.29755619

>  <Name>
ligand

>  <RI>
-1

>  <Rbt.Current_Directory>
/home/itssahil/PROJECTS/Mol_Feturizer/Test_systems_manuscript/rnas/4jf2

>  <Rbt.Executable>
rbdock ($Id: //depot/dev/client3/rdock/2013.1/src/exe/rbdock.cxx#4 $)

>  <Rbt.Library>
libRbt.so (2013.1, Build901 2013/11/27)

>  <Rbt.Parameter_File>
/export/apps/rDock/src/rDock_2013.1_src/data/scripts/dock_solv.prm

>  <Rbt.Receptor>
prm/pocket_docking_5.prm

>  <SCORE>
-15.9093

>  <SCORE.INTER>
-15.6532

>  <SCORE.INTER.CONST>
1

>  <SCORE.INTER.POLAR>
0

>  <SCORE.INTER.ROT>
1

>  <SCORE.INTER.SOLV>
17.0726

>  <SCORE.INTER.VDW>
-20.393

>  <SCORE.INTER.norm>
-1.20409

>  <SCORE.INTRA>
-0.256117

>  <SCORE.INTRA.DIHEDRAL>
-0.187826

>  <SCORE.INTRA.DIHEDRAL.0>
1.75624

>  <SCORE.INTRA.POLAR>
0

>  <SCORE.INTRA.POLAR.0>
0

>  <SCORE.INTRA.REPUL>
0

>  <SCORE.INTRA.REPUL.0>
0

>  <SCORE.INTRA.SOLV>
-0.400407

>  <SCORE.INTRA.SOLV.lig_0>
-46.5296

>  <SCORE.INTRA.VDW>
0.0379997

>  <SCORE.INTRA.VDW.0>
-0.381873

>  <SCORE.INTRA.norm>
-0.0197013

>  <SCORE.RESTR>
0

>  <SCORE.RESTR.CAVITY>
0

>  <SCORE.RESTR.norm>
0

>  <SCORE.SYSTEM>
0

>  <SCORE.SYSTEM.CONST>
0

>  <SCORE.SYSTEM.DIHEDRAL>
0

>  <SCORE.SYSTEM.SOLV>
0

>  <SCORE.SYSTEM.norm>
0

>  <SCORE.heavy>
13

>  <SCORE.norm>
-1.22379

>  <RMSD>
0.803

$$$$
ligand
 OpenBabel02271912143D
libRbt.so/2013.1/901 2013/11/27
 13 14  0  0  0  0  0  0  0  0999 V2000
   -3.3300   31.5811   55.0355 N   0  0  0  0  0  0  0  0  0  0  0  0
   -2.2777   30.6513   55.0200 C   0  0  0  0  0  0  0  0  0  0  0  0
   -0.9857   31.0309   55.5436 N   0  0  0  0  0  0  0  0  0  0  0  0
   -2.4786   29.3848   54.5200 N   0  0  0  0  0  0  0  0  0  0  0  0
   -3.7336   28.9775   53.9985 C   0  0  0  0  0  0  0  0  0  0  0  0
   -4.8255   29.9124   53.9792 C   0  0  0  0  0  0  0  0  0  0  0  0
   -4.5772   31.2354   54.5048 C   0  0  0  0  0  0  0  0  0  0  0  0
   -5.6252   32.1131   54.4908 O   0  0  0  0  0  0  0  0  0  0  0  0
   -5.9789   29.2556   53.4085 C   0  0  0  0  0  0  0  0  0  0  0  0
   -5.5354   27.9710   53.0901 C   0  0  0  0  0  0  0  0  0  0  0  0
   -4.2095   27.8129   53.4507 N   0  0  0  0  0  0  0  0  0  0  0  0
   -7.3519   29.8500   53.1626 C   0  0  0  0  0  0  0  0  0  0  0  0
   -7.5043   30.4201   51.8259 N   0  0  0  0  0  0  0  0  0  0  0  0
  1  2  1  0  0  0  0
  1  7  1  0  0  0  0
  2  3  1  0  0  0  0
  2  4  2  0  0  0  0
  4  5  1  0  0  0  0
  5  6  2  0  0  0  0
  5 11  1  0  0  0  0
  6  7  1  0  0  0  0
  6  9  1  0  0  0  0
  7  8  2  0  0  0  0
  9 10  2  0  0  0  0
  9 12  1  0  0  0  0
 10 11  1  0  0  0  0
 12 13  1  0  0  0  0
M  END
>  <CHROM.1>
92.07524992,-4.50715093,30.06355755,54.00803557,0.31180167,-0.38484675,0.30877216

>  <Name>
ligand

>  <RI>
-1

>  <Rbt.Current_Directory>
/home/itssahil/PROJECTS/Mol_Feturizer/Test_systems_manuscript/rnas/4jf2

>  <Rbt.Executable>
rbdock ($Id: //depot/dev/client3/rdock/2013.1/src/exe/rbdock.cxx#4 $)

>  <Rbt.Library>
libRbt.so (2013.1, Build901 2013/11/27)

>  <Rbt.Parameter_File>
/export/apps/rDock/src/rDock_2013.1_src/data/scripts/dock_solv.prm

>  <Rbt.Receptor>
prm/pocket_docking_6.prm

>  <SCORE>
-15.8942

>  <SCORE.INTER>
-15.6161

>  <SCORE.INTER.CONST>
1

>  <SCORE.INTER.POLAR>
0

>  <SCORE.INTER.ROT>
1

>  <SCORE.INTER.SOLV>
17.0525

>  <SCORE.INTER.VDW>
-20.3616

>  <SCORE.INTER.norm>
-1.20124

>  <SCORE.INTRA>
-0.278097

>  <SCORE.INTRA.DIHEDRAL>
-0.186126

>  <SCORE.INTRA.DIHEDRAL.0>
1.75624

>  <SCORE.INTRA.POLAR>
0

>  <SCORE.INTRA.POLAR.0>
0

>  <SCORE.INTRA.REPUL>
0

>  <SCORE.INTRA.REPUL.0>
0

>  <SCORE.INTRA.SOLV>
-0.464238

>  <SCORE.INTRA.SOLV.lig_0>
-46.5296

>  <SCORE.INTRA.VDW>
0.0470851

>  <SCORE.INTRA.VDW.0>
-0.381873

>  <SCORE.INTRA.norm>
-0.0213921

>  <SCORE.RESTR>
0

>  <SCORE.RESTR.CAVITY>
0

>  <SCORE.RESTR.norm>
0

>  <SCORE.SYSTEM>
0

>  <SCORE.SYSTEM.CONST>
0

>  <SCORE.SYSTEM.DIHEDRAL>
0

>  <SCORE.SYSTEM.SOLV>
0

>  <SCORE.SYSTEM.norm>
0

>  <SCORE.heavy>
13

>  <SCORE.norm>
-1.22263

>  <RMSD>
0.803

$$$$
ligand
 OpenBabel02271912143D
libRbt.so/2013.1/901 2013/11/27
 13 14  0  0  0  0  0  0  0  0999 V2000
   -3.4197   31.5448   54.9763 N   0  0  0  0  0  0  0  0  0  0  0  0
   -2.3542   30.6301   54.9954 C   0  0  0  0  0  0  0  0  0  0  0  0
   -1.0778   31.0366   55.5367 N   0  0  0  0  0  0  0  0  0  0  0  0
   -2.5278   29.3531   54.5122 N   0  0  0  0  0  0  0  0  0  0  0  0
   -3.7668   28.9195   53.9741 C   0  0  0  0  0  0  0  0  0  0  0  0
   -4.8714   29.8381   53.9195 C   0  0  0  0  0  0  0  0  0  0  0  0
   -4.6517   31.1727   54.4283 C   0  0  0  0  0  0  0  0  0  0  0  0
   -5.7116   32.0348   54.3807 O   0  0  0  0  0  0  0  0  0  0  0  0
   -6.0045   29.1558   53.3381 C   0  0  0  0  0  0  0  0  0  0  0  0
   -5.5369   27.8729   53.0488 C   0  0  0  0  0  0  0  0  0  0  0  0
   -4.2159   27.7396   53.4364 N   0  0  0  0  0  0  0  0  0  0  0  0
   -7.3808   29.7263   53.0573 C   0  0  0  0  0  0  0  0  0  0  0  0
   -7.4885   30.3563   51.7433 N   0  0  0  0  0  0  0  0  0  0  0  0
  1  2  1  0  0  0  0
  1  7  1  0  0  0  0
  2  3  1  0  0  0  0
  2  4  2  0  0  0  0
  4  5  1  0  0  0  0
  5  6  2  0  0  0  0
  5 11  1  0  0  0  0
  6  7  1  0  0  0  0
  6  9  1  0  0  0  0
  7  8  2  0  0  0  0
  9 10  2  0  0  0  0
  9 12  1  0  0  0  0
 10 11  1  0  0  0  0
 12 13  1  0  0  0  0
M  END
>  <CHROM.1>
88.04557629,-4.55351514,30.00107079,53.95459356,0.32444376,-0.39880123,0.29680578

>  <Name>
ligand

>  <RI>
-1

>  <Rbt.Current_Directory>
/home/itssahil/PROJECTS/Mol_Feturizer/Test_systems_manuscript/rnas/4jf2

>  <Rbt.Executable>
rbdock ($Id: //depot/dev/client3/rdock/2013.1/src/exe/rbdock.cxx#4 $)

>  <Rbt.Library>
libRbt.so (2013.1, Build901 2013/11/27)

>  <Rbt.Parameter_File>
/export/apps/rDock/src/rDock_2013.1_src/data/scripts/dock_solv.prm

>  <Rbt.Receptor>
prm/pocket_docking_7.prm

>  <SCORE>
-15.9067

>  <SCORE.INTER>
-15.6561

>  <SCORE.INTER.CONST>
1

>  <SCORE.INTER.POLAR>
0

>  <SCORE.INTER.ROT>
1

>  <SCORE.INTER.SOLV>
17.0743

>  <SCORE.INTER.VDW>
-20.3955

>  <SCORE.INTER.norm>
-1.20431

>  <SCORE.INTRA>
-0.250661

>  <SCORE.INTRA.DIHEDRAL>
-0.187761

>  <SCORE.INTRA.DIHEDRAL.0>
1.75624

>  <SCORE.INTRA.POLAR>
0

>  <SCORE.INTRA.POLAR.0>
0

>  <SCORE.INTRA.REPUL>
0

>  <SCORE.INTRA.REPUL.0>
0

>  <SCORE.INTRA.SOLV>
-0.387037

>  <SCORE.INTRA.SOLV.lig_0>
-46.5296

>  <SCORE.INTRA.VDW>
0.036738

>  <SCORE.INTRA.VDW.0>
-0.381873

>  <SCORE.INTRA.norm>
-0.0192816

>  <SCORE.RESTR>
0

>  <SCORE.RESTR.CAVITY>
0

>  <SCORE.RESTR.norm>
0

>  <SCORE.SYSTEM>
0

>  <SCORE.SYSTEM.CONST>
0

>  <SCORE.SYSTEM.DIHEDRAL>
0

>  <SCORE.SYSTEM.SOLV>
0

>  <SCORE.SYSTEM.norm>
0

>  <SCORE.heavy>
13

>  <SCORE.norm>
-1.22359

>  <RMSD>
0.803

$$$$
ligand
 OpenBabel02271912143D
libRbt.so/2013.1/901 2013/11/27
 13 14  0  0  0  0  0  0  0  0999 V2000
   -3.4290   31.5646   54.9946 N   0  0  0  0  0  0  0  0  0  0  0  0
   -2.3577   30.6566   54.9993 C   0  0  0  0  0  0  0  0  0  0  0  0
   -1.0849   31.0616   55.5502 N   0  0  0  0  0  0  0  0  0  0  0  0
   -2.5221   29.3874   54.4929 N   0  0  0  0  0  0  0  0  0  0  0  0
   -3.7573   28.9555   53.9447 C   0  0  0  0  0  0  0  0  0  0  0  0
   -4.8677   29.8678   53.9046 C   0  0  0  0  0  0  0  0  0  0  0  0
   -4.6576   31.1944   54.4376 C   0  0  0  0  0  0  0  0  0  0  0  0
   -5.7230   32.0504   54.4035 O   0  0  0  0  0  0  0  0  0  0  0  0
   -5.9953   29.1887   53.3088 C   0  0  0  0  0  0  0  0  0  0  0  0
   -5.5188   27.9142   52.9974 C   0  0  0  0  0  0  0  0  0  0  0  0
   -4.1977   27.7826   53.3851 N   0  0  0  0  0  0  0  0  0  0  0  0
   -7.3748   29.7552   53.0357 C   0  0  0  0  0  0  0  0  0  0  0  0
   -7.4886   30.3944   51.7266 N   0  0  0  0  0  0  0  0  0  0  0  0
  1  2  1  0  0  0  0
  1  7  1  0  0  0  0
  2  3  1  0  0  0  0
  2  4  2  0  0  0  0
  4  5  1  0  0  0  0
  5  6  2  0  0  0  0
  5 11  1  0  0  0  0
  6  7  1  0  0  0  0
  6  9  1  0  0  0  0
  7  8  2  0  0  0  0
  9 10  2  0  0  0  0
  9 12  1  0  0  0  0
 10 11  1  0  0  0  0
 12 13  1  0  0  0  0
M  END
>  <CHROM.1>
88.71848374,-4.55132808,30.03105374,53.94263124,0.33311760,-0.39856974,0.31825088

>  <Name>
ligand

>  <RI>
-1

>  <Rbt.Current_Directory>
/home/itssahil/PROJECTS/Mol_Feturizer/Test_systems_manuscript/rnas/4jf2

>  <Rbt.Executable>
rbdock ($Id: //depot/dev/client3/rdock/2013.1/src/exe/rbdock.cxx#4 $)

>  <Rbt.Library>
libRbt.so (2013.1, Build901 2013/11/27)

>  <Rbt.Parameter_File>
/export/apps/rDock/src/rDock_2013.1_src/data/scripts/dock_solv.prm

>  <Rbt.Receptor>
prm/pocket_docking_7.prm

>  <SCORE>
-15.9126

>  <SCORE.INTER>
-15.6544

>  <SCORE.INTER.CONST>
1

>  <SCORE.INTER.POLAR>
0

>  <SCORE.INTER.ROT>
1

>  <SCORE.INTER.SOLV>
17.0163

>  <SCORE.INTER.VDW>
-20.375

>  <SCORE.INTER.norm>
-1.20419

>  <SCORE.INTRA>
-0.258154

>  <SCORE.INTRA.DIHEDRAL>
-0.187833

>  <SCORE.INTRA.DIHEDRAL.0>
1.75624

>  <SCORE.INTRA.POLAR>
0

>  <SCORE.INTRA.POLAR.0>
0

>  <SCORE.INTRA.REPUL>
0

>  <SCORE.INTRA.REPUL.0>
0

>  <SCORE.INTRA.SOLV>
-0.405496

>  <SCORE.INTRA.SOLV.lig_0>
-46.5296

>  <SCORE.INTRA.VDW>
0.0385102

>  <SCORE.INTRA.VDW.0>
-0.381873

>  <SCORE.INTRA.norm>
-0.019858

>  <SCORE.RESTR>
0

>  <SCORE.RESTR.CAVITY>
0

>  <SCORE.RESTR.norm>
0

>  <SCORE.SYSTEM>
0

>  <SCORE.SYSTEM.CONST>
0

>  <SCORE.SYSTEM.DIHEDRAL>
0

>  <SCORE.SYSTEM.SOLV>
0

>  <SCORE.SYSTEM.norm>
0

>  <SCORE.heavy>
13

>  <SCORE.norm>
-1.22404

>  <RMSD>
0.803

$$$$
ligand
 OpenBabel02271912143D
libRbt.so/2013.1/901 2013/11/27
 13 14  0  0  0  0  0  0  0  0999 V2000
   -3.3386   31.5862   55.0573 N   0  0  0  0  0  0  0  0  0  0  0  0
   -2.2848   30.6581   55.0409 C   0  0  0  0  0  0  0  0  0  0  0  0
   -0.9951   31.0375   55.5701 N   0  0  0  0  0  0  0  0  0  0  0  0
   -2.4822   29.3935   54.5348 N   0  0  0  0  0  0  0  0  0  0  0  0
   -3.7349   28.9865   54.0076 C   0  0  0  0  0  0  0  0  0  0  0  0
   -4.8283   29.9197   53.9892 C   0  0  0  0  0  0  0  0  0  0  0  0
   -4.5837   31.2408   54.5213 C   0  0  0  0  0  0  0  0  0  0  0  0
   -5.6331   32.1168   54.5080 O   0  0  0  0  0  0  0  0  0  0  0  0
   -5.9789   29.2636   53.4121 C   0  0  0  0  0  0  0  0  0  0  0  0
   -5.5323   27.9812   53.0894 C   0  0  0  0  0  0  0  0  0  0  0  0
   -4.2073   27.8235   53.4533 N   0  0  0  0  0  0  0  0  0  0  0  0
   -7.3521   29.8569   53.1647 C   0  0  0  0  0  0  0  0  0  0  0  0
   -7.5048   30.4230   51.8262 N   0  0  0  0  0  0  0  0  0  0  0  0
  1  2  1  0  0  0  0
  1  7  1  0  0  0  0
  2  3  1  0  0  0  0
  2  4  2  0  0  0  0
  4  5  1  0  0  0  0
  5  6  2  0  0  0  0
  5 11  1  0  0  0  0
  6  7  1  0  0  0  0
  6  9  1  0  0  0  0
  7  8  2  0  0  0  0
  9 10  2  0  0  0  0
  9 12  1  0  0  0  0
 10 11  1  0  0  0  0
 12 13  1  0  0  0  0
M  END
>  <CHROM.1>
92.54016001,-4.51056125,30.07047957,54.01931833,0.31539213,-0.38715598,0.31462676

>  <Name>
ligand

>  <RI>
-1

>  <Rbt.Current_Directory>
/home/itssahil/PROJECTS/Mol_Feturizer/Test_systems_manuscript/rnas/4jf2

>  <Rbt.Executable>
rbdock ($Id: //depot/dev/client3/rdock/2013.1/src/exe/rbdock.cxx#4 $)

>  <Rbt.Library>
libRbt.so (2013.1, Build901 2013/11/27)

>  <Rbt.Parameter_File>
/export/apps/rDock/src/rDock_2013.1_src/data/scripts/dock_solv.prm

>  <Rbt.Receptor>
prm/pocket_docking_3.prm

>  <SCORE>
-15.8896

>  <SCORE.INTER>
-15.6089

>  <SCORE.INTER.CONST>
1

>  <SCORE.INTER.POLAR>
0

>  <SCORE.INTER.ROT>
1

>  <SCORE.INTER.SOLV>
17.0251

>  <SCORE.INTER.VDW>
-20.3476

>  <SCORE.INTER.norm>
-1.20069

>  <SCORE.INTRA>
-0.280709

>  <SCORE.INTRA.DIHEDRAL>
-0.18562

>  <SCORE.INTRA.DIHEDRAL.0>
1.75624

>  <SCORE.INTRA.POLAR>
0

>  <SCORE.INTRA.POLAR.0>
0

>  <SCORE.INTRA.REPUL>
0

>  <SCORE.INTRA.REPUL.0>
0

>  <SCORE.INTRA.SOLV>
-0.472273

>  <SCORE.INTRA.SOLV.lig_0>
-46.5296

>  <SCORE.INTRA.VDW>
0.0482374

>  <SCORE.INTRA.VDW.0>
-0.381873

>  <SCORE.INTRA.norm>
-0.021593

>  <SCORE.RESTR>
0

>  <SCORE.RESTR.CAVITY>
0

>  <SCORE.RESTR.norm>
0

>  <SCORE.SYSTEM>
0

>  <SCORE.SYSTEM.CONST>
0

>  <SCORE.SYSTEM.DIHEDRAL>
0

>  <SCORE.SYSTEM.SOLV>
0

>  <SCORE.SYSTEM.norm>
0

>  <SCORE.heavy>
13

>  <SCORE.norm>
-1.22228

>  <RMSD>
0.804

$$$$
ligand
 OpenBabel02271912143D
libRbt.so/2013.1/901 2013/11/27
 13 14  0  0  0  0  0  0  0  0999 V2000
   -3.3422   31.5862   55.0332 N   0  0  0  0  0  0  0  0  0  0  0  0
   -2.2885   30.6578   55.0243 C   0  0  0  0  0  0  0  0  0  0  0  0
   -0.9995   31.0404   55.5531 N   0  0  0  0  0  0  0  0  0  0  0  0
   -2.4853   29.3901   54.5259 N   0  0  0  0  0  0  0  0  0  0  0  0
   -3.7373   28.9799   53.9995 C   0  0  0  0  0  0  0  0  0  0  0  0
   -4.8305   29.9132   53.9734 C   0  0  0  0  0  0  0  0  0  0  0  0
   -4.5865   31.2375   54.4975 C   0  0  0  0  0  0  0  0  0  0  0  0
   -5.6357   32.1136   54.4770 O   0  0  0  0  0  0  0  0  0  0  0  0
   -5.9803   29.2535   53.3987 C   0  0  0  0  0  0  0  0  0  0  0  0
   -5.5334   27.9690   53.0849 C   0  0  0  0  0  0  0  0  0  0  0  0
   -4.2090   27.8135   53.4519 N   0  0  0  0  0  0  0  0  0  0  0  0
   -7.3530   29.8454   53.1454 C   0  0  0  0  0  0  0  0  0  0  0  0
   -7.4991   30.4156   51.8080 N   0  0  0  0  0  0  0  0  0  0  0  0
  1  2  1  0  0  0  0
  1  7  1  0  0  0  0
  2  3  1  0  0  0  0
  2  4  2  0  0  0  0
  4  5  1  0  0  0  0
  5  6  2  0  0  0  0
  5 11  1  0  0  0  0
  6  7  1  0  0  0  0
  6  9  1  0  0  0  0
  7  8  2  0  0  0  0
  9 10  2  0  0  0  0
  9 12  1  0  0  0  0
 10 11  1  0  0  0  0
 12 13  1  0  0  0  0
M  END
>  <CHROM.1>
91.93332273,-4.51239769,30.06507082,54.00345610,0.31452334,-0.38876079,0.30780082

>  <Name>
ligand

>  <RI>
-1

>  <Rbt.Current_Directory>
/home/itssahil/PROJECTS/Mol_Feturizer/Test_systems_manuscript/rnas/4jf2

>  <Rbt.Executable>
rbdock ($Id: //depot/dev/client3/rdock/2013.1/src/exe/rbdock.cxx#4 $)

>  <Rbt.Library>
libRbt.so (2013.1, Build901 2013/11/27)

>  <Rbt.Parameter_File>
/export/apps/rDock/src/rDock_2013.1_src/data/scripts/dock_solv.prm

>  <Rbt.Receptor>
prm/pocket_docking_3.prm

>  <SCORE>
-15.8999

>  <SCORE.INTER>
-15.6226

>  <SCORE.INTER.CONST>
1

>  <SCORE.INTER.POLAR>
0

>  <SCORE.INTER.ROT>
1

>  <SCORE.INTER.SOLV>
17.042

>  <SCORE.INTER.VDW>
-20.3624

>  <SCORE.INTER.norm>
-1.20174

>  <SCORE.INTRA>
-0.277292

>  <SCORE.INTRA.DIHEDRAL>
-0.186267

>  <SCORE.INTRA.DIHEDRAL.0>
1.75624

>  <SCORE.INTRA.POLAR>
0

>  <SCORE.INTRA.POLAR.0>
0

>  <SCORE.INTRA.REPUL>
0

>  <SCORE.INTRA.REPUL.0>
0

>  <SCORE.INTRA.SOLV>
-0.46178

>  <SCORE.INTRA.SOLV.lig_0>
-46.5296

>  <SCORE.INTRA.VDW>
0.0467315

>  <SCORE.INTRA.VDW.0>
-0.381873

>  <SCORE.INTRA.norm>
-0.0213302

>  <SCORE.RESTR>
0

>  <SCORE.RESTR.CAVITY>
0

>  <SCORE.RESTR.norm>
0

>  <SCORE.SYSTEM>
0

>  <SCORE.SYSTEM.CONST>
0

>  <SCORE.SYSTEM.DIHEDRAL>
0

>  <SCORE.SYSTEM.SOLV>
0

>  <SCORE.SYSTEM.norm>
0

>  <SCORE.heavy>
13

>  <SCORE.norm>
-1.22307

>  <RMSD>
0.804

$$$$
ligand
 OpenBabel02271912143D
libRbt.so/2013.1/901 2013/11/27
 13 14  0  0  0  0  0  0  0  0999 V2000
   -3.3456   31.5804   55.0420 N   0  0  0  0  0  0  0  0  0  0  0  0
   -2.2935   30.6502   55.0383 C   0  0  0  0  0  0  0  0  0  0  0  0
   -1.0061   31.0308   55.5723 N   0  0  0  0  0  0  0  0  0  0  0  0
   -2.4904   29.3824   54.5400 N   0  0  0  0  0  0  0  0  0  0  0  0
   -3.7409   28.9741   54.0085 C   0  0  0  0  0  0  0  0  0  0  0  0
   -4.8323   29.9093   53.9771 C   0  0  0  0  0  0  0  0  0  0  0  0
   -4.5882   31.2336   54.5013 C   0  0  0  0  0  0  0  0  0  0  0  0
   -5.6357   32.1116   54.4756 O   0  0  0  0  0  0  0  0  0  0  0  0
   -5.9809   29.2513   53.3979 C   0  0  0  0  0  0  0  0  0  0  0  0
   -5.5349   27.9657   53.0870 C   0  0  0  0  0  0  0  0  0  0  0  0
   -4.2124   27.8081   53.4597 N   0  0  0  0  0  0  0  0  0  0  0  0
   -7.3514   29.8454   53.1384 C   0  0  0  0  0  0  0  0  0  0  0  0
   -7.4671   30.4818   51.8281 N   0  0  0  0  0  0  0  0  0  0  0  0
  1  2  1  0  0  0  0
  1  7  1  0  0  0  0
  2  3  1  0  0  0  0
  2  4  2  0  0  0  0
  4  5  1  0  0  0  0
  5  6  2  0  0  0  0
  5 11  1  0  0  0  0
  6  7  1  0  0  0  0
  6  9  1  0  0  0  0
  7  8  2  0  0  0  0
  9 10  2  0  0  0  0
  9 12  1  0  0  0  0
 10 11  1  0  0  0  0
 12 13  1  0  0  0  0
M  END
>  <CHROM.1>
88.67455406,-4.51213433,30.06608659,54.01066341,0.30746492,-0.39370398,0.30369888

>  <Name>
ligand

>  <RI>
-1

>  <Rbt.Current_Directory>
/home/itssahil/PROJECTS/Mol_Feturizer/Test_systems_manuscript/rnas/4jf2

>  <Rbt.Executable>
rbdock ($Id: //depot/dev/client3/rdock/2013.1/src/exe/rbdock.cxx#4 $)

>  <Rbt.Library>
libRbt.so (2013.1, Build901 2013/11/27)

>  <Rbt.Parameter_File>
/export/apps/rDock/src/rDock_2013.1_src/data/scripts/dock_solv.prm

>  <Rbt.Receptor>
prm/pocket_docking_3.prm

>  <SCORE>
-15.8924

>  <SCORE.INTER>
-15.6346

>  <SCORE.INTER.CONST>
1

>  <SCORE.INTER.POLAR>
0

>  <SCORE.INTER.ROT>
1

>  <SCORE.INTER.SOLV>
16.8704

>  <SCORE.INTER.VDW>
-20.3132

>  <SCORE.INTER.norm>
-1.20266

>  <SCORE.INTRA>
-0.257827

>  <SCORE.INTRA.DIHEDRAL>
-0.187832

>  <SCORE.INTRA.DIHEDRAL.0>
1.75624

>  <SCORE.INTRA.POLAR>
0

>  <SCORE.INTRA.POLAR.0>
0

>  <SCORE.INTRA.REPUL>
0

>  <SCORE.INTRA.REPUL.0>
0

>  <SCORE.INTRA.SOLV>
-0.404612

>  <SCORE.INTRA.SOLV.lig_0>
-46.5296

>  <SCORE.INTRA.VDW>
0.0383951

>  <SCORE.INTRA.VDW.0>
-0.381873

>  <SCORE.INTRA.norm>
-0.0198328

>  <SCORE.RESTR>
0

>  <SCORE.RESTR.CAVITY>
0

>  <SCORE.RESTR.norm>
0

>  <SCORE.SYSTEM>
0

>  <SCORE.SYSTEM.CONST>
0

>  <SCORE.SYSTEM.DIHEDRAL>
0

>  <SCORE.SYSTEM.SOLV>
0

>  <SCORE.SYSTEM.norm>
0

>  <SCORE.heavy>
13

>  <SCORE.norm>
-1.22249

>  <RMSD>
0.804

$$$$
ligand
 OpenBabel02271912143D
libRbt.so/2013.1/901 2013/11/27
 13 14  0  0  0  0  0  0  0  0999 V2000
   -3.4198   31.5356   54.9724 N   0  0  0  0  0  0  0  0  0  0  0  0
   -2.3513   30.6244   54.9864 C   0  0  0  0  0  0  0  0  0  0  0  0
   -1.0723   31.0366   55.5173 N   0  0  0  0  0  0  0  0  0  0  0  0
   -2.5241   29.3454   54.5082 N   0  0  0  0  0  0  0  0  0  0  0  0
   -3.7656   28.9063   53.9803 C   0  0  0  0  0  0  0  0  0  0  0  0
   -4.8735   29.8211   53.9311 C   0  0  0  0  0  0  0  0  0  0  0  0
   -4.6545   31.1579   54.4344 C   0  0  0  0  0  0  0  0  0  0  0  0
   -5.7175   32.0164   54.3919 O   0  0  0  0  0  0  0  0  0  0  0  0
   -6.0085   29.1334   53.3599 C   0  0  0  0  0  0  0  0  0  0  0  0
   -5.5389   27.8512   53.0709 C   0  0  0  0  0  0  0  0  0  0  0  0
   -4.2147   27.7233   53.4494 N   0  0  0  0  0  0  0  0  0  0  0  0
   -7.3887   29.6986   53.0874 C   0  0  0  0  0  0  0  0  0  0  0  0
   -7.5395   30.2292   51.7343 N   0  0  0  0  0  0  0  0  0  0  0  0
  1  2  1  0  0  0  0
  1  7  1  0  0  0  0
  2  3  1  0  0  0  0
  2  4  2  0  0  0  0
  4  5  1  0  0  0  0
  5  6  2  0  0  0  0
  5 11  1  0  0  0  0
  6  7  1  0  0  0  0
  6  9  1  0  0  0  0
  7  8  2  0  0  0  0
  9 10  2  0  0  0  0
  9 12  1  0  0  0  0
 10 11  1  0  0  0  0
 12 13  1  0  0  0  0
M  END
>  <CHROM.1>
92.62960646,-4.55850970,29.97745226,53.96031378,0.33479228,-0.39040030,0.29877782

>  <Name>
ligand

>  <RI>
-1

>  <Rbt.Current_Directory>
/home/itssahil/PROJECTS/Mol_Feturizer/Test_systems_manuscript/rnas/4jf2

>  <Rbt.Executable>
rbdock ($Id: //depot/dev/client3/rdock/2013.1/src/exe/rbdock.cxx#4 $)

>  <Rbt.Library>
libRbt.so (2013.1, Build901 2013/11/27)

>  <Rbt.Parameter_File>
/export/apps/rDock/src/rDock_2013.1_src/data/scripts/dock_solv.prm

>  <Rbt.Receptor>
prm/pocket_docking_3.prm

>  <SCORE>
-15.8297

>  <SCORE.INTER>
-15.5485

>  <SCORE.INTER.CONST>
1

>  <SCORE.INTER.POLAR>
0

>  <SCORE.INTER.ROT>
1

>  <SCORE.INTER.SOLV>
17.3819

>  <SCORE.INTER.VDW>
-20.4263

>  <SCORE.INTER.norm>
-1.19603

>  <SCORE.INTRA>
-0.281207

>  <SCORE.INTRA.DIHEDRAL>
-0.185515

>  <SCORE.INTRA.DIHEDRAL.0>
1.75624

>  <SCORE.INTRA.POLAR>
0

>  <SCORE.INTRA.POLAR.0>
0

>  <SCORE.INTRA.REPUL>
0

>  <SCORE.INTRA.REPUL.0>
0

>  <SCORE.INTRA.SOLV>
-0.473815

>  <SCORE.INTRA.SOLV.lig_0>
-46.5296

>  <SCORE.INTRA.VDW>
0.0484582

>  <SCORE.INTRA.VDW.0>
-0.381873

>  <SCORE.INTRA.norm>
-0.0216313

>  <SCORE.RESTR>
0

>  <SCORE.RESTR.CAVITY>
0

>  <SCORE.RESTR.norm>
0

>  <SCORE.SYSTEM>
0

>  <SCORE.SYSTEM.CONST>
0

>  <SCORE.SYSTEM.DIHEDRAL>
0

>  <SCORE.SYSTEM.SOLV>
0

>  <SCORE.SYSTEM.norm>
0

>  <SCORE.heavy>
13

>  <SCORE.norm>
-1.21767

>  <RMSD>
0.804

$$$$
ligand
 OpenBabel02271912143D
libRbt.so/2013.1/901 2013/11/27
 13 14  0  0  0  0  0  0  0  0999 V2000
   -3.3475   31.5861   55.0338 N   0  0  0  0  0  0  0  0  0  0  0  0
   -2.2935   30.6581   55.0269 C   0  0  0  0  0  0  0  0  0  0  0  0
   -1.0053   31.0414   55.5572 N   0  0  0  0  0  0  0  0  0  0  0  0
   -2.4891   29.3901   54.5289 N   0  0  0  0  0  0  0  0  0  0  0  0
   -3.7402   28.9792   54.0009 C   0  0  0  0  0  0  0  0  0  0  0  0
   -4.8338   29.9121   53.9728 C   0  0  0  0  0  0  0  0  0  0  0  0
   -4.5909   31.2368   54.4966 C   0  0  0  0  0  0  0  0  0  0  0  0
   -5.6404   32.1125   54.4741 O   0  0  0  0  0  0  0  0  0  0  0  0
   -5.9825   29.2518   53.3968 C   0  0  0  0  0  0  0  0  0  0  0  0
   -5.5348   27.9672   53.0843 C   0  0  0  0  0  0  0  0  0  0  0  0
   -4.2108   27.8123   53.4532 N   0  0  0  0  0  0  0  0  0  0  0  0
   -7.3551   29.8430   53.1414 C   0  0  0  0  0  0  0  0  0  0  0  0
   -7.4995   30.4122   51.8033 N   0  0  0  0  0  0  0  0  0  0  0  0
  1  2  1  0  0  0  0
  1  7  1  0  0  0  0
  2  3  1  0  0  0  0
  2  4  2  0  0  0  0
  4  5  1  0  0  0  0
  5  6  2  0  0  0  0
  5 11  1  0  0  0  0
  6  7  1  0  0  0  0
  6  9  1  0  0  0  0
  7  8  2  0  0  0  0
  9 10  2  0  0  0  0
  9 12  1  0  0  0  0
 10 11  1  0  0  0  0
 12 13  1  0  0  0  0
M  END
>  <CHROM.1>
91.94561216,-4.51572506,30.06408735,54.00321857,0.31534358,-0.38999020,0.30759192

>  <Name>
ligand

>  <RI>
-1

>  <Rbt.Current_Directory>
/home/itssahil/PROJECTS/Mol_Feturizer/Test_systems_manuscript/rnas/4jf2

>  <Rbt.Executable>
rbdock ($Id: //depot/dev/client3/rdock/2013.1/src/exe/rbdock.cxx#4 $)

>  <Rbt.Library>
libRbt.so (2013.1, Build901 2013/11/27)

>  <Rbt.Parameter_File>
/export/apps/rDock/src/rDock_2013.1_src/data/scripts/dock_solv.prm

>  <Rbt.Receptor>
prm/pocket_docking_4.prm

>  <SCORE>
-15.9006

>  <SCORE.INTER>
-15.6232

>  <SCORE.INTER.CONST>
1

>  <SCORE.INTER.POLAR>
0

>  <SCORE.INTER.ROT>
1

>  <SCORE.INTER.SOLV>
17.0394

>  <SCORE.INTER.VDW>
-20.3619

>  <SCORE.INTER.norm>
-1.20179

>  <SCORE.INTRA>
-0.277362

>  <SCORE.INTRA.DIHEDRAL>
-0.186255

>  <SCORE.INTRA.DIHEDRAL.0>
1.75624

>  <SCORE.INTRA.POLAR>
0

>  <SCORE.INTRA.POLAR.0>
0

>  <SCORE.INTRA.REPUL>
0

>  <SCORE.INTRA.REPUL.0>
0

>  <SCORE.INTRA.SOLV>
-0.461993

>  <SCORE.INTRA.SOLV.lig_0>
-46.5296

>  <SCORE.INTRA.VDW>
0.0467622

>  <SCORE.INTRA.VDW.0>
-0.381873

>  <SCORE.INTRA.norm>
-0.0213355

>  <SCORE.RESTR>
0

>  <SCORE.RESTR.CAVITY>
0

>  <SCORE.RESTR.norm>
0

>  <SCORE.SYSTEM>
0

>  <SCORE.SYSTEM.CONST>
0

>  <SCORE.SYSTEM.DIHEDRAL>
0

>  <SCORE.SYSTEM.SOLV>
0

>  <SCORE.SYSTEM.norm>
0

>  <SCORE.heavy>
13

>  <SCORE.norm>
-1.22312

>  <RMSD>
0.804

$$$$
ligand
 OpenBabel02271912143D
libRbt.so/2013.1/901 2013/11/27
 13 14  0  0  0  0  0  0  0  0999 V2000
   -3.4209   31.5463   54.9762 N   0  0  0  0  0  0  0  0  0  0  0  0
   -2.3559   30.6311   54.9966 C   0  0  0  0  0  0  0  0  0  0  0  0
   -1.0798   31.0373   55.5389 N   0  0  0  0  0  0  0  0  0  0  0  0
   -2.5296   29.3540   54.5138 N   0  0  0  0  0  0  0  0  0  0  0  0
   -3.7684   28.9207   53.9748 C   0  0  0  0  0  0  0  0  0  0  0  0
   -4.8725   29.8398   53.9189 C   0  0  0  0  0  0  0  0  0  0  0  0
   -4.6526   31.1745   54.4272 C   0  0  0  0  0  0  0  0  0  0  0  0
   -5.7120   32.0371   54.3783 O   0  0  0  0  0  0  0  0  0  0  0  0
   -6.0053   29.1577   53.3368 C   0  0  0  0  0  0  0  0  0  0  0  0
   -5.5380   27.8744   53.0484 C   0  0  0  0  0  0  0  0  0  0  0  0
   -4.2175   27.7408   53.4373 N   0  0  0  0  0  0  0  0  0  0  0  0
   -7.3812   29.7287   53.0545 C   0  0  0  0  0  0  0  0  0  0  0  0
   -7.4915   30.3457   51.7345 N   0  0  0  0  0  0  0  0  0  0  0  0
  1  2  1  0  0  0  0
  1  7  1  0  0  0  0
  2  3  1  0  0  0  0
  2  4  2  0  0  0  0
  4  5  1  0  0  0  0
  5  6  2  0  0  0  0
  5 11  1  0  0  0  0
  6  7  1  0  0  0  0
  6  9  1  0  0  0  0
  7  8  2  0  0  0  0
  9 10  2  0  0  0  0
  9 12  1  0  0  0  0
 10 11  1  0  0  0  0
 12 13  1  0  0  0  0
M  END
>  <CHROM.1>
88.65539224,-4.55486456,30.00161784,53.95369653,0.32548335,-0.39975658,0.29686313

>  <Name>
ligand

>  <RI>
-1

>  <Rbt.Current_Directory>
/home/itssahil/PROJECTS/Mol_Feturizer/Test_systems_manuscript/rnas/4jf2

>  <Rbt.Executable>
rbdock ($Id: //depot/dev/client3/rdock/2013.1/src/exe/rbdock.cxx#4 $)

>  <Rbt.Library>
libRbt.so (2013.1, Build901 2013/11/27)

>  <Rbt.Parameter_File>
/export/apps/rDock/src/rDock_2013.1_src/data/scripts/dock_solv.prm

>  <Rbt.Receptor>
prm/pocket_docking_4.prm

>  <SCORE>
-15.9075

>  <SCORE.INTER>
-15.6499

>  <SCORE.INTER.CONST>
1

>  <SCORE.INTER.POLAR>
0

>  <SCORE.INTER.ROT>
1

>  <SCORE.INTER.SOLV>
17.0892

>  <SCORE.INTER.VDW>
-20.3964

>  <SCORE.INTER.norm>
-1.20384

>  <SCORE.INTRA>
-0.25761

>  <SCORE.INTRA.DIHEDRAL>
-0.187832

>  <SCORE.INTRA.DIHEDRAL.0>
1.75624

>  <SCORE.INTRA.POLAR>
0

>  <SCORE.INTRA.POLAR.0>
0

>  <SCORE.INTRA.REPUL>
0

>  <SCORE.INTRA.REPUL.0>
0

>  <SCORE.INTRA.SOLV>
-0.404077

>  <SCORE.INTRA.SOLV.lig_0>
-46.5296

>  <SCORE.INTRA.VDW>
0.0383448

>  <SCORE.INTRA.VDW.0>
-0.381873

>  <SCORE.INTRA.norm>
-0.0198161

>  <SCORE.RESTR>
0

>  <SCORE.RESTR.CAVITY>
0

>  <SCORE.RESTR.norm>
0

>  <SCORE.SYSTEM>
0

>  <SCORE.SYSTEM.CONST>
0

>  <SCORE.SYSTEM.DIHEDRAL>
0

>  <SCORE.SYSTEM.SOLV>
0

>  <SCORE.SYSTEM.norm>
0

>  <SCORE.heavy>
13

>  <SCORE.norm>
-1.22366

>  <RMSD>
0.804

$$$$
ligand
 OpenBabel02271912143D
libRbt.so/2013.1/901 2013/11/27
 13 14  0  0  0  0  0  0  0  0999 V2000
   -3.3970   31.5496   54.9582 N   0  0  0  0  0  0  0  0  0  0  0  0
   -2.3358   30.6300   54.9770 C   0  0  0  0  0  0  0  0  0  0  0  0
   -1.0547   31.0337   55.5092 N   0  0  0  0  0  0  0  0  0  0  0  0
   -2.5180   29.3510   54.5024 N   0  0  0  0  0  0  0  0  0  0  0  0
   -3.7619   28.9201   53.9735 C   0  0  0  0  0  0  0  0  0  0  0  0
   -4.8624   29.8436   53.9193 C   0  0  0  0  0  0  0  0  0  0  0  0
   -4.6337   31.1801   54.4188 C   0  0  0  0  0  0  0  0  0  0  0  0
   -5.6897   32.0469   54.3717 O   0  0  0  0  0  0  0  0  0  0  0  0
   -6.0017   29.1632   53.3480 C   0  0  0  0  0  0  0  0  0  0  0  0
   -5.5417   27.8763   53.0638 C   0  0  0  0  0  0  0  0  0  0  0  0
   -4.2194   27.7391   53.4453 N   0  0  0  0  0  0  0  0  0  0  0  0
   -7.3769   29.7385   53.0710 C   0  0  0  0  0  0  0  0  0  0  0  0
   -7.4934   30.3465   51.7474 N   0  0  0  0  0  0  0  0  0  0  0  0
  1  2  1  0  0  0  0
  1  7  1  0  0  0  0
  2  3  1  0  0  0  0
  2  4  2  0  0  0  0
  4  5  1  0  0  0  0
  5  6  2  0  0  0  0
  5 11  1  0  0  0  0
  6  7  1  0  0  0  0
  6  9  1  0  0  0  0
  7  8  2  0  0  0  0
  9 10  2  0  0  0  0
  9 12  1  0  0  0  0
 10 11  1  0  0  0  0
 12 13  1  0  0  0  0
M  END
>  <CHROM.1>
88.76209892,-4.54395926,30.00402534,53.95116898,0.31932009,-0.39505881,0.28897535

>  <Name>
ligand

>  <RI>
-1

>  <Rbt.Current_Directory>
/home/itssahil/PROJECTS/Mol_Feturizer/Test_systems_manuscript/rnas/4jf2

>  <Rbt.Executable>
rbdock ($Id: //depot/dev/client3/rdock/2013.1/src/exe/rbdock.cxx#4 $)

>  <Rbt.Library>
libRbt.so (2013.1, Build901 2013/11/27)

>  <Rbt.Parameter_File>
/export/apps/rDock/src/rDock_2013.1_src/data/scripts/dock_solv.prm

>  <Rbt.Receptor>
prm/pocket_docking_6.prm

>  <SCORE>
-15.8858

>  <SCORE.INTER>
-15.6274

>  <SCORE.INTER.CONST>
1

>  <SCORE.INTER.POLAR>
0

>  <SCORE.INTER.ROT>
1

>  <SCORE.INTER.SOLV>
17.1373

>  <SCORE.INTER.VDW>
-20.3974

>  <SCORE.INTER.norm>
-1.20211

>  <SCORE.INTRA>
-0.258425

>  <SCORE.INTRA.DIHEDRAL>
-0.187833

>  <SCORE.INTRA.DIHEDRAL.0>
1.75624

>  <SCORE.INTRA.POLAR>
0

>  <SCORE.INTRA.POLAR.0>
0

>  <SCORE.INTRA.REPUL>
0

>  <SCORE.INTRA.REPUL.0>
0

>  <SCORE.INTRA.SOLV>
-0.406267

>  <SCORE.INTRA.SOLV.lig_0>
-46.5296

>  <SCORE.INTRA.VDW>
0.0386245

>  <SCORE.INTRA.VDW.0>
-0.381873

>  <SCORE.INTRA.norm>
-0.0198789

>  <SCORE.RESTR>
0

>  <SCORE.RESTR.CAVITY>
0

>  <SCORE.RESTR.norm>
0

>  <SCORE.SYSTEM>
0

>  <SCORE.SYSTEM.CONST>
0

>  <SCORE.SYSTEM.DIHEDRAL>
0

>  <SCORE.SYSTEM.SOLV>
0

>  <SCORE.SYSTEM.norm>
0

>  <SCORE.heavy>
13

>  <SCORE.norm>
-1.22199

>  <RMSD>
0.804

$$$$
ligand
 OpenBabel02271912143D
libRbt.so/2013.1/901 2013/11/27
 13 14  0  0  0  0  0  0  0  0999 V2000
   -3.3388   31.5737   55.0446 N   0  0  0  0  0  0  0  0  0  0  0  0
   -2.2869   30.6433   55.0342 C   0  0  0  0  0  0  0  0  0  0  0  0
   -0.9975   31.0221   55.5648 N   0  0  0  0  0  0  0  0  0  0  0  0
   -2.4858   29.3772   54.5327 N   0  0  0  0  0  0  0  0  0  0  0  0
   -3.7382   28.9707   54.0044 C   0  0  0  0  0  0  0  0  0  0  0  0
   -4.8296   29.9062   53.9799 C   0  0  0  0  0  0  0  0  0  0  0  0
   -4.5834   31.2288   54.5073 C   0  0  0  0  0  0  0  0  0  0  0  0
   -5.6309   32.1070   54.4882 O   0  0  0  0  0  0  0  0  0  0  0  0
   -5.9804   29.2502   53.4028 C   0  0  0  0  0  0  0  0  0  0  0  0
   -5.5358   27.9655   53.0862 C   0  0  0  0  0  0  0  0  0  0  0  0
   -4.2119   27.8066   53.4537 N   0  0  0  0  0  0  0  0  0  0  0  0
   -7.3517   29.8453   53.1500 C   0  0  0  0  0  0  0  0  0  0  0  0
   -7.4975   30.4141   51.8120 N   0  0  0  0  0  0  0  0  0  0  0  0
  1  2  1  0  0  0  0
  1  7  1  0  0  0  0
  2  3  1  0  0  0  0
  2  4  2  0  0  0  0
  4  5  1  0  0  0  0
  5  6  2  0  0  0  0
  5 11  1  0  0  0  0
  6  7  1  0  0  0  0
  6  9  1  0  0  0  0
  7  8  2  0  0  0  0
  9 10  2  0  0  0  0
  9 12  1  0  0  0  0
 10 11  1  0  0  0  0
 12 13  1  0  0  0  0
M  END
>  <CHROM.1>
92.17233293,-4.51137659,30.05698992,54.01031683,0.31320141,-0.38995662,0.30973799

>  <Name>
ligand

>  <RI>
-1

>  <Rbt.Current_Directory>
/home/itssahil/PROJECTS/Mol_Feturizer/Test_systems_manuscript/rnas/4jf2

>  <Rbt.Executable>
rbdock ($Id: //depot/dev/client3/rdock/2013.1/src/exe/rbdock.cxx#4 $)

>  <Rbt.Library>
libRbt.so (2013.1, Build901 2013/11/27)

>  <Rbt.Parameter_File>
/export/apps/rDock/src/rDock_2013.1_src/data/scripts/dock_solv.prm

>  <Rbt.Receptor>
prm/pocket_docking_3.prm

>  <SCORE>
-15.9008

>  <SCORE.INTER>
-15.6221

>  <SCORE.INTER.CONST>
1

>  <SCORE.INTER.POLAR>
0

>  <SCORE.INTER.ROT>
1

>  <SCORE.INTER.SOLV>
17.0024

>  <SCORE.INTER.VDW>
-20.3489

>  <SCORE.INTER.norm>
-1.2017

>  <SCORE.INTRA>
-0.278645

>  <SCORE.INTRA.DIHEDRAL>
-0.186026

>  <SCORE.INTRA.DIHEDRAL.0>
1.75624

>  <SCORE.INTRA.POLAR>
0

>  <SCORE.INTRA.POLAR.0>
0

>  <SCORE.INTRA.REPUL>
0

>  <SCORE.INTRA.REPUL.0>
0

>  <SCORE.INTRA.SOLV>
-0.465918

>  <SCORE.INTRA.SOLV.lig_0>
-46.5296

>  <SCORE.INTRA.VDW>
0.0473264

>  <SCORE.INTRA.VDW.0>
-0.381873

>  <SCORE.INTRA.norm>
-0.0214343

>  <SCORE.RESTR>
0

>  <SCORE.RESTR.CAVITY>
0

>  <SCORE.RESTR.norm>
0

>  <SCORE.SYSTEM>
0

>  <SCORE.SYSTEM.CONST>
0

>  <SCORE.SYSTEM.DIHEDRAL>
0

>  <SCORE.SYSTEM.SOLV>
0

>  <SCORE.SYSTEM.norm>
0

>  <SCORE.heavy>
13

>  <SCORE.norm>
-1.22314

>  <RMSD>
0.805

$$$$
ligand
 OpenBabel02271912143D
libRbt.so/2013.1/901 2013/11/27
 13 14  0  0  0  0  0  0  0  0999 V2000
   -3.3378   31.5802   55.0377 N   0  0  0  0  0  0  0  0  0  0  0  0
   -2.2865   30.6490   55.0322 C   0  0  0  0  0  0  0  0  0  0  0  0
   -0.9980   31.0284   55.5645 N   0  0  0  0  0  0  0  0  0  0  0  0
   -2.4852   29.3816   54.5338 N   0  0  0  0  0  0  0  0  0  0  0  0
   -3.7368   28.9746   54.0039 C   0  0  0  0  0  0  0  0  0  0  0  0
   -4.8275   29.9107   53.9744 C   0  0  0  0  0  0  0  0  0  0  0  0
   -4.5815   31.2346   54.4986 C   0  0  0  0  0  0  0  0  0  0  0  0
   -5.6283   32.1135   54.4747 O   0  0  0  0  0  0  0  0  0  0  0  0
   -5.9774   29.2539   53.3966 C   0  0  0  0  0  0  0  0  0  0  0  0
   -5.5330   27.9680   53.0847 C   0  0  0  0  0  0  0  0  0  0  0  0
   -4.2101   27.8092   53.4555 N   0  0  0  0  0  0  0  0  0  0  0  0
   -7.3478   29.8493   53.1392 C   0  0  0  0  0  0  0  0  0  0  0  0
   -7.4678   30.4773   51.8253 N   0  0  0  0  0  0  0  0  0  0  0  0
  1  2  1  0  0  0  0
  1  7  1  0  0  0  0
  2  3  1  0  0  0  0
  2  4  2  0  0  0  0
  4  5  1  0  0  0  0
  5  6  2  0  0  0  0
  5 11  1  0  0  0  0
  6  7  1  0  0  0  0
  6  9  1  0  0  0  0
  7  8  2  0  0  0  0
  9 10  2  0  0  0  0
  9 12  1  0  0  0  0
 10 11  1  0  0  0  0
 12 13  1  0  0  0  0
M  END
>  <CHROM.1>
89.10701214,-4.50737469,30.06650423,54.00722777,0.30698230,-0.39260299,0.30390272

>  <Name>
ligand

>  <RI>
-1

>  <Rbt.Current_Directory>
/home/itssahil/PROJECTS/Mol_Feturizer/Test_systems_manuscript/rnas/4jf2

>  <Rbt.Executable>
rbdock ($Id: //depot/dev/client3/rdock/2013.1/src/exe/rbdock.cxx#4 $)

>  <Rbt.Library>
libRbt.so (2013.1, Build901 2013/11/27)

>  <Rbt.Parameter_File>
/export/apps/rDock/src/rDock_2013.1_src/data/scripts/dock_solv.prm

>  <Rbt.Receptor>
prm/pocket_docking_4.prm

>  <SCORE>
-15.8921

>  <SCORE.INTER>
-15.6316

>  <SCORE.INTER.CONST>
1

>  <SCORE.INTER.POLAR>
0

>  <SCORE.INTER.ROT>
1

>  <SCORE.INTER.SOLV>
16.8833

>  <SCORE.INTER.VDW>
-20.3155

>  <SCORE.INTER.norm>
-1.20243

>  <SCORE.INTRA>
-0.260559

>  <SCORE.INTRA.DIHEDRAL>
-0.187811

>  <SCORE.INTRA.DIHEDRAL.0>
1.75624

>  <SCORE.INTRA.POLAR>
0

>  <SCORE.INTRA.POLAR.0>
0

>  <SCORE.INTRA.REPUL>
0

>  <SCORE.INTRA.REPUL.0>
0

>  <SCORE.INTRA.SOLV>
-0.412358

>  <SCORE.INTRA.SOLV.lig_0>
-46.5296

>  <SCORE.INTRA.VDW>
0.0395255

>  <SCORE.INTRA.VDW.0>
-0.381873

>  <SCORE.INTRA.norm>
-0.020043

>  <SCORE.RESTR>
0

>  <SCORE.RESTR.CAVITY>
0

>  <SCORE.RESTR.norm>
0

>  <SCORE.SYSTEM>
0

>  <SCORE.SYSTEM.CONST>
0

>  <SCORE.SYSTEM.DIHEDRAL>
0

>  <SCORE.SYSTEM.SOLV>
0

>  <SCORE.SYSTEM.norm>
0

>  <SCORE.heavy>
13

>  <SCORE.norm>
-1.22247

>  <RMSD>
0.805

$$$$
ligand
 OpenBabel02271912143D
libRbt.so/2013.1/901 2013/11/27
 13 14  0  0  0  0  0  0  0  0999 V2000
   -3.4163   31.5427   54.9911 N   0  0  0  0  0  0  0  0  0  0  0  0
   -2.3487   30.6304   55.0064 C   0  0  0  0  0  0  0  0  0  0  0  0
   -1.0734   31.0376   55.5497 N   0  0  0  0  0  0  0  0  0  0  0  0
   -2.5191   29.3551   54.5176 N   0  0  0  0  0  0  0  0  0  0  0  0
   -3.7571   28.9210   53.9774 C   0  0  0  0  0  0  0  0  0  0  0  0
   -4.8638   29.8372   53.9266 C   0  0  0  0  0  0  0  0  0  0  0  0
   -4.6473   31.1701   54.4412 C   0  0  0  0  0  0  0  0  0  0  0  0
   -5.7092   32.0299   54.3971 O   0  0  0  0  0  0  0  0  0  0  0  0
   -5.9951   29.1547   53.3420 C   0  0  0  0  0  0  0  0  0  0  0  0
   -5.5245   27.8742   53.0472 C   0  0  0  0  0  0  0  0  0  0  0  0
   -4.2033   27.7423   53.4346 N   0  0  0  0  0  0  0  0  0  0  0  0
   -7.3728   29.7232   53.0634 C   0  0  0  0  0  0  0  0  0  0  0  0
   -7.4764   30.3755   51.7600 N   0  0  0  0  0  0  0  0  0  0  0  0
  1  2  1  0  0  0  0
  1  7  1  0  0  0  0
  2  3  1  0  0  0  0
  2  4  2  0  0  0  0
  4  5  1  0  0  0  0
  5  6  2  0  0  0  0
  5 11  1  0  0  0  0
  6  7  1  0  0  0  0
  6  9  1  0  0  0  0
  7  8  2  0  0  0  0
  9 10  2  0  0  0  0
  9 12  1  0  0  0  0
 10 11  1  0  0  0  0
 12 13  1  0  0  0  0
M  END
>  <CHROM.1>
87.21997801,-4.54585940,30.00211891,53.96311087,0.32528679,-0.39831864,0.30131356

>  <Name>
ligand

>  <RI>
-1

>  <Rbt.Current_Directory>
/home/itssahil/PROJECTS/Mol_Feturizer/Test_systems_manuscript/rnas/4jf2

>  <Rbt.Executable>
rbdock ($Id: //depot/dev/client3/rdock/2013.1/src/exe/rbdock.cxx#4 $)

>  <Rbt.Library>
libRbt.so (2013.1, Build901 2013/11/27)

>  <Rbt.Parameter_File>
/export/apps/rDock/src/rDock_2013.1_src/data/scripts/dock_solv.prm

>  <Rbt.Receptor>
prm/pocket_docking_4.prm

>  <SCORE>
-15.9018

>  <SCORE.INTER>
-15.6606

>  <SCORE.INTER.CONST>
1

>  <SCORE.INTER.POLAR>
0

>  <SCORE.INTER.ROT>
1

>  <SCORE.INTER.SOLV>
17.025

>  <SCORE.INTER.VDW>
-20.3821

>  <SCORE.INTER.norm>
-1.20466

>  <SCORE.INTRA>
-0.241153

>  <SCORE.INTRA.DIHEDRAL>
-0.187484

>  <SCORE.INTRA.DIHEDRAL.0>
1.75624

>  <SCORE.INTRA.POLAR>
0

>  <SCORE.INTRA.POLAR.0>
0

>  <SCORE.INTRA.REPUL>
0

>  <SCORE.INTRA.REPUL.0>
0

>  <SCORE.INTRA.SOLV>
-0.363902

>  <SCORE.INTRA.SOLV.lig_0>
-46.5296

>  <SCORE.INTRA.VDW>
0.03454

>  <SCORE.INTRA.VDW.0>
-0.381873

>  <SCORE.INTRA.norm>
-0.0185502

>  <SCORE.RESTR>
0

>  <SCORE.RESTR.CAVITY>
0

>  <SCORE.RESTR.norm>
0

>  <SCORE.SYSTEM>
0

>  <SCORE.SYSTEM.CONST>
0

>  <SCORE.SYSTEM.DIHEDRAL>
0

>  <SCORE.SYSTEM.SOLV>
0

>  <SCORE.SYSTEM.norm>
0

>  <SCORE.heavy>
13

>  <SCORE.norm>
-1.22321

>  <RMSD>
0.805

$$$$
ligand
 OpenBabel02271912143D
libRbt.so/2013.1/901 2013/11/27
 13 14  0  0  0  0  0  0  0  0999 V2000
   -3.4164   31.5502   54.9632 N   0  0  0  0  0  0  0  0  0  0  0  0
   -2.3527   30.6336   54.9873 C   0  0  0  0  0  0  0  0  0  0  0  0
   -1.0758   31.0403   55.5271 N   0  0  0  0  0  0  0  0  0  0  0  0
   -2.5286   29.3545   54.5105 N   0  0  0  0  0  0  0  0  0  0  0  0
   -3.7683   28.9206   53.9741 C   0  0  0  0  0  0  0  0  0  0  0  0
   -4.8710   29.8411   53.9144 C   0  0  0  0  0  0  0  0  0  0  0  0
   -4.6489   31.1778   54.4165 C   0  0  0  0  0  0  0  0  0  0  0  0
   -5.7071   32.0418   54.3641 O   0  0  0  0  0  0  0  0  0  0  0  0
   -6.0052   29.1581   53.3360 C   0  0  0  0  0  0  0  0  0  0  0  0
   -5.5400   27.8728   53.0533 C   0  0  0  0  0  0  0  0  0  0  0  0
   -4.2194   27.7389   53.4422 N   0  0  0  0  0  0  0  0  0  0  0  0
   -7.3803   29.7298   53.0517 C   0  0  0  0  0  0  0  0  0  0  0  0
   -7.4896   30.3430   51.7299 N   0  0  0  0  0  0  0  0  0  0  0  0
  1  2  1  0  0  0  0
  1  7  1  0  0  0  0
  2  3  1  0  0  0  0
  2  4  2  0  0  0  0
  4  5  1  0  0  0  0
  5  6  2  0  0  0  0
  5 11  1  0  0  0  0
  6  7  1  0  0  0  0
  6  9  1  0  0  0  0
  7  8  2  0  0  0  0
  9 10  2  0  0  0  0
  9 12  1  0  0  0  0
 10 11  1  0  0  0  0
 12 13  1  0  0  0  0
M  END
>  <CHROM.1>
88.55332222,-4.55310002,30.00276599,53.94841737,0.32356152,-0.39976270,0.29149535

>  <Name>
ligand

>  <RI>
-1

>  <Rbt.Current_Directory>
/home/itssahil/PROJECTS/Mol_Feturizer/Test_systems_manuscript/rnas/4jf2

>  <Rbt.Executable>
rbdock ($Id: //depot/dev/client3/rdock/2013.1/src/exe/rbdock.cxx#4 $)

>  <Rbt.Library>
libRbt.so (2013.1, Build901 2013/11/27)

>  <Rbt.Parameter_File>
/export/apps/rDock/src/rDock_2013.1_src/data/scripts/dock_solv.prm

>  <Rbt.Receptor>
prm/pocket_docking_4.prm

>  <SCORE>
-15.9007

>  <SCORE.INTER>
-15.6443

>  <SCORE.INTER.CONST>
1

>  <SCORE.INTER.POLAR>
0

>  <SCORE.INTER.ROT>
1

>  <SCORE.INTER.SOLV>
17.1065

>  <SCORE.INTER.VDW>
-20.3983

>  <SCORE.INTER.norm>
-1.20341

>  <SCORE.INTRA>
-0.256451

>  <SCORE.INTRA.DIHEDRAL>
-0.187828

>  <SCORE.INTRA.DIHEDRAL.0>
1.75624

>  <SCORE.INTRA.POLAR>
0

>  <SCORE.INTRA.POLAR.0>
0

>  <SCORE.INTRA.REPUL>
0

>  <SCORE.INTRA.REPUL.0>
0

>  <SCORE.INTRA.SOLV>
-0.401228

>  <SCORE.INTRA.SOLV.lig_0>
-46.5296

>  <SCORE.INTRA.VDW>
0.0380769

>  <SCORE.INTRA.VDW.0>
-0.381873

>  <SCORE.INTRA.norm>
-0.019727

>  <SCORE.RESTR>
0

>  <SCORE.RESTR.CAVITY>
0

>  <SCORE.RESTR.norm>
0

>  <SCORE.SYSTEM>
0

>  <SCORE.SYSTEM.CONST>
0

>  <SCORE.SYSTEM.DIHEDRAL>
0

>  <SCORE.SYSTEM.SOLV>
0

>  <SCORE.SYSTEM.norm>
0

>  <SCORE.heavy>
13

>  <SCORE.norm>
-1.22313

>  <RMSD>
0.805

$$$$
ligand
 OpenBabel02271912143D
libRbt.so/2013.1/901 2013/11/27
 13 14  0  0  0  0  0  0  0  0999 V2000
   -3.4188   31.5448   54.9866 N   0  0  0  0  0  0  0  0  0  0  0  0
   -2.3560   30.6271   55.0093 C   0  0  0  0  0  0  0  0  0  0  0  0
   -1.0811   31.0292   55.5573 N   0  0  0  0  0  0  0  0  0  0  0  0
   -2.5309   29.3513   54.5235 N   0  0  0  0  0  0  0  0  0  0  0  0
   -3.7686   28.9220   53.9789 C   0  0  0  0  0  0  0  0  0  0  0  0
   -4.8703   29.8438   53.9204 C   0  0  0  0  0  0  0  0  0  0  0  0
   -4.6493   31.1770   54.4321 C   0  0  0  0  0  0  0  0  0  0  0  0
   -5.7064   32.0422   54.3808 O   0  0  0  0  0  0  0  0  0  0  0  0
   -6.0025   29.1655   53.3327 C   0  0  0  0  0  0  0  0  0  0  0  0
   -5.5371   27.8816   53.0437 C   0  0  0  0  0  0  0  0  0  0  0  0
   -4.2184   27.7441   53.4375 N   0  0  0  0  0  0  0  0  0  0  0  0
   -7.3759   29.7402   53.0462 C   0  0  0  0  0  0  0  0  0  0  0  0
   -7.4753   30.3734   51.7330 N   0  0  0  0  0  0  0  0  0  0  0  0
  1  2  1  0  0  0  0
  1  7  1  0  0  0  0
  2  3  1  0  0  0  0
  2  4  2  0  0  0  0
  4  5  1  0  0  0  0
  5  6  2  0  0  0  0
  5 11  1  0  0  0  0
  6  7  1  0  0  0  0
  6  9  1  0  0  0  0
  7  8  2  0  0  0  0
  9 10  2  0  0  0  0
  9 12  1  0  0  0  0
 10 11  1  0  0  0  0
 12 13  1  0  0  0  0
M  END
>  <CHROM.1>
87.99638488,-4.55209776,30.00584794,53.95729015,0.32292020,-0.40417167,0.29761893

>  <Name>
ligand

>  <RI>
-1

>  <Rbt.Current_Directory>
/home/itssahil/PROJECTS/Mol_Feturizer/Test_systems_manuscript/rnas/4jf2

>  <Rbt.Executable>
rbdock ($Id: //depot/dev/client3/rdock/2013.1/src/exe/rbdock.cxx#4 $)

>  <Rbt.Library>
libRbt.so (2013.1, Build901 2013/11/27)

>  <Rbt.Parameter_File>
/export/apps/rDock/src/rDock_2013.1_src/data/scripts/dock_solv.prm

>  <Rbt.Receptor>
prm/pocket_docking_5.prm

>  <SCORE>
-15.8771

>  <SCORE.INTER>
-15.627

>  <SCORE.INTER.CONST>
1

>  <SCORE.INTER.POLAR>
0

>  <SCORE.INTER.ROT>
1

>  <SCORE.INTER.SOLV>
16.9964

>  <SCORE.INTER.VDW>
-20.3502

>  <SCORE.INTER.norm>
-1.20208

>  <SCORE.INTRA>
-0.250098

>  <SCORE.INTRA.DIHEDRAL>
-0.18775

>  <SCORE.INTRA.DIHEDRAL.0>
1.75624

>  <SCORE.INTRA.POLAR>
0

>  <SCORE.INTRA.POLAR.0>
0

>  <SCORE.INTRA.REPUL>
0

>  <SCORE.INTRA.REPUL.0>
0

>  <SCORE.INTRA.SOLV>
-0.38566

>  <SCORE.INTRA.SOLV.lig_0>
-46.5296

>  <SCORE.INTRA.VDW>
0.0366078

>  <SCORE.INTRA.VDW.0>
-0.381873

>  <SCORE.INTRA.norm>
-0.0192383

>  <SCORE.RESTR>
0

>  <SCORE.RESTR.CAVITY>
0

>  <SCORE.RESTR.norm>
0

>  <SCORE.SYSTEM>
0

>  <SCORE.SYSTEM.CONST>
0

>  <SCORE.SYSTEM.DIHEDRAL>
0

>  <SCORE.SYSTEM.SOLV>
0

>  <SCORE.SYSTEM.norm>
0

>  <SCORE.heavy>
13

>  <SCORE.norm>
-1.22132

>  <RMSD>
0.805

$$$$
ligand
 OpenBabel02271912143D
libRbt.so/2013.1/901 2013/11/27
 13 14  0  0  0  0  0  0  0  0999 V2000
   -3.3787   31.5406   54.9683 N   0  0  0  0  0  0  0  0  0  0  0  0
   -2.3187   30.6195   54.9801 C   0  0  0  0  0  0  0  0  0  0  0  0
   -1.0354   31.0193   55.5099 N   0  0  0  0  0  0  0  0  0  0  0  0
   -2.5040   29.3428   54.5007 N   0  0  0  0  0  0  0  0  0  0  0  0
   -3.7502   28.9157   53.9738 C   0  0  0  0  0  0  0  0  0  0  0  0
   -4.8496   29.8409   53.9268 C   0  0  0  0  0  0  0  0  0  0  0  0
   -4.6176   31.1750   54.4312 C   0  0  0  0  0  0  0  0  0  0  0  0
   -5.6725   32.0435   54.3909 O   0  0  0  0  0  0  0  0  0  0  0  0
   -5.9916   29.1644   53.3561 C   0  0  0  0  0  0  0  0  0  0  0  0
   -5.5342   27.8782   53.0653 C   0  0  0  0  0  0  0  0  0  0  0  0
   -4.2109   27.7376   53.4421 N   0  0  0  0  0  0  0  0  0  0  0  0
   -7.3668   29.7428   53.0858 C   0  0  0  0  0  0  0  0  0  0  0  0
   -7.4864   30.3570   51.7654 N   0  0  0  0  0  0  0  0  0  0  0  0
  1  2  1  0  0  0  0
  1  7  1  0  0  0  0
  2  3  1  0  0  0  0
  2  4  2  0  0  0  0
  4  5  1  0  0  0  0
  5  6  2  0  0  0  0
  5 11  1  0  0  0  0
  6  7  1  0  0  0  0
  6  9  1  0  0  0  0
  7  8  2  0  0  0  0
  9 10  2  0  0  0  0
  9 12  1  0  0  0  0
 10 11  1  0  0  0  0
 12 13  1  0  0  0  0
M  END
>  <CHROM.1>
88.73478949,-4.53080927,30.00086599,53.95839140,0.31690769,-0.39252080,0.29220283

>  <Name>
ligand

>  <RI>
-1

>  <Rbt.Current_Directory>
/home/itssahil/PROJECTS/Mol_Feturizer/Test_systems_manuscript/rnas/4jf2

>  <Rbt.Executable>
rbdock ($Id: //depot/dev/client3/rdock/2013.1/src/exe/rbdock.cxx#4 $)

>  <Rbt.Library>
libRbt.so (2013.1, Build901 2013/11/27)

>  <Rbt.Parameter_File>
/export/apps/rDock/src/rDock_2013.1_src/data/scripts/dock_solv.prm

>  <Rbt.Receptor>
prm/pocket_docking_3.prm

>  <SCORE>
-15.8953

>  <SCORE.INTER>
-15.637

>  <SCORE.INTER.CONST>
1

>  <SCORE.INTER.POLAR>
0

>  <SCORE.INTER.ROT>
1

>  <SCORE.INTER.SOLV>
17.1096

>  <SCORE.INTER.VDW>
-20.3946

>  <SCORE.INTER.norm>
-1.20285

>  <SCORE.INTRA>
-0.258256

>  <SCORE.INTRA.DIHEDRAL>
-0.187833

>  <SCORE.INTRA.DIHEDRAL.0>
1.75624

>  <SCORE.INTRA.POLAR>
0

>  <SCORE.INTRA.POLAR.0>
0

>  <SCORE.INTRA.REPUL>
0

>  <SCORE.INTRA.REPUL.0>
0

>  <SCORE.INTRA.SOLV>
-0.405784

>  <SCORE.INTRA.SOLV.lig_0>
-46.5296

>  <SCORE.INTRA.VDW>
0.0385529

>  <SCORE.INTRA.VDW.0>
-0.381873

>  <SCORE.INTRA.norm>
-0.0198658

>  <SCORE.RESTR>
0

>  <SCORE.RESTR.CAVITY>
0

>  <SCORE.RESTR.norm>
0

>  <SCORE.SYSTEM>
0

>  <SCORE.SYSTEM.CONST>
0

>  <SCORE.SYSTEM.DIHEDRAL>
0

>  <SCORE.SYSTEM.SOLV>
0

>  <SCORE.SYSTEM.norm>
0

>  <SCORE.heavy>
13

>  <SCORE.norm>
-1.22271

>  <RMSD>
0.806

$$$$
ligand
 OpenBabel02271912143D
libRbt.so/2013.1/901 2013/11/27
 13 14  0  0  0  0  0  0  0  0999 V2000
   -3.3378   31.5808   55.0391 N   0  0  0  0  0  0  0  0  0  0  0  0
   -2.2872   30.6489   55.0354 C   0  0  0  0  0  0  0  0  0  0  0  0
   -0.9989   31.0278   55.5683 N   0  0  0  0  0  0  0  0  0  0  0  0
   -2.4865   29.3811   54.5380 N   0  0  0  0  0  0  0  0  0  0  0  0
   -3.7379   28.9745   54.0075 C   0  0  0  0  0  0  0  0  0  0  0  0
   -4.8279   29.9114   53.9762 C   0  0  0  0  0  0  0  0  0  0  0  0
   -4.5813   31.2357   54.4993 C   0  0  0  0  0  0  0  0  0  0  0  0
   -5.6274   32.1153   54.4738 O   0  0  0  0  0  0  0  0  0  0  0  0
   -5.9778   29.2550   53.3981 C   0  0  0  0  0  0  0  0  0  0  0  0
   -5.5341   27.9684   53.0877 C   0  0  0  0  0  0  0  0  0  0  0  0
   -4.2116   27.8090   53.4598 N   0  0  0  0  0  0  0  0  0  0  0  0
   -7.3475   29.8511   53.1390 C   0  0  0  0  0  0  0  0  0  0  0  0
   -7.4674   30.4741   51.8227 N   0  0  0  0  0  0  0  0  0  0  0  0
  1  2  1  0  0  0  0
  1  7  1  0  0  0  0
  2  3  1  0  0  0  0
  2  4  2  0  0  0  0
  4  5  1  0  0  0  0
  5  6  2  0  0  0  0
  5 11  1  0  0  0  0
  6  7  1  0  0  0  0
  6  9  1  0  0  0  0
  7  8  2  0  0  0  0
  9 10  2  0  0  0  0
  9 12  1  0  0  0  0
 10 11  1  0  0  0  0
 12 13  1  0  0  0  0
M  END
>  <CHROM.1>
89.29666613,-4.50775754,30.06671828,54.00899860,0.30685789,-0.39357815,0.30294288

>  <Name>
ligand

>  <RI>
-1

>  <Rbt.Current_Directory>
/home/itssahil/PROJECTS/Mol_Feturizer/Test_systems_manuscript/rnas/4jf2

>  <Rbt.Executable>
rbdock ($Id: //depot/dev/client3/rdock/2013.1/src/exe/rbdock.cxx#4 $)

>  <Rbt.Library>
libRbt.so (2013.1, Build901 2013/11/27)

>  <Rbt.Parameter_File>
/export/apps/rDock/src/rDock_2013.1_src/data/scripts/dock_solv.prm

>  <Rbt.Receptor>
prm/pocket_docking_3.prm

>  <SCORE>
-15.8923

>  <SCORE.INTER>
-15.6305

>  <SCORE.INTER.CONST>
1

>  <SCORE.INTER.POLAR>
0

>  <SCORE.INTER.ROT>
1

>  <SCORE.INTER.SOLV>
16.8784

>  <SCORE.INTER.VDW>
-20.3132

>  <SCORE.INTER.norm>
-1.20235

>  <SCORE.INTRA>
-0.261724

>  <SCORE.INTRA.DIHEDRAL>
-0.187784

>  <SCORE.INTRA.DIHEDRAL.0>
1.75624

>  <SCORE.INTRA.POLAR>
0

>  <SCORE.INTRA.POLAR.0>
0

>  <SCORE.INTRA.REPUL>
0

>  <SCORE.INTRA.REPUL.0>
0

>  <SCORE.INTRA.SOLV>
-0.415702

>  <SCORE.INTRA.SOLV.lig_0>
-46.5296

>  <SCORE.INTRA.VDW>
0.0400189

>  <SCORE.INTRA.VDW.0>
-0.381873

>  <SCORE.INTRA.norm>
-0.0201326

>  <SCORE.RESTR>
0

>  <SCORE.RESTR.CAVITY>
0

>  <SCORE.RESTR.norm>
0

>  <SCORE.SYSTEM>
0

>  <SCORE.SYSTEM.CONST>
0

>  <SCORE.SYSTEM.DIHEDRAL>
0

>  <SCORE.SYSTEM.SOLV>
0

>  <SCORE.SYSTEM.norm>
0

>  <SCORE.heavy>
13

>  <SCORE.norm>
-1.22248

>  <RMSD>
0.806

$$$$
ligand
 OpenBabel02271912143D
libRbt.so/2013.1/901 2013/11/27
 13 14  0  0  0  0  0  0  0  0999 V2000
   -3.4208   31.5590   54.9949 N   0  0  0  0  0  0  0  0  0  0  0  0
   -2.3515   30.6486   55.0017 C   0  0  0  0  0  0  0  0  0  0  0  0
   -1.0781   31.0516   55.5525 N   0  0  0  0  0  0  0  0  0  0  0  0
   -2.5186   29.3789   54.4975 N   0  0  0  0  0  0  0  0  0  0  0  0
   -3.7547   28.9489   53.9496 C   0  0  0  0  0  0  0  0  0  0  0  0
   -4.8629   29.8637   53.9073 C   0  0  0  0  0  0  0  0  0  0  0  0
   -4.6500   31.1907   54.4381 C   0  0  0  0  0  0  0  0  0  0  0  0
   -5.7133   32.0491   54.4019 O   0  0  0  0  0  0  0  0  0  0  0  0
   -5.9918   29.1861   53.3124 C   0  0  0  0  0  0  0  0  0  0  0  0
   -5.5181   27.9100   53.0034 C   0  0  0  0  0  0  0  0  0  0  0  0
   -4.1975   27.7759   53.3920 N   0  0  0  0  0  0  0  0  0  0  0  0
   -7.3699   29.7553   53.0376 C   0  0  0  0  0  0  0  0  0  0  0  0
   -7.4829   30.3886   51.7256 N   0  0  0  0  0  0  0  0  0  0  0  0
  1  2  1  0  0  0  0
  1  7  1  0  0  0  0
  2  3  1  0  0  0  0
  2  4  2  0  0  0  0
  4  5  1  0  0  0  0
  5  6  2  0  0  0  0
  5 11  1  0  0  0  0
  6  7  1  0  0  0  0
  6  9  1  0  0  0  0
  7  8  2  0  0  0  0
  9 10  2  0  0  0  0
  9 12  1  0  0  0  0
 10 11  1  0  0  0  0
 12 13  1  0  0  0  0
M  END
>  <CHROM.1>
88.89948709,-4.54626066,30.02592514,53.94511902,0.33124091,-0.39968522,0.31574729

>  <Name>
ligand

>  <RI>
-1

>  <Rbt.Current_Directory>
/home/itssahil/PROJECTS/Mol_Feturizer/Test_systems_manuscript/rnas/4jf2

>  <Rbt.Executable>
rbdock ($Id: //depot/dev/client3/rdock/2013.1/src/exe/rbdock.cxx#4 $)

>  <Rbt.Library>
libRbt.so (2013.1, Build901 2013/11/27)

>  <Rbt.Parameter_File>
/export/apps/rDock/src/rDock_2013.1_src/data/scripts/dock_solv.prm

>  <Rbt.Receptor>
prm/pocket_docking_7.prm

>  <SCORE>
-15.9152

>  <SCORE.INTER>
-15.6559

>  <SCORE.INTER.CONST>
1

>  <SCORE.INTER.POLAR>
0

>  <SCORE.INTER.ROT>
1

>  <SCORE.INTER.SOLV>
17.0062

>  <SCORE.INTER.VDW>
-20.3727

>  <SCORE.INTER.norm>
-1.2043

>  <SCORE.INTRA>
-0.259278

>  <SCORE.INTRA.DIHEDRAL>
-0.187829

>  <SCORE.INTRA.DIHEDRAL.0>
1.75624

>  <SCORE.INTRA.POLAR>
0

>  <SCORE.INTRA.POLAR.0>
0

>  <SCORE.INTRA.REPUL>
0

>  <SCORE.INTRA.REPUL.0>
0

>  <SCORE.INTRA.SOLV>
-0.408695

>  <SCORE.INTRA.SOLV.lig_0>
-46.5296

>  <SCORE.INTRA.VDW>
0.0389839

>  <SCORE.INTRA.VDW.0>
-0.381873

>  <SCORE.INTRA.norm>
-0.0199444

>  <SCORE.RESTR>
0

>  <SCORE.RESTR.CAVITY>
0

>  <SCORE.RESTR.norm>
0

>  <SCORE.SYSTEM>
0

>  <SCORE.SYSTEM.CONST>
0

>  <SCORE.SYSTEM.DIHEDRAL>
0

>  <SCORE.SYSTEM.SOLV>
0

>  <SCORE.SYSTEM.norm>
0

>  <SCORE.heavy>
13

>  <SCORE.norm>
-1.22424

>  <RMSD>
0.806

$$$$
ligand
 OpenBabel02271912143D
libRbt.so/2013.1/901 2013/11/27
 13 14  0  0  0  0  0  0  0  0999 V2000
   -3.4459   31.5241   54.9972 N   0  0  0  0  0  0  0  0  0  0  0  0
   -2.3795   30.6107   55.0240 C   0  0  0  0  0  0  0  0  0  0  0  0
   -1.1098   31.0164   55.5814 N   0  0  0  0  0  0  0  0  0  0  0  0
   -2.5459   29.3357   54.5331 N   0  0  0  0  0  0  0  0  0  0  0  0
   -3.7783   28.9030   53.9791 C   0  0  0  0  0  0  0  0  0  0  0  0
   -4.8834   29.8205   53.9164 C   0  0  0  0  0  0  0  0  0  0  0  0
   -4.6712   31.1529   54.4337 C   0  0  0  0  0  0  0  0  0  0  0  0
   -5.7316   32.0139   54.3782 O   0  0  0  0  0  0  0  0  0  0  0  0
   -6.0090   29.1393   53.3192 C   0  0  0  0  0  0  0  0  0  0  0  0
   -5.5364   27.8583   53.0292 C   0  0  0  0  0  0  0  0  0  0  0  0
   -4.2197   27.7250   53.4311 N   0  0  0  0  0  0  0  0  0  0  0  0
   -7.3829   29.7093   53.0256 C   0  0  0  0  0  0  0  0  0  0  0  0
   -7.4677   30.3738   51.7270 N   0  0  0  0  0  0  0  0  0  0  0  0
  1  2  1  0  0  0  0
  1  7  1  0  0  0  0
  2  3  1  0  0  0  0
  2  4  2  0  0  0  0
  4  5  1  0  0  0  0
  5  6  2  0  0  0  0
  5 11  1  0  0  0  0
  6  7  1  0  0  0  0
  6  9  1  0  0  0  0
  7  8  2  0  0  0  0
  9 10  2  0  0  0  0
  9 12  1  0  0  0  0
 10 11  1  0  0  0  0
 12 13  1  0  0  0  0
M  END
>  <CHROM.1>
86.64095899,-4.56542745,29.98597764,53.95688248,0.32658631,-0.40914576,0.30199351

>  <Name>
ligand

>  <RI>
0

>  <Rbt.Current_Directory>
/home/itssahil/PROJECTS/Mol_Feturizer/Test_systems_manuscript/rnas/4jf2

>  <Rbt.Executable>
rbdock ($Id: //depot/dev/client3/rdock/2013.1/src/exe/rbdock.cxx#4 $)

>  <Rbt.Library>
libRbt.so (2013.1, Build901 2013/11/27)

>  <Rbt.Parameter_File>
/export/apps/rDock/src/rDock_2013.1_src/data/scripts/dock_solv.prm

>  <Rbt.Receptor>
prm/pocket_docking_8.prm

>  <SCORE>
-15.86

>  <SCORE.INTER>
-15.6256

>  <SCORE.INTER.CONST>
1

>  <SCORE.INTER.POLAR>
0

>  <SCORE.INTER.ROT>
1

>  <SCORE.INTER.SOLV>
16.9343

>  <SCORE.INTER.VDW>
-20.3285

>  <SCORE.INTER.norm>
-1.20197

>  <SCORE.INTRA>
-0.234416

>  <SCORE.INTRA.DIHEDRAL>
-0.187166

>  <SCORE.INTRA.DIHEDRAL.0>
1.75624

>  <SCORE.INTRA.POLAR>
0

>  <SCORE.INTRA.POLAR.0>
0

>  <SCORE.INTRA.REPUL>
0

>  <SCORE.INTRA.REPUL.0>
0

>  <SCORE.INTRA.SOLV>
-0.347634

>  <SCORE.INTRA.SOLV.lig_0>
-46.5296

>  <SCORE.INTRA.VDW>
0.0329833

>  <SCORE.INTRA.VDW.0>
-0.381873

>  <SCORE.INTRA.norm>
-0.018032

>  <SCORE.RESTR>
0

>  <SCORE.RESTR.CAVITY>
0

>  <SCORE.RESTR.norm>
0

>  <SCORE.SYSTEM>
0

>  <SCORE.SYSTEM.CONST>
0

>  <SCORE.SYSTEM.DIHEDRAL>
0

>  <SCORE.SYSTEM.SOLV>
0

>  <SCORE.SYSTEM.norm>
0

>  <SCORE.heavy>
13

>  <SCORE.norm>
-1.22

>  <RMSD>
0.806

$$$$
ligand
 OpenBabel02271912143D
libRbt.so/2013.1/901 2013/11/27
 13 14  0  0  0  0  0  0  0  0999 V2000
   -3.4809   31.5435   54.9577 N   0  0  0  0  0  0  0  0  0  0  0  0
   -2.4218   30.6225   55.0033 C   0  0  0  0  0  0  0  0  0  0  0  0
   -1.1536   31.0247   55.5668 N   0  0  0  0  0  0  0  0  0  0  0  0
   -2.5938   29.3435   54.5249 N   0  0  0  0  0  0  0  0  0  0  0  0
   -3.8249   28.9140   53.9655 C   0  0  0  0  0  0  0  0  0  0  0  0
   -4.9224   29.8390   53.8837 C   0  0  0  0  0  0  0  0  0  0  0  0
   -4.7044   31.1754   54.3882 C   0  0  0  0  0  0  0  0  0  0  0  0
   -5.7577   32.0436   54.3145 O   0  0  0  0  0  0  0  0  0  0  0  0
   -6.0482   29.1598   53.2846 C   0  0  0  0  0  0  0  0  0  0  0  0
   -5.5831   27.8722   53.0125 C   0  0  0  0  0  0  0  0  0  0  0  0
   -4.2708   27.7334   53.4266 N   0  0  0  0  0  0  0  0  0  0  0  0
   -7.4153   29.7369   52.9735 C   0  0  0  0  0  0  0  0  0  0  0  0
   -7.5363   30.2308   51.6036 N   0  0  0  0  0  0  0  0  0  0  0  0
  1  2  1  0  0  0  0
  1  7  1  0  0  0  0
  2  3  1  0  0  0  0
  2  4  2  0  0  0  0
  4  5  1  0  0  0  0
  5  6  2  0  0  0  0
  5 11  1  0  0  0  0
  6  7  1  0  0  0  0
  6  9  1  0  0  0  0
  7  8  2  0  0  0  0
  9 10  2  0  0  0  0
  9 12  1  0  0  0  0
 10 11  1  0  0  0  0
 12 13  1  0  0  0  0
M  END
>  <CHROM.1>
94.20771210,-4.60777750,29.98975603,53.91980174,0.33682018,-0.41829723,0.29644846

>  <Name>
ligand

>  <RI>
0

>  <Rbt.Current_Directory>
/home/itssahil/PROJECTS/Mol_Feturizer/Test_systems_manuscript/rnas/4jf2

>  <Rbt.Executable>
rbdock ($Id: //depot/dev/client3/rdock/2013.1/src/exe/rbdock.cxx#4 $)

>  <Rbt.Library>
libRbt.so (2013.1, Build901 2013/11/27)

>  <Rbt.Parameter_File>
/export/apps/rDock/src/rDock_2013.1_src/data/scripts/dock_solv.prm

>  <Rbt.Receptor>
prm/pocket_docking_8.prm

>  <SCORE>
-15.8559

>  <SCORE.INTER>
-15.5662

>  <SCORE.INTER.CONST>
1

>  <SCORE.INTER.POLAR>
0

>  <SCORE.INTER.ROT>
1

>  <SCORE.INTER.SOLV>
17.1867

>  <SCORE.INTER.VDW>
-20.373

>  <SCORE.INTER.norm>
-1.1974

>  <SCORE.INTRA>
-0.289774

>  <SCORE.INTRA.DIHEDRAL>
-0.183275

>  <SCORE.INTRA.DIHEDRAL.0>
1.75624

>  <SCORE.INTRA.POLAR>
0

>  <SCORE.INTRA.POLAR.0>
0

>  <SCORE.INTRA.REPUL>
0

>  <SCORE.INTRA.REPUL.0>
0

>  <SCORE.INTRA.SOLV>
-0.500876

>  <SCORE.INTRA.SOLV.lig_0>
-46.5296

>  <SCORE.INTRA.VDW>
0.052301

>  <SCORE.INTRA.VDW.0>
-0.381873

>  <SCORE.INTRA.norm>
-0.0222903

>  <SCORE.RESTR>
0

>  <SCORE.RESTR.CAVITY>
0

>  <SCORE.RESTR.norm>
0

>  <SCORE.SYSTEM>
0

>  <SCORE.SYSTEM.CONST>
0

>  <SCORE.SYSTEM.DIHEDRAL>
0

>  <SCORE.SYSTEM.SOLV>
0

>  <SCORE.SYSTEM.norm>
0

>  <SCORE.heavy>
13

>  <SCORE.norm>
-1.21969

>  <RMSD>
0.806

$$$$
ligand
 OpenBabel02271912143D
libRbt.so/2013.1/901 2013/11/27
 13 14  0  0  0  0  0  0  0  0999 V2000
   -3.3408   31.5845   55.0366 N   0  0  0  0  0  0  0  0  0  0  0  0
   -2.2897   30.6532   55.0351 C   0  0  0  0  0  0  0  0  0  0  0  0
   -1.0024   31.0331   55.5700 N   0  0  0  0  0  0  0  0  0  0  0  0
   -2.4874   29.3851   54.5379 N   0  0  0  0  0  0  0  0  0  0  0  0
   -3.7377   28.9775   54.0055 C   0  0  0  0  0  0  0  0  0  0  0  0
   -4.8282   29.9138   53.9719 C   0  0  0  0  0  0  0  0  0  0  0  0
   -4.5832   31.2384   54.4949 C   0  0  0  0  0  0  0  0  0  0  0  0
   -5.6298   32.1175   54.4672 O   0  0  0  0  0  0  0  0  0  0  0  0
   -5.9768   29.2564   53.3923 C   0  0  0  0  0  0  0  0  0  0  0  0
   -5.5319   27.9700   53.0832 C   0  0  0  0  0  0  0  0  0  0  0  0
   -4.2099   27.8114   53.4576 N   0  0  0  0  0  0  0  0  0  0  0  0
   -7.3464   29.8517   53.1306 C   0  0  0  0  0  0  0  0  0  0  0  0
   -7.4633   30.4772   51.8152 N   0  0  0  0  0  0  0  0  0  0  0  0
  1  2  1  0  0  0  0
  1  7  1  0  0  0  0
  2  3  1  0  0  0  0
  2  4  2  0  0  0  0
  4  5  1  0  0  0  0
  5  6  2  0  0  0  0
  5 11  1  0  0  0  0
  6  7  1  0  0  0  0
  6  9  1  0  0  0  0
  7  8  2  0  0  0  0
  9 10  2  0  0  0  0
  9 12  1  0  0  0  0
 10 11  1  0  0  0  0
 12 13  1  0  0  0  0
M  END
>  <CHROM.1>
89.13946177,-4.50810772,30.06952622,54.00534978,0.30765648,-0.39502378,0.30274756

>  <Name>
ligand

>  <RI>
-1

>  <Rbt.Current_Directory>
/home/itssahil/PROJECTS/Mol_Feturizer/Test_systems_manuscript/rnas/4jf2

>  <Rbt.Executable>
rbdock ($Id: //depot/dev/client3/rdock/2013.1/src/exe/rbdock.cxx#4 $)

>  <Rbt.Library>
libRbt.so (2013.1, Build901 2013/11/27)

>  <Rbt.Parameter_File>
/export/apps/rDock/src/rDock_2013.1_src/data/scripts/dock_solv.prm

>  <Rbt.Receptor>
prm/pocket_docking_3.prm

>  <SCORE>
-15.8935

>  <SCORE.INTER>
-15.6327

>  <SCORE.INTER.CONST>
1

>  <SCORE.INTER.POLAR>
0

>  <SCORE.INTER.ROT>
1

>  <SCORE.INTER.SOLV>
16.8718

>  <SCORE.INTER.VDW>
-20.3124

>  <SCORE.INTER.norm>
-1.20252

>  <SCORE.INTRA>
-0.260759

>  <SCORE.INTRA.DIHEDRAL>
-0.187807

>  <SCORE.INTRA.DIHEDRAL.0>
1.75624

>  <SCORE.INTRA.POLAR>
0

>  <SCORE.INTRA.POLAR.0>
0

>  <SCORE.INTRA.REPUL>
0

>  <SCORE.INTRA.REPUL.0>
0

>  <SCORE.INTRA.SOLV>
-0.412931

>  <SCORE.INTRA.SOLV.lig_0>
-46.5296

>  <SCORE.INTRA.VDW>
0.03961

>  <SCORE.INTRA.VDW.0>
-0.381873

>  <SCORE.INTRA.norm>
-0.0200584

>  <SCORE.RESTR>
0

>  <SCORE.RESTR.CAVITY>
0

>  <SCORE.RESTR.norm>
0

>  <SCORE.SYSTEM>
0

>  <SCORE.SYSTEM.CONST>
0

>  <SCORE.SYSTEM.DIHEDRAL>
0

>  <SCORE.SYSTEM.SOLV>
0

>  <SCORE.SYSTEM.norm>
0

>  <SCORE.heavy>
13

>  <SCORE.norm>
-1.22258

>  <RMSD>
0.807

$$$$
ligand
 OpenBabel02271912143D
libRbt.so/2013.1/901 2013/11/27
 13 14  0  0  0  0  0  0  0  0999 V2000
   -3.4138   31.5223   55.0169 N   0  0  0  0  0  0  0  0  0  0  0  0
   -2.3492   30.6064   55.0216 C   0  0  0  0  0  0  0  0  0  0  0  0
   -1.0740   31.0014   55.5740 N   0  0  0  0  0  0  0  0  0  0  0  0
   -2.5226   29.3389   54.5140 N   0  0  0  0  0  0  0  0  0  0  0  0
   -3.7606   28.9167   53.9645 C   0  0  0  0  0  0  0  0  0  0  0  0
   -4.8641   29.8372   53.9241 C   0  0  0  0  0  0  0  0  0  0  0  0
   -4.6446   31.1618   54.4585 C   0  0  0  0  0  0  0  0  0  0  0  0
   -5.7035   32.0257   54.4242 O   0  0  0  0  0  0  0  0  0  0  0  0
   -5.9962   29.1670   53.3269 C   0  0  0  0  0  0  0  0  0  0  0  0
   -5.5289   27.8893   53.0147 C   0  0  0  0  0  0  0  0  0  0  0  0
   -4.2092   27.7475   53.4035 N   0  0  0  0  0  0  0  0  0  0  0  0
   -7.3712   29.7440   53.0531 C   0  0  0  0  0  0  0  0  0  0  0  0
   -7.4947   30.3384   51.7239 N   0  0  0  0  0  0  0  0  0  0  0  0
  1  2  1  0  0  0  0
  1  7  1  0  0  0  0
  2  3  1  0  0  0  0
  2  4  2  0  0  0  0
  4  5  1  0  0  0  0
  5  6  2  0  0  0  0
  5 11  1  0  0  0  0
  6  7  1  0  0  0  0
  6  9  1  0  0  0  0
  7  8  2  0  0  0  0
  9 10  2  0  0  0  0
  9 12  1  0  0  0  0
 10 11  1  0  0  0  0
 12 13  1  0  0  0  0
M  END
>  <CHROM.1>
90.99345464,-4.54780749,29.99426399,53.96095919,0.33034979,-0.40146398,0.31846022

>  <Name>
ligand

>  <RI>
-1

>  <Rbt.Current_Directory>
/home/itssahil/PROJECTS/Mol_Feturizer/Test_systems_manuscript/rnas/4jf2

>  <Rbt.Executable>
rbdock ($Id: //depot/dev/client3/rdock/2013.1/src/exe/rbdock.cxx#4 $)

>  <Rbt.Library>
libRbt.so (2013.1, Build901 2013/11/27)

>  <Rbt.Parameter_File>
/export/apps/rDock/src/rDock_2013.1_src/data/scripts/dock_solv.prm

>  <Rbt.Receptor>
prm/pocket_docking_4.prm

>  <SCORE>
-15.8822

>  <SCORE.INTER>
-15.6103

>  <SCORE.INTER.CONST>
1

>  <SCORE.INTER.POLAR>
0

>  <SCORE.INTER.ROT>
1

>  <SCORE.INTER.SOLV>
17.025

>  <SCORE.INTER.VDW>
-20.3485

>  <SCORE.INTER.norm>
-1.20079

>  <SCORE.INTRA>
-0.271877

>  <SCORE.INTRA.DIHEDRAL>
-0.18705

>  <SCORE.INTRA.DIHEDRAL.0>
1.75624

>  <SCORE.INTRA.POLAR>
0

>  <SCORE.INTRA.POLAR.0>
0

>  <SCORE.INTRA.REPUL>
0

>  <SCORE.INTRA.REPUL.0>
0

>  <SCORE.INTRA.SOLV>
-0.445445

>  <SCORE.INTRA.SOLV.lig_0>
-46.5296

>  <SCORE.INTRA.VDW>
0.0443704

>  <SCORE.INTRA.VDW.0>
-0.381873

>  <SCORE.INTRA.norm>
-0.0209136

>  <SCORE.RESTR>
0

>  <SCORE.RESTR.CAVITY>
0

>  <SCORE.RESTR.norm>
0

>  <SCORE.SYSTEM>
0

>  <SCORE.SYSTEM.CONST>
0

>  <SCORE.SYSTEM.DIHEDRAL>
0

>  <SCORE.SYSTEM.SOLV>
0

>  <SCORE.SYSTEM.norm>
0

>  <SCORE.heavy>
13

>  <SCORE.norm>
-1.22171

>  <RMSD>
0.807

$$$$
ligand
 OpenBabel02271912143D
libRbt.so/2013.1/901 2013/11/27
 13 14  0  0  0  0  0  0  0  0999 V2000
   -3.3405   31.5895   55.0402 N   0  0  0  0  0  0  0  0  0  0  0  0
   -2.2877   30.6601   55.0312 C   0  0  0  0  0  0  0  0  0  0  0  0
   -0.9997   31.0398   55.5644 N   0  0  0  0  0  0  0  0  0  0  0  0
   -2.4845   29.3941   54.5285 N   0  0  0  0  0  0  0  0  0  0  0  0
   -3.7356   28.9869   53.9976 C   0  0  0  0  0  0  0  0  0  0  0  0
   -4.8278   29.9213   53.9716 C   0  0  0  0  0  0  0  0  0  0  0  0
   -4.5838   31.2438   54.5004 C   0  0  0  0  0  0  0  0  0  0  0  0
   -5.6320   32.1211   54.4799 O   0  0  0  0  0  0  0  0  0  0  0  0
   -5.9769   29.2647   53.3920 C   0  0  0  0  0  0  0  0  0  0  0  0
   -5.5305   27.9806   53.0755 C   0  0  0  0  0  0  0  0  0  0  0  0
   -4.2072   27.8226   53.4453 N   0  0  0  0  0  0  0  0  0  0  0  0
   -7.3483   29.8587   53.1371 C   0  0  0  0  0  0  0  0  0  0  0  0
   -7.4978   30.4126   51.7932 N   0  0  0  0  0  0  0  0  0  0  0  0
  1  2  1  0  0  0  0
  1  7  1  0  0  0  0
  2  3  1  0  0  0  0
  2  4  2  0  0  0  0
  4  5  1  0  0  0  0
  5  6  2  0  0  0  0
  5 11  1  0  0  0  0
  6  7  1  0  0  0  0
  6  9  1  0  0  0  0
  7  8  2  0  0  0  0
  9 10  2  0  0  0  0
  9 12  1  0  0  0  0
 10 11  1  0  0  0  0
 12 13  1  0  0  0  0
M  END
>  <CHROM.1>
92.92213035,-4.51022651,30.07113962,54.00231599,0.31628725,-0.39131537,0.31171945

>  <Name>
ligand

>  <RI>
-1

>  <Rbt.Current_Directory>
/home/itssahil/PROJECTS/Mol_Feturizer/Test_systems_manuscript/rnas/4jf2

>  <Rbt.Executable>
rbdock ($Id: //depot/dev/client3/rdock/2013.1/src/exe/rbdock.cxx#4 $)

>  <Rbt.Library>
libRbt.so (2013.1, Build901 2013/11/27)

>  <Rbt.Parameter_File>
/export/apps/rDock/src/rDock_2013.1_src/data/scripts/dock_solv.prm

>  <Rbt.Receptor>
prm/pocket_docking_5.prm

>  <SCORE>
-15.8987

>  <SCORE.INTER>
-15.6159

>  <SCORE.INTER.CONST>
1

>  <SCORE.INTER.POLAR>
0

>  <SCORE.INTER.ROT>
1

>  <SCORE.INTER.SOLV>
17.0213

>  <SCORE.INTER.VDW>
-20.351

>  <SCORE.INTER.norm>
-1.20122

>  <SCORE.INTRA>
-0.282827

>  <SCORE.INTRA.DIHEDRAL>
-0.185156

>  <SCORE.INTRA.DIHEDRAL.0>
1.75624

>  <SCORE.INTRA.POLAR>
0

>  <SCORE.INTRA.POLAR.0>
0

>  <SCORE.INTRA.REPUL>
0

>  <SCORE.INTRA.REPUL.0>
0

>  <SCORE.INTRA.SOLV>
-0.478854

>  <SCORE.INTRA.SOLV.lig_0>
-46.5296

>  <SCORE.INTRA.VDW>
0.0491778

>  <SCORE.INTRA.VDW.0>
-0.381873

>  <SCORE.INTRA.norm>
-0.021756

>  <SCORE.RESTR>
0

>  <SCORE.RESTR.CAVITY>
0

>  <SCORE.RESTR.norm>
0

>  <SCORE.SYSTEM>
0

>  <SCORE.SYSTEM.CONST>
0

>  <SCORE.SYSTEM.DIHEDRAL>
0

>  <SCORE.SYSTEM.SOLV>
0

>  <SCORE.SYSTEM.norm>
0

>  <SCORE.heavy>
13

>  <SCORE.norm>
-1.22298

>  <RMSD>
0.807

$$$$
ligand
 OpenBabel02271912143D
libRbt.so/2013.1/901 2013/11/27
 13 14  0  0  0  0  0  0  0  0999 V2000
   -3.3254   31.5807   55.0519 N   0  0  0  0  0  0  0  0  0  0  0  0
   -2.2632   30.6624   55.0267 C   0  0  0  0  0  0  0  0  0  0  0  0
   -0.9717   31.0548   55.5420 N   0  0  0  0  0  0  0  0  0  0  0  0
   -2.4539   29.3950   54.5251 N   0  0  0  0  0  0  0  0  0  0  0  0
   -3.7081   28.9753   54.0116 C   0  0  0  0  0  0  0  0  0  0  0  0
   -4.8103   29.8983   54.0024 C   0  0  0  0  0  0  0  0  0  0  0  0
   -4.5726   31.2227   54.5293 C   0  0  0  0  0  0  0  0  0  0  0  0
   -5.6301   32.0890   54.5249 O   0  0  0  0  0  0  0  0  0  0  0  0
   -5.9606   29.2304   53.4383 C   0  0  0  0  0  0  0  0  0  0  0  0
   -5.5054   27.9514   53.1137 C   0  0  0  0  0  0  0  0  0  0  0  0
   -4.1753   27.8068   53.4645 N   0  0  0  0  0  0  0  0  0  0  0  0
   -7.3416   29.8103   53.2037 C   0  0  0  0  0  0  0  0  0  0  0  0
   -7.4975   30.4164   51.8833 N   0  0  0  0  0  0  0  0  0  0  0  0
  1  2  1  0  0  0  0
  1  7  1  0  0  0  0
  2  3  1  0  0  0  0
  2  4  2  0  0  0  0
  4  5  1  0  0  0  0
  5  6  2  0  0  0  0
  5 11  1  0  0  0  0
  6  7  1  0  0  0  0
  6  9  1  0  0  0  0
  7  8  2  0  0  0  0
  9 10  2  0  0  0  0
  9 12  1  0  0  0  0
 10 11  1  0  0  0  0
 12 13  1  0  0  0  0
M  END
>  <CHROM.1>
90.40213878,-4.49236461,30.05564763,54.03037858,0.31719342,-0.37494136,0.31273560

>  <Name>
ligand

>  <RI>
-1

>  <Rbt.Current_Directory>
/home/itssahil/PROJECTS/Mol_Feturizer/Test_systems_manuscript/rnas/4jf2

>  <Rbt.Executable>
rbdock ($Id: //depot/dev/client3/rdock/2013.1/src/exe/rbdock.cxx#4 $)

>  <Rbt.Library>
libRbt.so (2013.1, Build901 2013/11/27)

>  <Rbt.Parameter_File>
/export/apps/rDock/src/rDock_2013.1_src/data/scripts/dock_solv.prm

>  <Rbt.Receptor>
prm/pocket_docking_5.prm

>  <SCORE>
-15.8906

>  <SCORE.INTER>
-15.6222

>  <SCORE.INTER.CONST>
1

>  <SCORE.INTER.POLAR>
0

>  <SCORE.INTER.ROT>
1

>  <SCORE.INTER.SOLV>
17.134

>  <SCORE.INTER.VDW>
-20.3928

>  <SCORE.INTER.norm>
-1.20171

>  <SCORE.INTRA>
-0.268394

>  <SCORE.INTRA.DIHEDRAL>
-0.187406

>  <SCORE.INTRA.DIHEDRAL.0>
1.75624

>  <SCORE.INTRA.POLAR>
0

>  <SCORE.INTRA.POLAR.0>
0

>  <SCORE.INTRA.REPUL>
0

>  <SCORE.INTRA.REPUL.0>
0

>  <SCORE.INTRA.SOLV>
-0.435116

>  <SCORE.INTRA.SOLV.lig_0>
-46.5296

>  <SCORE.INTRA.VDW>
0.0428669

>  <SCORE.INTRA.VDW.0>
-0.381873

>  <SCORE.INTRA.norm>
-0.0206457

>  <SCORE.RESTR>
0

>  <SCORE.RESTR.CAVITY>
0

>  <SCORE.RESTR.norm>
0

>  <SCORE.SYSTEM>
0

>  <SCORE.SYSTEM.CONST>
0

>  <SCORE.SYSTEM.DIHEDRAL>
0

>  <SCORE.SYSTEM.SOLV>
0

>  <SCORE.SYSTEM.norm>
0

>  <SCORE.heavy>
13

>  <SCORE.norm>
-1.22235

>  <RMSD>
0.807

$$$$
ligand
 OpenBabel02271912143D
libRbt.so/2013.1/901 2013/11/27
 13 14  0  0  0  0  0  0  0  0999 V2000
   -3.3878   31.5417   54.9479 N   0  0  0  0  0  0  0  0  0  0  0  0
   -2.3289   30.6194   54.9689 C   0  0  0  0  0  0  0  0  0  0  0  0
   -1.0471   31.0206   55.5011 N   0  0  0  0  0  0  0  0  0  0  0  0
   -2.5141   29.3401   54.4961 N   0  0  0  0  0  0  0  0  0  0  0  0
   -3.7588   28.9116   53.9671 C   0  0  0  0  0  0  0  0  0  0  0  0
   -4.8569   29.8378   53.9108 C   0  0  0  0  0  0  0  0  0  0  0  0
   -4.6251   31.1745   54.4084 C   0  0  0  0  0  0  0  0  0  0  0  0
   -5.6788   32.0440   54.3593 O   0  0  0  0  0  0  0  0  0  0  0  0
   -5.9976   29.1595   53.3399 C   0  0  0  0  0  0  0  0  0  0  0  0
   -5.5407   27.8710   53.0581 C   0  0  0  0  0  0  0  0  0  0  0  0
   -4.2190   27.7310   53.4405 N   0  0  0  0  0  0  0  0  0  0  0  0
   -7.3711   29.7379   53.0612 C   0  0  0  0  0  0  0  0  0  0  0  0
   -7.4836   30.3494   51.7389 N   0  0  0  0  0  0  0  0  0  0  0  0
  1  2  1  0  0  0  0
  1  7  1  0  0  0  0
  2  3  1  0  0  0  0
  2  4  2  0  0  0  0
  4  5  1  0  0  0  0
  5  6  2  0  0  0  0
  5 11  1  0  0  0  0
  6  7  1  0  0  0  0
  6  9  1  0  0  0  0
  7  8  2  0  0  0  0
  9 10  2  0  0  0  0
  9 12  1  0  0  0  0
 10 11  1  0  0  0  0
 12 13  1  0  0  0  0
M  END
>  <CHROM.1>
88.50526826,-4.53790692,29.99795316,53.94283302,0.31631467,-0.39637266,0.28620085

>  <Name>
ligand

>  <RI>
-1

>  <Rbt.Current_Directory>
/home/itssahil/PROJECTS/Mol_Feturizer/Test_systems_manuscript/rnas/4jf2

>  <Rbt.Executable>
rbdock ($Id: //depot/dev/client3/rdock/2013.1/src/exe/rbdock.cxx#4 $)

>  <Rbt.Library>
libRbt.so (2013.1, Build901 2013/11/27)

>  <Rbt.Parameter_File>
/export/apps/rDock/src/rDock_2013.1_src/data/scripts/dock_solv.prm

>  <Rbt.Receptor>
prm/pocket_docking_7.prm

>  <SCORE>
-15.8903

>  <SCORE.INTER>
-15.6344

>  <SCORE.INTER.CONST>
1

>  <SCORE.INTER.POLAR>
0

>  <SCORE.INTER.ROT>
1

>  <SCORE.INTER.SOLV>
17.1137

>  <SCORE.INTER.VDW>
-20.3941

>  <SCORE.INTER.norm>
-1.20264

>  <SCORE.INTRA>
-0.255905

>  <SCORE.INTRA.DIHEDRAL>
-0.187825

>  <SCORE.INTRA.DIHEDRAL.0>
1.75624

>  <SCORE.INTRA.POLAR>
0

>  <SCORE.INTRA.POLAR.0>
0

>  <SCORE.INTRA.REPUL>
0

>  <SCORE.INTRA.REPUL.0>
0

>  <SCORE.INTRA.SOLV>
-0.399886

>  <SCORE.INTRA.SOLV.lig_0>
-46.5296

>  <SCORE.INTRA.VDW>
0.0379506

>  <SCORE.INTRA.VDW.0>
-0.381873

>  <SCORE.INTRA.norm>
-0.019685

>  <SCORE.RESTR>
0

>  <SCORE.RESTR.CAVITY>
0

>  <SCORE.RESTR.norm>
0

>  <SCORE.SYSTEM>
0

>  <SCORE.SYSTEM.CONST>
0

>  <SCORE.SYSTEM.DIHEDRAL>
0

>  <SCORE.SYSTEM.SOLV>
0

>  <SCORE.SYSTEM.norm>
0

>  <SCORE.heavy>
13

>  <SCORE.norm>
-1.22233

>  <RMSD>
0.807

$$$$
ligand
 OpenBabel02271912143D
libRbt.so/2013.1/901 2013/11/27
 13 14  0  0  0  0  0  0  0  0999 V2000
   -3.3728   31.5582   54.9839 N   0  0  0  0  0  0  0  0  0  0  0  0
   -2.3116   30.6384   54.9837 C   0  0  0  0  0  0  0  0  0  0  0  0
   -1.0292   31.0323   55.5203 N   0  0  0  0  0  0  0  0  0  0  0  0
   -2.4948   29.3683   54.4862 N   0  0  0  0  0  0  0  0  0  0  0  0
   -3.7399   28.9471   53.9522 C   0  0  0  0  0  0  0  0  0  0  0  0
   -4.8404   29.8714   53.9172 C   0  0  0  0  0  0  0  0  0  0  0  0
   -4.6106   31.1986   54.4406 C   0  0  0  0  0  0  0  0  0  0  0  0
   -5.6667   32.0662   54.4116 O   0  0  0  0  0  0  0  0  0  0  0  0
   -5.9811   29.2015   53.3361 C   0  0  0  0  0  0  0  0  0  0  0  0
   -5.5217   27.9201   53.0275 C   0  0  0  0  0  0  0  0  0  0  0  0
   -4.1986   27.7759   53.4036 N   0  0  0  0  0  0  0  0  0  0  0  0
   -7.3568   29.7818   53.0727 C   0  0  0  0  0  0  0  0  0  0  0  0
   -7.4860   30.3848   51.7480 N   0  0  0  0  0  0  0  0  0  0  0  0
  1  2  1  0  0  0  0
  1  7  1  0  0  0  0
  2  3  1  0  0  0  0
  2  4  2  0  0  0  0
  4  5  1  0  0  0  0
  5  6  2  0  0  0  0
  5 11  1  0  0  0  0
  6  7  1  0  0  0  0
  6  9  1  0  0  0  0
  7  8  2  0  0  0  0
  9 10  2  0  0  0  0
  9 12  1  0  0  0  0
 10 11  1  0  0  0  0
 12 13  1  0  0  0  0
M  END
>  <CHROM.1>
90.17788160,-4.52274612,30.02889905,53.95032532,0.32145801,-0.39287078,0.30831578

>  <Name>
ligand

>  <RI>
-1

>  <Rbt.Current_Directory>
/home/itssahil/PROJECTS/Mol_Feturizer/Test_systems_manuscript/rnas/4jf2

>  <Rbt.Executable>
rbdock ($Id: //depot/dev/client3/rdock/2013.1/src/exe/rbdock.cxx#4 $)

>  <Rbt.Library>
libRbt.so (2013.1, Build901 2013/11/27)

>  <Rbt.Parameter_File>
/export/apps/rDock/src/rDock_2013.1_src/data/scripts/dock_solv.prm

>  <Rbt.Receptor>
prm/pocket_docking_4.prm

>  <SCORE>
-15.9141

>  <SCORE.INTER>
-15.647

>  <SCORE.INTER.CONST>
1

>  <SCORE.INTER.POLAR>
0

>  <SCORE.INTER.ROT>
1

>  <SCORE.INTER.SOLV>
17.0672

>  <SCORE.INTER.VDW>
-20.3871

>  <SCORE.INTER.norm>
-1.20362

>  <SCORE.INTRA>
-0.267058

>  <SCORE.INTRA.DIHEDRAL>
-0.187513

>  <SCORE.INTRA.DIHEDRAL.0>
1.75624

>  <SCORE.INTRA.POLAR>
0

>  <SCORE.INTRA.POLAR.0>
0

>  <SCORE.INTRA.REPUL>
0

>  <SCORE.INTRA.REPUL.0>
0

>  <SCORE.INTRA.SOLV>
-0.431189

>  <SCORE.INTRA.SOLV.lig_0>
-46.5296

>  <SCORE.INTRA.VDW>
0.0422931

>  <SCORE.INTRA.VDW.0>
-0.381873

>  <SCORE.INTRA.norm>
-0.0205429

>  <SCORE.RESTR>
0

>  <SCORE.RESTR.CAVITY>
0

>  <SCORE.RESTR.norm>
0

>  <SCORE.SYSTEM>
0

>  <SCORE.SYSTEM.CONST>
0

>  <SCORE.SYSTEM.DIHEDRAL>
0

>  <SCORE.SYSTEM.SOLV>
0

>  <SCORE.SYSTEM.norm>
0

>  <SCORE.heavy>
13

>  <SCORE.norm>
-1.22416

>  <RMSD>
0.808

$$$$
ligand
 OpenBabel02271912143D
libRbt.so/2013.1/901 2013/11/27
 13 14  0  0  0  0  0  0  0  0999 V2000
   -3.3366   31.5850   55.0409 N   0  0  0  0  0  0  0  0  0  0  0  0
   -2.2858   30.6533   55.0364 C   0  0  0  0  0  0  0  0  0  0  0  0
   -0.9972   31.0326   55.5683 N   0  0  0  0  0  0  0  0  0  0  0  0
   -2.4852   29.3855   54.5392 N   0  0  0  0  0  0  0  0  0  0  0  0
   -3.7369   28.9786   54.0097 C   0  0  0  0  0  0  0  0  0  0  0  0
   -4.8272   29.9152   53.9792 C   0  0  0  0  0  0  0  0  0  0  0  0
   -4.5805   31.2395   54.5021 C   0  0  0  0  0  0  0  0  0  0  0  0
   -5.6269   32.1189   54.4774 O   0  0  0  0  0  0  0  0  0  0  0  0
   -5.9774   29.2584   53.4021 C   0  0  0  0  0  0  0  0  0  0  0  0
   -5.5337   27.9720   53.0914 C   0  0  0  0  0  0  0  0  0  0  0  0
   -4.2108   27.8129   53.4624 N   0  0  0  0  0  0  0  0  0  0  0  0
   -7.3475   29.8542   53.1441 C   0  0  0  0  0  0  0  0  0  0  0  0
   -7.4938   30.4067   51.7993 N   0  0  0  0  0  0  0  0  0  0  0  0
  1  2  1  0  0  0  0
  1  7  1  0  0  0  0
  2  3  1  0  0  0  0
  2  4  2  0  0  0  0
  4  5  1  0  0  0  0
  5  6  2  0  0  0  0
  5 11  1  0  0  0  0
  6  7  1  0  0  0  0
  6  9  1  0  0  0  0
  7  8  2  0  0  0  0
  9 10  2  0  0  0  0
  9 12  1  0  0  0  0
 10 11  1  0  0  0  0
 12 13  1  0  0  0  0
M  END
>  <CHROM.1>
92.71814661,-4.50912877,30.06482280,54.00945700,0.31380072,-0.39230661,0.30628452

>  <Name>
ligand

>  <RI>
-1

>  <Rbt.Current_Directory>
/home/itssahil/PROJECTS/Mol_Feturizer/Test_systems_manuscript/rnas/4jf2

>  <Rbt.Executable>
rbdock ($Id: //depot/dev/client3/rdock/2013.1/src/exe/rbdock.cxx#4 $)

>  <Rbt.Library>
libRbt.so (2013.1, Build901 2013/11/27)

>  <Rbt.Parameter_File>
/export/apps/rDock/src/rDock_2013.1_src/data/scripts/dock_solv.prm

>  <Rbt.Receptor>
prm/pocket_docking_4.prm

>  <SCORE>
-15.8981

>  <SCORE.INTER>
-15.6164

>  <SCORE.INTER.CONST>
1

>  <SCORE.INTER.POLAR>
0

>  <SCORE.INTER.ROT>
1

>  <SCORE.INTER.SOLV>
17.015

>  <SCORE.INTER.VDW>
-20.3493

>  <SCORE.INTER.norm>
-1.20126

>  <SCORE.INTRA>
-0.281699

>  <SCORE.INTRA.DIHEDRAL>
-0.185409

>  <SCORE.INTRA.DIHEDRAL.0>
1.75624

>  <SCORE.INTRA.POLAR>
0

>  <SCORE.INTRA.POLAR.0>
0

>  <SCORE.INTRA.REPUL>
0

>  <SCORE.INTRA.REPUL.0>
0

>  <SCORE.INTRA.SOLV>
-0.475342

>  <SCORE.INTRA.SOLV.lig_0>
-46.5296

>  <SCORE.INTRA.VDW>
0.0486763

>  <SCORE.INTRA.VDW.0>
-0.381873

>  <SCORE.INTRA.norm>
-0.0216692

>  <SCORE.RESTR>
0

>  <SCORE.RESTR.CAVITY>
0

>  <SCORE.RESTR.norm>
0

>  <SCORE.SYSTEM>
0

>  <SCORE.SYSTEM.CONST>
0

>  <SCORE.SYSTEM.DIHEDRAL>
0

>  <SCORE.SYSTEM.SOLV>
0

>  <SCORE.SYSTEM.norm>
0

>  <SCORE.heavy>
13

>  <SCORE.norm>
-1.22293

>  <RMSD>
0.808

$$$$
ligand
 OpenBabel02271912143D
libRbt.so/2013.1/901 2013/11/27
 13 14  0  0  0  0  0  0  0  0999 V2000
   -3.3781   31.5623   54.9846 N   0  0  0  0  0  0  0  0  0  0  0  0
   -2.3163   30.6432   54.9849 C   0  0  0  0  0  0  0  0  0  0  0  0
   -1.0352   31.0371   55.5245 N   0  0  0  0  0  0  0  0  0  0  0  0
   -2.4978   29.3737   54.4852 N   0  0  0  0  0  0  0  0  0  0  0  0
   -3.7417   28.9525   53.9483 C   0  0  0  0  0  0  0  0  0  0  0  0
   -4.8428   29.8762   53.9127 C   0  0  0  0  0  0  0  0  0  0  0  0
   -4.6148   31.2027   54.4385 C   0  0  0  0  0  0  0  0  0  0  0  0
   -5.6713   32.0697   54.4088 O   0  0  0  0  0  0  0  0  0  0  0  0
   -5.9819   29.2065   53.3285 C   0  0  0  0  0  0  0  0  0  0  0  0
   -5.5212   27.9258   53.0188 C   0  0  0  0  0  0  0  0  0  0  0  0
   -4.1986   27.7819   53.3970 N   0  0  0  0  0  0  0  0  0  0  0  0
   -7.3575   29.7863   53.0634 C   0  0  0  0  0  0  0  0  0  0  0  0
   -7.4850   30.3902   51.7390 N   0  0  0  0  0  0  0  0  0  0  0  0
  1  2  1  0  0  0  0
  1  7  1  0  0  0  0
  2  3  1  0  0  0  0
  2  4  2  0  0  0  0
  4  5  1  0  0  0  0
  5  6  2  0  0  0  0
  5 11  1  0  0  0  0
  6  7  1  0  0  0  0
  6  9  1  0  0  0  0
  7  8  2  0  0  0  0
  9 10  2  0  0  0  0
  9 12  1  0  0  0  0
 10 11  1  0  0  0  0
 12 13  1  0  0  0  0
M  END
>  <CHROM.1>
90.22597938,-4.52524604,30.03375483,53.94657334,0.32282174,-0.39441581,0.31035922

>  <Name>
ligand

>  <RI>
-1

>  <Rbt.Current_Directory>
/home/itssahil/PROJECTS/Mol_Feturizer/Test_systems_manuscript/rnas/4jf2

>  <Rbt.Executable>
rbdock ($Id: //depot/dev/client3/rdock/2013.1/src/exe/rbdock.cxx#4 $)

>  <Rbt.Library>
libRbt.so (2013.1, Build901 2013/11/27)

>  <Rbt.Parameter_File>
/export/apps/rDock/src/rDock_2013.1_src/data/scripts/dock_solv.prm

>  <Rbt.Receptor>
prm/pocket_docking_7.prm

>  <SCORE>
-15.8931

>  <SCORE.INTER>
-15.6258

>  <SCORE.INTER.CONST>
1

>  <SCORE.INTER.POLAR>
0

>  <SCORE.INTER.ROT>
1

>  <SCORE.INTER.SOLV>
17.0517

>  <SCORE.INTER.VDW>
-20.3678

>  <SCORE.INTER.norm>
-1.20198

>  <SCORE.INTRA>
-0.267345

>  <SCORE.INTRA.DIHEDRAL>
-0.187491

>  <SCORE.INTRA.DIHEDRAL.0>
1.75624

>  <SCORE.INTRA.POLAR>
0

>  <SCORE.INTRA.POLAR.0>
0

>  <SCORE.INTRA.REPUL>
0

>  <SCORE.INTRA.REPUL.0>
0

>  <SCORE.INTRA.SOLV>
-0.432032

>  <SCORE.INTRA.SOLV.lig_0>
-46.5296

>  <SCORE.INTRA.VDW>
0.0424163

>  <SCORE.INTRA.VDW.0>
-0.381873

>  <SCORE.INTRA.norm>
-0.020565

>  <SCORE.RESTR>
0

>  <SCORE.RESTR.CAVITY>
0

>  <SCORE.RESTR.norm>
0

>  <SCORE.SYSTEM>
0

>  <SCORE.SYSTEM.CONST>
0

>  <SCORE.SYSTEM.DIHEDRAL>
0

>  <SCORE.SYSTEM.SOLV>
0

>  <SCORE.SYSTEM.norm>
0

>  <SCORE.heavy>
13

>  <SCORE.norm>
-1.22255

>  <RMSD>
0.808

$$$$
ligand
 OpenBabel02271912143D
libRbt.so/2013.1/901 2013/11/27
 13 14  0  0  0  0  0  0  0  0999 V2000
   -3.4167   31.5549   54.9777 N   0  0  0  0  0  0  0  0  0  0  0  0
   -2.3492   30.6423   54.9876 C   0  0  0  0  0  0  0  0  0  0  0  0
   -1.0752   31.0444   55.5377 N   0  0  0  0  0  0  0  0  0  0  0  0
   -2.5186   29.3715   54.4870 N   0  0  0  0  0  0  0  0  0  0  0  0
   -3.7552   28.9424   53.9397 C   0  0  0  0  0  0  0  0  0  0  0  0
   -4.8617   29.8592   53.8943 C   0  0  0  0  0  0  0  0  0  0  0  0
   -4.6464   31.1874   54.4213 C   0  0  0  0  0  0  0  0  0  0  0  0
   -5.7080   32.0477   54.3823 O   0  0  0  0  0  0  0  0  0  0  0  0
   -5.9916   29.1822   53.3008 C   0  0  0  0  0  0  0  0  0  0  0  0
   -5.5203   27.9042   52.9957 C   0  0  0  0  0  0  0  0  0  0  0  0
   -4.2002   27.7687   53.3852 N   0  0  0  0  0  0  0  0  0  0  0  0
   -7.3685   29.7533   53.0238 C   0  0  0  0  0  0  0  0  0  0  0  0
   -7.4798   30.3824   51.7096 N   0  0  0  0  0  0  0  0  0  0  0  0
  1  2  1  0  0  0  0
  1  7  1  0  0  0  0
  2  3  1  0  0  0  0
  2  4  2  0  0  0  0
  4  5  1  0  0  0  0
  5  6  2  0  0  0  0
  5 11  1  0  0  0  0
  6  7  1  0  0  0  0
  6  9  1  0  0  0  0
  7  8  2  0  0  0  0
  9 10  2  0  0  0  0
  9 12  1  0  0  0  0
 10 11  1  0  0  0  0
 12 13  1  0  0  0  0
M  END
>  <CHROM.1>
88.93324839,-4.54472929,30.02090111,53.93176293,0.32942513,-0.40071447,0.31217940

>  <Name>
ligand

>  <RI>
-1

>  <Rbt.Current_Directory>
/home/itssahil/PROJECTS/Mol_Feturizer/Test_systems_manuscript/rnas/4jf2

>  <Rbt.Executable>
rbdock ($Id: //depot/dev/client3/rdock/2013.1/src/exe/rbdock.cxx#4 $)

>  <Rbt.Library>
libRbt.so (2013.1, Build901 2013/11/27)

>  <Rbt.Parameter_File>
/export/apps/rDock/src/rDock_2013.1_src/data/scripts/dock_solv.prm

>  <Rbt.Receptor>
prm/pocket_docking_7.prm

>  <SCORE>
-15.9073

>  <SCORE.INTER>
-15.6478

>  <SCORE.INTER.CONST>
1

>  <SCORE.INTER.POLAR>
0

>  <SCORE.INTER.ROT>
1

>  <SCORE.INTER.SOLV>
17.0156

>  <SCORE.INTER.VDW>
-20.3704

>  <SCORE.INTER.norm>
-1.20367

>  <SCORE.INTRA>
-0.259487

>  <SCORE.INTRA.DIHEDRAL>
-0.187827

>  <SCORE.INTRA.DIHEDRAL.0>
1.75624

>  <SCORE.INTRA.POLAR>
0

>  <SCORE.INTRA.POLAR.0>
0

>  <SCORE.INTRA.REPUL>
0

>  <SCORE.INTRA.REPUL.0>
0

>  <SCORE.INTRA.SOLV>
-0.409291

>  <SCORE.INTRA.SOLV.lig_0>
-46.5296

>  <SCORE.INTRA.VDW>
0.0390722

>  <SCORE.INTRA.VDW.0>
-0.381873

>  <SCORE.INTRA.norm>
-0.0199605

>  <SCORE.RESTR>
0

>  <SCORE.RESTR.CAVITY>
0

>  <SCORE.RESTR.norm>
0

>  <SCORE.SYSTEM>
0

>  <SCORE.SYSTEM.CONST>
0

>  <SCORE.SYSTEM.DIHEDRAL>
0

>  <SCORE.SYSTEM.SOLV>
0

>  <SCORE.SYSTEM.norm>
0

>  <SCORE.heavy>
13

>  <SCORE.norm>
-1.22363

>  <RMSD>
0.808

$$$$
ligand
 OpenBabel02271912143D
libRbt.so/2013.1/901 2013/11/27
 13 14  0  0  0  0  0  0  0  0999 V2000
   -3.4109   31.5412   54.9944 N   0  0  0  0  0  0  0  0  0  0  0  0
   -2.3506   30.6206   55.0173 C   0  0  0  0  0  0  0  0  0  0  0  0
   -1.0753   31.0187   55.5673 N   0  0  0  0  0  0  0  0  0  0  0  0
   -2.5283   29.3459   54.5296 N   0  0  0  0  0  0  0  0  0  0  0  0
   -3.7664   28.9206   53.9829 C   0  0  0  0  0  0  0  0  0  0  0  0
   -4.8656   29.8454   53.9243 C   0  0  0  0  0  0  0  0  0  0  0  0
   -4.6417   31.1774   54.4380 C   0  0  0  0  0  0  0  0  0  0  0  0
   -5.6965   32.0454   54.3864 O   0  0  0  0  0  0  0  0  0  0  0  0
   -5.9989   29.1709   53.3342 C   0  0  0  0  0  0  0  0  0  0  0  0
   -5.5366   27.8862   53.0442 C   0  0  0  0  0  0  0  0  0  0  0  0
   -4.2187   27.7446   53.4394 N   0  0  0  0  0  0  0  0  0  0  0  0
   -7.3704   29.7496   53.0468 C   0  0  0  0  0  0  0  0  0  0  0  0
   -7.4692   30.3764   51.7305 N   0  0  0  0  0  0  0  0  0  0  0  0
  1  2  1  0  0  0  0
  1  7  1  0  0  0  0
  2  3  1  0  0  0  0
  2  4  2  0  0  0  0
  4  5  1  0  0  0  0
  5  6  2  0  0  0  0
  5 11  1  0  0  0  0
  6  7  1  0  0  0  0
  6  9  1  0  0  0  0
  7  8  2  0  0  0  0
  9 10  2  0  0  0  0
  9 12  1  0  0  0  0
 10 11  1  0  0  0  0
 12 13  1  0  0  0  0
M  END
>  <CHROM.1>
88.41067711,-4.54725694,30.00590877,53.96140492,0.32139568,-0.40610539,0.29839145

>  <Name>
ligand

>  <RI>
0

>  <Rbt.Current_Directory>
/home/itssahil/PROJECTS/Mol_Feturizer/Test_systems_manuscript/rnas/4jf2

>  <Rbt.Executable>
rbdock ($Id: //depot/dev/client3/rdock/2013.1/src/exe/rbdock.cxx#4 $)

>  <Rbt.Library>
libRbt.so (2013.1, Build901 2013/11/27)

>  <Rbt.Parameter_File>
/export/apps/rDock/src/rDock_2013.1_src/data/scripts/dock_solv.prm

>  <Rbt.Receptor>
prm/pocket_docking_8.prm

>  <SCORE>
-15.8765

>  <SCORE.INTER>
-15.6216

>  <SCORE.INTER.CONST>
1

>  <SCORE.INTER.POLAR>
0

>  <SCORE.INTER.ROT>
1

>  <SCORE.INTER.SOLV>
16.9635

>  <SCORE.INTER.VDW>
-20.3356

>  <SCORE.INTER.norm>
-1.20166

>  <SCORE.INTRA>
-0.254829

>  <SCORE.INTRA.DIHEDRAL>
-0.187817

>  <SCORE.INTRA.DIHEDRAL.0>
1.75624

>  <SCORE.INTRA.POLAR>
0

>  <SCORE.INTRA.POLAR.0>
0

>  <SCORE.INTRA.REPUL>
0

>  <SCORE.INTRA.REPUL.0>
0

>  <SCORE.INTRA.SOLV>
-0.397244

>  <SCORE.INTRA.SOLV.lig_0>
-46.5296

>  <SCORE.INTRA.VDW>
0.0377017

>  <SCORE.INTRA.VDW.0>
-0.381873

>  <SCORE.INTRA.norm>
-0.0196022

>  <SCORE.RESTR>
0

>  <SCORE.RESTR.CAVITY>
0

>  <SCORE.RESTR.norm>
0

>  <SCORE.SYSTEM>
0

>  <SCORE.SYSTEM.CONST>
0

>  <SCORE.SYSTEM.DIHEDRAL>
0

>  <SCORE.SYSTEM.SOLV>
0

>  <SCORE.SYSTEM.norm>
0

>  <SCORE.heavy>
13

>  <SCORE.norm>
-1.22127

>  <RMSD>
0.808

$$$$
ligand
 OpenBabel02271912143D
libRbt.so/2013.1/901 2013/11/27
 13 14  0  0  0  0  0  0  0  0999 V2000
   -3.3360   31.5873   55.0495 N   0  0  0  0  0  0  0  0  0  0  0  0
   -2.2842   30.6568   55.0404 C   0  0  0  0  0  0  0  0  0  0  0  0
   -0.9958   31.0351   55.5738 N   0  0  0  0  0  0  0  0  0  0  0  0
   -2.4823   29.3911   54.5374 N   0  0  0  0  0  0  0  0  0  0  0  0
   -3.7337   28.9852   54.0064 C   0  0  0  0  0  0  0  0  0  0  0  0
   -4.8250   29.9208   53.9805 C   0  0  0  0  0  0  0  0  0  0  0  0
   -4.5796   31.2430   54.5094 C   0  0  0  0  0  0  0  0  0  0  0  0
   -5.6269   32.1214   54.4890 O   0  0  0  0  0  0  0  0  0  0  0  0
   -5.9746   29.2655   53.4006 C   0  0  0  0  0  0  0  0  0  0  0  0
   -5.5296   27.9810   53.0839 C   0  0  0  0  0  0  0  0  0  0  0  0
   -4.2065   27.8216   53.4539 N   0  0  0  0  0  0  0  0  0  0  0  0
   -7.3454   29.8610   53.1457 C   0  0  0  0  0  0  0  0  0  0  0  0
   -7.4979   30.4051   51.7982 N   0  0  0  0  0  0  0  0  0  0  0  0
  1  2  1  0  0  0  0
  1  7  1  0  0  0  0
  2  3  1  0  0  0  0
  2  4  2  0  0  0  0
  4  5  1  0  0  0  0
  5  6  2  0  0  0  0
  5 11  1  0  0  0  0
  6  7  1  0  0  0  0
  6  9  1  0  0  0  0
  7  8  2  0  0  0  0
  9 10  2  0  0  0  0
  9 12  1  0  0  0  0
 10 11  1  0  0  0  0
 12 13  1  0  0  0  0
M  END
>  <CHROM.1>
93.41002635,-4.50752941,30.06949085,54.01090480,0.31624687,-0.39162398,0.31197183

>  <Name>
ligand

>  <RI>
-1

>  <Rbt.Current_Directory>
/home/itssahil/PROJECTS/Mol_Feturizer/Test_systems_manuscript/rnas/4jf2

>  <Rbt.Executable>
rbdock ($Id: //depot/dev/client3/rdock/2013.1/src/exe/rbdock.cxx#4 $)

>  <Rbt.Library>
libRbt.so (2013.1, Build901 2013/11/27)

>  <Rbt.Parameter_File>
/export/apps/rDock/src/rDock_2013.1_src/data/scripts/dock_solv.prm

>  <Rbt.Receptor>
prm/pocket_docking_3.prm

>  <SCORE>
-15.8942

>  <SCORE.INTER>
-15.6087

>  <SCORE.INTER.CONST>
1

>  <SCORE.INTER.POLAR>
0

>  <SCORE.INTER.ROT>
1

>  <SCORE.INTER.SOLV>
17.0193

>  <SCORE.INTER.VDW>
-20.3456

>  <SCORE.INTER.norm>
-1.20067

>  <SCORE.INTRA>
-0.285497

>  <SCORE.INTRA.DIHEDRAL>
-0.1845

>  <SCORE.INTRA.DIHEDRAL.0>
1.75624

>  <SCORE.INTRA.POLAR>
0

>  <SCORE.INTRA.POLAR.0>
0

>  <SCORE.INTRA.REPUL>
0

>  <SCORE.INTRA.REPUL.0>
0

>  <SCORE.INTRA.SOLV>
-0.487236

>  <SCORE.INTRA.SOLV.lig_0>
-46.5296

>  <SCORE.INTRA.VDW>
0.0503707

>  <SCORE.INTRA.VDW.0>
-0.381873

>  <SCORE.INTRA.norm>
-0.0219613

>  <SCORE.RESTR>
0

>  <SCORE.RESTR.CAVITY>
0

>  <SCORE.RESTR.norm>
0

>  <SCORE.SYSTEM>
0

>  <SCORE.SYSTEM.CONST>
0

>  <SCORE.SYSTEM.DIHEDRAL>
0

>  <SCORE.SYSTEM.SOLV>
0

>  <SCORE.SYSTEM.norm>
0

>  <SCORE.heavy>
13

>  <SCORE.norm>
-1.22263

>  <RMSD>
0.809

$$$$
ligand
 OpenBabel02271912143D
libRbt.so/2013.1/901 2013/11/27
 13 14  0  0  0  0  0  0  0  0999 V2000
   -3.4202   31.5530   54.9844 N   0  0  0  0  0  0  0  0  0  0  0  0
   -2.3526   30.6407   54.9922 C   0  0  0  0  0  0  0  0  0  0  0  0
   -1.0790   31.0416   55.5444 N   0  0  0  0  0  0  0  0  0  0  0  0
   -2.5212   29.3713   54.4878 N   0  0  0  0  0  0  0  0  0  0  0  0
   -3.7574   28.9434   53.9385 C   0  0  0  0  0  0  0  0  0  0  0  0
   -4.8641   29.8601   53.8951 C   0  0  0  0  0  0  0  0  0  0  0  0
   -4.6495   31.1868   54.4261 C   0  0  0  0  0  0  0  0  0  0  0  0
   -5.7114   32.0469   54.3889 O   0  0  0  0  0  0  0  0  0  0  0  0
   -5.9934   29.1845   53.2988 C   0  0  0  0  0  0  0  0  0  0  0  0
   -5.5216   27.9076   52.9903 C   0  0  0  0  0  0  0  0  0  0  0  0
   -4.2016   27.7713   53.3803 N   0  0  0  0  0  0  0  0  0  0  0  0
   -7.3703   29.7560   53.0226 C   0  0  0  0  0  0  0  0  0  0  0  0
   -7.4911   30.3580   51.6966 N   0  0  0  0  0  0  0  0  0  0  0  0
  1  2  1  0  0  0  0
  1  7  1  0  0  0  0
  2  3  1  0  0  0  0
  2  4  2  0  0  0  0
  4  5  1  0  0  0  0
  5  6  2  0  0  0  0
  5 11  1  0  0  0  0
  6  7  1  0  0  0  0
  6  9  1  0  0  0  0
  7  8  2  0  0  0  0
  9 10  2  0  0  0  0
  9 12  1  0  0  0  0
 10 11  1  0  0  0  0
 12 13  1  0  0  0  0
M  END
>  <CHROM.1>
90.43936000,-4.54802178,30.01924182,53.93206252,0.33299419,-0.40109381,0.31679126

>  <Name>
ligand

>  <RI>
-1

>  <Rbt.Current_Directory>
/home/itssahil/PROJECTS/Mol_Feturizer/Test_systems_manuscript/rnas/4jf2

>  <Rbt.Executable>
rbdock ($Id: //depot/dev/client3/rdock/2013.1/src/exe/rbdock.cxx#4 $)

>  <Rbt.Library>
libRbt.so (2013.1, Build901 2013/11/27)

>  <Rbt.Parameter_File>
/export/apps/rDock/src/rDock_2013.1_src/data/scripts/dock_solv.prm

>  <Rbt.Receptor>
prm/pocket_docking_3.prm

>  <SCORE>
-15.9002

>  <SCORE.INTER>
-15.6316

>  <SCORE.INTER.CONST>
1

>  <SCORE.INTER.POLAR>
0

>  <SCORE.INTER.ROT>
1

>  <SCORE.INTER.SOLV>
17.0502

>  <SCORE.INTER.VDW>
-20.3711

>  <SCORE.INTER.norm>
-1.20243

>  <SCORE.INTRA>
-0.268615

>  <SCORE.INTRA.DIHEDRAL>
-0.187386

>  <SCORE.INTRA.DIHEDRAL.0>
1.75624

>  <SCORE.INTRA.POLAR>
0

>  <SCORE.INTRA.POLAR.0>
0

>  <SCORE.INTRA.REPUL>
0

>  <SCORE.INTRA.REPUL.0>
0

>  <SCORE.INTRA.SOLV>
-0.435768

>  <SCORE.INTRA.SOLV.lig_0>
-46.5296

>  <SCORE.INTRA.VDW>
0.042962

>  <SCORE.INTRA.VDW.0>
-0.381873

>  <SCORE.INTRA.norm>
-0.0206627

>  <SCORE.RESTR>
0

>  <SCORE.RESTR.CAVITY>
0

>  <SCORE.RESTR.norm>
0

>  <SCORE.SYSTEM>
0

>  <SCORE.SYSTEM.CONST>
0

>  <SCORE.SYSTEM.DIHEDRAL>
0

>  <SCORE.SYSTEM.SOLV>
0

>  <SCORE.SYSTEM.norm>
0

>  <SCORE.heavy>
13

>  <SCORE.norm>
-1.22309

>  <RMSD>
0.809

$$$$
ligand
 OpenBabel02271912143D
libRbt.so/2013.1/901 2013/11/27
 13 14  0  0  0  0  0  0  0  0999 V2000
   -3.3370   31.5837   55.0364 N   0  0  0  0  0  0  0  0  0  0  0  0
   -2.2854   30.6529   55.0307 C   0  0  0  0  0  0  0  0  0  0  0  0
   -0.9971   31.0325   55.5631 N   0  0  0  0  0  0  0  0  0  0  0  0
   -2.4838   29.3855   54.5319 N   0  0  0  0  0  0  0  0  0  0  0  0
   -3.7353   28.9783   54.0020 C   0  0  0  0  0  0  0  0  0  0  0  0
   -4.8262   29.9141   53.9727 C   0  0  0  0  0  0  0  0  0  0  0  0
   -4.5806   31.2379   54.4973 C   0  0  0  0  0  0  0  0  0  0  0  0
   -5.6277   32.1165   54.4737 O   0  0  0  0  0  0  0  0  0  0  0  0
   -5.9759   29.2571   53.3948 C   0  0  0  0  0  0  0  0  0  0  0  0
   -5.5312   27.9714   53.0825 C   0  0  0  0  0  0  0  0  0  0  0  0
   -4.2082   27.8129   53.4533 N   0  0  0  0  0  0  0  0  0  0  0  0
   -7.3465   29.8521   53.1376 C   0  0  0  0  0  0  0  0  0  0  0  0
   -7.4928   30.4076   51.7940 N   0  0  0  0  0  0  0  0  0  0  0  0
  1  2  1  0  0  0  0
  1  7  1  0  0  0  0
  2  3  1  0  0  0  0
  2  4  2  0  0  0  0
  4  5  1  0  0  0  0
  5  6  2  0  0  0  0
  5 11  1  0  0  0  0
  6  7  1  0  0  0  0
  6  9  1  0  0  0  0
  7  8  2  0  0  0  0
  9 10  2  0  0  0  0
  9 12  1  0  0  0  0
 10 11  1  0  0  0  0
 12 13  1  0  0  0  0
M  END
>  <CHROM.1>
92.64738257,-4.50825688,30.06402946,54.00317649,0.31446727,-0.39206358,0.30777756

>  <Name>
ligand

>  <RI>
-1

>  <Rbt.Current_Directory>
/home/itssahil/PROJECTS/Mol_Feturizer/Test_systems_manuscript/rnas/4jf2

>  <Rbt.Executable>
rbdock ($Id: //depot/dev/client3/rdock/2013.1/src/exe/rbdock.cxx#4 $)

>  <Rbt.Library>
libRbt.so (2013.1, Build901 2013/11/27)

>  <Rbt.Parameter_File>
/export/apps/rDock/src/rDock_2013.1_src/data/scripts/dock_solv.prm

>  <Rbt.Receptor>
prm/pocket_docking_3.prm

>  <SCORE>
-15.9008

>  <SCORE.INTER>
-15.6195

>  <SCORE.INTER.CONST>
1

>  <SCORE.INTER.POLAR>
0

>  <SCORE.INTER.ROT>
1

>  <SCORE.INTER.SOLV>
17.0159

>  <SCORE.INTER.VDW>
-20.3516

>  <SCORE.INTER.norm>
-1.2015

>  <SCORE.INTRA>
-0.281306

>  <SCORE.INTRA.DIHEDRAL>
-0.185494

>  <SCORE.INTRA.DIHEDRAL.0>
1.75624

>  <SCORE.INTRA.POLAR>
0

>  <SCORE.INTRA.POLAR.0>
0

>  <SCORE.INTRA.REPUL>
0

>  <SCORE.INTRA.REPUL.0>
0

>  <SCORE.INTRA.SOLV>
-0.474122

>  <SCORE.INTRA.SOLV.lig_0>
-46.5296

>  <SCORE.INTRA.VDW>
0.048502

>  <SCORE.INTRA.VDW.0>
-0.381873

>  <SCORE.INTRA.norm>
-0.0216389

>  <SCORE.RESTR>
0

>  <SCORE.RESTR.CAVITY>
0

>  <SCORE.RESTR.norm>
0

>  <SCORE.SYSTEM>
0

>  <SCORE.SYSTEM.CONST>
0

>  <SCORE.SYSTEM.DIHEDRAL>
0

>  <SCORE.SYSTEM.SOLV>
0

>  <SCORE.SYSTEM.norm>
0

>  <SCORE.heavy>
13

>  <SCORE.norm>
-1.22314

>  <RMSD>
0.809

$$$$
ligand
 OpenBabel02271912143D
libRbt.so/2013.1/901 2013/11/27
 13 14  0  0  0  0  0  0  0  0999 V2000
   -3.4039   31.5463   54.9986 N   0  0  0  0  0  0  0  0  0  0  0  0
   -2.3354   30.6349   55.0009 C   0  0  0  0  0  0  0  0  0  0  0  0
   -1.0600   31.0360   55.5486 N   0  0  0  0  0  0  0  0  0  0  0  0
   -2.5051   29.3661   54.4953 N   0  0  0  0  0  0  0  0  0  0  0  0
   -3.7431   28.9380   53.9503 C   0  0  0  0  0  0  0  0  0  0  0  0
   -4.8506   29.8538   53.9126 C   0  0  0  0  0  0  0  0  0  0  0  0
   -4.6350   31.1799   54.4447 C   0  0  0  0  0  0  0  0  0  0  0  0
   -5.6977   32.0393   54.4130 O   0  0  0  0  0  0  0  0  0  0  0  0
   -5.9818   29.1782   53.3198 C   0  0  0  0  0  0  0  0  0  0  0  0
   -5.5102   27.9021   53.0076 C   0  0  0  0  0  0  0  0  0  0  0  0
   -4.1886   27.7663   53.3921 N   0  0  0  0  0  0  0  0  0  0  0  0
   -7.3602   29.7490   53.0499 C   0  0  0  0  0  0  0  0  0  0  0  0
   -7.4770   30.3827   51.7385 N   0  0  0  0  0  0  0  0  0  0  0  0
  1  2  1  0  0  0  0
  1  7  1  0  0  0  0
  2  3  1  0  0  0  0
  2  4  2  0  0  0  0
  4  5  1  0  0  0  0
  5  6  2  0  0  0  0
  5 11  1  0  0  0  0
  6  7  1  0  0  0  0
  6  9  1  0  0  0  0
  7  8  2  0  0  0  0
  9 10  2  0  0  0  0
  9 12  1  0  0  0  0
 10 11  1  0  0  0  0
 12 13  1  0  0  0  0
M  END
>  <CHROM.1>
88.98464097,-4.53378915,30.01563919,53.94964294,0.32952986,-0.39720268,0.31663348

>  <Name>
ligand

>  <RI>
-1

>  <Rbt.Current_Directory>
/home/itssahil/PROJECTS/Mol_Feturizer/Test_systems_manuscript/rnas/4jf2

>  <Rbt.Executable>
rbdock ($Id: //depot/dev/client3/rdock/2013.1/src/exe/rbdock.cxx#4 $)

>  <Rbt.Library>
libRbt.so (2013.1, Build901 2013/11/27)

>  <Rbt.Parameter_File>
/export/apps/rDock/src/rDock_2013.1_src/data/scripts/dock_solv.prm

>  <Rbt.Receptor>
prm/pocket_docking_4.prm

>  <SCORE>
-15.903

>  <SCORE.INTER>
-15.6432

>  <SCORE.INTER.CONST>
1

>  <SCORE.INTER.POLAR>
0

>  <SCORE.INTER.ROT>
1

>  <SCORE.INTER.SOLV>
17.0087

>  <SCORE.INTER.VDW>
-20.365

>  <SCORE.INTER.norm>
-1.20332

>  <SCORE.INTRA>
-0.259804

>  <SCORE.INTRA.DIHEDRAL>
-0.187823

>  <SCORE.INTRA.DIHEDRAL.0>
1.75624

>  <SCORE.INTRA.POLAR>
0

>  <SCORE.INTRA.POLAR.0>
0

>  <SCORE.INTRA.REPUL>
0

>  <SCORE.INTRA.REPUL.0>
0

>  <SCORE.INTRA.SOLV>
-0.410199

>  <SCORE.INTRA.SOLV.lig_0>
-46.5296

>  <SCORE.INTRA.VDW>
0.0392064

>  <SCORE.INTRA.VDW.0>
-0.381873

>  <SCORE.INTRA.norm>
-0.019985

>  <SCORE.RESTR>
0

>  <SCORE.RESTR.CAVITY>
0

>  <SCORE.RESTR.norm>
0

>  <SCORE.SYSTEM>
0

>  <SCORE.SYSTEM.CONST>
0

>  <SCORE.SYSTEM.DIHEDRAL>
0

>  <SCORE.SYSTEM.SOLV>
0

>  <SCORE.SYSTEM.norm>
0

>  <SCORE.heavy>
13

>  <SCORE.norm>
-1.22331

>  <RMSD>
0.809

$$$$
ligand
 OpenBabel02271912143D
libRbt.so/2013.1/901 2013/11/27
 13 14  0  0  0  0  0  0  0  0999 V2000
   -3.4288   31.5603   54.9943 N   0  0  0  0  0  0  0  0  0  0  0  0
   -2.3607   30.6486   55.0091 C   0  0  0  0  0  0  0  0  0  0  0  0
   -1.0896   31.0518   55.5652 N   0  0  0  0  0  0  0  0  0  0  0  0
   -2.5267   29.3776   54.5077 N   0  0  0  0  0  0  0  0  0  0  0  0
   -3.7604   28.9475   53.9547 C   0  0  0  0  0  0  0  0  0  0  0  0
   -4.8673   29.8634   53.9041 C   0  0  0  0  0  0  0  0  0  0  0  0
   -4.6556   31.1918   54.4321 C   0  0  0  0  0  0  0  0  0  0  0  0
   -5.7178   32.0512   54.3881 O   0  0  0  0  0  0  0  0  0  0  0  0
   -5.9939   29.1854   53.3053 C   0  0  0  0  0  0  0  0  0  0  0  0
   -5.5202   27.9079   53.0024 C   0  0  0  0  0  0  0  0  0  0  0  0
   -4.2018   27.7735   53.3981 N   0  0  0  0  0  0  0  0  0  0  0  0
   -7.3700   29.7554   53.0219 C   0  0  0  0  0  0  0  0  0  0  0  0
   -7.4768   30.3811   51.7057 N   0  0  0  0  0  0  0  0  0  0  0  0
  1  2  1  0  0  0  0
  1  7  1  0  0  0  0
  2  3  1  0  0  0  0
  2  4  2  0  0  0  0
  4  5  1  0  0  0  0
  5  6  2  0  0  0  0
  5 11  1  0  0  0  0
  6  7  1  0  0  0  0
  6  9  1  0  0  0  0
  7  8  2  0  0  0  0
  9 10  2  0  0  0  0
  9 12  1  0  0  0  0
 10 11  1  0  0  0  0
 12 13  1  0  0  0  0
M  END
>  <CHROM.1>
89.09510710,-4.55080583,30.02510593,53.94292170,0.33217026,-0.40489910,0.31328849

>  <Name>
ligand

>  <RI>
-1

>  <Rbt.Current_Directory>
/home/itssahil/PROJECTS/Mol_Feturizer/Test_systems_manuscript/rnas/4jf2

>  <Rbt.Executable>
rbdock ($Id: //depot/dev/client3/rdock/2013.1/src/exe/rbdock.cxx#4 $)

>  <Rbt.Library>
libRbt.so (2013.1, Build901 2013/11/27)

>  <Rbt.Parameter_File>
/export/apps/rDock/src/rDock_2013.1_src/data/scripts/dock_solv.prm

>  <Rbt.Receptor>
prm/pocket_docking_4.prm

>  <SCORE>
-15.912

>  <SCORE.INTER>
-15.6516

>  <SCORE.INTER.CONST>
1

>  <SCORE.INTER.POLAR>
0

>  <SCORE.INTER.ROT>
1

>  <SCORE.INTER.SOLV>
16.9859

>  <SCORE.INTER.VDW>
-20.363

>  <SCORE.INTER.norm>
-1.20397

>  <SCORE.INTRA>
-0.260486

>  <SCORE.INTRA.DIHEDRAL>
-0.187813

>  <SCORE.INTRA.DIHEDRAL.0>
1.75624

>  <SCORE.INTRA.POLAR>
0

>  <SCORE.INTRA.POLAR.0>
0

>  <SCORE.INTRA.REPUL>
0

>  <SCORE.INTRA.REPUL.0>
0

>  <SCORE.INTRA.SOLV>
-0.412148

>  <SCORE.INTRA.SOLV.lig_0>
-46.5296

>  <SCORE.INTRA.VDW>
0.0394945

>  <SCORE.INTRA.VDW.0>
-0.381873

>  <SCORE.INTRA.norm>
-0.0200374

>  <SCORE.RESTR>
0

>  <SCORE.RESTR.CAVITY>
0

>  <SCORE.RESTR.norm>
0

>  <SCORE.SYSTEM>
0

>  <SCORE.SYSTEM.CONST>
0

>  <SCORE.SYSTEM.DIHEDRAL>
0

>  <SCORE.SYSTEM.SOLV>
0

>  <SCORE.SYSTEM.norm>
0

>  <SCORE.heavy>
13

>  <SCORE.norm>
-1.224

>  <RMSD>
0.809

$$$$
ligand
 OpenBabel02271912143D
libRbt.so/2013.1/901 2013/11/27
 13 14  0  0  0  0  0  0  0  0999 V2000
   -3.4191   31.5178   54.9979 N   0  0  0  0  0  0  0  0  0  0  0  0
   -2.3549   30.6017   55.0106 C   0  0  0  0  0  0  0  0  0  0  0  0
   -1.0802   31.0003   55.5618 N   0  0  0  0  0  0  0  0  0  0  0  0
   -2.5280   29.3306   54.5120 N   0  0  0  0  0  0  0  0  0  0  0  0
   -3.7654   28.9048   53.9638 C   0  0  0  0  0  0  0  0  0  0  0  0
   -4.8686   29.8254   53.9155 C   0  0  0  0  0  0  0  0  0  0  0  0
   -4.6494   31.1537   54.4406 C   0  0  0  0  0  0  0  0  0  0  0  0
   -5.7080   32.0176   54.3988 O   0  0  0  0  0  0  0  0  0  0  0  0
   -6.0001   29.1512   53.3216 C   0  0  0  0  0  0  0  0  0  0  0  0
   -5.5329   27.8712   53.0193 C   0  0  0  0  0  0  0  0  0  0  0  0
   -4.2137   27.7318   53.4107 N   0  0  0  0  0  0  0  0  0  0  0  0
   -7.3747   29.7266   53.0419 C   0  0  0  0  0  0  0  0  0  0  0  0
   -7.4959   30.3124   51.7088 N   0  0  0  0  0  0  0  0  0  0  0  0
  1  2  1  0  0  0  0
  1  7  1  0  0  0  0
  2  3  1  0  0  0  0
  2  4  2  0  0  0  0
  4  5  1  0  0  0  0
  5  6  2  0  0  0  0
  5 11  1  0  0  0  0
  6  7  1  0  0  0  0
  6  9  1  0  0  0  0
  7  8  2  0  0  0  0
  9 10  2  0  0  0  0
  9 12  1  0  0  0  0
 10 11  1  0  0  0  0
 12 13  1  0  0  0  0
M  END
>  <CHROM.1>
90.94823096,-4.55228002,29.98266283,53.95163255,0.33038496,-0.40276902,0.31126953

>  <Name>
ligand

>  <RI>
0

>  <Rbt.Current_Directory>
/home/itssahil/PROJECTS/Mol_Feturizer/Test_systems_manuscript/rnas/4jf2

>  <Rbt.Executable>
rbdock ($Id: //depot/dev/client3/rdock/2013.1/src/exe/rbdock.cxx#4 $)

>  <Rbt.Library>
libRbt.so (2013.1, Build901 2013/11/27)

>  <Rbt.Parameter_File>
/export/apps/rDock/src/rDock_2013.1_src/data/scripts/dock_solv.prm

>  <Rbt.Receptor>
prm/pocket_docking_8.prm

>  <SCORE>
-15.873

>  <SCORE.INTER>
-15.6014

>  <SCORE.INTER.CONST>
1

>  <SCORE.INTER.POLAR>
0

>  <SCORE.INTER.ROT>
1

>  <SCORE.INTER.SOLV>
17.0733

>  <SCORE.INTER.VDW>
-20.3587

>  <SCORE.INTER.norm>
-1.2001

>  <SCORE.INTRA>
-0.271613

>  <SCORE.INTRA.DIHEDRAL>
-0.187081

>  <SCORE.INTRA.DIHEDRAL.0>
1.75624

>  <SCORE.INTRA.POLAR>
0

>  <SCORE.INTRA.POLAR.0>
0

>  <SCORE.INTRA.REPUL>
0

>  <SCORE.INTRA.REPUL.0>
0

>  <SCORE.INTRA.SOLV>
-0.444657

>  <SCORE.INTRA.SOLV.lig_0>
-46.5296

>  <SCORE.INTRA.VDW>
0.0442559

>  <SCORE.INTRA.VDW.0>
-0.381873

>  <SCORE.INTRA.norm>
-0.0208933

>  <SCORE.RESTR>
0

>  <SCORE.RESTR.CAVITY>
0

>  <SCORE.RESTR.norm>
0

>  <SCORE.SYSTEM>
0

>  <SCORE.SYSTEM.CONST>
0

>  <SCORE.SYSTEM.DIHEDRAL>
0

>  <SCORE.SYSTEM.SOLV>
0

>  <SCORE.SYSTEM.norm>
0

>  <SCORE.heavy>
13

>  <SCORE.norm>
-1.221

>  <RMSD>
0.809

$$$$
ligand
 OpenBabel02271912143D
libRbt.so/2013.1/901 2013/11/27
 13 14  0  0  0  0  0  0  0  0999 V2000
   -3.4174   31.5652   54.9809 N   0  0  0  0  0  0  0  0  0  0  0  0
   -2.3531   30.6493   55.0034 C   0  0  0  0  0  0  0  0  0  0  0  0
   -1.0803   31.0518   55.5561 N   0  0  0  0  0  0  0  0  0  0  0  0
   -2.5244   29.3749   54.5127 N   0  0  0  0  0  0  0  0  0  0  0  0
   -3.7598   28.9453   53.9632 C   0  0  0  0  0  0  0  0  0  0  0  0
   -4.8630   29.8653   53.9050 C   0  0  0  0  0  0  0  0  0  0  0  0
   -4.6457   31.1972   54.4218 C   0  0  0  0  0  0  0  0  0  0  0  0
   -5.7043   32.0607   54.3706 O   0  0  0  0  0  0  0  0  0  0  0  0
   -5.9924   29.1871   53.3118 C   0  0  0  0  0  0  0  0  0  0  0  0
   -5.5240   27.9051   53.0197 C   0  0  0  0  0  0  0  0  0  0  0  0
   -4.2061   27.7685   53.4165 N   0  0  0  0  0  0  0  0  0  0  0  0
   -7.3660   29.7604   53.0236 C   0  0  0  0  0  0  0  0  0  0  0  0
   -7.4609   30.4046   51.7154 N   0  0  0  0  0  0  0  0  0  0  0  0
  1  2  1  0  0  0  0
  1  7  1  0  0  0  0
  2  3  1  0  0  0  0
  2  4  2  0  0  0  0
  4  5  1  0  0  0  0
  5  6  2  0  0  0  0
  5 11  1  0  0  0  0
  6  7  1  0  0  0  0
  6  9  1  0  0  0  0
  7  8  2  0  0  0  0
  9 10  2  0  0  0  0
  9 12  1  0  0  0  0
 10 11  1  0  0  0  0
 12 13  1  0  0  0  0
M  END
>  <CHROM.1>
87.67041438,-4.54501043,30.02839533,53.94347820,0.32496367,-0.40624505,0.30181462

>  <Name>
ligand

>  <RI>
-1

>  <Rbt.Current_Directory>
/home/itssahil/PROJECTS/Mol_Feturizer/Test_systems_manuscript/rnas/4jf2

>  <Rbt.Executable>
rbdock ($Id: //depot/dev/client3/rdock/2013.1/src/exe/rbdock.cxx#4 $)

>  <Rbt.Library>
libRbt.so (2013.1, Build901 2013/11/27)

>  <Rbt.Parameter_File>
/export/apps/rDock/src/rDock_2013.1_src/data/scripts/dock_solv.prm

>  <Rbt.Receptor>
prm/pocket_docking_3.prm

>  <SCORE>
-15.8818

>  <SCORE.INTER>
-15.6355

>  <SCORE.INTER.CONST>
1

>  <SCORE.INTER.POLAR>
0

>  <SCORE.INTER.ROT>
1

>  <SCORE.INTER.SOLV>
16.9473

>  <SCORE.INTER.VDW>
-20.3394

>  <SCORE.INTER.norm>
-1.20273

>  <SCORE.INTRA>
-0.246355

>  <SCORE.INTRA.DIHEDRAL>
-0.187661

>  <SCORE.INTRA.DIHEDRAL.0>
1.75624

>  <SCORE.INTRA.POLAR>
0

>  <SCORE.INTRA.POLAR.0>
0

>  <SCORE.INTRA.REPUL>
0

>  <SCORE.INTRA.REPUL.0>
0

>  <SCORE.INTRA.SOLV>
-0.376533

>  <SCORE.INTRA.SOLV.lig_0>
-46.5296

>  <SCORE.INTRA.VDW>
0.0357424

>  <SCORE.INTRA.VDW.0>
-0.381873

>  <SCORE.INTRA.norm>
-0.0189504

>  <SCORE.RESTR>
0

>  <SCORE.RESTR.CAVITY>
0

>  <SCORE.RESTR.norm>
0

>  <SCORE.SYSTEM>
0

>  <SCORE.SYSTEM.CONST>
0

>  <SCORE.SYSTEM.DIHEDRAL>
0

>  <SCORE.SYSTEM.SOLV>
0

>  <SCORE.SYSTEM.norm>
0

>  <SCORE.heavy>
13

>  <SCORE.norm>
-1.22168

>  <RMSD>
0.810

$$$$
ligand
 OpenBabel02271912143D
libRbt.so/2013.1/901 2013/11/27
 13 14  0  0  0  0  0  0  0  0999 V2000
   -3.4137   31.5455   54.9817 N   0  0  0  0  0  0  0  0  0  0  0  0
   -2.3540   30.6244   55.0116 C   0  0  0  0  0  0  0  0  0  0  0  0
   -1.0799   31.0243   55.5632 N   0  0  0  0  0  0  0  0  0  0  0  0
   -2.5310   29.3476   54.5293 N   0  0  0  0  0  0  0  0  0  0  0  0
   -3.7680   28.9204   53.9813 C   0  0  0  0  0  0  0  0  0  0  0  0
   -4.8665   29.8455   53.9156 C   0  0  0  0  0  0  0  0  0  0  0  0
   -4.6432   31.1797   54.4237 C   0  0  0  0  0  0  0  0  0  0  0  0
   -5.6974   32.0481   54.3654 O   0  0  0  0  0  0  0  0  0  0  0  0
   -5.9986   29.1689   53.3257 C   0  0  0  0  0  0  0  0  0  0  0  0
   -5.5362   27.8826   53.0427 C   0  0  0  0  0  0  0  0  0  0  0  0
   -4.2195   27.7422   53.4420 N   0  0  0  0  0  0  0  0  0  0  0  0
   -7.3690   29.7471   53.0319 C   0  0  0  0  0  0  0  0  0  0  0  0
   -7.4663   30.3609   51.7094 N   0  0  0  0  0  0  0  0  0  0  0  0
  1  2  1  0  0  0  0
  1  7  1  0  0  0  0
  2  3  1  0  0  0  0
  2  4  2  0  0  0  0
  4  5  1  0  0  0  0
  5  6  2  0  0  0  0
  5 11  1  0  0  0  0
  6  7  1  0  0  0  0
  6  9  1  0  0  0  0
  7  8  2  0  0  0  0
  9 10  2  0  0  0  0
  9 12  1  0  0  0  0
 10 11  1  0  0  0  0
 12 13  1  0  0  0  0
M  END
>  <CHROM.1>
88.74739591,-4.54834432,30.00545934,53.95253722,0.32234588,-0.40877117,0.29420997

>  <Name>
ligand

>  <RI>
-1

>  <Rbt.Current_Directory>
/home/itssahil/PROJECTS/Mol_Feturizer/Test_systems_manuscript/rnas/4jf2

>  <Rbt.Executable>
rbdock ($Id: //depot/dev/client3/rdock/2013.1/src/exe/rbdock.cxx#4 $)

>  <Rbt.Library>
libRbt.so (2013.1, Build901 2013/11/27)

>  <Rbt.Parameter_File>
/export/apps/rDock/src/rDock_2013.1_src/data/scripts/dock_solv.prm

>  <Rbt.Receptor>
prm/pocket_docking_3.prm

>  <SCORE>
-15.8703

>  <SCORE.INTER>
-15.612

>  <SCORE.INTER.CONST>
1

>  <SCORE.INTER.POLAR>
0

>  <SCORE.INTER.ROT>
1

>  <SCORE.INTER.SOLV>
16.987

>  <SCORE.INTER.VDW>
-20.337

>  <SCORE.INTER.norm>
-1.20092

>  <SCORE.INTRA>
-0.258334

>  <SCORE.INTRA.DIHEDRAL>
-0.187833

>  <SCORE.INTRA.DIHEDRAL.0>
1.75624

>  <SCORE.INTRA.POLAR>
0

>  <SCORE.INTRA.POLAR.0>
0

>  <SCORE.INTRA.REPUL>
0

>  <SCORE.INTRA.REPUL.0>
0

>  <SCORE.INTRA.SOLV>
-0.406007

>  <SCORE.INTRA.SOLV.lig_0>
-46.5296

>  <SCORE.INTRA.VDW>
0.038586

>  <SCORE.INTRA.VDW.0>
-0.381873

>  <SCORE.INTRA.norm>
-0.0198718

>  <SCORE.RESTR>
0

>  <SCORE.RESTR.CAVITY>
0

>  <SCORE.RESTR.norm>
0

>  <SCORE.SYSTEM>
0

>  <SCORE.SYSTEM.CONST>
0

>  <SCORE.SYSTEM.DIHEDRAL>
0

>  <SCORE.SYSTEM.SOLV>
0

>  <SCORE.SYSTEM.norm>
0

>  <SCORE.heavy>
13

>  <SCORE.norm>
-1.22079

>  <RMSD>
0.811

$$$$
ligand
 OpenBabel02271912143D
libRbt.so/2013.1/901 2013/11/27
 13 14  0  0  0  0  0  0  0  0999 V2000
   -3.3573   31.5604   55.0471 N   0  0  0  0  0  0  0  0  0  0  0  0
   -2.2887   30.6493   55.0326 C   0  0  0  0  0  0  0  0  0  0  0  0
   -1.0052   31.0505   55.5610 N   0  0  0  0  0  0  0  0  0  0  0  0
   -2.4657   29.3807   54.5291 N   0  0  0  0  0  0  0  0  0  0  0  0
   -3.7117   28.9525   54.0028 C   0  0  0  0  0  0  0  0  0  0  0  0
   -4.8200   29.8680   53.9825 C   0  0  0  0  0  0  0  0  0  0  0  0
   -4.5967   31.1939   54.5119 C   0  0  0  0  0  0  0  0  0  0  0  0
   -5.6600   32.0529   54.4968 O   0  0  0  0  0  0  0  0  0  0  0  0
   -5.9599   29.1923   53.4067 C   0  0  0  0  0  0  0  0  0  0  0  0
   -5.4927   27.9165   53.0867 C   0  0  0  0  0  0  0  0  0  0  0  0
   -4.1654   27.7809   53.4509 N   0  0  0  0  0  0  0  0  0  0  0  0
   -7.3424   29.7628   53.1581 C   0  0  0  0  0  0  0  0  0  0  0  0
   -7.4854   30.3789   51.8409 N   0  0  0  0  0  0  0  0  0  0  0  0
  1  2  1  0  0  0  0
  1  7  1  0  0  0  0
  2  3  1  0  0  0  0
  2  4  2  0  0  0  0
  4  5  1  0  0  0  0
  5  6  2  0  0  0  0
  5 11  1  0  0  0  0
  6  7  1  0  0  0  0
  6  9  1  0  0  0  0
  7  8  2  0  0  0  0
  9 10  2  0  0  0  0
  9 12  1  0  0  0  0
 10 11  1  0  0  0  0
 12 13  1  0  0  0  0
M  END
>  <CHROM.1>
89.87543827,-4.50314291,30.02837877,54.01410442,0.32649518,-0.38253611,0.31613550

>  <Name>
ligand

>  <RI>
-1

>  <Rbt.Current_Directory>
/home/itssahil/PROJECTS/Mol_Feturizer/Test_systems_manuscript/rnas/4jf2

>  <Rbt.Executable>
rbdock ($Id: //depot/dev/client3/rdock/2013.1/src/exe/rbdock.cxx#4 $)

>  <Rbt.Library>
libRbt.so (2013.1, Build901 2013/11/27)

>  <Rbt.Parameter_File>
/export/apps/rDock/src/rDock_2013.1_src/data/scripts/dock_solv.prm

>  <Rbt.Receptor>
prm/pocket_docking_3.prm

>  <SCORE>
-15.8459

>  <SCORE.INTER>
-15.5807

>  <SCORE.INTER.CONST>
1

>  <SCORE.INTER.POLAR>
0

>  <SCORE.INTER.ROT>
1

>  <SCORE.INTER.SOLV>
17.1166

>  <SCORE.INTER.VDW>
-20.3593

>  <SCORE.INTER.norm>
-1.19851

>  <SCORE.INTRA>
-0.265242

>  <SCORE.INTRA.DIHEDRAL>
-0.187632

>  <SCORE.INTRA.DIHEDRAL.0>
1.75624

>  <SCORE.INTRA.POLAR>
0

>  <SCORE.INTRA.POLAR.0>
0

>  <SCORE.INTRA.REPUL>
0

>  <SCORE.INTRA.REPUL.0>
0

>  <SCORE.INTRA.SOLV>
-0.425883

>  <SCORE.INTRA.SOLV.lig_0>
-46.5296

>  <SCORE.INTRA.VDW>
0.041516

>  <SCORE.INTRA.VDW.0>
-0.381873

>  <SCORE.INTRA.norm>
-0.0204032

>  <SCORE.RESTR>
0

>  <SCORE.RESTR.CAVITY>
0

>  <SCORE.RESTR.norm>
0

>  <SCORE.SYSTEM>
0

>  <SCORE.SYSTEM.CONST>
0

>  <SCORE.SYSTEM.DIHEDRAL>
0

>  <SCORE.SYSTEM.SOLV>
0

>  <SCORE.SYSTEM.norm>
0

>  <SCORE.heavy>
13

>  <SCORE.norm>
-1.21892

>  <RMSD>
0.811

$$$$
ligand
 OpenBabel02271912143D
libRbt.so/2013.1/901 2013/11/27
 13 14  0  0  0  0  0  0  0  0999 V2000
   -3.3942   31.5326   54.9315 N   0  0  0  0  0  0  0  0  0  0  0  0
   -2.3338   30.6124   54.9598 C   0  0  0  0  0  0  0  0  0  0  0  0
   -1.0543   31.0183   55.4940 N   0  0  0  0  0  0  0  0  0  0  0  0
   -2.5153   29.3306   54.4924 N   0  0  0  0  0  0  0  0  0  0  0  0
   -3.7577   28.8974   53.9617 C   0  0  0  0  0  0  0  0  0  0  0  0
   -4.8572   29.8214   53.8979 C   0  0  0  0  0  0  0  0  0  0  0  0
   -4.6293   31.1608   54.3901 C   0  0  0  0  0  0  0  0  0  0  0  0
   -5.6845   32.0281   54.3339 O   0  0  0  0  0  0  0  0  0  0  0  0
   -5.9951   29.1384   53.3267 C   0  0  0  0  0  0  0  0  0  0  0  0
   -5.5351   27.8495   53.0521 C   0  0  0  0  0  0  0  0  0  0  0  0
   -4.2142   27.7136   53.4391 N   0  0  0  0  0  0  0  0  0  0  0  0
   -7.3688   29.7130   53.0413 C   0  0  0  0  0  0  0  0  0  0  0  0
   -7.4636   30.3638   51.7365 N   0  0  0  0  0  0  0  0  0  0  0  0
  1  2  1  0  0  0  0
  1  7  1  0  0  0  0
  2  3  1  0  0  0  0
  2  4  2  0  0  0  0
  4  5  1  0  0  0  0
  5  6  2  0  0  0  0
  5 11  1  0  0  0  0
  6  7  1  0  0  0  0
  6  9  1  0  0  0  0
  7  8  2  0  0  0  0
  9 10  2  0  0  0  0
  9 12  1  0  0  0  0
 10 11  1  0  0  0  0
 12 13  1  0  0  0  0
M  END
>  <CHROM.1>
86.28257527,-4.53745266,29.98593603,53.93178287,0.31462469,-0.39873383,0.28058456

>  <Name>
ligand

>  <RI>
-1

>  <Rbt.Current_Directory>
/home/itssahil/PROJECTS/Mol_Feturizer/Test_systems_manuscript/rnas/4jf2

>  <Rbt.Executable>
rbdock ($Id: //depot/dev/client3/rdock/2013.1/src/exe/rbdock.cxx#4 $)

>  <Rbt.Library>
libRbt.so (2013.1, Build901 2013/11/27)

>  <Rbt.Parameter_File>
/export/apps/rDock/src/rDock_2013.1_src/data/scripts/dock_solv.prm

>  <Rbt.Receptor>
prm/pocket_docking_6.prm

>  <SCORE>
-15.8941

>  <SCORE.INTER>
-15.6639

>  <SCORE.INTER.CONST>
1

>  <SCORE.INTER.POLAR>
0

>  <SCORE.INTER.ROT>
1

>  <SCORE.INTER.SOLV>
17.0672

>  <SCORE.INTER.VDW>
-20.3983

>  <SCORE.INTER.norm>
-1.20491

>  <SCORE.INTRA>
-0.230219

>  <SCORE.INTRA.DIHEDRAL>
-0.186918

>  <SCORE.INTRA.DIHEDRAL.0>
1.75624

>  <SCORE.INTRA.POLAR>
0

>  <SCORE.INTRA.POLAR.0>
0

>  <SCORE.INTRA.REPUL>
0

>  <SCORE.INTRA.REPUL.0>
0

>  <SCORE.INTRA.SOLV>
-0.337548

>  <SCORE.INTRA.SOLV.lig_0>
-46.5296

>  <SCORE.INTRA.VDW>
0.0320136

>  <SCORE.INTRA.VDW.0>
-0.381873

>  <SCORE.INTRA.norm>
-0.0177092

>  <SCORE.RESTR>
0

>  <SCORE.RESTR.CAVITY>
0

>  <SCORE.RESTR.norm>
0

>  <SCORE.SYSTEM>
0

>  <SCORE.SYSTEM.CONST>
0

>  <SCORE.SYSTEM.DIHEDRAL>
0

>  <SCORE.SYSTEM.SOLV>
0

>  <SCORE.SYSTEM.norm>
0

>  <SCORE.heavy>
13

>  <SCORE.norm>
-1.22262

>  <RMSD>
0.811

$$$$
ligand
 OpenBabel02271912143D
libRbt.so/2013.1/901 2013/11/27
 13 14  0  0  0  0  0  0  0  0999 V2000
   -3.4079   31.5507   54.9863 N   0  0  0  0  0  0  0  0  0  0  0  0
   -2.3397   30.6391   54.9869 C   0  0  0  0  0  0  0  0  0  0  0  0
   -1.0636   31.0395   55.5334 N   0  0  0  0  0  0  0  0  0  0  0  0
   -2.5103   29.3705   54.4809 N   0  0  0  0  0  0  0  0  0  0  0  0
   -3.7490   28.9431   53.9371 C   0  0  0  0  0  0  0  0  0  0  0  0
   -4.8564   29.8592   53.9012 C   0  0  0  0  0  0  0  0  0  0  0  0
   -4.6398   31.1850   54.4337 C   0  0  0  0  0  0  0  0  0  0  0  0
   -5.7023   32.0446   54.4035 O   0  0  0  0  0  0  0  0  0  0  0  0
   -5.9884   29.1841   53.3094 C   0  0  0  0  0  0  0  0  0  0  0  0
   -5.5175   27.9081   52.9960 C   0  0  0  0  0  0  0  0  0  0  0  0
   -4.1955   27.7718   53.3789 N   0  0  0  0  0  0  0  0  0  0  0  0
   -7.3670   29.7555   53.0413 C   0  0  0  0  0  0  0  0  0  0  0  0
   -7.5235   30.2758   51.6849 N   0  0  0  0  0  0  0  0  0  0  0  0
  1  2  1  0  0  0  0
  1  7  1  0  0  0  0
  2  3  1  0  0  0  0
  2  4  2  0  0  0  0
  4  5  1  0  0  0  0
  5  6  2  0  0  0  0
  5 11  1  0  0  0  0
  6  7  1  0  0  0  0
  6  9  1  0  0  0  0
  7  8  2  0  0  0  0
  9 10  2  0  0  0  0
  9 12  1  0  0  0  0
 10 11  1  0  0  0  0
 12 13  1  0  0  0  0
M  END
>  <CHROM.1>
94.47879152,-4.54255094,30.01160444,53.93421855,0.34003218,-0.39527003,0.32225758

>  <Name>
ligand

>  <RI>
-1

>  <Rbt.Current_Directory>
/home/itssahil/PROJECTS/Mol_Feturizer/Test_systems_manuscript/rnas/4jf2

>  <Rbt.Executable>
rbdock ($Id: //depot/dev/client3/rdock/2013.1/src/exe/rbdock.cxx#4 $)

>  <Rbt.Library>
libRbt.so (2013.1, Build901 2013/11/27)

>  <Rbt.Parameter_File>
/export/apps/rDock/src/rDock_2013.1_src/data/scripts/dock_solv.prm

>  <Rbt.Receptor>
prm/pocket_docking_4.prm

>  <SCORE>
-15.8613

>  <SCORE.INTER>
-15.57

>  <SCORE.INTER.CONST>
1

>  <SCORE.INTER.POLAR>
0

>  <SCORE.INTER.ROT>
1

>  <SCORE.INTER.SOLV>
17.228

>  <SCORE.INTER.VDW>
-20.3894

>  <SCORE.INTER.norm>
-1.1977

>  <SCORE.INTRA>
-0.291203

>  <SCORE.INTRA.DIHEDRAL>
-0.182816

>  <SCORE.INTRA.DIHEDRAL.0>
1.75624

>  <SCORE.INTRA.POLAR>
0

>  <SCORE.INTRA.POLAR.0>
0

>  <SCORE.INTRA.REPUL>
0

>  <SCORE.INTRA.REPUL.0>
0

>  <SCORE.INTRA.SOLV>
-0.505493

>  <SCORE.INTRA.SOLV.lig_0>
-46.5296

>  <SCORE.INTRA.VDW>
0.0529514

>  <SCORE.INTRA.VDW.0>
-0.381873

>  <SCORE.INTRA.norm>
-0.0224003

>  <SCORE.RESTR>
0

>  <SCORE.RESTR.CAVITY>
0

>  <SCORE.RESTR.norm>
0

>  <SCORE.SYSTEM>
0

>  <SCORE.SYSTEM.CONST>
0

>  <SCORE.SYSTEM.DIHEDRAL>
0

>  <SCORE.SYSTEM.SOLV>
0

>  <SCORE.SYSTEM.norm>
0

>  <SCORE.heavy>
13

>  <SCORE.norm>
-1.2201

>  <RMSD>
0.812

$$$$
ligand
 OpenBabel02271912143D
libRbt.so/2013.1/901 2013/11/27
 13 14  0  0  0  0  0  0  0  0999 V2000
   -3.4159   31.5547   54.9853 N   0  0  0  0  0  0  0  0  0  0  0  0
   -2.3471   30.6438   54.9935 C   0  0  0  0  0  0  0  0  0  0  0  0
   -1.0734   31.0473   55.5434 N   0  0  0  0  0  0  0  0  0  0  0  0
   -2.5147   29.3733   54.4915 N   0  0  0  0  0  0  0  0  0  0  0  0
   -3.7510   28.9429   53.9445 C   0  0  0  0  0  0  0  0  0  0  0  0
   -4.8589   29.8580   53.9008 C   0  0  0  0  0  0  0  0  0  0  0  0
   -4.6454   31.1859   54.4292 C   0  0  0  0  0  0  0  0  0  0  0  0
   -5.7084   32.0446   54.3918 O   0  0  0  0  0  0  0  0  0  0  0  0
   -5.9881   29.1799   53.3071 C   0  0  0  0  0  0  0  0  0  0  0  0
   -5.5150   27.9030   53.0002 C   0  0  0  0  0  0  0  0  0  0  0  0
   -4.1944   27.7691   53.3889 N   0  0  0  0  0  0  0  0  0  0  0  0
   -7.3660   29.7492   53.0315 C   0  0  0  0  0  0  0  0  0  0  0  0
   -7.5056   30.2997   51.6852 N   0  0  0  0  0  0  0  0  0  0  0  0
  1  2  1  0  0  0  0
  1  7  1  0  0  0  0
  2  3  1  0  0  0  0
  2  4  2  0  0  0  0
  4  5  1  0  0  0  0
  5  6  2  0  0  0  0
  5 11  1  0  0  0  0
  6  7  1  0  0  0  0
  6  9  1  0  0  0  0
  7  8  2  0  0  0  0
  9 10  2  0  0  0  0
  9 12  1  0  0  0  0
 10 11  1  0  0  0  0
 12 13  1  0  0  0  0
M  END
>  <CHROM.1>
92.79530012,-4.54433946,30.01363712,53.93552570,0.33871207,-0.39913631,0.31771008

>  <Name>
ligand

>  <RI>
-1

>  <Rbt.Current_Directory>
/home/itssahil/PROJECTS/Mol_Feturizer/Test_systems_manuscript/rnas/4jf2

>  <Rbt.Executable>
rbdock ($Id: //depot/dev/client3/rdock/2013.1/src/exe/rbdock.cxx#4 $)

>  <Rbt.Library>
libRbt.so (2013.1, Build901 2013/11/27)

>  <Rbt.Parameter_File>
/export/apps/rDock/src/rDock_2013.1_src/data/scripts/dock_solv.prm

>  <Rbt.Receptor>
prm/pocket_docking_3.prm

>  <SCORE>
-15.8764

>  <SCORE.INTER>
-15.5943

>  <SCORE.INTER.CONST>
1

>  <SCORE.INTER.POLAR>
0

>  <SCORE.INTER.ROT>
1

>  <SCORE.INTER.SOLV>
17.1652

>  <SCORE.INTER.VDW>
-20.3846

>  <SCORE.INTER.norm>
-1.19956

>  <SCORE.INTRA>
-0.282127

>  <SCORE.INTRA.DIHEDRAL>
-0.185315

>  <SCORE.INTRA.DIHEDRAL.0>
1.75624

>  <SCORE.INTRA.POLAR>
0

>  <SCORE.INTRA.POLAR.0>
0

>  <SCORE.INTRA.REPUL>
0

>  <SCORE.INTRA.REPUL.0>
0

>  <SCORE.INTRA.SOLV>
-0.476671

>  <SCORE.INTRA.SOLV.lig_0>
-46.5296

>  <SCORE.INTRA.VDW>
0.0488662

>  <SCORE.INTRA.VDW.0>
-0.381873

>  <SCORE.INTRA.norm>
-0.0217021

>  <SCORE.RESTR>
0

>  <SCORE.RESTR.CAVITY>
0

>  <SCORE.RESTR.norm>
0

>  <SCORE.SYSTEM>
0

>  <SCORE.SYSTEM.CONST>
0

>  <SCORE.SYSTEM.DIHEDRAL>
0

>  <SCORE.SYSTEM.SOLV>
0

>  <SCORE.SYSTEM.norm>
0

>  <SCORE.heavy>
13

>  <SCORE.norm>
-1.22126

>  <RMSD>
0.813

$$$$
ligand
 OpenBabel02271912143D
libRbt.so/2013.1/901 2013/11/27
 13 14  0  0  0  0  0  0  0  0999 V2000
   -3.3759   31.5549   54.9620 N   0  0  0  0  0  0  0  0  0  0  0  0
   -2.3178   30.6317   54.9753 C   0  0  0  0  0  0  0  0  0  0  0  0
   -1.0372   31.0256   55.5161 N   0  0  0  0  0  0  0  0  0  0  0  0
   -2.5024   29.3582   54.4869 N   0  0  0  0  0  0  0  0  0  0  0  0
   -3.7458   28.9369   53.9491 C   0  0  0  0  0  0  0  0  0  0  0  0
   -4.8430   29.8645   53.9004 C   0  0  0  0  0  0  0  0  0  0  0  0
   -4.6118   31.1951   54.4145 C   0  0  0  0  0  0  0  0  0  0  0  0
   -5.6648   32.0659   54.3725 O   0  0  0  0  0  0  0  0  0  0  0  0
   -5.9825   29.1938   53.3181 C   0  0  0  0  0  0  0  0  0  0  0  0
   -5.5257   27.9084   53.0224 C   0  0  0  0  0  0  0  0  0  0  0  0
   -4.2052   27.7629   53.4072 N   0  0  0  0  0  0  0  0  0  0  0  0
   -7.3548   29.7765   53.0421 C   0  0  0  0  0  0  0  0  0  0  0  0
   -7.4723   30.3754   51.7145 N   0  0  0  0  0  0  0  0  0  0  0  0
  1  2  1  0  0  0  0
  1  7  1  0  0  0  0
  2  3  1  0  0  0  0
  2  4  2  0  0  0  0
  4  5  1  0  0  0  0
  5  6  2  0  0  0  0
  5 11  1  0  0  0  0
  6  7  1  0  0  0  0
  6  9  1  0  0  0  0
  7  8  2  0  0  0  0
  9 10  2  0  0  0  0
  9 12  1  0  0  0  0
 10 11  1  0  0  0  0
 12 13  1  0  0  0  0
M  END
>  <CHROM.1>
89.87942361,-4.52483408,30.02170547,53.93429395,0.31929132,-0.39938294,0.29942757

>  <Name>
ligand

>  <RI>
-1

>  <Rbt.Current_Directory>
/home/itssahil/PROJECTS/Mol_Feturizer/Test_systems_manuscript/rnas/4jf2

>  <Rbt.Executable>
rbdock ($Id: //depot/dev/client3/rdock/2013.1/src/exe/rbdock.cxx#4 $)

>  <Rbt.Library>
libRbt.so (2013.1, Build901 2013/11/27)

>  <Rbt.Parameter_File>
/export/apps/rDock/src/rDock_2013.1_src/data/scripts/dock_solv.prm

>  <Rbt.Receptor>
prm/pocket_docking_4.prm

>  <SCORE>
-15.9368

>  <SCORE.INTER>
-15.6716

>  <SCORE.INTER.CONST>
1

>  <SCORE.INTER.POLAR>
0

>  <SCORE.INTER.ROT>
1

>  <SCORE.INTER.SOLV>
17.0441

>  <SCORE.INTER.VDW>
-20.3957

>  <SCORE.INTER.norm>
-1.20551

>  <SCORE.INTRA>
-0.265266

>  <SCORE.INTRA.DIHEDRAL>
-0.187631

>  <SCORE.INTRA.DIHEDRAL.0>
1.75624

>  <SCORE.INTRA.POLAR>
0

>  <SCORE.INTRA.POLAR.0>
0

>  <SCORE.INTRA.REPUL>
0

>  <SCORE.INTRA.REPUL.0>
0

>  <SCORE.INTRA.SOLV>
-0.425953

>  <SCORE.INTRA.SOLV.lig_0>
-46.5296

>  <SCORE.INTRA.VDW>
0.0415263

>  <SCORE.INTRA.VDW.0>
-0.381873

>  <SCORE.INTRA.norm>
-0.0204051

>  <SCORE.RESTR>
0

>  <SCORE.RESTR.CAVITY>
0

>  <SCORE.RESTR.norm>
0

>  <SCORE.SYSTEM>
0

>  <SCORE.SYSTEM.CONST>
0

>  <SCORE.SYSTEM.DIHEDRAL>
0

>  <SCORE.SYSTEM.SOLV>
0

>  <SCORE.SYSTEM.norm>
0

>  <SCORE.heavy>
13

>  <SCORE.norm>
-1.22591

>  <RMSD>
0.813

$$$$
ligand
 OpenBabel02271912143D
libRbt.so/2013.1/901 2013/11/27
 13 14  0  0  0  0  0  0  0  0999 V2000
   -3.3660   31.5573   54.9987 N   0  0  0  0  0  0  0  0  0  0  0  0
   -2.3083   30.6335   55.0077 C   0  0  0  0  0  0  0  0  0  0  0  0
   -1.0268   31.0252   55.5478 N   0  0  0  0  0  0  0  0  0  0  0  0
   -2.4942   29.3615   54.5159 N   0  0  0  0  0  0  0  0  0  0  0  0
   -3.7386   28.9424   53.9787 C   0  0  0  0  0  0  0  0  0  0  0  0
   -4.8355   29.8707   53.9343 C   0  0  0  0  0  0  0  0  0  0  0  0
   -4.6029   31.1996   54.4519 C   0  0  0  0  0  0  0  0  0  0  0  0
   -5.6555   32.0710   54.4140 O   0  0  0  0  0  0  0  0  0  0  0  0
   -5.9761   29.2022   53.3516 C   0  0  0  0  0  0  0  0  0  0  0  0
   -5.5204   27.9175   53.0516 C   0  0  0  0  0  0  0  0  0  0  0  0
   -4.1994   27.7702   53.4340 N   0  0  0  0  0  0  0  0  0  0  0  0
   -7.3485   29.7864   53.0794 C   0  0  0  0  0  0  0  0  0  0  0  0
   -7.4710   30.3796   51.7496 N   0  0  0  0  0  0  0  0  0  0  0  0
  1  2  1  0  0  0  0
  1  7  1  0  0  0  0
  2  3  1  0  0  0  0
  2  4  2  0  0  0  0
  4  5  1  0  0  0  0
  5  6  2  0  0  0  0
  5 11  1  0  0  0  0
  6  7  1  0  0  0  0
  6  9  1  0  0  0  0
  7  8  2  0  0  0  0
  9 10  2  0  0  0  0
  9 12  1  0  0  0  0
 10 11  1  0  0  0  0
 12 13  1  0  0  0  0
M  END
>  <CHROM.1>
90.34941963,-4.51742839,30.02683483,53.96783859,0.31927365,-0.39809926,0.30243768

>  <Name>
ligand

>  <RI>
-1

>  <Rbt.Current_Directory>
/home/itssahil/PROJECTS/Mol_Feturizer/Test_systems_manuscript/rnas/4jf2

>  <Rbt.Executable>
rbdock ($Id: //depot/dev/client3/rdock/2013.1/src/exe/rbdock.cxx#4 $)

>  <Rbt.Library>
libRbt.so (2013.1, Build901 2013/11/27)

>  <Rbt.Parameter_File>
/export/apps/rDock/src/rDock_2013.1_src/data/scripts/dock_solv.prm

>  <Rbt.Receptor>
prm/pocket_docking_5.prm

>  <SCORE>
-15.8819

>  <SCORE.INTER>
-15.6138

>  <SCORE.INTER.CONST>
1

>  <SCORE.INTER.POLAR>
0

>  <SCORE.INTER.ROT>
1

>  <SCORE.INTER.SOLV>
17.0167

>  <SCORE.INTER.VDW>
-20.3481

>  <SCORE.INTER.norm>
-1.20107

>  <SCORE.INTRA>
-0.268081

>  <SCORE.INTRA.DIHEDRAL>
-0.187432

>  <SCORE.INTRA.DIHEDRAL.0>
1.75624

>  <SCORE.INTRA.POLAR>
0

>  <SCORE.INTRA.POLAR.0>
0

>  <SCORE.INTRA.REPUL>
0

>  <SCORE.INTRA.REPUL.0>
0

>  <SCORE.INTRA.SOLV>
-0.434193

>  <SCORE.INTRA.SOLV.lig_0>
-46.5296

>  <SCORE.INTRA.VDW>
0.0427322

>  <SCORE.INTRA.VDW.0>
-0.381873

>  <SCORE.INTRA.norm>
-0.0206216

>  <SCORE.RESTR>
0

>  <SCORE.RESTR.CAVITY>
0

>  <SCORE.RESTR.norm>
0

>  <SCORE.SYSTEM>
0

>  <SCORE.SYSTEM.CONST>
0

>  <SCORE.SYSTEM.DIHEDRAL>
0

>  <SCORE.SYSTEM.SOLV>
0

>  <SCORE.SYSTEM.norm>
0

>  <SCORE.heavy>
13

>  <SCORE.norm>
-1.22169

>  <RMSD>
0.813

$$$$
ligand
 OpenBabel02271912143D
libRbt.so/2013.1/901 2013/11/27
 13 14  0  0  0  0  0  0  0  0999 V2000
   -3.3726   31.5353   54.9826 N   0  0  0  0  0  0  0  0  0  0  0  0
   -2.3082   30.6192   54.9790 C   0  0  0  0  0  0  0  0  0  0  0  0
   -1.0276   31.0152   55.5181 N   0  0  0  0  0  0  0  0  0  0  0  0
   -2.4867   29.3507   54.4758 N   0  0  0  0  0  0  0  0  0  0  0  0
   -3.7300   28.9276   53.9391 C   0  0  0  0  0  0  0  0  0  0  0  0
   -4.8337   29.8482   53.9076 C   0  0  0  0  0  0  0  0  0  0  0  0
   -4.6088   31.1739   54.4370 C   0  0  0  0  0  0  0  0  0  0  0  0
   -5.6679   32.0379   54.4111 O   0  0  0  0  0  0  0  0  0  0  0  0
   -5.9716   29.1770   53.3227 C   0  0  0  0  0  0  0  0  0  0  0  0
   -5.5077   27.8986   53.0087 C   0  0  0  0  0  0  0  0  0  0  0  0
   -4.1843   27.7573   53.3850 N   0  0  0  0  0  0  0  0  0  0  0  0
   -7.3492   29.7537   53.0610 C   0  0  0  0  0  0  0  0  0  0  0  0
   -7.4736   30.3803   51.7468 N   0  0  0  0  0  0  0  0  0  0  0  0
  1  2  1  0  0  0  0
  1  7  1  0  0  0  0
  2  3  1  0  0  0  0
  2  4  2  0  0  0  0
  4  5  1  0  0  0  0
  5  6  2  0  0  0  0
  5 11  1  0  0  0  0
  6  7  1  0  0  0  0
  6  9  1  0  0  0  0
  7  8  2  0  0  0  0
  9 10  2  0  0  0  0
  9 12  1  0  0  0  0
 10 11  1  0  0  0  0
 12 13  1  0  0  0  0
M  END
>  <CHROM.1>
89.29416269,-4.51609040,30.00814638,53.94218843,0.32345170,-0.39248764,0.31335710

>  <Name>
ligand

>  <RI>
-1

>  <Rbt.Current_Directory>
/home/itssahil/PROJECTS/Mol_Feturizer/Test_systems_manuscript/rnas/4jf2

>  <Rbt.Executable>
rbdock ($Id: //depot/dev/client3/rdock/2013.1/src/exe/rbdock.cxx#4 $)

>  <Rbt.Library>
libRbt.so (2013.1, Build901 2013/11/27)

>  <Rbt.Parameter_File>
/export/apps/rDock/src/rDock_2013.1_src/data/scripts/dock_solv.prm

>  <Rbt.Receptor>
prm/pocket_docking_7.prm

>  <SCORE>
-15.9233

>  <SCORE.INTER>
-15.6616

>  <SCORE.INTER.CONST>
1

>  <SCORE.INTER.POLAR>
0

>  <SCORE.INTER.ROT>
1

>  <SCORE.INTER.SOLV>
17.0386

>  <SCORE.INTER.VDW>
-20.3873

>  <SCORE.INTER.norm>
-1.20474

>  <SCORE.INTRA>
-0.261709

>  <SCORE.INTRA.DIHEDRAL>
-0.187784

>  <SCORE.INTRA.DIHEDRAL.0>
1.75624

>  <SCORE.INTRA.POLAR>
0

>  <SCORE.INTRA.POLAR.0>
0

>  <SCORE.INTRA.REPUL>
0

>  <SCORE.INTRA.REPUL.0>
0

>  <SCORE.INTRA.SOLV>
-0.415658

>  <SCORE.INTRA.SOLV.lig_0>
-46.5296

>  <SCORE.INTRA.VDW>
0.0400124

>  <SCORE.INTRA.VDW.0>
-0.381873

>  <SCORE.INTRA.norm>
-0.0201314

>  <SCORE.RESTR>
0

>  <SCORE.RESTR.CAVITY>
0

>  <SCORE.RESTR.norm>
0

>  <SCORE.SYSTEM>
0

>  <SCORE.SYSTEM.CONST>
0

>  <SCORE.SYSTEM.DIHEDRAL>
0

>  <SCORE.SYSTEM.SOLV>
0

>  <SCORE.SYSTEM.norm>
0

>  <SCORE.heavy>
13

>  <SCORE.norm>
-1.22487

>  <RMSD>
0.813

$$$$
ligand
 OpenBabel02271912143D
libRbt.so/2013.1/901 2013/11/27
 13 14  0  0  0  0  0  0  0  0999 V2000
   -3.4022   31.5444   54.9713 N   0  0  0  0  0  0  0  0  0  0  0  0
   -2.3463   30.6192   55.0073 C   0  0  0  0  0  0  0  0  0  0  0  0
   -1.0702   31.0177   55.5554 N   0  0  0  0  0  0  0  0  0  0  0  0
   -2.5290   29.3397   54.5343 N   0  0  0  0  0  0  0  0  0  0  0  0
   -3.7681   28.9138   53.9901 C   0  0  0  0  0  0  0  0  0  0  0  0
   -4.8627   29.8430   53.9182 C   0  0  0  0  0  0  0  0  0  0  0  0
   -4.6335   31.1799   54.4166 C   0  0  0  0  0  0  0  0  0  0  0  0
   -5.6841   32.0522   54.3526 O   0  0  0  0  0  0  0  0  0  0  0  0
   -5.9979   29.1669   53.3338 C   0  0  0  0  0  0  0  0  0  0  0  0
   -5.5412   27.8767   53.0599 C   0  0  0  0  0  0  0  0  0  0  0  0
   -4.2248   27.7336   53.4595 N   0  0  0  0  0  0  0  0  0  0  0  0
   -7.3661   29.7488   53.0366 C   0  0  0  0  0  0  0  0  0  0  0  0
   -7.4584   30.3629   51.7140 N   0  0  0  0  0  0  0  0  0  0  0  0
  1  2  1  0  0  0  0
  1  7  1  0  0  0  0
  2  3  1  0  0  0  0
  2  4  2  0  0  0  0
  4  5  1  0  0  0  0
  5  6  2  0  0  0  0
  5 11  1  0  0  0  0
  6  7  1  0  0  0  0
  6  9  1  0  0  0  0
  7  8  2  0  0  0  0
  9 10  2  0  0  0  0
  9 12  1  0  0  0  0
 10 11  1  0  0  0  0
 12 13  1  0  0  0  0
M  END
>  <CHROM.1>
88.28436571,-4.54358710,30.00264208,53.95422705,0.31684519,-0.40948519,0.28476315

>  <Name>
ligand

>  <RI>
0

>  <Rbt.Current_Directory>
/home/itssahil/PROJECTS/Mol_Feturizer/Test_systems_manuscript/rnas/4jf2

>  <Rbt.Executable>
rbdock ($Id: //depot/dev/client3/rdock/2013.1/src/exe/rbdock.cxx#4 $)

>  <Rbt.Library>
libRbt.so (2013.1, Build901 2013/11/27)

>  <Rbt.Parameter_File>
/export/apps/rDock/src/rDock_2013.1_src/data/scripts/dock_solv.prm

>  <Rbt.Receptor>
prm/pocket_docking_8.prm

>  <SCORE>
-15.8571

>  <SCORE.INTER>
-15.6037

>  <SCORE.INTER.CONST>
1

>  <SCORE.INTER.POLAR>
0

>  <SCORE.INTER.ROT>
1

>  <SCORE.INTER.SOLV>
16.9809

>  <SCORE.INTER.VDW>
-20.3294

>  <SCORE.INTER.norm>
-1.20028

>  <SCORE.INTRA>
-0.253389

>  <SCORE.INTRA.DIHEDRAL>
-0.187802

>  <SCORE.INTRA.DIHEDRAL.0>
1.75624

>  <SCORE.INTRA.POLAR>
0

>  <SCORE.INTRA.POLAR.0>
0

>  <SCORE.INTRA.REPUL>
0

>  <SCORE.INTRA.REPUL.0>
0

>  <SCORE.INTRA.SOLV>
-0.393714

>  <SCORE.INTRA.SOLV.lig_0>
-46.5296

>  <SCORE.INTRA.VDW>
0.0373689

>  <SCORE.INTRA.VDW.0>
-0.381873

>  <SCORE.INTRA.norm>
-0.0194915

>  <SCORE.RESTR>
0

>  <SCORE.RESTR.CAVITY>
0

>  <SCORE.RESTR.norm>
0

>  <SCORE.SYSTEM>
0

>  <SCORE.SYSTEM.CONST>
0

>  <SCORE.SYSTEM.DIHEDRAL>
0

>  <SCORE.SYSTEM.SOLV>
0

>  <SCORE.SYSTEM.norm>
0

>  <SCORE.heavy>
13

>  <SCORE.norm>
-1.21978

>  <RMSD>
0.813

$$$$
ligand
 OpenBabel02271912143D
libRbt.so/2013.1/901 2013/11/27
 13 14  0  0  0  0  0  0  0  0999 V2000
   -3.3251   31.5904   55.0460 N   0  0  0  0  0  0  0  0  0  0  0  0
   -2.2610   30.6742   55.0261 C   0  0  0  0  0  0  0  0  0  0  0  0
   -0.9716   31.0707   55.5436 N   0  0  0  0  0  0  0  0  0  0  0  0
   -2.4479   29.4050   54.5275 N   0  0  0  0  0  0  0  0  0  0  0  0
   -3.6999   28.9813   54.0120 C   0  0  0  0  0  0  0  0  0  0  0  0
   -4.8039   29.9021   53.9974 C   0  0  0  0  0  0  0  0  0  0  0  0
   -4.5702   31.2284   54.5213 C   0  0  0  0  0  0  0  0  0  0  0  0
   -5.6295   32.0925   54.5118 O   0  0  0  0  0  0  0  0  0  0  0  0
   -5.9514   29.2302   53.4323 C   0  0  0  0  0  0  0  0  0  0  0  0
   -5.4928   27.9513   53.1124 C   0  0  0  0  0  0  0  0  0  0  0  0
   -4.1634   27.8104   53.4670 N   0  0  0  0  0  0  0  0  0  0  0  0
   -7.3330   29.8067   53.1926 C   0  0  0  0  0  0  0  0  0  0  0  0
   -7.4877   30.4063   51.8691 N   0  0  0  0  0  0  0  0  0  0  0  0
  1  2  1  0  0  0  0
  1  7  1  0  0  0  0
  2  3  1  0  0  0  0
  2  4  2  0  0  0  0
  4  5  1  0  0  0  0
  5  6  2  0  0  0  0
  5 11  1  0  0  0  0
  6  7  1  0  0  0  0
  6  9  1  0  0  0  0
  7  8  2  0  0  0  0
  9 10  2  0  0  0  0
  9 12  1  0  0  0  0
 10 11  1  0  0  0  0
 12 13  1  0  0  0  0
M  END
>  <CHROM.1>
90.52252141,-4.48646956,30.05993139,54.02573835,0.32035935,-0.37671740,0.31115043

>  <Name>
ligand

>  <RI>
-1

>  <Rbt.Current_Directory>
/home/itssahil/PROJECTS/Mol_Feturizer/Test_systems_manuscript/rnas/4jf2

>  <Rbt.Executable>
rbdock ($Id: //depot/dev/client3/rdock/2013.1/src/exe/rbdock.cxx#4 $)

>  <Rbt.Library>
libRbt.so (2013.1, Build901 2013/11/27)

>  <Rbt.Parameter_File>
/export/apps/rDock/src/rDock_2013.1_src/data/scripts/dock_solv.prm

>  <Rbt.Receptor>
prm/pocket_docking_3.prm

>  <SCORE>
-15.8876

>  <SCORE.INTER>
-15.6185

>  <SCORE.INTER.CONST>
1

>  <SCORE.INTER.POLAR>
0

>  <SCORE.INTER.ROT>
1

>  <SCORE.INTER.SOLV>
17.1544

>  <SCORE.INTER.VDW>
-20.3972

>  <SCORE.INTER.norm>
-1.20142

>  <SCORE.INTRA>
-0.269108

>  <SCORE.INTRA.DIHEDRAL>
-0.187342

>  <SCORE.INTRA.DIHEDRAL.0>
1.75624

>  <SCORE.INTRA.POLAR>
0

>  <SCORE.INTRA.POLAR.0>
0

>  <SCORE.INTRA.REPUL>
0

>  <SCORE.INTRA.REPUL.0>
0

>  <SCORE.INTRA.SOLV>
-0.437222

>  <SCORE.INTRA.SOLV.lig_0>
-46.5296

>  <SCORE.INTRA.VDW>
0.0431741

>  <SCORE.INTRA.VDW.0>
-0.381873

>  <SCORE.INTRA.norm>
-0.0207006

>  <SCORE.RESTR>
0

>  <SCORE.RESTR.CAVITY>
0

>  <SCORE.RESTR.norm>
0

>  <SCORE.SYSTEM>
0

>  <SCORE.SYSTEM.CONST>
0

>  <SCORE.SYSTEM.DIHEDRAL>
0

>  <SCORE.SYSTEM.SOLV>
0

>  <SCORE.SYSTEM.norm>
0

>  <SCORE.heavy>
13

>  <SCORE.norm>
-1.22213

>  <RMSD>
0.814

$$$$
ligand
 OpenBabel02271912143D
libRbt.so/2013.1/901 2013/11/27
 13 14  0  0  0  0  0  0  0  0999 V2000
   -3.3797   31.5522   54.9667 N   0  0  0  0  0  0  0  0  0  0  0  0
   -2.3233   30.6271   54.9848 C   0  0  0  0  0  0  0  0  0  0  0  0
   -1.0431   31.0204   55.5269 N   0  0  0  0  0  0  0  0  0  0  0  0
   -2.5092   29.3525   54.4998 N   0  0  0  0  0  0  0  0  0  0  0  0
   -3.7523   28.9318   53.9609 C   0  0  0  0  0  0  0  0  0  0  0  0
   -4.8478   29.8612   53.9074 C   0  0  0  0  0  0  0  0  0  0  0  0
   -4.6153   31.1929   54.4179 C   0  0  0  0  0  0  0  0  0  0  0  0
   -5.6666   32.0654   54.3713 O   0  0  0  0  0  0  0  0  0  0  0  0
   -5.9874   29.1907   53.3248 C   0  0  0  0  0  0  0  0  0  0  0  0
   -5.5323   27.9037   53.0339 C   0  0  0  0  0  0  0  0  0  0  0  0
   -4.2128   27.7570   53.4216 N   0  0  0  0  0  0  0  0  0  0  0  0
   -7.3581   29.7750   53.0445 C   0  0  0  0  0  0  0  0  0  0  0  0
   -7.4809   30.3443   51.7044 N   0  0  0  0  0  0  0  0  0  0  0  0
  1  2  1  0  0  0  0
  1  7  1  0  0  0  0
  2  3  1  0  0  0  0
  2  4  2  0  0  0  0
  4  5  1  0  0  0  0
  5  6  2  0  0  0  0
  5 11  1  0  0  0  0
  6  7  1  0  0  0  0
  6  9  1  0  0  0  0
  7  8  2  0  0  0  0
  9 10  2  0  0  0  0
  9 12  1  0  0  0  0
 10 11  1  0  0  0  0
 12 13  1  0  0  0  0
M  END
>  <CHROM.1>
91.13148740,-4.53014646,30.01581632,53.94053034,0.32062350,-0.40158228,0.29721505

>  <Name>
ligand

>  <RI>
-1

>  <Rbt.Current_Directory>
/home/itssahil/PROJECTS/Mol_Feturizer/Test_systems_manuscript/rnas/4jf2

>  <Rbt.Executable>
rbdock ($Id: //depot/dev/client3/rdock/2013.1/src/exe/rbdock.cxx#4 $)

>  <Rbt.Library>
libRbt.so (2013.1, Build901 2013/11/27)

>  <Rbt.Parameter_File>
/export/apps/rDock/src/rDock_2013.1_src/data/scripts/dock_solv.prm

>  <Rbt.Receptor>
prm/pocket_docking_5.prm

>  <SCORE>
-15.8992

>  <SCORE.INTER>
-15.6265

>  <SCORE.INTER.CONST>
1

>  <SCORE.INTER.POLAR>
0

>  <SCORE.INTER.ROT>
1

>  <SCORE.INTER.SOLV>
17.0738

>  <SCORE.INTER.VDW>
-20.3756

>  <SCORE.INTER.norm>
-1.20204

>  <SCORE.INTRA>
-0.272682

>  <SCORE.INTRA.DIHEDRAL>
-0.186952

>  <SCORE.INTRA.DIHEDRAL.0>
1.75624

>  <SCORE.INTRA.POLAR>
0

>  <SCORE.INTRA.POLAR.0>
0

>  <SCORE.INTRA.REPUL>
0

>  <SCORE.INTRA.REPUL.0>
0

>  <SCORE.INTRA.SOLV>
-0.447851

>  <SCORE.INTRA.SOLV.lig_0>
-46.5296

>  <SCORE.INTRA.VDW>
0.0447194

>  <SCORE.INTRA.VDW.0>
-0.381873

>  <SCORE.INTRA.norm>
-0.0209755

>  <SCORE.RESTR>
0

>  <SCORE.RESTR.CAVITY>
0

>  <SCORE.RESTR.norm>
0

>  <SCORE.SYSTEM>
0

>  <SCORE.SYSTEM.CONST>
0

>  <SCORE.SYSTEM.DIHEDRAL>
0

>  <SCORE.SYSTEM.SOLV>
0

>  <SCORE.SYSTEM.norm>
0

>  <SCORE.heavy>
13

>  <SCORE.norm>
-1.22302

>  <RMSD>
0.814

$$$$
ligand
 OpenBabel02271912143D
libRbt.so/2013.1/901 2013/11/27
 13 14  0  0  0  0  0  0  0  0999 V2000
   -3.3767   31.5674   54.9756 N   0  0  0  0  0  0  0  0  0  0  0  0
   -2.3172   30.6457   54.9870 C   0  0  0  0  0  0  0  0  0  0  0  0
   -1.0370   31.0409   55.5279 N   0  0  0  0  0  0  0  0  0  0  0  0
   -2.5000   29.3727   54.4968 N   0  0  0  0  0  0  0  0  0  0  0  0
   -3.7430   28.9502   53.9589 C   0  0  0  0  0  0  0  0  0  0  0  0
   -4.8417   29.8762   53.9122 C   0  0  0  0  0  0  0  0  0  0  0  0
   -4.6124   31.2064   54.4281 C   0  0  0  0  0  0  0  0  0  0  0  0
   -5.6667   32.0756   54.3879 O   0  0  0  0  0  0  0  0  0  0  0  0
   -5.9804   29.2046   53.3293 C   0  0  0  0  0  0  0  0  0  0  0  0
   -5.5218   27.9204   53.0315 C   0  0  0  0  0  0  0  0  0  0  0  0
   -4.2009   27.7764   53.4155 N   0  0  0  0  0  0  0  0  0  0  0  0
   -7.3537   29.7856   53.0548 C   0  0  0  0  0  0  0  0  0  0  0  0
   -7.4973   30.3153   51.7006 N   0  0  0  0  0  0  0  0  0  0  0  0
  1  2  1  0  0  0  0
  1  7  1  0  0  0  0
  2  3  1  0  0  0  0
  2  4  2  0  0  0  0
  4  5  1  0  0  0  0
  5  6  2  0  0  0  0
  5 11  1  0  0  0  0
  6  7  1  0  0  0  0
  6  9  1  0  0  0  0
  7  8  2  0  0  0  0
  9 10  2  0  0  0  0
  9 12  1  0  0  0  0
 10 11  1  0  0  0  0
 12 13  1  0  0  0  0
M  END
>  <CHROM.1>
93.29838003,-4.52576616,30.02810464,53.94387161,0.32772879,-0.39796605,0.30489402

>  <Name>
ligand

>  <RI>
-1

>  <Rbt.Current_Directory>
/home/itssahil/PROJECTS/Mol_Feturizer/Test_systems_manuscript/rnas/4jf2

>  <Rbt.Executable>
rbdock ($Id: //depot/dev/client3/rdock/2013.1/src/exe/rbdock.cxx#4 $)

>  <Rbt.Library>
libRbt.so (2013.1, Build901 2013/11/27)

>  <Rbt.Parameter_File>
/export/apps/rDock/src/rDock_2013.1_src/data/scripts/dock_solv.prm

>  <Rbt.Receptor>
prm/pocket_docking_5.prm

>  <SCORE>
-15.8893

>  <SCORE.INTER>
-15.6044

>  <SCORE.INTER.CONST>
1

>  <SCORE.INTER.POLAR>
0

>  <SCORE.INTER.ROT>
1

>  <SCORE.INTER.SOLV>
17.1701

>  <SCORE.INTER.VDW>
-20.393

>  <SCORE.INTER.norm>
-1.20034

>  <SCORE.INTRA>
-0.28489

>  <SCORE.INTRA.DIHEDRAL>
-0.184656

>  <SCORE.INTRA.DIHEDRAL.0>
1.75624

>  <SCORE.INTRA.POLAR>
0

>  <SCORE.INTRA.POLAR.0>
0

>  <SCORE.INTRA.REPUL>
0

>  <SCORE.INTRA.REPUL.0>
0

>  <SCORE.INTRA.SOLV>
-0.48532

>  <SCORE.INTRA.SOLV.lig_0>
-46.5296

>  <SCORE.INTRA.VDW>
0.0500986

>  <SCORE.INTRA.VDW.0>
-0.381873

>  <SCORE.INTRA.norm>
-0.0219146

>  <SCORE.RESTR>
0

>  <SCORE.RESTR.CAVITY>
0

>  <SCORE.RESTR.norm>
0

>  <SCORE.SYSTEM>
0

>  <SCORE.SYSTEM.CONST>
0

>  <SCORE.SYSTEM.DIHEDRAL>
0

>  <SCORE.SYSTEM.SOLV>
0

>  <SCORE.SYSTEM.norm>
0

>  <SCORE.heavy>
13

>  <SCORE.norm>
-1.22225

>  <RMSD>
0.815

$$$$
ligand
 OpenBabel02271912143D
libRbt.so/2013.1/901 2013/11/27
 13 14  0  0  0  0  0  0  0  0999 V2000
   -3.3478   31.5592   55.0397 N   0  0  0  0  0  0  0  0  0  0  0  0
   -2.2810   30.6459   55.0305 C   0  0  0  0  0  0  0  0  0  0  0  0
   -0.9975   31.0466   55.5592 N   0  0  0  0  0  0  0  0  0  0  0  0
   -2.4599   29.3756   54.5319 N   0  0  0  0  0  0  0  0  0  0  0  0
   -3.7060   28.9479   54.0055 C   0  0  0  0  0  0  0  0  0  0  0  0
   -4.8124   29.8655   53.9798 C   0  0  0  0  0  0  0  0  0  0  0  0
   -4.5871   31.1931   54.5041 C   0  0  0  0  0  0  0  0  0  0  0  0
   -5.6486   32.0543   54.4839 O   0  0  0  0  0  0  0  0  0  0  0  0
   -5.9528   29.1898   53.4051 C   0  0  0  0  0  0  0  0  0  0  0  0
   -5.4878   27.9118   53.0909 C   0  0  0  0  0  0  0  0  0  0  0  0
   -4.1613   27.7750   53.4577 N   0  0  0  0  0  0  0  0  0  0  0  0
   -7.3338   29.7622   53.1521 C   0  0  0  0  0  0  0  0  0  0  0  0
   -7.4698   30.3842   51.8369 N   0  0  0  0  0  0  0  0  0  0  0  0
  1  2  1  0  0  0  0
  1  7  1  0  0  0  0
  2  3  1  0  0  0  0
  2  4  2  0  0  0  0
  4  5  1  0  0  0  0
  5  6  2  0  0  0  0
  5 11  1  0  0  0  0
  6  7  1  0  0  0  0
  6  9  1  0  0  0  0
  7  8  2  0  0  0  0
  9 10  2  0  0  0  0
  9 12  1  0  0  0  0
 10 11  1  0  0  0  0
 12 13  1  0  0  0  0
M  END
>  <CHROM.1>
89.33380859,-4.49495147,30.02630051,54.01162175,0.32379917,-0.38463958,0.31093559

>  <Name>
ligand

>  <RI>
-1

>  <Rbt.Current_Directory>
/home/itssahil/PROJECTS/Mol_Feturizer/Test_systems_manuscript/rnas/4jf2

>  <Rbt.Executable>
rbdock ($Id: //depot/dev/client3/rdock/2013.1/src/exe/rbdock.cxx#4 $)

>  <Rbt.Library>
libRbt.so (2013.1, Build901 2013/11/27)

>  <Rbt.Parameter_File>
/export/apps/rDock/src/rDock_2013.1_src/data/scripts/dock_solv.prm

>  <Rbt.Receptor>
prm/pocket_docking_3.prm

>  <SCORE>
-15.87

>  <SCORE.INTER>
-15.608

>  <SCORE.INTER.CONST>
1

>  <SCORE.INTER.POLAR>
0

>  <SCORE.INTER.ROT>
1

>  <SCORE.INTER.SOLV>
17.0874

>  <SCORE.INTER.VDW>
-20.3678

>  <SCORE.INTER.norm>
-1.20062

>  <SCORE.INTRA>
-0.261952

>  <SCORE.INTRA.DIHEDRAL>
-0.187777

>  <SCORE.INTRA.DIHEDRAL.0>
1.75624

>  <SCORE.INTRA.POLAR>
0

>  <SCORE.INTRA.POLAR.0>
0

>  <SCORE.INTRA.REPUL>
0

>  <SCORE.INTRA.REPUL.0>
0

>  <SCORE.INTRA.SOLV>
-0.416357

>  <SCORE.INTRA.SOLV.lig_0>
-46.5296

>  <SCORE.INTRA.VDW>
0.0401154

>  <SCORE.INTRA.VDW.0>
-0.381873

>  <SCORE.INTRA.norm>
-0.0201501

>  <SCORE.RESTR>
0

>  <SCORE.RESTR.CAVITY>
0

>  <SCORE.RESTR.norm>
0

>  <SCORE.SYSTEM>
0

>  <SCORE.SYSTEM.CONST>
0

>  <SCORE.SYSTEM.DIHEDRAL>
0

>  <SCORE.SYSTEM.SOLV>
0

>  <SCORE.SYSTEM.norm>
0

>  <SCORE.heavy>
13

>  <SCORE.norm>
-1.22077

>  <RMSD>
0.816

$$$$
ligand
 OpenBabel02271912143D
libRbt.so/2013.1/901 2013/11/27
 13 14  0  0  0  0  0  0  0  0999 V2000
   -3.3398   31.5670   55.0452 N   0  0  0  0  0  0  0  0  0  0  0  0
   -2.2702   30.6571   55.0263 C   0  0  0  0  0  0  0  0  0  0  0  0
   -0.9862   31.0581   55.5534 N   0  0  0  0  0  0  0  0  0  0  0  0
   -2.4469   29.3897   54.5195 N   0  0  0  0  0  0  0  0  0  0  0  0
   -3.6934   28.9617   53.9944 C   0  0  0  0  0  0  0  0  0  0  0  0
   -4.8027   29.8761   53.9786 C   0  0  0  0  0  0  0  0  0  0  0  0
   -4.5797   31.2007   54.5113 C   0  0  0  0  0  0  0  0  0  0  0  0
   -5.6439   32.0587   54.5006 O   0  0  0  0  0  0  0  0  0  0  0  0
   -5.9430   29.2008   53.4031 C   0  0  0  0  0  0  0  0  0  0  0  0
   -5.4751   27.9264   53.0787 C   0  0  0  0  0  0  0  0  0  0  0  0
   -4.1469   27.7912   53.4401 N   0  0  0  0  0  0  0  0  0  0  0  0
   -7.3265   29.7706   53.1587 C   0  0  0  0  0  0  0  0  0  0  0  0
   -7.4607   30.4261   51.8597 N   0  0  0  0  0  0  0  0  0  0  0  0
  1  2  1  0  0  0  0
  1  7  1  0  0  0  0
  2  3  1  0  0  0  0
  2  4  2  0  0  0  0
  4  5  1  0  0  0  0
  5  6  2  0  0  0  0
  5 11  1  0  0  0  0
  6  7  1  0  0  0  0
  6  9  1  0  0  0  0
  7  8  2  0  0  0  0
  9 10  2  0  0  0  0
  9 12  1  0  0  0  0
 10 11  1  0  0  0  0
 12 13  1  0  0  0  0
M  END
>  <CHROM.1>
88.11477307,-4.48498002,30.03965241,54.01144632,0.32340325,-0.38057157,0.31738372

>  <Name>
ligand

>  <RI>
-1

>  <Rbt.Current_Directory>
/home/itssahil/PROJECTS/Mol_Feturizer/Test_systems_manuscript/rnas/4jf2

>  <Rbt.Executable>
rbdock ($Id: //depot/dev/client3/rdock/2013.1/src/exe/rbdock.cxx#4 $)

>  <Rbt.Library>
libRbt.so (2013.1, Build901 2013/11/27)

>  <Rbt.Parameter_File>
/export/apps/rDock/src/rDock_2013.1_src/data/scripts/dock_solv.prm

>  <Rbt.Receptor>
prm/pocket_docking_3.prm

>  <SCORE>
-15.8489

>  <SCORE.INTER>
-15.5975

>  <SCORE.INTER.CONST>
1

>  <SCORE.INTER.POLAR>
0

>  <SCORE.INTER.ROT>
1

>  <SCORE.INTER.SOLV>
17.0509

>  <SCORE.INTER.VDW>
-20.3486

>  <SCORE.INTER.norm>
-1.19981

>  <SCORE.INTRA>
-0.251453

>  <SCORE.INTRA.DIHEDRAL>
-0.187775

>  <SCORE.INTRA.DIHEDRAL.0>
1.75624

>  <SCORE.INTRA.POLAR>
0

>  <SCORE.INTRA.POLAR.0>
0

>  <SCORE.INTRA.REPUL>
0

>  <SCORE.INTRA.REPUL.0>
0

>  <SCORE.INTRA.SOLV>
-0.388972

>  <SCORE.INTRA.SOLV.lig_0>
-46.5296

>  <SCORE.INTRA.VDW>
0.036921

>  <SCORE.INTRA.VDW.0>
-0.381873

>  <SCORE.INTRA.norm>
-0.0193425

>  <SCORE.RESTR>
0

>  <SCORE.RESTR.CAVITY>
0

>  <SCORE.RESTR.norm>
0

>  <SCORE.SYSTEM>
0

>  <SCORE.SYSTEM.CONST>
0

>  <SCORE.SYSTEM.DIHEDRAL>
0

>  <SCORE.SYSTEM.SOLV>
0

>  <SCORE.SYSTEM.norm>
0

>  <SCORE.heavy>
13

>  <SCORE.norm>
-1.21915

>  <RMSD>
0.817

$$$$
ligand
 OpenBabel02271912143D
libRbt.so/2013.1/901 2013/11/27
 13 14  0  0  0  0  0  0  0  0999 V2000
   -3.3737   31.5218   54.9771 N   0  0  0  0  0  0  0  0  0  0  0  0
   -2.3216   30.5919   55.0020 C   0  0  0  0  0  0  0  0  0  0  0  0
   -1.0417   30.9810   55.5476 N   0  0  0  0  0  0  0  0  0  0  0  0
   -2.5117   29.3166   54.5205 N   0  0  0  0  0  0  0  0  0  0  0  0
   -3.7548   28.8999   53.9783 C   0  0  0  0  0  0  0  0  0  0  0  0
   -4.8457   29.8342   53.9177 C   0  0  0  0  0  0  0  0  0  0  0  0
   -4.6088   31.1664   54.4249 C   0  0  0  0  0  0  0  0  0  0  0  0
   -5.6559   32.0437   54.3715 O   0  0  0  0  0  0  0  0  0  0  0  0
   -5.9862   29.1672   53.3331 C   0  0  0  0  0  0  0  0  0  0  0  0
   -5.5360   27.8771   53.0479 C   0  0  0  0  0  0  0  0  0  0  0  0
   -4.2187   27.7256   53.4411 N   0  0  0  0  0  0  0  0  0  0  0  0
   -7.3531   29.7569   53.0458 C   0  0  0  0  0  0  0  0  0  0  0  0
   -7.4599   30.3467   51.7132 N   0  0  0  0  0  0  0  0  0  0  0  0
  1  2  1  0  0  0  0
  1  7  1  0  0  0  0
  2  3  1  0  0  0  0
  2  4  2  0  0  0  0
  4  5  1  0  0  0  0
  5  6  2  0  0  0  0
  5 11  1  0  0  0  0
  6  7  1  0  0  0  0
  6  9  1  0  0  0  0
  7  8  2  0  0  0  0
  9 10  2  0  0  0  0
  9 12  1  0  0  0  0
 10 11  1  0  0  0  0
 12 13  1  0  0  0  0
M  END
>  <CHROM.1>
89.95813152,-4.52676193,29.98945977,53.95235023,0.31456128,-0.40662434,0.29140511

>  <Name>
ligand

>  <RI>
-1

>  <Rbt.Current_Directory>
/home/itssahil/PROJECTS/Mol_Feturizer/Test_systems_manuscript/rnas/4jf2

>  <Rbt.Executable>
rbdock ($Id: //depot/dev/client3/rdock/2013.1/src/exe/rbdock.cxx#4 $)

>  <Rbt.Library>
libRbt.so (2013.1, Build901 2013/11/27)

>  <Rbt.Parameter_File>
/export/apps/rDock/src/rDock_2013.1_src/data/scripts/dock_solv.prm

>  <Rbt.Receptor>
prm/pocket_docking_3.prm

>  <SCORE>
-15.9014

>  <SCORE.INTER>
-15.6357

>  <SCORE.INTER.CONST>
1

>  <SCORE.INTER.POLAR>
0

>  <SCORE.INTER.ROT>
1

>  <SCORE.INTER.SOLV>
16.9835

>  <SCORE.INTER.VDW>
-20.3516

>  <SCORE.INTER.norm>
-1.20274

>  <SCORE.INTRA>
-0.26574

>  <SCORE.INTRA.DIHEDRAL>
-0.187602

>  <SCORE.INTRA.DIHEDRAL.0>
1.75624

>  <SCORE.INTRA.POLAR>
0

>  <SCORE.INTRA.POLAR.0>
0

>  <SCORE.INTRA.REPUL>
0

>  <SCORE.INTRA.REPUL.0>
0

>  <SCORE.INTRA.SOLV>
-0.427335

>  <SCORE.INTRA.SOLV.lig_0>
-46.5296

>  <SCORE.INTRA.VDW>
0.0417288

>  <SCORE.INTRA.VDW.0>
-0.381873

>  <SCORE.INTRA.norm>
-0.0204415

>  <SCORE.RESTR>
0

>  <SCORE.RESTR.CAVITY>
0

>  <SCORE.RESTR.norm>
0

>  <SCORE.SYSTEM>
0

>  <SCORE.SYSTEM.CONST>
0

>  <SCORE.SYSTEM.DIHEDRAL>
0

>  <SCORE.SYSTEM.SOLV>
0

>  <SCORE.SYSTEM.norm>
0

>  <SCORE.heavy>
13

>  <SCORE.norm>
-1.22319

>  <RMSD>
0.818

$$$$
ligand
 OpenBabel02271912143D
libRbt.so/2013.1/901 2013/11/27
 13 14  0  0  0  0  0  0  0  0999 V2000
   -3.3739   31.5509   54.9794 N   0  0  0  0  0  0  0  0  0  0  0  0
   -2.3131   30.6309   54.9976 C   0  0  0  0  0  0  0  0  0  0  0  0
   -1.0355   31.0296   55.5417 N   0  0  0  0  0  0  0  0  0  0  0  0
   -2.4924   29.3560   54.5109 N   0  0  0  0  0  0  0  0  0  0  0  0
   -3.7329   28.9300   53.9700 C   0  0  0  0  0  0  0  0  0  0  0  0
   -4.8327   29.8543   53.9162 C   0  0  0  0  0  0  0  0  0  0  0  0
   -4.6071   31.1864   54.4286 C   0  0  0  0  0  0  0  0  0  0  0  0
   -5.6625   32.0540   54.3817 O   0  0  0  0  0  0  0  0  0  0  0  0
   -5.9684   29.1791   53.3315 C   0  0  0  0  0  0  0  0  0  0  0  0
   -5.5068   27.8946   53.0396 C   0  0  0  0  0  0  0  0  0  0  0  0
   -4.1871   27.7537   53.4288 N   0  0  0  0  0  0  0  0  0  0  0  0
   -7.3414   29.7572   53.0502 C   0  0  0  0  0  0  0  0  0  0  0  0
   -7.4368   30.4137   51.7482 N   0  0  0  0  0  0  0  0  0  0  0  0
  1  2  1  0  0  0  0
  1  7  1  0  0  0  0
  2  3  1  0  0  0  0
  2  4  2  0  0  0  0
  4  5  1  0  0  0  0
  5  6  2  0  0  0  0
  5 11  1  0  0  0  0
  6  7  1  0  0  0  0
  6  9  1  0  0  0  0
  7  8  2  0  0  0  0
  9 10  2  0  0  0  0
  9 12  1  0  0  0  0
 10 11  1  0  0  0  0
 12 13  1  0  0  0  0
M  END
>  <CHROM.1>
86.93407976,-4.51347384,30.01738003,53.95299728,0.31743860,-0.40165244,0.29639203

>  <Name>
ligand

>  <RI>
-1

>  <Rbt.Current_Directory>
/home/itssahil/PROJECTS/Mol_Feturizer/Test_systems_manuscript/rnas/4jf2

>  <Rbt.Executable>
rbdock ($Id: //depot/dev/client3/rdock/2013.1/src/exe/rbdock.cxx#4 $)

>  <Rbt.Library>
libRbt.so (2013.1, Build901 2013/11/27)

>  <Rbt.Parameter_File>
/export/apps/rDock/src/rDock_2013.1_src/data/scripts/dock_solv.prm

>  <Rbt.Receptor>
prm/pocket_docking_4.prm

>  <SCORE>
-15.9038

>  <SCORE.INTER>
-15.6659

>  <SCORE.INTER.CONST>
1

>  <SCORE.INTER.POLAR>
0

>  <SCORE.INTER.ROT>
1

>  <SCORE.INTER.SOLV>
16.9349

>  <SCORE.INTER.VDW>
-20.3556

>  <SCORE.INTER.norm>
-1.20507

>  <SCORE.INTRA>
-0.237834

>  <SCORE.INTRA.DIHEDRAL>
-0.18734

>  <SCORE.INTRA.DIHEDRAL.0>
1.75624

>  <SCORE.INTRA.POLAR>
0

>  <SCORE.INTRA.POLAR.0>
0

>  <SCORE.INTRA.REPUL>
0

>  <SCORE.INTRA.REPUL.0>
0

>  <SCORE.INTRA.SOLV>
-0.355874

>  <SCORE.INTRA.SOLV.lig_0>
-46.5296

>  <SCORE.INTRA.VDW>
0.0337729

>  <SCORE.INTRA.VDW.0>
-0.381873

>  <SCORE.INTRA.norm>
-0.0182949

>  <SCORE.RESTR>
0

>  <SCORE.RESTR.CAVITY>
0

>  <SCORE.RESTR.norm>
0

>  <SCORE.SYSTEM>
0

>  <SCORE.SYSTEM.CONST>
0

>  <SCORE.SYSTEM.DIHEDRAL>
0

>  <SCORE.SYSTEM.SOLV>
0

>  <SCORE.SYSTEM.norm>
0

>  <SCORE.heavy>
13

>  <SCORE.norm>
-1.22337

>  <RMSD>
0.818

$$$$
ligand
 OpenBabel02271912143D
libRbt.so/2013.1/901 2013/11/27
 13 14  0  0  0  0  0  0  0  0999 V2000
   -3.3691   31.5740   55.0111 N   0  0  0  0  0  0  0  0  0  0  0  0
   -2.2958   30.6684   55.0120 C   0  0  0  0  0  0  0  0  0  0  0  0
   -1.0169   31.0823   55.5415 N   0  0  0  0  0  0  0  0  0  0  0  0
   -2.4639   29.3932   54.5223 N   0  0  0  0  0  0  0  0  0  0  0  0
   -3.7053   28.9525   53.9953 C   0  0  0  0  0  0  0  0  0  0  0  0
   -4.8182   29.8619   53.9594 C   0  0  0  0  0  0  0  0  0  0  0  0
   -4.6041   31.1949   54.4745 C   0  0  0  0  0  0  0  0  0  0  0  0
   -5.6717   32.0482   54.4446 O   0  0  0  0  0  0  0  0  0  0  0  0
   -5.9519   29.1737   53.3863 C   0  0  0  0  0  0  0  0  0  0  0  0
   -5.4767   27.8967   53.0832 C   0  0  0  0  0  0  0  0  0  0  0  0
   -4.1504   27.7723   53.4550 N   0  0  0  0  0  0  0  0  0  0  0  0
   -7.3362   29.7342   53.1248 C   0  0  0  0  0  0  0  0  0  0  0  0
   -7.4671   30.3626   51.8122 N   0  0  0  0  0  0  0  0  0  0  0  0
  1  2  1  0  0  0  0
  1  7  1  0  0  0  0
  2  3  1  0  0  0  0
  2  4  2  0  0  0  0
  4  5  1  0  0  0  0
  5  6  2  0  0  0  0
  5 11  1  0  0  0  0
  6  7  1  0  0  0  0
  6  9  1  0  0  0  0
  7  8  2  0  0  0  0
  9 10  2  0  0  0  0
  9 12  1  0  0  0  0
 10 11  1  0  0  0  0
 12 13  1  0  0  0  0
M  END
>  <CHROM.1>
88.49696753,-4.50156526,30.02660464,53.99161221,0.33055469,-0.38543239,0.30582541

>  <Name>
ligand

>  <RI>
-1

>  <Rbt.Current_Directory>
/home/itssahil/PROJECTS/Mol_Feturizer/Test_systems_manuscript/rnas/4jf2

>  <Rbt.Executable>
rbdock ($Id: //depot/dev/client3/rdock/2013.1/src/exe/rbdock.cxx#4 $)

>  <Rbt.Library>
libRbt.so (2013.1, Build901 2013/11/27)

>  <Rbt.Parameter_File>
/export/apps/rDock/src/rDock_2013.1_src/data/scripts/dock_solv.prm

>  <Rbt.Receptor>
prm/pocket_docking_3.prm

>  <SCORE>
-15.8723

>  <SCORE.INTER>
-15.6164

>  <SCORE.INTER.CONST>
1

>  <SCORE.INTER.POLAR>
0

>  <SCORE.INTER.ROT>
1

>  <SCORE.INTER.SOLV>
17.1733

>  <SCORE.INTER.VDW>
-20.4021

>  <SCORE.INTER.norm>
-1.20126

>  <SCORE.INTRA>
-0.255811

>  <SCORE.INTRA.DIHEDRAL>
-0.187825

>  <SCORE.INTRA.DIHEDRAL.0>
1.75624

>  <SCORE.INTRA.POLAR>
0

>  <SCORE.INTRA.POLAR.0>
0

>  <SCORE.INTRA.REPUL>
0

>  <SCORE.INTRA.REPUL.0>
0

>  <SCORE.INTRA.SOLV>
-0.399654

>  <SCORE.INTRA.SOLV.lig_0>
-46.5296

>  <SCORE.INTRA.VDW>
0.0379288

>  <SCORE.INTRA.VDW.0>
-0.381873

>  <SCORE.INTRA.norm>
-0.0196777

>  <SCORE.RESTR>
0

>  <SCORE.RESTR.CAVITY>
0

>  <SCORE.RESTR.norm>
0

>  <SCORE.SYSTEM>
0

>  <SCORE.SYSTEM.CONST>
0

>  <SCORE.SYSTEM.DIHEDRAL>
0

>  <SCORE.SYSTEM.SOLV>
0

>  <SCORE.SYSTEM.norm>
0

>  <SCORE.heavy>
13

>  <SCORE.norm>
-1.22094

>  <RMSD>
0.819

$$$$
ligand
 OpenBabel02271912143D
libRbt.so/2013.1/901 2013/11/27
 13 14  0  0  0  0  0  0  0  0999 V2000
   -3.3827   31.5544   54.9605 N   0  0  0  0  0  0  0  0  0  0  0  0
   -2.3219   30.6343   54.9781 C   0  0  0  0  0  0  0  0  0  0  0  0
   -1.0442   31.0328   55.5224 N   0  0  0  0  0  0  0  0  0  0  0  0
   -2.5011   29.3597   54.4907 N   0  0  0  0  0  0  0  0  0  0  0  0
   -3.7416   28.9340   53.9496 C   0  0  0  0  0  0  0  0  0  0  0  0
   -4.8415   29.8583   53.8965 C   0  0  0  0  0  0  0  0  0  0  0  0
   -4.6159   31.1901   54.4097 C   0  0  0  0  0  0  0  0  0  0  0  0
   -5.6713   32.0577   54.3634 O   0  0  0  0  0  0  0  0  0  0  0  0
   -5.9772   29.1834   53.3114 C   0  0  0  0  0  0  0  0  0  0  0  0
   -5.5156   27.8991   53.0187 C   0  0  0  0  0  0  0  0  0  0  0  0
   -4.1959   27.7580   53.4077 N   0  0  0  0  0  0  0  0  0  0  0  0
   -7.3503   29.7616   53.0306 C   0  0  0  0  0  0  0  0  0  0  0  0
   -7.4677   30.3524   51.6993 N   0  0  0  0  0  0  0  0  0  0  0  0
  1  2  1  0  0  0  0
  1  7  1  0  0  0  0
  2  3  1  0  0  0  0
  2  4  2  0  0  0  0
  4  5  1  0  0  0  0
  5  6  2  0  0  0  0
  5 11  1  0  0  0  0
  6  7  1  0  0  0  0
  6  9  1  0  0  0  0
  7  8  2  0  0  0  0
  9 10  2  0  0  0  0
  9 12  1  0  0  0  0
 10 11  1  0  0  0  0
 12 13  1  0  0  0  0
M  END
>  <CHROM.1>
90.18440106,-4.52406437,30.01595650,53.93091848,0.32401402,-0.40138559,0.30015046

>  <Name>
ligand

>  <RI>
-1

>  <Rbt.Current_Directory>
/home/itssahil/PROJECTS/Mol_Feturizer/Test_systems_manuscript/rnas/4jf2

>  <Rbt.Executable>
rbdock ($Id: //depot/dev/client3/rdock/2013.1/src/exe/rbdock.cxx#4 $)

>  <Rbt.Library>
libRbt.so (2013.1, Build901 2013/11/27)

>  <Rbt.Parameter_File>
/export/apps/rDock/src/rDock_2013.1_src/data/scripts/dock_solv.prm

>  <Rbt.Receptor>
prm/pocket_docking_3.prm

>  <SCORE>
-15.9323

>  <SCORE.INTER>
-15.6652

>  <SCORE.INTER.CONST>
1

>  <SCORE.INTER.POLAR>
0

>  <SCORE.INTER.ROT>
1

>  <SCORE.INTER.SOLV>
17.0708

>  <SCORE.INTER.VDW>
-20.4004

>  <SCORE.INTER.norm>
-1.20501

>  <SCORE.INTRA>
-0.267097

>  <SCORE.INTRA.DIHEDRAL>
-0.18751

>  <SCORE.INTRA.DIHEDRAL.0>
1.75624

>  <SCORE.INTRA.POLAR>
0

>  <SCORE.INTRA.POLAR.0>
0

>  <SCORE.INTRA.REPUL>
0

>  <SCORE.INTRA.REPUL.0>
0

>  <SCORE.INTRA.SOLV>
-0.431303

>  <SCORE.INTRA.SOLV.lig_0>
-46.5296

>  <SCORE.INTRA.VDW>
0.0423098

>  <SCORE.INTRA.VDW.0>
-0.381873

>  <SCORE.INTRA.norm>
-0.0205459

>  <SCORE.RESTR>
0

>  <SCORE.RESTR.CAVITY>
0

>  <SCORE.RESTR.norm>
0

>  <SCORE.SYSTEM>
0

>  <SCORE.SYSTEM.CONST>
0

>  <SCORE.SYSTEM.DIHEDRAL>
0

>  <SCORE.SYSTEM.SOLV>
0

>  <SCORE.SYSTEM.norm>
0

>  <SCORE.heavy>
13

>  <SCORE.norm>
-1.22556

>  <RMSD>
0.819

$$$$
ligand
 OpenBabel02271912143D
libRbt.so/2013.1/901 2013/11/27
 13 14  0  0  0  0  0  0  0  0999 V2000
   -3.3310   31.5841   55.0609 N   0  0  0  0  0  0  0  0  0  0  0  0
   -2.2841   30.6480   55.0636 C   0  0  0  0  0  0  0  0  0  0  0  0
   -0.9997   31.0196   55.6109 N   0  0  0  0  0  0  0  0  0  0  0  0
   -2.4834   29.3832   54.5588 N   0  0  0  0  0  0  0  0  0  0  0  0
   -3.7311   28.9838   54.0141 C   0  0  0  0  0  0  0  0  0  0  0  0
   -4.8170   29.9251   53.9760 C   0  0  0  0  0  0  0  0  0  0  0  0
   -4.5705   31.2461   54.5073 C   0  0  0  0  0  0  0  0  0  0  0  0
   -5.6129   32.1300   54.4752 O   0  0  0  0  0  0  0  0  0  0  0  0
   -5.9637   29.2756   53.3838 C   0  0  0  0  0  0  0  0  0  0  0  0
   -5.5220   27.9887   53.0722 C   0  0  0  0  0  0  0  0  0  0  0  0
   -4.2038   27.8224   53.4567 N   0  0  0  0  0  0  0  0  0  0  0  0
   -7.3284   29.8783   53.1137 C   0  0  0  0  0  0  0  0  0  0  0  0
   -7.4449   30.4733   51.7842 N   0  0  0  0  0  0  0  0  0  0  0  0
  1  2  1  0  0  0  0
  1  7  1  0  0  0  0
  2  3  1  0  0  0  0
  2  4  2  0  0  0  0
  4  5  1  0  0  0  0
  5  6  2  0  0  0  0
  5 11  1  0  0  0  0
  6  7  1  0  0  0  0
  6  9  1  0  0  0  0
  7  8  2  0  0  0  0
  9 10  2  0  0  0  0
  9 12  1  0  0  0  0
 10 11  1  0  0  0  0
 12 13  1  0  0  0  0
M  END
>  <CHROM.1>
90.96401434,-4.49761617,30.07621595,54.01149731,0.30943826,-0.40407365,0.30857019

>  <Name>
ligand

>  <RI>
-1

>  <Rbt.Current_Directory>
/home/itssahil/PROJECTS/Mol_Feturizer/Test_systems_manuscript/rnas/4jf2

>  <Rbt.Executable>
rbdock ($Id: //depot/dev/client3/rdock/2013.1/src/exe/rbdock.cxx#4 $)

>  <Rbt.Library>
libRbt.so (2013.1, Build901 2013/11/27)

>  <Rbt.Parameter_File>
/export/apps/rDock/src/rDock_2013.1_src/data/scripts/dock_solv.prm

>  <Rbt.Receptor>
prm/pocket_docking_4.prm

>  <SCORE>
-15.822

>  <SCORE.INTER>
-15.5503

>  <SCORE.INTER.CONST>
1

>  <SCORE.INTER.POLAR>
0

>  <SCORE.INTER.ROT>
1

>  <SCORE.INTER.SOLV>
16.7674

>  <SCORE.INTER.VDW>
-20.2226

>  <SCORE.INTER.norm>
-1.19617

>  <SCORE.INTRA>
-0.271705

>  <SCORE.INTRA.DIHEDRAL>
-0.187071

>  <SCORE.INTRA.DIHEDRAL.0>
1.75624

>  <SCORE.INTRA.POLAR>
0

>  <SCORE.INTRA.POLAR.0>
0

>  <SCORE.INTRA.REPUL>
0

>  <SCORE.INTRA.REPUL.0>
0

>  <SCORE.INTRA.SOLV>
-0.444932

>  <SCORE.INTRA.SOLV.lig_0>
-46.5296

>  <SCORE.INTRA.VDW>
0.0442959

>  <SCORE.INTRA.VDW.0>
-0.381873

>  <SCORE.INTRA.norm>
-0.0209004

>  <SCORE.RESTR>
0

>  <SCORE.RESTR.CAVITY>
0

>  <SCORE.RESTR.norm>
0

>  <SCORE.SYSTEM>
0

>  <SCORE.SYSTEM.CONST>
0

>  <SCORE.SYSTEM.DIHEDRAL>
0

>  <SCORE.SYSTEM.SOLV>
0

>  <SCORE.SYSTEM.norm>
0

>  <SCORE.heavy>
13

>  <SCORE.norm>
-1.21707

>  <RMSD>
0.819

$$$$
ligand
 OpenBabel02271912143D
libRbt.so/2013.1/901 2013/11/27
 13 14  0  0  0  0  0  0  0  0999 V2000
   -3.3764   31.5517   54.9749 N   0  0  0  0  0  0  0  0  0  0  0  0
   -2.3149   30.6323   54.9911 C   0  0  0  0  0  0  0  0  0  0  0  0
   -1.0371   31.0313   55.5345 N   0  0  0  0  0  0  0  0  0  0  0  0
   -2.4938   29.3579   54.5031 N   0  0  0  0  0  0  0  0  0  0  0  0
   -3.7344   28.9316   53.9628 C   0  0  0  0  0  0  0  0  0  0  0  0
   -4.8350   29.8552   53.9112 C   0  0  0  0  0  0  0  0  0  0  0  0
   -4.6098   31.1869   54.4249 C   0  0  0  0  0  0  0  0  0  0  0  0
   -5.6659   32.0538   54.3800 O   0  0  0  0  0  0  0  0  0  0  0  0
   -5.9707   29.1799   53.3267 C   0  0  0  0  0  0  0  0  0  0  0  0
   -5.5085   27.8960   53.0328 C   0  0  0  0  0  0  0  0  0  0  0  0
   -4.1883   27.7557   53.4206 N   0  0  0  0  0  0  0  0  0  0  0  0
   -7.3445   29.7573   53.0473 C   0  0  0  0  0  0  0  0  0  0  0  0
   -7.4582   30.3641   51.7229 N   0  0  0  0  0  0  0  0  0  0  0  0
  1  2  1  0  0  0  0
  1  7  1  0  0  0  0
  2  3  1  0  0  0  0
  2  4  2  0  0  0  0
  4  5  1  0  0  0  0
  5  6  2  0  0  0  0
  5 11  1  0  0  0  0
  6  7  1  0  0  0  0
  6  9  1  0  0  0  0
  7  8  2  0  0  0  0
  9 10  2  0  0  0  0
  9 12  1  0  0  0  0
 10 11  1  0  0  0  0
 12 13  1  0  0  0  0
M  END
>  <CHROM.1>
89.44130202,-4.51719368,30.01431732,53.94593472,0.32294261,-0.40044367,0.30015783

>  <Name>
ligand

>  <RI>
-1

>  <Rbt.Current_Directory>
/home/itssahil/PROJECTS/Mol_Feturizer/Test_systems_manuscript/rnas/4jf2

>  <Rbt.Executable>
rbdock ($Id: //depot/dev/client3/rdock/2013.1/src/exe/rbdock.cxx#4 $)

>  <Rbt.Library>
libRbt.so (2013.1, Build901 2013/11/27)

>  <Rbt.Parameter_File>
/export/apps/rDock/src/rDock_2013.1_src/data/scripts/dock_solv.prm

>  <Rbt.Receptor>
prm/pocket_docking_6.prm

>  <SCORE>
-15.9292

>  <SCORE.INTER>
-15.6666

>  <SCORE.INTER.CONST>
1

>  <SCORE.INTER.POLAR>
0

>  <SCORE.INTER.ROT>
1

>  <SCORE.INTER.SOLV>
17.0404

>  <SCORE.INTER.VDW>
-20.3912

>  <SCORE.INTER.norm>
-1.20513

>  <SCORE.INTRA>
-0.262608

>  <SCORE.INTRA.DIHEDRAL>
-0.187756

>  <SCORE.INTRA.DIHEDRAL.0>
1.75624

>  <SCORE.INTRA.POLAR>
0

>  <SCORE.INTRA.POLAR.0>
0

>  <SCORE.INTRA.REPUL>
0

>  <SCORE.INTRA.REPUL.0>
0

>  <SCORE.INTRA.SOLV>
-0.41825

>  <SCORE.INTRA.SOLV.lig_0>
-46.5296

>  <SCORE.INTRA.VDW>
0.0403943

>  <SCORE.INTRA.VDW.0>
-0.381873

>  <SCORE.INTRA.norm>
-0.0202006

>  <SCORE.RESTR>
0

>  <SCORE.RESTR.CAVITY>
0

>  <SCORE.RESTR.norm>
0

>  <SCORE.SYSTEM>
0

>  <SCORE.SYSTEM.CONST>
0

>  <SCORE.SYSTEM.DIHEDRAL>
0

>  <SCORE.SYSTEM.SOLV>
0

>  <SCORE.SYSTEM.norm>
0

>  <SCORE.heavy>
13

>  <SCORE.norm>
-1.22533

>  <RMSD>
0.819

$$$$
ligand
 OpenBabel02271912143D
libRbt.so/2013.1/901 2013/11/27
 13 14  0  0  0  0  0  0  0  0999 V2000
   -3.3601   31.5611   54.9902 N   0  0  0  0  0  0  0  0  0  0  0  0
   -2.3074   30.6319   55.0144 C   0  0  0  0  0  0  0  0  0  0  0  0
   -1.0265   31.0228   55.5567 N   0  0  0  0  0  0  0  0  0  0  0  0
   -2.4975   29.3558   54.5351 N   0  0  0  0  0  0  0  0  0  0  0  0
   -3.7414   28.9374   53.9961 C   0  0  0  0  0  0  0  0  0  0  0  0
   -4.8332   29.8709   53.9364 C   0  0  0  0  0  0  0  0  0  0  0  0
   -4.5962   31.2041   54.4411 C   0  0  0  0  0  0  0  0  0  0  0  0
   -5.6440   32.0805   54.3886 O   0  0  0  0  0  0  0  0  0  0  0  0
   -5.9744   29.2022   53.3551 C   0  0  0  0  0  0  0  0  0  0  0  0
   -5.5239   27.9120   53.0710 C   0  0  0  0  0  0  0  0  0  0  0  0
   -4.2056   27.7620   53.4616 N   0  0  0  0  0  0  0  0  0  0  0  0
   -7.3423   29.7906   53.0698 C   0  0  0  0  0  0  0  0  0  0  0  0
   -7.4576   30.3628   51.7302 N   0  0  0  0  0  0  0  0  0  0  0  0
  1  2  1  0  0  0  0
  1  7  1  0  0  0  0
  2  3  1  0  0  0  0
  2  4  2  0  0  0  0
  4  5  1  0  0  0  0
  5  6  2  0  0  0  0
  5 11  1  0  0  0  0
  6  7  1  0  0  0  0
  6  9  1  0  0  0  0
  7  8  2  0  0  0  0
  9 10  2  0  0  0  0
  9 12  1  0  0  0  0
 10 11  1  0  0  0  0
 12 13  1  0  0  0  0
M  END
>  <CHROM.1>
90.70734846,-4.51466978,30.02515824,53.96963396,0.31616715,-0.40436307,0.29067546

>  <Name>
ligand

>  <RI>
-1

>  <Rbt.Current_Directory>
/home/itssahil/PROJECTS/Mol_Feturizer/Test_systems_manuscript/rnas/4jf2

>  <Rbt.Executable>
rbdock ($Id: //depot/dev/client3/rdock/2013.1/src/exe/rbdock.cxx#4 $)

>  <Rbt.Library>
libRbt.so (2013.1, Build901 2013/11/27)

>  <Rbt.Parameter_File>
/export/apps/rDock/src/rDock_2013.1_src/data/scripts/dock_solv.prm

>  <Rbt.Receptor>
prm/pocket_docking_5.prm

>  <SCORE>
-15.8806

>  <SCORE.INTER>
-15.6104

>  <SCORE.INTER.CONST>
1

>  <SCORE.INTER.POLAR>
0

>  <SCORE.INTER.ROT>
1

>  <SCORE.INTER.SOLV>
17.0064

>  <SCORE.INTER.VDW>
-20.3424

>  <SCORE.INTER.norm>
-1.2008

>  <SCORE.INTRA>
-0.270199

>  <SCORE.INTRA.DIHEDRAL>
-0.187236

>  <SCORE.INTRA.DIHEDRAL.0>
1.75624

>  <SCORE.INTRA.POLAR>
0

>  <SCORE.INTRA.POLAR.0>
0

>  <SCORE.INTRA.REPUL>
0

>  <SCORE.INTRA.REPUL.0>
0

>  <SCORE.INTRA.SOLV>
-0.440452

>  <SCORE.INTRA.SOLV.lig_0>
-46.5296

>  <SCORE.INTRA.VDW>
0.0436447

>  <SCORE.INTRA.VDW.0>
-0.381873

>  <SCORE.INTRA.norm>
-0.0207846

>  <SCORE.RESTR>
0

>  <SCORE.RESTR.CAVITY>
0

>  <SCORE.RESTR.norm>
0

>  <SCORE.SYSTEM>
0

>  <SCORE.SYSTEM.CONST>
0

>  <SCORE.SYSTEM.DIHEDRAL>
0

>  <SCORE.SYSTEM.SOLV>
0

>  <SCORE.SYSTEM.norm>
0

>  <SCORE.heavy>
13

>  <SCORE.norm>
-1.22158

>  <RMSD>
0.820

$$$$
ligand
 OpenBabel02271912143D
libRbt.so/2013.1/901 2013/11/27
 13 14  0  0  0  0  0  0  0  0999 V2000
   -3.3726   31.5406   54.9819 N   0  0  0  0  0  0  0  0  0  0  0  0
   -2.3125   30.6196   54.9953 C   0  0  0  0  0  0  0  0  0  0  0  0
   -1.0340   31.0151   55.5398 N   0  0  0  0  0  0  0  0  0  0  0  0
   -2.4933   29.3469   54.5036 N   0  0  0  0  0  0  0  0  0  0  0  0
   -3.7347   28.9241   53.9622 C   0  0  0  0  0  0  0  0  0  0  0  0
   -4.8338   29.8495   53.9133 C   0  0  0  0  0  0  0  0  0  0  0  0
   -4.6066   31.1794   54.4309 C   0  0  0  0  0  0  0  0  0  0  0  0
   -5.6613   32.0480   54.3886 O   0  0  0  0  0  0  0  0  0  0  0  0
   -5.9706   29.1776   53.3269 C   0  0  0  0  0  0  0  0  0  0  0  0
   -5.5104   27.8939   53.0293 C   0  0  0  0  0  0  0  0  0  0  0  0
   -4.1904   27.7504   53.4166 N   0  0  0  0  0  0  0  0  0  0  0  0
   -7.3435   29.7580   53.0494 C   0  0  0  0  0  0  0  0  0  0  0  0
   -7.4593   30.3604   51.7231 N   0  0  0  0  0  0  0  0  0  0  0  0
  1  2  1  0  0  0  0
  1  7  1  0  0  0  0
  2  3  1  0  0  0  0
  2  4  2  0  0  0  0
  4  5  1  0  0  0  0
  5  6  2  0  0  0  0
  5 11  1  0  0  0  0
  6  7  1  0  0  0  0
  6  9  1  0  0  0  0
  7  8  2  0  0  0  0
  9 10  2  0  0  0  0
  9 12  1  0  0  0  0
 10 11  1  0  0  0  0
 12 13  1  0  0  0  0
M  END
>  <CHROM.1>
89.84966844,-4.51600478,30.00734349,53.94820973,0.32216206,-0.40079356,0.30285035

>  <Name>
ligand

>  <RI>
-1

>  <Rbt.Current_Directory>
/home/itssahil/PROJECTS/Mol_Feturizer/Test_systems_manuscript/rnas/4jf2

>  <Rbt.Executable>
rbdock ($Id: //depot/dev/client3/rdock/2013.1/src/exe/rbdock.cxx#4 $)

>  <Rbt.Library>
libRbt.so (2013.1, Build901 2013/11/27)

>  <Rbt.Parameter_File>
/export/apps/rDock/src/rDock_2013.1_src/data/scripts/dock_solv.prm

>  <Rbt.Receptor>
prm/pocket_docking_6.prm

>  <SCORE>
-15.9236

>  <SCORE.INTER>
-15.6585

>  <SCORE.INTER.CONST>
1

>  <SCORE.INTER.POLAR>
0

>  <SCORE.INTER.ROT>
1

>  <SCORE.INTER.SOLV>
17.0164

>  <SCORE.INTER.VDW>
-20.3778

>  <SCORE.INTER.norm>
-1.2045

>  <SCORE.INTRA>
-0.265086

>  <SCORE.INTRA.DIHEDRAL>
-0.187641

>  <SCORE.INTRA.DIHEDRAL.0>
1.75624

>  <SCORE.INTRA.POLAR>
0

>  <SCORE.INTRA.POLAR.0>
0

>  <SCORE.INTRA.REPUL>
0

>  <SCORE.INTRA.REPUL.0>
0

>  <SCORE.INTRA.SOLV>
-0.425431

>  <SCORE.INTRA.SOLV.lig_0>
-46.5296

>  <SCORE.INTRA.VDW>
0.0414496

>  <SCORE.INTRA.VDW.0>
-0.381873

>  <SCORE.INTRA.norm>
-0.0203913

>  <SCORE.RESTR>
0

>  <SCORE.RESTR.CAVITY>
0

>  <SCORE.RESTR.norm>
0

>  <SCORE.SYSTEM>
0

>  <SCORE.SYSTEM.CONST>
0

>  <SCORE.SYSTEM.DIHEDRAL>
0

>  <SCORE.SYSTEM.SOLV>
0

>  <SCORE.SYSTEM.norm>
0

>  <SCORE.heavy>
13

>  <SCORE.norm>
-1.22489

>  <RMSD>
0.820

$$$$
ligand
 OpenBabel02271912143D
libRbt.so/2013.1/901 2013/11/27
 13 14  0  0  0  0  0  0  0  0999 V2000
   -3.4307   31.5566   54.9192 N   0  0  0  0  0  0  0  0  0  0  0  0
   -2.3700   30.6377   54.9729 C   0  0  0  0  0  0  0  0  0  0  0  0
   -1.0998   31.0496   55.5246 N   0  0  0  0  0  0  0  0  0  0  0  0
   -2.5425   29.3519   54.5135 N   0  0  0  0  0  0  0  0  0  0  0  0
   -3.7756   28.9128   53.9660 C   0  0  0  0  0  0  0  0  0  0  0  0
   -4.8748   29.8351   53.8763 C   0  0  0  0  0  0  0  0  0  0  0  0
   -4.6563   31.1788   54.3607 C   0  0  0  0  0  0  0  0  0  0  0  0
   -5.7112   32.0446   54.2797 O   0  0  0  0  0  0  0  0  0  0  0  0
   -6.0025   29.1460   53.2922 C   0  0  0  0  0  0  0  0  0  0  0  0
   -5.5368   27.8553   53.0363 C   0  0  0  0  0  0  0  0  0  0  0  0
   -4.2224   27.7241   53.4462 N   0  0  0  0  0  0  0  0  0  0  0  0
   -7.3718   29.7168   52.9794 C   0  0  0  0  0  0  0  0  0  0  0  0
   -7.4496   30.3437   51.6618 N   0  0  0  0  0  0  0  0  0  0  0  0
  1  2  1  0  0  0  0
  1  7  1  0  0  0  0
  2  3  1  0  0  0  0
  2  4  2  0  0  0  0
  4  5  1  0  0  0  0
  5  6  2  0  0  0  0
  5 11  1  0  0  0  0
  6  7  1  0  0  0  0
  6  9  1  0  0  0  0
  7  8  2  0  0  0  0
  9 10  2  0  0  0  0
  9 12  1  0  0  0  0
 10 11  1  0  0  0  0
 12 13  1  0  0  0  0
M  END
>  <CHROM.1>
86.89773720,-4.55611984,29.99922060,53.91354975,0.32182165,-0.41432864,0.27500480

>  <Name>
ligand

>  <RI>
0

>  <Rbt.Current_Directory>
/home/itssahil/PROJECTS/Mol_Feturizer/Test_systems_manuscript/rnas/4jf2

>  <Rbt.Executable>
rbdock ($Id: //depot/dev/client3/rdock/2013.1/src/exe/rbdock.cxx#4 $)

>  <Rbt.Library>
libRbt.so (2013.1, Build901 2013/11/27)

>  <Rbt.Parameter_File>
/export/apps/rDock/src/rDock_2013.1_src/data/scripts/dock_solv.prm

>  <Rbt.Receptor>
prm/pocket_docking_8.prm

>  <SCORE>
-15.8538

>  <SCORE.INTER>
-15.6164

>  <SCORE.INTER.CONST>
1

>  <SCORE.INTER.POLAR>
0

>  <SCORE.INTER.ROT>
1

>  <SCORE.INTER.SOLV>
17.0365

>  <SCORE.INTER.VDW>
-20.3564

>  <SCORE.INTER.norm>
-1.20126

>  <SCORE.INTRA>
-0.237411

>  <SCORE.INTRA.DIHEDRAL>
-0.187319

>  <SCORE.INTRA.DIHEDRAL.0>
1.75624

>  <SCORE.INTRA.POLAR>
0

>  <SCORE.INTRA.POLAR.0>
0

>  <SCORE.INTRA.REPUL>
0

>  <SCORE.INTRA.REPUL.0>
0

>  <SCORE.INTRA.SOLV>
-0.354852

>  <SCORE.INTRA.SOLV.lig_0>
-46.5296

>  <SCORE.INTRA.VDW>
0.0336752

>  <SCORE.INTRA.VDW.0>
-0.381873

>  <SCORE.INTRA.norm>
-0.0182624

>  <SCORE.RESTR>
0

>  <SCORE.RESTR.CAVITY>
0

>  <SCORE.RESTR.norm>
0

>  <SCORE.SYSTEM>
0

>  <SCORE.SYSTEM.CONST>
0

>  <SCORE.SYSTEM.DIHEDRAL>
0

>  <SCORE.SYSTEM.SOLV>
0

>  <SCORE.SYSTEM.norm>
0

>  <SCORE.heavy>
13

>  <SCORE.norm>
-1.21952

>  <RMSD>
0.820

$$$$
ligand
 OpenBabel02271912143D
libRbt.so/2013.1/901 2013/11/27
 13 14  0  0  0  0  0  0  0  0999 V2000
   -3.3465   31.5460   55.0071 N   0  0  0  0  0  0  0  0  0  0  0  0
   -2.2909   30.6199   55.0200 C   0  0  0  0  0  0  0  0  0  0  0  0
   -1.0079   31.0118   55.5564 N   0  0  0  0  0  0  0  0  0  0  0  0
   -2.4802   29.3457   54.5353 N   0  0  0  0  0  0  0  0  0  0  0  0
   -3.7261   28.9264   54.0018 C   0  0  0  0  0  0  0  0  0  0  0  0
   -4.8210   29.8569   53.9537 C   0  0  0  0  0  0  0  0  0  0  0  0
   -4.5848   31.1881   54.4638 C   0  0  0  0  0  0  0  0  0  0  0  0
   -5.6356   32.0616   54.4223 O   0  0  0  0  0  0  0  0  0  0  0  0
   -5.9638   29.1878   53.3760 C   0  0  0  0  0  0  0  0  0  0  0  0
   -5.5113   27.9004   53.0824 C   0  0  0  0  0  0  0  0  0  0  0  0
   -4.1902   27.7523   53.4641 N   0  0  0  0  0  0  0  0  0  0  0  0
   -7.3352   29.7735   53.1022 C   0  0  0  0  0  0  0  0  0  0  0  0
   -7.4584   30.3583   51.7688 N   0  0  0  0  0  0  0  0  0  0  0  0
  1  2  1  0  0  0  0
  1  7  1  0  0  0  0
  2  3  1  0  0  0  0
  2  4  2  0  0  0  0
  4  5  1  0  0  0  0
  5  6  2  0  0  0  0
  5 11  1  0  0  0  0
  6  7  1  0  0  0  0
  6  9  1  0  0  0  0
  7  8  2  0  0  0  0
  9 10  2  0  0  0  0
  9 12  1  0  0  0  0
 10 11  1  0  0  0  0
 12 13  1  0  0  0  0
M  END
>  <CHROM.1>
90.41647666,-4.50260280,30.01241841,53.98595140,0.31674491,-0.39760695,0.29603197

>  <Name>
ligand

>  <RI>
-1

>  <Rbt.Current_Directory>
/home/itssahil/PROJECTS/Mol_Feturizer/Test_systems_manuscript/rnas/4jf2

>  <Rbt.Executable>
rbdock ($Id: //depot/dev/client3/rdock/2013.1/src/exe/rbdock.cxx#4 $)

>  <Rbt.Library>
libRbt.so (2013.1, Build901 2013/11/27)

>  <Rbt.Parameter_File>
/export/apps/rDock/src/rDock_2013.1_src/data/scripts/dock_solv.prm

>  <Rbt.Receptor>
prm/pocket_docking_5.prm

>  <SCORE>
-15.93

>  <SCORE.INTER>
-15.6616

>  <SCORE.INTER.CONST>
1

>  <SCORE.INTER.POLAR>
0

>  <SCORE.INTER.ROT>
1

>  <SCORE.INTER.SOLV>
17.0242

>  <SCORE.INTER.VDW>
-20.3824

>  <SCORE.INTER.norm>
-1.20474

>  <SCORE.INTRA>
-0.268479

>  <SCORE.INTRA.DIHEDRAL>
-0.187398

>  <SCORE.INTRA.DIHEDRAL.0>
1.75624

>  <SCORE.INTRA.POLAR>
0

>  <SCORE.INTRA.POLAR.0>
0

>  <SCORE.INTRA.REPUL>
0

>  <SCORE.INTRA.REPUL.0>
0

>  <SCORE.INTRA.SOLV>
-0.435367

>  <SCORE.INTRA.SOLV.lig_0>
-46.5296

>  <SCORE.INTRA.VDW>
0.0429035

>  <SCORE.INTRA.VDW.0>
-0.381873

>  <SCORE.INTRA.norm>
-0.0206522

>  <SCORE.RESTR>
0

>  <SCORE.RESTR.CAVITY>
0

>  <SCORE.RESTR.norm>
0

>  <SCORE.SYSTEM>
0

>  <SCORE.SYSTEM.CONST>
0

>  <SCORE.SYSTEM.DIHEDRAL>
0

>  <SCORE.SYSTEM.SOLV>
0

>  <SCORE.SYSTEM.norm>
0

>  <SCORE.heavy>
13

>  <SCORE.norm>
-1.22539

>  <RMSD>
0.821

$$$$
ligand
 OpenBabel02271912143D
libRbt.so/2013.1/901 2013/11/27
 13 14  0  0  0  0  0  0  0  0999 V2000
   -3.3843   31.5573   54.9894 N   0  0  0  0  0  0  0  0  0  0  0  0
   -2.3207   30.6405   55.0057 C   0  0  0  0  0  0  0  0  0  0  0  0
   -1.0454   31.0407   55.5542 N   0  0  0  0  0  0  0  0  0  0  0  0
   -2.4950   29.3672   54.5130 N   0  0  0  0  0  0  0  0  0  0  0  0
   -3.7331   28.9398   53.9677 C   0  0  0  0  0  0  0  0  0  0  0  0
   -4.8356   29.8609   53.9158 C   0  0  0  0  0  0  0  0  0  0  0  0
   -4.6152   31.1914   54.4345 C   0  0  0  0  0  0  0  0  0  0  0  0
   -5.6732   32.0559   54.3894 O   0  0  0  0  0  0  0  0  0  0  0  0
   -5.9680   29.1848   53.3257 C   0  0  0  0  0  0  0  0  0  0  0  0
   -5.5019   27.9030   53.0290 C   0  0  0  0  0  0  0  0  0  0  0  0
   -4.1825   27.7645   53.4203 N   0  0  0  0  0  0  0  0  0  0  0  0
   -7.3423   29.7599   53.0442 C   0  0  0  0  0  0  0  0  0  0  0  0
   -7.4567   30.3614   51.7174 N   0  0  0  0  0  0  0  0  0  0  0  0
  1  2  1  0  0  0  0
  1  7  1  0  0  0  0
  2  3  1  0  0  0  0
  2  4  2  0  0  0  0
  4  5  1  0  0  0  0
  5  6  2  0  0  0  0
  5 11  1  0  0  0  0
  6  7  1  0  0  0  0
  6  9  1  0  0  0  0
  7  8  2  0  0  0  0
  9 10  2  0  0  0  0
  9 12  1  0  0  0  0
 10 11  1  0  0  0  0
 12 13  1  0  0  0  0
M  END
>  <CHROM.1>
89.89829866,-4.51859631,30.01989319,53.95167485,0.32729734,-0.40252436,0.30523564

>  <Name>
ligand

>  <RI>
-1

>  <Rbt.Current_Directory>
/home/itssahil/PROJECTS/Mol_Feturizer/Test_systems_manuscript/rnas/4jf2

>  <Rbt.Executable>
rbdock ($Id: //depot/dev/client3/rdock/2013.1/src/exe/rbdock.cxx#4 $)

>  <Rbt.Library>
libRbt.so (2013.1, Build901 2013/11/27)

>  <Rbt.Parameter_File>
/export/apps/rDock/src/rDock_2013.1_src/data/scripts/dock_solv.prm

>  <Rbt.Receptor>
prm/pocket_docking_6.prm

>  <SCORE>
-15.9148

>  <SCORE.INTER>
-15.6494

>  <SCORE.INTER.CONST>
1

>  <SCORE.INTER.POLAR>
0

>  <SCORE.INTER.ROT>
1

>  <SCORE.INTER.SOLV>
17.0254

>  <SCORE.INTER.VDW>
-20.3748

>  <SCORE.INTER.norm>
-1.2038

>  <SCORE.INTRA>
-0.26538

>  <SCORE.INTRA.DIHEDRAL>
-0.187624

>  <SCORE.INTRA.DIHEDRAL.0>
1.75624

>  <SCORE.INTRA.POLAR>
0

>  <SCORE.INTRA.POLAR.0>
0

>  <SCORE.INTRA.REPUL>
0

>  <SCORE.INTRA.REPUL.0>
0

>  <SCORE.INTRA.SOLV>
-0.426284

>  <SCORE.INTRA.SOLV.lig_0>
-46.5296

>  <SCORE.INTRA.VDW>
0.0415749

>  <SCORE.INTRA.VDW.0>
-0.381873

>  <SCORE.INTRA.norm>
-0.0204138

>  <SCORE.RESTR>
0

>  <SCORE.RESTR.CAVITY>
0

>  <SCORE.RESTR.norm>
0

>  <SCORE.SYSTEM>
0

>  <SCORE.SYSTEM.CONST>
0

>  <SCORE.SYSTEM.DIHEDRAL>
0

>  <SCORE.SYSTEM.SOLV>
0

>  <SCORE.SYSTEM.norm>
0

>  <SCORE.heavy>
13

>  <SCORE.norm>
-1.22422

>  <RMSD>
0.821

$$$$
ligand
 OpenBabel02271912143D
libRbt.so/2013.1/901 2013/11/27
 13 14  0  0  0  0  0  0  0  0999 V2000
   -3.3644   31.5471   54.9496 N   0  0  0  0  0  0  0  0  0  0  0  0
   -2.3105   30.6196   54.9859 C   0  0  0  0  0  0  0  0  0  0  0  0
   -1.0320   31.0172   55.5288 N   0  0  0  0  0  0  0  0  0  0  0  0
   -2.4974   29.3388   54.5181 N   0  0  0  0  0  0  0  0  0  0  0  0
   -3.7390   28.9137   53.9790 C   0  0  0  0  0  0  0  0  0  0  0  0
   -4.8318   29.8451   53.9069 C   0  0  0  0  0  0  0  0  0  0  0  0
   -4.5982   31.1833   54.3998 C   0  0  0  0  0  0  0  0  0  0  0  0
   -5.6469   32.0578   54.3356 O   0  0  0  0  0  0  0  0  0  0  0  0
   -5.9702   29.1694   53.3283 C   0  0  0  0  0  0  0  0  0  0  0  0
   -5.5171   27.8772   53.0578 C   0  0  0  0  0  0  0  0  0  0  0  0
   -4.2000   27.7326   53.4541 N   0  0  0  0  0  0  0  0  0  0  0  0
   -7.3379   29.7533   53.0329 C   0  0  0  0  0  0  0  0  0  0  0  0
   -7.4031   30.4544   51.7526 N   0  0  0  0  0  0  0  0  0  0  0  0
  1  2  1  0  0  0  0
  1  7  1  0  0  0  0
  2  3  1  0  0  0  0
  2  4  2  0  0  0  0
  4  5  1  0  0  0  0
  5  6  2  0  0  0  0
  5 11  1  0  0  0  0
  6  7  1  0  0  0  0
  6  9  1  0  0  0  0
  7  8  2  0  0  0  0
  9 10  2  0  0  0  0
  9 12  1  0  0  0  0
 10 11  1  0  0  0  0
 12 13  1  0  0  0  0
M  END
>  <CHROM.1>
83.75754227,-4.50981273,30.01162104,53.94502902,0.30457370,-0.40714050,0.27554984

>  <Name>
ligand

>  <RI>
-1

>  <Rbt.Current_Directory>
/home/itssahil/PROJECTS/Mol_Feturizer/Test_systems_manuscript/rnas/4jf2

>  <Rbt.Executable>
rbdock ($Id: //depot/dev/client3/rdock/2013.1/src/exe/rbdock.cxx#4 $)

>  <Rbt.Library>
libRbt.so (2013.1, Build901 2013/11/27)

>  <Rbt.Parameter_File>
/export/apps/rDock/src/rDock_2013.1_src/data/scripts/dock_solv.prm

>  <Rbt.Receptor>
prm/pocket_docking_7.prm

>  <SCORE>
-15.9117

>  <SCORE.INTER>
-15.7116

>  <SCORE.INTER.CONST>
1

>  <SCORE.INTER.POLAR>
0

>  <SCORE.INTER.ROT>
1

>  <SCORE.INTER.SOLV>
16.8356

>  <SCORE.INTER.VDW>
-20.353

>  <SCORE.INTER.norm>
-1.20859

>  <SCORE.INTRA>
-0.200054

>  <SCORE.INTRA.DIHEDRAL>
-0.184071

>  <SCORE.INTRA.DIHEDRAL.0>
1.75624

>  <SCORE.INTRA.POLAR>
0

>  <SCORE.INTRA.POLAR.0>
0

>  <SCORE.INTRA.REPUL>
0

>  <SCORE.INTRA.REPUL.0>
0

>  <SCORE.INTRA.SOLV>
-0.266152

>  <SCORE.INTRA.SOLV.lig_0>
-46.5296

>  <SCORE.INTRA.VDW>
0.0250574

>  <SCORE.INTRA.VDW.0>
-0.381873

>  <SCORE.INTRA.norm>
-0.0153888

>  <SCORE.RESTR>
0

>  <SCORE.RESTR.CAVITY>
0

>  <SCORE.RESTR.norm>
0

>  <SCORE.SYSTEM>
0

>  <SCORE.SYSTEM.CONST>
0

>  <SCORE.SYSTEM.DIHEDRAL>
0

>  <SCORE.SYSTEM.SOLV>
0

>  <SCORE.SYSTEM.norm>
0

>  <SCORE.heavy>
13

>  <SCORE.norm>
-1.22398

>  <RMSD>
0.821

$$$$
ligand
 OpenBabel02271912143D
libRbt.so/2013.1/901 2013/11/27
 13 14  0  0  0  0  0  0  0  0999 V2000
   -3.3520   31.5468   54.9960 N   0  0  0  0  0  0  0  0  0  0  0  0
   -2.2907   30.6272   55.0091 C   0  0  0  0  0  0  0  0  0  0  0  0
   -1.0083   31.0291   55.5396 N   0  0  0  0  0  0  0  0  0  0  0  0
   -2.4738   29.3499   54.5303 N   0  0  0  0  0  0  0  0  0  0  0  0
   -3.7190   28.9208   54.0027 C   0  0  0  0  0  0  0  0  0  0  0  0
   -4.8196   29.8444   53.9544 C   0  0  0  0  0  0  0  0  0  0  0  0
   -4.5899   31.1791   54.4582 C   0  0  0  0  0  0  0  0  0  0  0  0
   -5.6461   32.0460   54.4167 O   0  0  0  0  0  0  0  0  0  0  0  0
   -5.9603   29.1659   53.3833 C   0  0  0  0  0  0  0  0  0  0  0  0
   -5.5008   27.8802   53.0935 C   0  0  0  0  0  0  0  0  0  0  0  0
   -4.1776   27.7417   53.4714 N   0  0  0  0  0  0  0  0  0  0  0  0
   -7.3361   29.7421   53.1117 C   0  0  0  0  0  0  0  0  0  0  0  0
   -7.4591   30.3450   51.7863 N   0  0  0  0  0  0  0  0  0  0  0  0
  1  2  1  0  0  0  0
  1  7  1  0  0  0  0
  2  3  1  0  0  0  0
  2  4  2  0  0  0  0
  4  5  1  0  0  0  0
  5  6  2  0  0  0  0
  5 11  1  0  0  0  0
  6  7  1  0  0  0  0
  6  9  1  0  0  0  0
  7  8  2  0  0  0  0
  9 10  2  0  0  0  0
  9 12  1  0  0  0  0
 10 11  1  0  0  0  0
 12 13  1  0  0  0  0
M  END
>  <CHROM.1>
89.24250951,-4.50142722,30.00394706,53.98578955,0.31964217,-0.39276254,0.29278608

>  <Name>
ligand

>  <RI>
0

>  <Rbt.Current_Directory>
/home/itssahil/PROJECTS/Mol_Feturizer/Test_systems_manuscript/rnas/4jf2

>  <Rbt.Executable>
rbdock ($Id: //depot/dev/client3/rdock/2013.1/src/exe/rbdock.cxx#4 $)

>  <Rbt.Library>
libRbt.so (2013.1, Build901 2013/11/27)

>  <Rbt.Parameter_File>
/export/apps/rDock/src/rDock_2013.1_src/data/scripts/dock_solv.prm

>  <Rbt.Receptor>
prm/pocket_docking_8.prm

>  <SCORE>
-15.896

>  <SCORE.INTER>
-15.6346

>  <SCORE.INTER.CONST>
1

>  <SCORE.INTER.POLAR>
0

>  <SCORE.INTER.ROT>
1

>  <SCORE.INTER.SOLV>
17.1056

>  <SCORE.INTER.VDW>
-20.3916

>  <SCORE.INTER.norm>
-1.20266

>  <SCORE.INTRA>
-0.261392

>  <SCORE.INTRA.DIHEDRAL>
-0.187793

>  <SCORE.INTRA.DIHEDRAL.0>
1.75624

>  <SCORE.INTRA.POLAR>
0

>  <SCORE.INTRA.POLAR.0>
0

>  <SCORE.INTRA.REPUL>
0

>  <SCORE.INTRA.REPUL.0>
0

>  <SCORE.INTRA.SOLV>
-0.414748

>  <SCORE.INTRA.SOLV.lig_0>
-46.5296

>  <SCORE.INTRA.VDW>
0.0398782

>  <SCORE.INTRA.VDW.0>
-0.381873

>  <SCORE.INTRA.norm>
-0.0201071

>  <SCORE.RESTR>
0

>  <SCORE.RESTR.CAVITY>
0

>  <SCORE.RESTR.norm>
0

>  <SCORE.SYSTEM>
0

>  <SCORE.SYSTEM.CONST>
0

>  <SCORE.SYSTEM.DIHEDRAL>
0

>  <SCORE.SYSTEM.SOLV>
0

>  <SCORE.SYSTEM.norm>
0

>  <SCORE.heavy>
13

>  <SCORE.norm>
-1.22277

>  <RMSD>
0.821

$$$$
ligand
 OpenBabel02271912143D
libRbt.so/2013.1/901 2013/11/27
 13 14  0  0  0  0  0  0  0  0999 V2000
   -3.4309   31.5458   54.9936 N   0  0  0  0  0  0  0  0  0  0  0  0
   -2.3618   30.6355   55.0155 C   0  0  0  0  0  0  0  0  0  0  0  0
   -1.0947   31.0403   55.5794 N   0  0  0  0  0  0  0  0  0  0  0  0
   -2.5232   29.3641   54.5136 N   0  0  0  0  0  0  0  0  0  0  0  0
   -3.7529   28.9323   53.9531 C   0  0  0  0  0  0  0  0  0  0  0  0
   -4.8606   29.8469   53.8953 C   0  0  0  0  0  0  0  0  0  0  0  0
   -4.6537   31.1757   54.4240 C   0  0  0  0  0  0  0  0  0  0  0  0
   -5.7166   32.0339   54.3731 O   0  0  0  0  0  0  0  0  0  0  0  0
   -5.9827   29.1673   53.2897 C   0  0  0  0  0  0  0  0  0  0  0  0
   -5.5055   27.8902   52.9903 C   0  0  0  0  0  0  0  0  0  0  0  0
   -4.1894   27.7575   53.3943 N   0  0  0  0  0  0  0  0  0  0  0  0
   -7.3576   29.7356   52.9975 C   0  0  0  0  0  0  0  0  0  0  0  0
   -7.4704   30.3186   51.6623 N   0  0  0  0  0  0  0  0  0  0  0  0
  1  2  1  0  0  0  0
  1  7  1  0  0  0  0
  2  3  1  0  0  0  0
  2  4  2  0  0  0  0
  4  5  1  0  0  0  0
  5  6  2  0  0  0  0
  5 11  1  0  0  0  0
  6  7  1  0  0  0  0
  6  9  1  0  0  0  0
  7  8  2  0  0  0  0
  9 10  2  0  0  0  0
  9 12  1  0  0  0  0
 10 11  1  0  0  0  0
 12 13  1  0  0  0  0
M  END
>  <CHROM.1>
91.13332643,-4.54560878,30.00552440,53.93448774,0.33964201,-0.41021903,0.31620681

>  <Name>
ligand

>  <RI>
-1

>  <Rbt.Current_Directory>
/home/itssahil/PROJECTS/Mol_Feturizer/Test_systems_manuscript/rnas/4jf2

>  <Rbt.Executable>
rbdock ($Id: //depot/dev/client3/rdock/2013.1/src/exe/rbdock.cxx#4 $)

>  <Rbt.Library>
libRbt.so (2013.1, Build901 2013/11/27)

>  <Rbt.Parameter_File>
/export/apps/rDock/src/rDock_2013.1_src/data/scripts/dock_solv.prm

>  <Rbt.Receptor>
prm/pocket_docking_5.prm

>  <SCORE>
-15.8001

>  <SCORE.INTER>
-15.5275

>  <SCORE.INTER.CONST>
1

>  <SCORE.INTER.POLAR>
0

>  <SCORE.INTER.ROT>
1

>  <SCORE.INTER.SOLV>
17.035

>  <SCORE.INTER.VDW>
-20.2966

>  <SCORE.INTER.norm>
-1.19442

>  <SCORE.INTRA>
-0.272693

>  <SCORE.INTRA.DIHEDRAL>
-0.186951

>  <SCORE.INTRA.DIHEDRAL.0>
1.75624

>  <SCORE.INTRA.POLAR>
0

>  <SCORE.INTRA.POLAR.0>
0

>  <SCORE.INTRA.REPUL>
0

>  <SCORE.INTRA.REPUL.0>
0

>  <SCORE.INTRA.SOLV>
-0.447883

>  <SCORE.INTRA.SOLV.lig_0>
-46.5296

>  <SCORE.INTRA.VDW>
0.044724

>  <SCORE.INTRA.VDW.0>
-0.381873

>  <SCORE.INTRA.norm>
-0.0209764

>  <SCORE.RESTR>
0

>  <SCORE.RESTR.CAVITY>
0

>  <SCORE.RESTR.norm>
0

>  <SCORE.SYSTEM>
0

>  <SCORE.SYSTEM.CONST>
0

>  <SCORE.SYSTEM.DIHEDRAL>
0

>  <SCORE.SYSTEM.SOLV>
0

>  <SCORE.SYSTEM.norm>
0

>  <SCORE.heavy>
13

>  <SCORE.norm>
-1.2154

>  <RMSD>
0.822

$$$$
ligand
 OpenBabel02271912143D
libRbt.so/2013.1/901 2013/11/27
 13 14  0  0  0  0  0  0  0  0999 V2000
   -3.3783   31.5586   54.9239 N   0  0  0  0  0  0  0  0  0  0  0  0
   -2.3108   30.6462   54.9310 C   0  0  0  0  0  0  0  0  0  0  0  0
   -1.0300   31.0546   55.4604 N   0  0  0  0  0  0  0  0  0  0  0  0
   -2.4863   29.3696   54.4474 N   0  0  0  0  0  0  0  0  0  0  0  0
   -3.7297   28.9342   53.9208 C   0  0  0  0  0  0  0  0  0  0  0  0
   -4.8367   29.8505   53.8786 C   0  0  0  0  0  0  0  0  0  0  0  0
   -4.6149   31.1847   54.3873 C   0  0  0  0  0  0  0  0  0  0  0  0
   -5.6770   32.0446   54.3516 O   0  0  0  0  0  0  0  0  0  0  0  0
   -5.9739   29.1666   53.3072 C   0  0  0  0  0  0  0  0  0  0  0  0
   -5.5064   27.8852   53.0111 C   0  0  0  0  0  0  0  0  0  0  0  0
   -4.1814   27.7542   53.3856 N   0  0  0  0  0  0  0  0  0  0  0  0
   -7.3542   29.7346   53.0408 C   0  0  0  0  0  0  0  0  0  0  0  0
   -7.5239   30.2252   51.6749 N   0  0  0  0  0  0  0  0  0  0  0  0
  1  2  1  0  0  0  0
  1  7  1  0  0  0  0
  2  3  1  0  0  0  0
  2  4  2  0  0  0  0
  4  5  1  0  0  0  0
  5  6  2  0  0  0  0
  5 11  1  0  0  0  0
  6  7  1  0  0  0  0
  6  9  1  0  0  0  0
  7  8  2  0  0  0  0
  9 10  2  0  0  0  0
  9 12  1  0  0  0  0
 10 11  1  0  0  0  0
 12 13  1  0  0  0  0
M  END
>  <CHROM.1>
94.82548686,-4.52269629,30.00258855,53.90638667,0.33729695,-0.38772604,0.30476956

>  <Name>
ligand

>  <RI>
-1

>  <Rbt.Current_Directory>
/home/itssahil/PROJECTS/Mol_Feturizer/Test_systems_manuscript/rnas/4jf2

>  <Rbt.Executable>
rbdock ($Id: //depot/dev/client3/rdock/2013.1/src/exe/rbdock.cxx#4 $)

>  <Rbt.Library>
libRbt.so (2013.1, Build901 2013/11/27)

>  <Rbt.Parameter_File>
/export/apps/rDock/src/rDock_2013.1_src/data/scripts/dock_solv.prm

>  <Rbt.Receptor>
prm/pocket_docking_7.prm

>  <SCORE>
-15.8222

>  <SCORE.INTER>
-15.5291

>  <SCORE.INTER.CONST>
1

>  <SCORE.INTER.POLAR>
0

>  <SCORE.INTER.ROT>
1

>  <SCORE.INTER.SOLV>
17.4437

>  <SCORE.INTER.VDW>
-20.434

>  <SCORE.INTER.norm>
-1.19455

>  <SCORE.INTRA>
-0.293012

>  <SCORE.INTRA.DIHEDRAL>
-0.182198

>  <SCORE.INTRA.DIHEDRAL.0>
1.75624

>  <SCORE.INTRA.POLAR>
0

>  <SCORE.INTRA.POLAR.0>
0

>  <SCORE.INTRA.REPUL>
0

>  <SCORE.INTRA.REPUL.0>
0

>  <SCORE.INTRA.SOLV>
-0.511385

>  <SCORE.INTRA.SOLV.lig_0>
-46.5296

>  <SCORE.INTRA.VDW>
0.0537791

>  <SCORE.INTRA.VDW.0>
-0.381873

>  <SCORE.INTRA.norm>
-0.0225394

>  <SCORE.RESTR>
0

>  <SCORE.RESTR.CAVITY>
0

>  <SCORE.RESTR.norm>
0

>  <SCORE.SYSTEM>
0

>  <SCORE.SYSTEM.CONST>
0

>  <SCORE.SYSTEM.DIHEDRAL>
0

>  <SCORE.SYSTEM.SOLV>
0

>  <SCORE.SYSTEM.norm>
0

>  <SCORE.heavy>
13

>  <SCORE.norm>
-1.21709

>  <RMSD>
0.822

$$$$
ligand
 OpenBabel02271912143D
libRbt.so/2013.1/901 2013/11/27
 13 14  0  0  0  0  0  0  0  0999 V2000
   -3.3745   31.5438   54.9703 N   0  0  0  0  0  0  0  0  0  0  0  0
   -2.3143   30.6230   54.9843 C   0  0  0  0  0  0  0  0  0  0  0  0
   -1.0357   31.0192   55.5280 N   0  0  0  0  0  0  0  0  0  0  0  0
   -2.4951   29.3497   54.4940 N   0  0  0  0  0  0  0  0  0  0  0  0
   -3.7366   28.9262   53.9535 C   0  0  0  0  0  0  0  0  0  0  0  0
   -4.8359   29.8514   53.9040 C   0  0  0  0  0  0  0  0  0  0  0  0
   -4.6087   31.1818   54.4201 C   0  0  0  0  0  0  0  0  0  0  0  0
   -5.6636   32.0502   54.3773 O   0  0  0  0  0  0  0  0  0  0  0  0
   -5.9728   29.1788   53.3187 C   0  0  0  0  0  0  0  0  0  0  0  0
   -5.5125   27.8948   53.0223 C   0  0  0  0  0  0  0  0  0  0  0  0
   -4.1924   27.7519   53.4093 N   0  0  0  0  0  0  0  0  0  0  0  0
   -7.3459   29.7587   53.0410 C   0  0  0  0  0  0  0  0  0  0  0  0
   -7.4822   30.3010   51.6911 N   0  0  0  0  0  0  0  0  0  0  0  0
  1  2  1  0  0  0  0
  1  7  1  0  0  0  0
  2  3  1  0  0  0  0
  2  4  2  0  0  0  0
  4  5  1  0  0  0  0
  5  6  2  0  0  0  0
  5 11  1  0  0  0  0
  6  7  1  0  0  0  0
  6  9  1  0  0  0  0
  7  8  2  0  0  0  0
  9 10  2  0  0  0  0
  9 12  1  0  0  0  0
 10 11  1  0  0  0  0
 12 13  1  0  0  0  0
M  END
>  <CHROM.1>
92.67309894,-4.51974829,30.00454471,53.93675795,0.32793783,-0.40001554,0.30459710

>  <Name>
ligand

>  <RI>
-1

>  <Rbt.Current_Directory>
/home/itssahil/PROJECTS/Mol_Feturizer/Test_systems_manuscript/rnas/4jf2

>  <Rbt.Executable>
rbdock ($Id: //depot/dev/client3/rdock/2013.1/src/exe/rbdock.cxx#4 $)

>  <Rbt.Library>
libRbt.so (2013.1, Build901 2013/11/27)

>  <Rbt.Parameter_File>
/export/apps/rDock/src/rDock_2013.1_src/data/scripts/dock_solv.prm

>  <Rbt.Receptor>
prm/pocket_docking_7.prm

>  <SCORE>
-15.9343

>  <SCORE.INTER>
-15.6529

>  <SCORE.INTER.CONST>
1

>  <SCORE.INTER.POLAR>
0

>  <SCORE.INTER.ROT>
1

>  <SCORE.INTER.SOLV>
17.1424

>  <SCORE.INTER.VDW>
-20.4161

>  <SCORE.INTER.norm>
-1.20407

>  <SCORE.INTRA>
-0.281449

>  <SCORE.INTRA.DIHEDRAL>
-0.185464

>  <SCORE.INTRA.DIHEDRAL.0>
1.75624

>  <SCORE.INTRA.POLAR>
0

>  <SCORE.INTRA.POLAR.0>
0

>  <SCORE.INTRA.REPUL>
0

>  <SCORE.INTRA.REPUL.0>
0

>  <SCORE.INTRA.SOLV>
-0.474565

>  <SCORE.INTRA.SOLV.lig_0>
-46.5296

>  <SCORE.INTRA.VDW>
0.0485654

>  <SCORE.INTRA.VDW.0>
-0.381873

>  <SCORE.INTRA.norm>
-0.0216499

>  <SCORE.RESTR>
0

>  <SCORE.RESTR.CAVITY>
0

>  <SCORE.RESTR.norm>
0

>  <SCORE.SYSTEM>
0

>  <SCORE.SYSTEM.CONST>
0

>  <SCORE.SYSTEM.DIHEDRAL>
0

>  <SCORE.SYSTEM.SOLV>
0

>  <SCORE.SYSTEM.norm>
0

>  <SCORE.heavy>
13

>  <SCORE.norm>
-1.22572

>  <RMSD>
0.822

$$$$
ligand
 OpenBabel02271912143D
libRbt.so/2013.1/901 2013/11/27
 13 14  0  0  0  0  0  0  0  0999 V2000
   -3.3774   31.5630   54.9730 N   0  0  0  0  0  0  0  0  0  0  0  0
   -2.3162   30.6434   54.9965 C   0  0  0  0  0  0  0  0  0  0  0  0
   -1.0388   31.0457   55.5385 N   0  0  0  0  0  0  0  0  0  0  0  0
   -2.4949   29.3658   54.5170 N   0  0  0  0  0  0  0  0  0  0  0  0
   -3.7352   28.9362   53.9784 C   0  0  0  0  0  0  0  0  0  0  0  0
   -4.8354   29.8598   53.9193 C   0  0  0  0  0  0  0  0  0  0  0  0
   -4.6103   31.1949   54.4242 C   0  0  0  0  0  0  0  0  0  0  0  0
   -5.6661   32.0617   54.3724 O   0  0  0  0  0  0  0  0  0  0  0  0
   -5.9707   29.1809   53.3383 C   0  0  0  0  0  0  0  0  0  0  0  0
   -5.5086   27.8949   53.0536 C   0  0  0  0  0  0  0  0  0  0  0  0
   -4.1889   27.7568   53.4437 N   0  0  0  0  0  0  0  0  0  0  0  0
   -7.3440   29.7568   53.0536 C   0  0  0  0  0  0  0  0  0  0  0  0
   -7.4717   30.3088   51.7067 N   0  0  0  0  0  0  0  0  0  0  0  0
  1  2  1  0  0  0  0
  1  7  1  0  0  0  0
  2  3  1  0  0  0  0
  2  4  2  0  0  0  0
  4  5  1  0  0  0  0
  5  6  2  0  0  0  0
  5 11  1  0  0  0  0
  6  7  1  0  0  0  0
  6  9  1  0  0  0  0
  7  8  2  0  0  0  0
  9 10  2  0  0  0  0
  9 12  1  0  0  0  0
 10 11  1  0  0  0  0
 12 13  1  0  0  0  0
M  END
>  <CHROM.1>
91.64989938,-4.51884750,30.01530254,53.95185062,0.32743006,-0.40123542,0.29554378

>  <Name>
ligand

>  <RI>
-1

>  <Rbt.Current_Directory>
/home/itssahil/PROJECTS/Mol_Feturizer/Test_systems_manuscript/rnas/4jf2

>  <Rbt.Executable>
rbdock ($Id: //depot/dev/client3/rdock/2013.1/src/exe/rbdock.cxx#4 $)

>  <Rbt.Library>
libRbt.so (2013.1, Build901 2013/11/27)

>  <Rbt.Parameter_File>
/export/apps/rDock/src/rDock_2013.1_src/data/scripts/dock_solv.prm

>  <Rbt.Receptor>
prm/pocket_docking_5.prm

>  <SCORE>
-15.9122

>  <SCORE.INTER>
-15.6366

>  <SCORE.INTER.CONST>
1

>  <SCORE.INTER.POLAR>
0

>  <SCORE.INTER.ROT>
1

>  <SCORE.INTER.SOLV>
17.1538

>  <SCORE.INTER.VDW>
-20.409

>  <SCORE.INTER.norm>
-1.20281

>  <SCORE.INTRA>
-0.275675

>  <SCORE.INTRA.DIHEDRAL>
-0.186532

>  <SCORE.INTRA.DIHEDRAL.0>
1.75624

>  <SCORE.INTRA.POLAR>
0

>  <SCORE.INTRA.POLAR.0>
0

>  <SCORE.INTRA.REPUL>
0

>  <SCORE.INTRA.REPUL.0>
0

>  <SCORE.INTRA.SOLV>
-0.456865

>  <SCORE.INTRA.SOLV.lig_0>
-46.5296

>  <SCORE.INTRA.VDW>
0.0460232

>  <SCORE.INTRA.VDW.0>
-0.381873

>  <SCORE.INTRA.norm>
-0.0212058

>  <SCORE.RESTR>
0

>  <SCORE.RESTR.CAVITY>
0

>  <SCORE.RESTR.norm>
0

>  <SCORE.SYSTEM>
0

>  <SCORE.SYSTEM.CONST>
0

>  <SCORE.SYSTEM.DIHEDRAL>
0

>  <SCORE.SYSTEM.SOLV>
0

>  <SCORE.SYSTEM.norm>
0

>  <SCORE.heavy>
13

>  <SCORE.norm>
-1.22402

>  <RMSD>
0.823

$$$$
ligand
 OpenBabel02271912143D
libRbt.so/2013.1/901 2013/11/27
 13 14  0  0  0  0  0  0  0  0999 V2000
   -3.3688   31.5549   54.9488 N   0  0  0  0  0  0  0  0  0  0  0  0
   -2.3177   30.6246   54.9934 C   0  0  0  0  0  0  0  0  0  0  0  0
   -1.0414   31.0197   55.5434 N   0  0  0  0  0  0  0  0  0  0  0  0
   -2.5052   29.3434   54.5268 N   0  0  0  0  0  0  0  0  0  0  0  0
   -3.7446   28.9208   53.9808 C   0  0  0  0  0  0  0  0  0  0  0  0
   -4.8343   29.8550   53.9003 C   0  0  0  0  0  0  0  0  0  0  0  0
   -4.6001   31.1934   54.3921 C   0  0  0  0  0  0  0  0  0  0  0  0
   -5.6461   32.0707   54.3199 O   0  0  0  0  0  0  0  0  0  0  0  0
   -5.9710   29.1814   53.3158 C   0  0  0  0  0  0  0  0  0  0  0  0
   -5.5198   27.8875   53.0505 C   0  0  0  0  0  0  0  0  0  0  0  0
   -4.2055   27.7400   53.4552 N   0  0  0  0  0  0  0  0  0  0  0  0
   -7.3353   29.7684   53.0110 C   0  0  0  0  0  0  0  0  0  0  0  0
   -7.3986   30.4421   51.7158 N   0  0  0  0  0  0  0  0  0  0  0  0
  1  2  1  0  0  0  0
  1  7  1  0  0  0  0
  2  3  1  0  0  0  0
  2  4  2  0  0  0  0
  4  5  1  0  0  0  0
  5  6  2  0  0  0  0
  5 11  1  0  0  0  0
  6  7  1  0  0  0  0
  6  9  1  0  0  0  0
  7  8  2  0  0  0  0
  9 10  2  0  0  0  0
  9 12  1  0  0  0  0
 10 11  1  0  0  0  0
 12 13  1  0  0  0  0
M  END
>  <CHROM.1>
85.02380734,-4.51280328,30.01865942,53.93897079,0.30603699,-0.41394427,0.27448110

>  <Name>
ligand

>  <RI>
-1

>  <Rbt.Current_Directory>
/home/itssahil/PROJECTS/Mol_Feturizer/Test_systems_manuscript/rnas/4jf2

>  <Rbt.Executable>
rbdock ($Id: //depot/dev/client3/rdock/2013.1/src/exe/rbdock.cxx#4 $)

>  <Rbt.Library>
libRbt.so (2013.1, Build901 2013/11/27)

>  <Rbt.Parameter_File>
/export/apps/rDock/src/rDock_2013.1_src/data/scripts/dock_solv.prm

>  <Rbt.Receptor>
prm/pocket_docking_5.prm

>  <SCORE>
-15.8943

>  <SCORE.INTER>
-15.679

>  <SCORE.INTER.CONST>
1

>  <SCORE.INTER.POLAR>
0

>  <SCORE.INTER.ROT>
1

>  <SCORE.INTER.SOLV>
16.8095

>  <SCORE.INTER.VDW>
-20.3225

>  <SCORE.INTER.norm>
-1.20608

>  <SCORE.INTRA>
-0.21531

>  <SCORE.INTRA.DIHEDRAL>
-0.185738

>  <SCORE.INTRA.DIHEDRAL.0>
1.75624

>  <SCORE.INTRA.POLAR>
0

>  <SCORE.INTRA.POLAR.0>
0

>  <SCORE.INTRA.REPUL>
0

>  <SCORE.INTRA.REPUL.0>
0

>  <SCORE.INTRA.SOLV>
-0.302026

>  <SCORE.INTRA.SOLV.lig_0>
-46.5296

>  <SCORE.INTRA.VDW>
0.0285721

>  <SCORE.INTRA.VDW.0>
-0.381873

>  <SCORE.INTRA.norm>
-0.0165623

>  <SCORE.RESTR>
0

>  <SCORE.RESTR.CAVITY>
0

>  <SCORE.RESTR.norm>
0

>  <SCORE.SYSTEM>
0

>  <SCORE.SYSTEM.CONST>
0

>  <SCORE.SYSTEM.DIHEDRAL>
0

>  <SCORE.SYSTEM.SOLV>
0

>  <SCORE.SYSTEM.norm>
0

>  <SCORE.heavy>
13

>  <SCORE.norm>
-1.22264

>  <RMSD>
0.826

$$$$
ligand
 OpenBabel02271912143D
libRbt.so/2013.1/901 2013/11/27
 13 14  0  0  0  0  0  0  0  0999 V2000
   -3.3704   31.5581   54.9459 N   0  0  0  0  0  0  0  0  0  0  0  0
   -2.3210   30.6262   54.9960 C   0  0  0  0  0  0  0  0  0  0  0  0
   -1.0448   31.0216   55.5460 N   0  0  0  0  0  0  0  0  0  0  0  0
   -2.5100   29.3433   54.5349 N   0  0  0  0  0  0  0  0  0  0  0  0
   -3.7494   28.9203   53.9891 C   0  0  0  0  0  0  0  0  0  0  0  0
   -4.8374   29.8560   53.9029 C   0  0  0  0  0  0  0  0  0  0  0  0
   -4.6016   31.1962   54.3890 C   0  0  0  0  0  0  0  0  0  0  0  0
   -5.6460   32.0749   54.3114 O   0  0  0  0  0  0  0  0  0  0  0  0
   -5.9745   29.1817   53.3198 C   0  0  0  0  0  0  0  0  0  0  0  0
   -5.5251   27.8859   53.0609 C   0  0  0  0  0  0  0  0  0  0  0  0
   -4.2116   27.7380   53.4681 N   0  0  0  0  0  0  0  0  0  0  0  0
   -7.3373   29.7697   53.0105 C   0  0  0  0  0  0  0  0  0  0  0  0
   -7.3965   30.4415   51.7142 N   0  0  0  0  0  0  0  0  0  0  0  0
  1  2  1  0  0  0  0
  1  7  1  0  0  0  0
  2  3  1  0  0  0  0
  2  4  2  0  0  0  0
  4  5  1  0  0  0  0
  5  6  2  0  0  0  0
  5 11  1  0  0  0  0
  6  7  1  0  0  0  0
  6  9  1  0  0  0  0
  7  8  2  0  0  0  0
  9 10  2  0  0  0  0
  9 12  1  0  0  0  0
 10 11  1  0  0  0  0
 12 13  1  0  0  0  0
M  END
>  <CHROM.1>
84.83173130,-4.51557674,30.01960276,53.94144535,0.30426860,-0.41571436,0.26928104

>  <Name>
ligand

>  <RI>
-1

>  <Rbt.Current_Directory>
/home/itssahil/PROJECTS/Mol_Feturizer/Test_systems_manuscript/rnas/4jf2

>  <Rbt.Executable>
rbdock ($Id: //depot/dev/client3/rdock/2013.1/src/exe/rbdock.cxx#4 $)

>  <Rbt.Library>
libRbt.so (2013.1, Build901 2013/11/27)

>  <Rbt.Parameter_File>
/export/apps/rDock/src/rDock_2013.1_src/data/scripts/dock_solv.prm

>  <Rbt.Receptor>
prm/pocket_docking_6.prm

>  <SCORE>
-15.8936

>  <SCORE.INTER>
-15.6806

>  <SCORE.INTER.CONST>
1

>  <SCORE.INTER.POLAR>
0

>  <SCORE.INTER.ROT>
1

>  <SCORE.INTER.SOLV>
16.8043

>  <SCORE.INTER.VDW>
-20.3219

>  <SCORE.INTER.norm>
-1.2062

>  <SCORE.INTRA>
-0.213012

>  <SCORE.INTRA.DIHEDRAL>
-0.185516

>  <SCORE.INTRA.DIHEDRAL.0>
1.75624

>  <SCORE.INTRA.POLAR>
0

>  <SCORE.INTRA.POLAR.0>
0

>  <SCORE.INTRA.REPUL>
0

>  <SCORE.INTRA.REPUL.0>
0

>  <SCORE.INTRA.SOLV>
-0.296593

>  <SCORE.INTRA.SOLV.lig_0>
-46.5296

>  <SCORE.INTRA.VDW>
0.0280422

>  <SCORE.INTRA.VDW.0>
-0.381873

>  <SCORE.INTRA.norm>
-0.0163856

>  <SCORE.RESTR>
0

>  <SCORE.RESTR.CAVITY>
0

>  <SCORE.RESTR.norm>
0

>  <SCORE.SYSTEM>
0

>  <SCORE.SYSTEM.CONST>
0

>  <SCORE.SYSTEM.DIHEDRAL>
0

>  <SCORE.SYSTEM.SOLV>
0

>  <SCORE.SYSTEM.norm>
0

>  <SCORE.heavy>
13

>  <SCORE.norm>
-1.22259

>  <RMSD>
0.826

$$$$
ligand
 OpenBabel02271912143D
libRbt.so/2013.1/901 2013/11/27
 13 14  0  0  0  0  0  0  0  0999 V2000
   -3.3649   31.5476   54.9477 N   0  0  0  0  0  0  0  0  0  0  0  0
   -2.3117   30.6194   54.9837 C   0  0  0  0  0  0  0  0  0  0  0  0
   -1.0327   31.0161   55.5261 N   0  0  0  0  0  0  0  0  0  0  0  0
   -2.4997   29.3387   54.5160 N   0  0  0  0  0  0  0  0  0  0  0  0
   -3.7418   28.9145   53.9774 C   0  0  0  0  0  0  0  0  0  0  0  0
   -4.8339   29.8467   53.9056 C   0  0  0  0  0  0  0  0  0  0  0  0
   -4.5991   31.1847   54.3983 C   0  0  0  0  0  0  0  0  0  0  0  0
   -5.6473   32.0599   54.3344 O   0  0  0  0  0  0  0  0  0  0  0  0
   -5.9730   29.1718   53.3273 C   0  0  0  0  0  0  0  0  0  0  0  0
   -5.5209   27.8793   53.0567 C   0  0  0  0  0  0  0  0  0  0  0  0
   -4.2037   27.7337   53.4526 N   0  0  0  0  0  0  0  0  0  0  0  0
   -7.3404   29.7566   53.0324 C   0  0  0  0  0  0  0  0  0  0  0  0
   -7.4507   30.3201   51.6887 N   0  0  0  0  0  0  0  0  0  0  0  0
  1  2  1  0  0  0  0
  1  7  1  0  0  0  0
  2  3  1  0  0  0  0
  2  4  2  0  0  0  0
  4  5  1  0  0  0  0
  5  6  2  0  0  0  0
  5 11  1  0  0  0  0
  6  7  1  0  0  0  0
  6  9  1  0  0  0  0
  7  8  2  0  0  0  0
  9 10  2  0  0  0  0
  9 12  1  0  0  0  0
 10 11  1  0  0  0  0
 12 13  1  0  0  0  0
M  END
>  <CHROM.1>
90.51603311,-4.51543948,30.00175421,53.93841517,0.31729349,-0.40704878,0.28161680

>  <Name>
ligand

>  <RI>
-1

>  <Rbt.Current_Directory>
/home/itssahil/PROJECTS/Mol_Feturizer/Test_systems_manuscript/rnas/4jf2

>  <Rbt.Executable>
rbdock ($Id: //depot/dev/client3/rdock/2013.1/src/exe/rbdock.cxx#4 $)

>  <Rbt.Library>
libRbt.so (2013.1, Build901 2013/11/27)

>  <Rbt.Parameter_File>
/export/apps/rDock/src/rDock_2013.1_src/data/scripts/dock_solv.prm

>  <Rbt.Receptor>
prm/pocket_docking_5.prm

>  <SCORE>
-15.9314

>  <SCORE.INTER>
-15.6623

>  <SCORE.INTER.CONST>
1

>  <SCORE.INTER.POLAR>
0

>  <SCORE.INTER.ROT>
1

>  <SCORE.INTER.SOLV>
17.0769

>  <SCORE.INTER.VDW>
-20.4005

>  <SCORE.INTER.norm>
-1.20479

>  <SCORE.INTRA>
-0.26907

>  <SCORE.INTRA.DIHEDRAL>
-0.187346

>  <SCORE.INTRA.DIHEDRAL.0>
1.75624

>  <SCORE.INTRA.POLAR>
0

>  <SCORE.INTRA.POLAR.0>
0

>  <SCORE.INTRA.REPUL>
0

>  <SCORE.INTRA.REPUL.0>
0

>  <SCORE.INTRA.SOLV>
-0.437109

>  <SCORE.INTRA.SOLV.lig_0>
-46.5296

>  <SCORE.INTRA.VDW>
0.0431576

>  <SCORE.INTRA.VDW.0>
-0.381873

>  <SCORE.INTRA.norm>
-0.0206977

>  <SCORE.RESTR>
0

>  <SCORE.RESTR.CAVITY>
0

>  <SCORE.RESTR.norm>
0

>  <SCORE.SYSTEM>
0

>  <SCORE.SYSTEM.CONST>
0

>  <SCORE.SYSTEM.DIHEDRAL>
0

>  <SCORE.SYSTEM.SOLV>
0

>  <SCORE.SYSTEM.norm>
0

>  <SCORE.heavy>
13

>  <SCORE.norm>
-1.22549

>  <RMSD>
0.827

$$$$
ligand
 OpenBabel02271912143D
libRbt.so/2013.1/901 2013/11/27
 13 14  0  0  0  0  0  0  0  0999 V2000
   -3.3566   31.5511   54.9185 N   0  0  0  0  0  0  0  0  0  0  0  0
   -2.3093   30.6167   54.9669 C   0  0  0  0  0  0  0  0  0  0  0  0
   -1.0278   31.0125   55.5040 N   0  0  0  0  0  0  0  0  0  0  0  0
   -2.5055   29.3311   54.5164 N   0  0  0  0  0  0  0  0  0  0  0  0
   -3.7503   28.9076   53.9834 C   0  0  0  0  0  0  0  0  0  0  0  0
   -4.8365   29.8457   53.8992 C   0  0  0  0  0  0  0  0  0  0  0  0
   -4.5932   31.1887   54.3740 C   0  0  0  0  0  0  0  0  0  0  0  0
   -5.6357   32.0696   54.2985 O   0  0  0  0  0  0  0  0  0  0  0  0
   -5.9799   29.1705   53.3300 C   0  0  0  0  0  0  0  0  0  0  0  0
   -5.5361   27.8716   53.0767 C   0  0  0  0  0  0  0  0  0  0  0  0
   -4.2198   27.7229   53.4745 N   0  0  0  0  0  0  0  0  0  0  0  0
   -7.3436   29.7600   53.0273 C   0  0  0  0  0  0  0  0  0  0  0  0
   -7.4392   30.3386   51.6890 N   0  0  0  0  0  0  0  0  0  0  0  0
  1  2  1  0  0  0  0
  1  7  1  0  0  0  0
  2  3  1  0  0  0  0
  2  4  2  0  0  0  0
  4  5  1  0  0  0  0
  5  6  2  0  0  0  0
  5 11  1  0  0  0  0
  6  7  1  0  0  0  0
  6  9  1  0  0  0  0
  7  8  2  0  0  0  0
  9 10  2  0  0  0  0
  9 12  1  0  0  0  0
 10 11  1  0  0  0  0
 12 13  1  0  0  0  0
M  END
>  <CHROM.1>
88.95056954,-4.51614013,30.00183539,53.93099499,0.30742699,-0.40884389,0.26409435

>  <Name>
ligand

>  <RI>
0

>  <Rbt.Current_Directory>
/home/itssahil/PROJECTS/Mol_Feturizer/Test_systems_manuscript/rnas/4jf2

>  <Rbt.Executable>
rbdock ($Id: //depot/dev/client3/rdock/2013.1/src/exe/rbdock.cxx#4 $)

>  <Rbt.Library>
libRbt.so (2013.1, Build901 2013/11/27)

>  <Rbt.Parameter_File>
/export/apps/rDock/src/rDock_2013.1_src/data/scripts/dock_solv.prm

>  <Rbt.Receptor>
prm/pocket_docking_8.prm

>  <SCORE>
-15.8561

>  <SCORE.INTER>
-15.5965

>  <SCORE.INTER.CONST>
1

>  <SCORE.INTER.POLAR>
0

>  <SCORE.INTER.ROT>
1

>  <SCORE.INTER.SOLV>
17.0569

>  <SCORE.INTER.VDW>
-20.35

>  <SCORE.INTER.norm>
-1.19973

>  <SCORE.INTRA>
-0.259594

>  <SCORE.INTRA.DIHEDRAL>
-0.187825

>  <SCORE.INTRA.DIHEDRAL.0>
1.75624

>  <SCORE.INTRA.POLAR>
0

>  <SCORE.INTRA.POLAR.0>
0

>  <SCORE.INTRA.REPUL>
0

>  <SCORE.INTRA.REPUL.0>
0

>  <SCORE.INTRA.SOLV>
-0.409597

>  <SCORE.INTRA.SOLV.lig_0>
-46.5296

>  <SCORE.INTRA.VDW>
0.0391174

>  <SCORE.INTRA.VDW.0>
-0.381873

>  <SCORE.INTRA.norm>
-0.0199688

>  <SCORE.RESTR>
0

>  <SCORE.RESTR.CAVITY>
0

>  <SCORE.RESTR.norm>
0

>  <SCORE.SYSTEM>
0

>  <SCORE.SYSTEM.CONST>
0

>  <SCORE.SYSTEM.DIHEDRAL>
0

>  <SCORE.SYSTEM.SOLV>
0

>  <SCORE.SYSTEM.norm>
0

>  <SCORE.heavy>
13

>  <SCORE.norm>
-1.2197

>  <RMSD>
0.827

$$$$
ligand
 OpenBabel02271912143D
libRbt.so/2013.1/901 2013/11/27
 13 14  0  0  0  0  0  0  0  0999 V2000
   -3.3691   31.5570   54.9497 N   0  0  0  0  0  0  0  0  0  0  0  0
   -2.3189   30.6260   54.9982 C   0  0  0  0  0  0  0  0  0  0  0  0
   -1.0430   31.0216   55.5487 N   0  0  0  0  0  0  0  0  0  0  0  0
   -2.5070   29.3436   54.5352 N   0  0  0  0  0  0  0  0  0  0  0  0
   -3.7460   28.9204   53.9889 C   0  0  0  0  0  0  0  0  0  0  0  0
   -4.8348   29.8553   53.9042 C   0  0  0  0  0  0  0  0  0  0  0  0
   -4.6001   31.1950   54.3924 C   0  0  0  0  0  0  0  0  0  0  0  0
   -5.6452   32.0729   54.3163 O   0  0  0  0  0  0  0  0  0  0  0  0
   -5.9714   29.1810   53.3203 C   0  0  0  0  0  0  0  0  0  0  0  0
   -5.5210   27.8859   53.0593 C   0  0  0  0  0  0  0  0  0  0  0  0
   -4.2073   27.7385   53.4661 N   0  0  0  0  0  0  0  0  0  0  0  0
   -7.3348   29.7683   53.0120 C   0  0  0  0  0  0  0  0  0  0  0  0
   -7.3994   30.4272   51.7094 N   0  0  0  0  0  0  0  0  0  0  0  0
  1  2  1  0  0  0  0
  1  7  1  0  0  0  0
  2  3  1  0  0  0  0
  2  4  2  0  0  0  0
  4  5  1  0  0  0  0
  5  6  2  0  0  0  0
  5 11  1  0  0  0  0
  6  7  1  0  0  0  0
  6  9  1  0  0  0  0
  7  8  2  0  0  0  0
  9 10  2  0  0  0  0
  9 12  1  0  0  0  0
 10 11  1  0  0  0  0
 12 13  1  0  0  0  0
M  END
>  <CHROM.1>
85.56833544,-4.51350105,30.01791033,53.94240826,0.30658655,-0.41542983,0.27183542

>  <Name>
ligand

>  <RI>
-1

>  <Rbt.Current_Directory>
/home/itssahil/PROJECTS/Mol_Feturizer/Test_systems_manuscript/rnas/4jf2

>  <Rbt.Executable>
rbdock ($Id: //depot/dev/client3/rdock/2013.1/src/exe/rbdock.cxx#4 $)

>  <Rbt.Library>
libRbt.so (2013.1, Build901 2013/11/27)

>  <Rbt.Parameter_File>
/export/apps/rDock/src/rDock_2013.1_src/data/scripts/dock_solv.prm

>  <Rbt.Receptor>
prm/pocket_docking_7.prm

>  <SCORE>
-15.893

>  <SCORE.INTER>
-15.6712

>  <SCORE.INTER.CONST>
1

>  <SCORE.INTER.POLAR>
0

>  <SCORE.INTER.ROT>
1

>  <SCORE.INTER.SOLV>
16.8278

>  <SCORE.INTER.VDW>
-20.3234

>  <SCORE.INTER.norm>
-1.20548

>  <SCORE.INTRA>
-0.221791

>  <SCORE.INTRA.DIHEDRAL>
-0.186307

>  <SCORE.INTRA.DIHEDRAL.0>
1.75624

>  <SCORE.INTRA.POLAR>
0

>  <SCORE.INTRA.POLAR.0>
0

>  <SCORE.INTRA.REPUL>
0

>  <SCORE.INTRA.REPUL.0>
0

>  <SCORE.INTRA.SOLV>
-0.31741

>  <SCORE.INTRA.SOLV.lig_0>
-46.5296

>  <SCORE.INTRA.VDW>
0.0300676

>  <SCORE.INTRA.VDW.0>
-0.381873

>  <SCORE.INTRA.norm>
-0.0170608

>  <SCORE.RESTR>
0

>  <SCORE.RESTR.CAVITY>
0

>  <SCORE.RESTR.norm>
0

>  <SCORE.SYSTEM>
0

>  <SCORE.SYSTEM.CONST>
0

>  <SCORE.SYSTEM.DIHEDRAL>
0

>  <SCORE.SYSTEM.SOLV>
0

>  <SCORE.SYSTEM.norm>
0

>  <SCORE.heavy>
13

>  <SCORE.norm>
-1.22254

>  <RMSD>
0.828

$$$$
ligand
 OpenBabel02271912143D
libRbt.so/2013.1/901 2013/11/27
 13 14  0  0  0  0  0  0  0  0999 V2000
   -3.4429   31.5571   54.9964 N   0  0  0  0  0  0  0  0  0  0  0  0
   -2.3626   30.6600   54.9865 C   0  0  0  0  0  0  0  0  0  0  0  0
   -1.1016   31.0591   55.5679 N   0  0  0  0  0  0  0  0  0  0  0  0
   -2.5072   29.4064   54.4371 N   0  0  0  0  0  0  0  0  0  0  0  0
   -3.7305   28.9806   53.8581 C   0  0  0  0  0  0  0  0  0  0  0  0
   -4.8494   29.8828   53.8321 C   0  0  0  0  0  0  0  0  0  0  0  0
   -4.6601   31.1934   54.4107 C   0  0  0  0  0  0  0  0  0  0  0  0
   -5.7335   32.0396   54.3895 O   0  0  0  0  0  0  0  0  0  0  0  0
   -5.9618   29.2126   53.1991 C   0  0  0  0  0  0  0  0  0  0  0  0
   -5.4683   27.9536   52.8532 C   0  0  0  0  0  0  0  0  0  0  0  0
   -4.1513   27.8222   53.2547 N   0  0  0  0  0  0  0  0  0  0  0  0
   -7.3432   29.7742   52.9253 C   0  0  0  0  0  0  0  0  0  0  0  0
   -7.4550   30.4247   51.6216 N   0  0  0  0  0  0  0  0  0  0  0  0
  1  2  1  0  0  0  0
  1  7  1  0  0  0  0
  2  3  1  0  0  0  0
  2  4  2  0  0  0  0
  4  5  1  0  0  0  0
  5  6  2  0  0  0  0
  5 11  1  0  0  0  0
  6  7  1  0  0  0  0
  6  9  1  0  0  0  0
  7  8  2  0  0  0  0
  9 10  2  0  0  0  0
  9 12  1  0  0  0  0
 10 11  1  0  0  0  0
 12 13  1  0  0  0  0
M  END
>  <CHROM.1>
90.18774674,-4.53599492,30.04539650,53.87864630,0.35124516,-0.40807554,0.35809611

>  <Name>
ligand

>  <RI>
-1

>  <Rbt.Current_Directory>
/home/itssahil/PROJECTS/Mol_Feturizer/Test_systems_manuscript/rnas/4jf2

>  <Rbt.Executable>
rbdock ($Id: //depot/dev/client3/rdock/2013.1/src/exe/rbdock.cxx#4 $)

>  <Rbt.Library>
libRbt.so (2013.1, Build901 2013/11/27)

>  <Rbt.Parameter_File>
/export/apps/rDock/src/rDock_2013.1_src/data/scripts/dock_solv.prm

>  <Rbt.Receptor>
prm/pocket_docking_5.prm

>  <SCORE>
-15.7799

>  <SCORE.INTER>
-15.5128

>  <SCORE.INTER.CONST>
1

>  <SCORE.INTER.POLAR>
0

>  <SCORE.INTER.ROT>
1

>  <SCORE.INTER.SOLV>
16.8492

>  <SCORE.INTER.VDW>
-20.2249

>  <SCORE.INTER.norm>
-1.19329

>  <SCORE.INTRA>
-0.267117

>  <SCORE.INTRA.DIHEDRAL>
-0.187508

>  <SCORE.INTRA.DIHEDRAL.0>
1.75624

>  <SCORE.INTRA.POLAR>
0

>  <SCORE.INTRA.POLAR.0>
0

>  <SCORE.INTRA.REPUL>
0

>  <SCORE.INTRA.REPUL.0>
0

>  <SCORE.INTRA.SOLV>
-0.431362

>  <SCORE.INTRA.SOLV.lig_0>
-46.5296

>  <SCORE.INTRA.VDW>
0.0423184

>  <SCORE.INTRA.VDW.0>
-0.381873

>  <SCORE.INTRA.norm>
-0.0205474

>  <SCORE.RESTR>
0

>  <SCORE.RESTR.CAVITY>
0

>  <SCORE.RESTR.norm>
0

>  <SCORE.SYSTEM>
0

>  <SCORE.SYSTEM.CONST>
0

>  <SCORE.SYSTEM.DIHEDRAL>
0

>  <SCORE.SYSTEM.SOLV>
0

>  <SCORE.SYSTEM.norm>
0

>  <SCORE.heavy>
13

>  <SCORE.norm>
-1.21384

>  <RMSD>
0.830

$$$$
ligand
 OpenBabel02271912143D
libRbt.so/2013.1/901 2013/11/27
 13 14  0  0  0  0  0  0  0  0999 V2000
   -3.3732   31.5346   54.9662 N   0  0  0  0  0  0  0  0  0  0  0  0
   -2.3249   30.6010   55.0090 C   0  0  0  0  0  0  0  0  0  0  0  0
   -1.0513   30.9875   55.5710 N   0  0  0  0  0  0  0  0  0  0  0  0
   -2.5128   29.3247   54.5293 N   0  0  0  0  0  0  0  0  0  0  0  0
   -3.7498   28.9105   53.9714 C   0  0  0  0  0  0  0  0  0  0  0  0
   -4.8364   29.8485   53.8924 C   0  0  0  0  0  0  0  0  0  0  0  0
   -4.6018   31.1816   54.3981 C   0  0  0  0  0  0  0  0  0  0  0  0
   -5.6450   32.0623   54.3272 O   0  0  0  0  0  0  0  0  0  0  0  0
   -5.9711   29.1834   53.2943 C   0  0  0  0  0  0  0  0  0  0  0  0
   -5.5216   27.8907   53.0199 C   0  0  0  0  0  0  0  0  0  0  0  0
   -4.2104   27.7359   53.4318 N   0  0  0  0  0  0  0  0  0  0  0  0
   -7.3317   29.7769   52.9860 C   0  0  0  0  0  0  0  0  0  0  0  0
   -7.3972   30.4241   51.6775 N   0  0  0  0  0  0  0  0  0  0  0  0
  1  2  1  0  0  0  0
  1  7  1  0  0  0  0
  2  3  1  0  0  0  0
  2  4  2  0  0  0  0
  4  5  1  0  0  0  0
  5  6  2  0  0  0  0
  5 11  1  0  0  0  0
  6  7  1  0  0  0  0
  6  9  1  0  0  0  0
  7  8  2  0  0  0  0
  9 10  2  0  0  0  0
  9 12  1  0  0  0  0
 10 11  1  0  0  0  0
 12 13  1  0  0  0  0
M  END
>  <CHROM.1>
86.94119449,-4.51573450,30.00770423,53.93312921,0.30902441,-0.42106852,0.28519345

>  <Name>
ligand

>  <RI>
-1

>  <Rbt.Current_Directory>
/home/itssahil/PROJECTS/Mol_Feturizer/Test_systems_manuscript/rnas/4jf2

>  <Rbt.Executable>
rbdock ($Id: //depot/dev/client3/rdock/2013.1/src/exe/rbdock.cxx#4 $)

>  <Rbt.Library>
libRbt.so (2013.1, Build901 2013/11/27)

>  <Rbt.Parameter_File>
/export/apps/rDock/src/rDock_2013.1_src/data/scripts/dock_solv.prm

>  <Rbt.Receptor>
prm/pocket_docking_3.prm

>  <SCORE>
-15.89

>  <SCORE.INTER>
-15.6521

>  <SCORE.INTER.CONST>
1

>  <SCORE.INTER.POLAR>
0

>  <SCORE.INTER.ROT>
1

>  <SCORE.INTER.SOLV>
16.7519

>  <SCORE.INTER.VDW>
-20.2854

>  <SCORE.INTER.norm>
-1.20401

>  <SCORE.INTRA>
-0.237916

>  <SCORE.INTRA.DIHEDRAL>
-0.187344

>  <SCORE.INTRA.DIHEDRAL.0>
1.75624

>  <SCORE.INTRA.POLAR>
0

>  <SCORE.INTRA.POLAR.0>
0

>  <SCORE.INTRA.REPUL>
0

>  <SCORE.INTRA.REPUL.0>
0

>  <SCORE.INTRA.SOLV>
-0.356073

>  <SCORE.INTRA.SOLV.lig_0>
-46.5296

>  <SCORE.INTRA.VDW>
0.033792

>  <SCORE.INTRA.VDW.0>
-0.381873

>  <SCORE.INTRA.norm>
-0.0183013

>  <SCORE.RESTR>
0

>  <SCORE.RESTR.CAVITY>
0

>  <SCORE.RESTR.norm>
0

>  <SCORE.SYSTEM>
0

>  <SCORE.SYSTEM.CONST>
0

>  <SCORE.SYSTEM.DIHEDRAL>
0

>  <SCORE.SYSTEM.SOLV>
0

>  <SCORE.SYSTEM.norm>
0

>  <SCORE.heavy>
13

>  <SCORE.norm>
-1.22231

>  <RMSD>
0.831

$$$$
ligand
 OpenBabel02271912143D
libRbt.so/2013.1/901 2013/11/27
 13 14  0  0  0  0  0  0  0  0999 V2000
   -3.3567   31.5712   55.0264 N   0  0  0  0  0  0  0  0  0  0  0  0
   -2.2865   30.6619   55.0340 C   0  0  0  0  0  0  0  0  0  0  0  0
   -1.0092   31.0718   55.5703 N   0  0  0  0  0  0  0  0  0  0  0  0
   -2.4564   29.3869   54.5444 N   0  0  0  0  0  0  0  0  0  0  0  0
   -3.6963   28.9501   54.0108 C   0  0  0  0  0  0  0  0  0  0  0  0
   -4.8058   29.8633   53.9680 C   0  0  0  0  0  0  0  0  0  0  0  0
   -4.5900   31.1960   54.4833 C   0  0  0  0  0  0  0  0  0  0  0  0
   -5.6545   32.0529   54.4468 O   0  0  0  0  0  0  0  0  0  0  0  0
   -5.9387   29.1785   53.3891 C   0  0  0  0  0  0  0  0  0  0  0  0
   -5.4663   27.8997   53.0896 C   0  0  0  0  0  0  0  0  0  0  0  0
   -4.1425   27.7710   53.4689 N   0  0  0  0  0  0  0  0  0  0  0  0
   -7.3196   29.7436   53.1196 C   0  0  0  0  0  0  0  0  0  0  0  0
   -7.4577   30.3204   51.7842 N   0  0  0  0  0  0  0  0  0  0  0  0
  1  2  1  0  0  0  0
  1  7  1  0  0  0  0
  2  3  1  0  0  0  0
  2  4  2  0  0  0  0
  4  5  1  0  0  0  0
  5  6  2  0  0  0  0
  5 11  1  0  0  0  0
  6  7  1  0  0  0  0
  6  9  1  0  0  0  0
  7  8  2  0  0  0  0
  9 10  2  0  0  0  0
  9 12  1  0  0  0  0
 10 11  1  0  0  0  0
 12 13  1  0  0  0  0
M  END
>  <CHROM.1>
90.96868275,-4.49018426,30.02276538,54.00011273,0.33378582,-0.39151784,0.30680065

>  <Name>
ligand

>  <RI>
-1

>  <Rbt.Current_Directory>
/home/itssahil/PROJECTS/Mol_Feturizer/Test_systems_manuscript/rnas/4jf2

>  <Rbt.Executable>
rbdock ($Id: //depot/dev/client3/rdock/2013.1/src/exe/rbdock.cxx#4 $)

>  <Rbt.Library>
libRbt.so (2013.1, Build901 2013/11/27)

>  <Rbt.Parameter_File>
/export/apps/rDock/src/rDock_2013.1_src/data/scripts/dock_solv.prm

>  <Rbt.Receptor>
prm/pocket_docking_4.prm

>  <SCORE>
-15.8496

>  <SCORE.INTER>
-15.5779

>  <SCORE.INTER.CONST>
1

>  <SCORE.INTER.POLAR>
0

>  <SCORE.INTER.ROT>
1

>  <SCORE.INTER.SOLV>
17.1708

>  <SCORE.INTER.VDW>
-20.3755

>  <SCORE.INTER.norm>
-1.1983

>  <SCORE.INTRA>
-0.271733

>  <SCORE.INTRA.DIHEDRAL>
-0.187067

>  <SCORE.INTRA.DIHEDRAL.0>
1.75624

>  <SCORE.INTRA.POLAR>
0

>  <SCORE.INTRA.POLAR.0>
0

>  <SCORE.INTRA.REPUL>
0

>  <SCORE.INTRA.REPUL.0>
0

>  <SCORE.INTRA.SOLV>
-0.445013

>  <SCORE.INTRA.SOLV.lig_0>
-46.5296

>  <SCORE.INTRA.VDW>
0.0443077

>  <SCORE.INTRA.VDW.0>
-0.381873

>  <SCORE.INTRA.norm>
-0.0209025

>  <SCORE.RESTR>
0

>  <SCORE.RESTR.CAVITY>
0

>  <SCORE.RESTR.norm>
0

>  <SCORE.SYSTEM>
0

>  <SCORE.SYSTEM.CONST>
0

>  <SCORE.SYSTEM.DIHEDRAL>
0

>  <SCORE.SYSTEM.SOLV>
0

>  <SCORE.SYSTEM.norm>
0

>  <SCORE.heavy>
13

>  <SCORE.norm>
-1.2192

>  <RMSD>
0.831

$$$$
ligand
 OpenBabel02271912143D
libRbt.so/2013.1/901 2013/11/27
 13 14  0  0  0  0  0  0  0  0999 V2000
   -3.3762   31.5449   54.9572 N   0  0  0  0  0  0  0  0  0  0  0  0
   -2.3313   30.6084   55.0150 C   0  0  0  0  0  0  0  0  0  0  0  0
   -1.0600   30.9958   55.5816 N   0  0  0  0  0  0  0  0  0  0  0  0
   -2.5205   29.3285   54.5456 N   0  0  0  0  0  0  0  0  0  0  0  0
   -3.7552   28.9133   53.9835 C   0  0  0  0  0  0  0  0  0  0  0  0
   -4.8382   29.8541   53.8892 C   0  0  0  0  0  0  0  0  0  0  0  0
   -4.6024   31.1909   54.3845 C   0  0  0  0  0  0  0  0  0  0  0  0
   -5.6421   32.0744   54.2991 O   0  0  0  0  0  0  0  0  0  0  0  0
   -5.9713   29.1874   53.2899 C   0  0  0  0  0  0  0  0  0  0  0  0
   -5.5244   27.8908   53.0300 C   0  0  0  0  0  0  0  0  0  0  0  0
   -4.2163   27.7355   53.4516 N   0  0  0  0  0  0  0  0  0  0  0  0
   -7.3280   29.7826   52.9677 C   0  0  0  0  0  0  0  0  0  0  0  0
   -7.3600   30.4906   51.6899 N   0  0  0  0  0  0  0  0  0  0  0  0
  1  2  1  0  0  0  0
  1  7  1  0  0  0  0
  2  3  1  0  0  0  0
  2  4  2  0  0  0  0
  4  5  1  0  0  0  0
  5  6  2  0  0  0  0
  5 11  1  0  0  0  0
  6  7  1  0  0  0  0
  6  9  1  0  0  0  0
  7  8  2  0  0  0  0
  9 10  2  0  0  0  0
  9 12  1  0  0  0  0
 10 11  1  0  0  0  0
 12 13  1  0  0  0  0
M  END
>  <CHROM.1>
83.33560040,-4.51538081,30.01852788,53.93360933,0.30022235,-0.42780083,0.27221396

>  <Name>
ligand

>  <RI>
-1

>  <Rbt.Current_Directory>
/home/itssahil/PROJECTS/Mol_Feturizer/Test_systems_manuscript/rnas/4jf2

>  <Rbt.Executable>
rbdock ($Id: //depot/dev/client3/rdock/2013.1/src/exe/rbdock.cxx#4 $)

>  <Rbt.Library>
libRbt.so (2013.1, Build901 2013/11/27)

>  <Rbt.Parameter_File>
/export/apps/rDock/src/rDock_2013.1_src/data/scripts/dock_solv.prm

>  <Rbt.Receptor>
prm/pocket_docking_4.prm

>  <SCORE>
-15.8816

>  <SCORE.INTER>
-15.6867

>  <SCORE.INTER.CONST>
1

>  <SCORE.INTER.POLAR>
0

>  <SCORE.INTER.ROT>
1

>  <SCORE.INTER.SOLV>
16.6383

>  <SCORE.INTER.VDW>
-20.2706

>  <SCORE.INTER.norm>
-1.20667

>  <SCORE.INTRA>
-0.194914

>  <SCORE.INTRA.DIHEDRAL>
-0.18341

>  <SCORE.INTRA.DIHEDRAL.0>
1.75624

>  <SCORE.INTRA.POLAR>
0

>  <SCORE.INTRA.POLAR.0>
0

>  <SCORE.INTRA.REPUL>
0

>  <SCORE.INTRA.REPUL.0>
0

>  <SCORE.INTRA.SOLV>
-0.254169

>  <SCORE.INTRA.SOLV.lig_0>
-46.5296

>  <SCORE.INTRA.VDW>
0.0238754

>  <SCORE.INTRA.VDW.0>
-0.381873

>  <SCORE.INTRA.norm>
-0.0149934

>  <SCORE.RESTR>
0

>  <SCORE.RESTR.CAVITY>
0

>  <SCORE.RESTR.norm>
0

>  <SCORE.SYSTEM>
0

>  <SCORE.SYSTEM.CONST>
0

>  <SCORE.SYSTEM.DIHEDRAL>
0

>  <SCORE.SYSTEM.SOLV>
0

>  <SCORE.SYSTEM.norm>
0

>  <SCORE.heavy>
13

>  <SCORE.norm>
-1.22166

>  <RMSD>
0.832

$$$$
ligand
 OpenBabel02271912143D
libRbt.so/2013.1/901 2013/11/27
 13 14  0  0  0  0  0  0  0  0999 V2000
   -3.3825   31.5371   54.9539 N   0  0  0  0  0  0  0  0  0  0  0  0
   -2.3334   30.6045   54.9970 C   0  0  0  0  0  0  0  0  0  0  0  0
   -1.0604   30.9920   55.5596 N   0  0  0  0  0  0  0  0  0  0  0  0
   -2.5200   29.3281   54.5171 N   0  0  0  0  0  0  0  0  0  0  0  0
   -3.7564   28.9129   53.9585 C   0  0  0  0  0  0  0  0  0  0  0  0
   -4.8438   29.8499   53.8792 C   0  0  0  0  0  0  0  0  0  0  0  0
   -4.6106   31.1832   54.3852 C   0  0  0  0  0  0  0  0  0  0  0  0
   -5.6544   32.0630   54.3139 O   0  0  0  0  0  0  0  0  0  0  0  0
   -5.9776   29.1839   53.2805 C   0  0  0  0  0  0  0  0  0  0  0  0
   -5.5269   27.8917   53.0062 C   0  0  0  0  0  0  0  0  0  0  0  0
   -4.2157   27.7380   53.4186 N   0  0  0  0  0  0  0  0  0  0  0  0
   -7.3386   29.7763   52.9717 C   0  0  0  0  0  0  0  0  0  0  0  0
   -7.4234   30.3659   51.6374 N   0  0  0  0  0  0  0  0  0  0  0  0
  1  2  1  0  0  0  0
  1  7  1  0  0  0  0
  2  3  1  0  0  0  0
  2  4  2  0  0  0  0
  4  5  1  0  0  0  0
  5  6  2  0  0  0  0
  5 11  1  0  0  0  0
  6  7  1  0  0  0  0
  6  9  1  0  0  0  0
  7  8  2  0  0  0  0
  9 10  2  0  0  0  0
  9 12  1  0  0  0  0
 10 11  1  0  0  0  0
 12 13  1  0  0  0  0
M  END
>  <CHROM.1>
89.76587363,-4.52483213,30.00473193,53.91798811,0.31582085,-0.42113851,0.28851112

>  <Name>
ligand

>  <RI>
-1

>  <Rbt.Current_Directory>
/home/itssahil/PROJECTS/Mol_Feturizer/Test_systems_manuscript/rnas/4jf2

>  <Rbt.Executable>
rbdock ($Id: //depot/dev/client3/rdock/2013.1/src/exe/rbdock.cxx#4 $)

>  <Rbt.Library>
libRbt.so (2013.1, Build901 2013/11/27)

>  <Rbt.Parameter_File>
/export/apps/rDock/src/rDock_2013.1_src/data/scripts/dock_solv.prm

>  <Rbt.Receptor>
prm/pocket_docking_7.prm

>  <SCORE>
-15.8837

>  <SCORE.INTER>
-15.6191

>  <SCORE.INTER.CONST>
1

>  <SCORE.INTER.POLAR>
0

>  <SCORE.INTER.ROT>
1

>  <SCORE.INTER.SOLV>
16.8781

>  <SCORE.INTER.VDW>
-20.3055

>  <SCORE.INTER.norm>
-1.20147

>  <SCORE.INTRA>
-0.26458

>  <SCORE.INTRA.DIHEDRAL>
-0.187669

>  <SCORE.INTRA.DIHEDRAL.0>
1.75624

>  <SCORE.INTRA.POLAR>
0

>  <SCORE.INTRA.POLAR.0>
0

>  <SCORE.INTRA.REPUL>
0

>  <SCORE.INTRA.REPUL.0>
0

>  <SCORE.INTRA.SOLV>
-0.423959

>  <SCORE.INTRA.SOLV.lig_0>
-46.5296

>  <SCORE.INTRA.VDW>
0.0412336

>  <SCORE.INTRA.VDW.0>
-0.381873

>  <SCORE.INTRA.norm>
-0.0203523

>  <SCORE.RESTR>
0

>  <SCORE.RESTR.CAVITY>
0

>  <SCORE.RESTR.norm>
0

>  <SCORE.SYSTEM>
0

>  <SCORE.SYSTEM.CONST>
0

>  <SCORE.SYSTEM.DIHEDRAL>
0

>  <SCORE.SYSTEM.SOLV>
0

>  <SCORE.SYSTEM.norm>
0

>  <SCORE.heavy>
13

>  <SCORE.norm>
-1.22183

>  <RMSD>
0.832

$$$$
ligand
 OpenBabel02271912143D
libRbt.so/2013.1/901 2013/11/27
 13 14  0  0  0  0  0  0  0  0999 V2000
   -3.3805   31.5616   54.9625 N   0  0  0  0  0  0  0  0  0  0  0  0
   -2.3271   30.6342   55.0127 C   0  0  0  0  0  0  0  0  0  0  0  0
   -1.0545   31.0332   55.5684 N   0  0  0  0  0  0  0  0  0  0  0  0
   -2.5090   29.3521   54.5464 N   0  0  0  0  0  0  0  0  0  0  0  0
   -3.7447   28.9256   53.9949 C   0  0  0  0  0  0  0  0  0  0  0  0
   -4.8365   29.8568   53.9085 C   0  0  0  0  0  0  0  0  0  0  0  0
   -4.6082   31.1963   54.4002 C   0  0  0  0  0  0  0  0  0  0  0  0
   -5.6562   32.0706   54.3223 O   0  0  0  0  0  0  0  0  0  0  0  0
   -5.9686   29.1796   53.3192 C   0  0  0  0  0  0  0  0  0  0  0  0
   -5.5127   27.8867   53.0571 C   0  0  0  0  0  0  0  0  0  0  0  0
   -4.1999   27.7431   53.4681 N   0  0  0  0  0  0  0  0  0  0  0  0
   -7.3330   29.7627   53.0075 C   0  0  0  0  0  0  0  0  0  0  0  0
   -7.4277   30.3255   51.6623 N   0  0  0  0  0  0  0  0  0  0  0  0
  1  2  1  0  0  0  0
  1  7  1  0  0  0  0
  2  3  1  0  0  0  0
  2  4  2  0  0  0  0
  4  5  1  0  0  0  0
  5  6  2  0  0  0  0
  5 11  1  0  0  0  0
  6  7  1  0  0  0  0
  6  9  1  0  0  0  0
  7  8  2  0  0  0  0
  9 10  2  0  0  0  0
  9 12  1  0  0  0  0
 10 11  1  0  0  0  0
 12 13  1  0  0  0  0
M  END
>  <CHROM.1>
90.37407244,-4.51850730,30.01244751,53.94454233,0.32113660,-0.41763198,0.28051765

>  <Name>
ligand

>  <RI>
-1

>  <Rbt.Current_Directory>
/home/itssahil/PROJECTS/Mol_Feturizer/Test_systems_manuscript/rnas/4jf2

>  <Rbt.Executable>
rbdock ($Id: //depot/dev/client3/rdock/2013.1/src/exe/rbdock.cxx#4 $)

>  <Rbt.Library>
libRbt.so (2013.1, Build901 2013/11/27)

>  <Rbt.Parameter_File>
/export/apps/rDock/src/rDock_2013.1_src/data/scripts/dock_solv.prm

>  <Rbt.Receptor>
prm/pocket_docking_4.prm

>  <SCORE>
-15.8803

>  <SCORE.INTER>
-15.6121

>  <SCORE.INTER.CONST>
1

>  <SCORE.INTER.POLAR>
0

>  <SCORE.INTER.ROT>
1

>  <SCORE.INTER.SOLV>
16.9934

>  <SCORE.INTER.VDW>
-20.3392

>  <SCORE.INTER.norm>
-1.20093

>  <SCORE.INTRA>
-0.268227

>  <SCORE.INTRA.DIHEDRAL>
-0.18742

>  <SCORE.INTRA.DIHEDRAL.0>
1.75624

>  <SCORE.INTRA.POLAR>
0

>  <SCORE.INTRA.POLAR.0>
0

>  <SCORE.INTRA.REPUL>
0

>  <SCORE.INTRA.REPUL.0>
0

>  <SCORE.INTRA.SOLV>
-0.434625

>  <SCORE.INTRA.SOLV.lig_0>
-46.5296

>  <SCORE.INTRA.VDW>
0.0427952

>  <SCORE.INTRA.VDW.0>
-0.381873

>  <SCORE.INTRA.norm>
-0.0206329

>  <SCORE.RESTR>
0

>  <SCORE.RESTR.CAVITY>
0

>  <SCORE.RESTR.norm>
0

>  <SCORE.SYSTEM>
0

>  <SCORE.SYSTEM.CONST>
0

>  <SCORE.SYSTEM.DIHEDRAL>
0

>  <SCORE.SYSTEM.SOLV>
0

>  <SCORE.SYSTEM.norm>
0

>  <SCORE.heavy>
13

>  <SCORE.norm>
-1.22156

>  <RMSD>
0.835

$$$$
ligand
 OpenBabel02271912143D
libRbt.so/2013.1/901 2013/11/27
 13 14  0  0  0  0  0  0  0  0999 V2000
   -3.4320   31.5417   54.9448 N   0  0  0  0  0  0  0  0  0  0  0  0
   -2.3969   30.5969   55.0344 C   0  0  0  0  0  0  0  0  0  0  0  0
   -1.1348   30.9790   55.6247 N   0  0  0  0  0  0  0  0  0  0  0  0
   -2.5870   29.3141   54.5734 N   0  0  0  0  0  0  0  0  0  0  0  0
   -3.8128   28.9040   53.9886 C   0  0  0  0  0  0  0  0  0  0  0  0
   -4.8852   29.8530   53.8616 C   0  0  0  0  0  0  0  0  0  0  0  0
   -4.6485   31.1926   54.3489 C   0  0  0  0  0  0  0  0  0  0  0  0
   -5.6784   32.0840   54.2323 O   0  0  0  0  0  0  0  0  0  0  0  0
   -6.0108   29.1901   53.2443 C   0  0  0  0  0  0  0  0  0  0  0  0
   -5.5697   27.8873   53.0067 C   0  0  0  0  0  0  0  0  0  0  0  0
   -4.2725   27.7249   53.4582 N   0  0  0  0  0  0  0  0  0  0  0  0
   -7.3549   29.7936   52.8868 C   0  0  0  0  0  0  0  0  0  0  0  0
   -7.3609   30.4638   51.5883 N   0  0  0  0  0  0  0  0  0  0  0  0
  1  2  1  0  0  0  0
  1  7  1  0  0  0  0
  2  3  1  0  0  0  0
  2  4  2  0  0  0  0
  4  5  1  0  0  0  0
  5  6  2  0  0  0  0
  5 11  1  0  0  0  0
  6  7  1  0  0  0  0
  6  9  1  0  0  0  0
  7  8  2  0  0  0  0
  9 10  2  0  0  0  0
  9 12  1  0  0  0  0
 10 11  1  0  0  0  0
 12 13  1  0  0  0  0
M  END
>  <CHROM.1>
84.60979053,-4.56265812,30.01301860,53.91031460,0.29990726,-0.45120658,0.26239554

>  <Name>
ligand

>  <RI>
-1

>  <Rbt.Current_Directory>
/home/itssahil/PROJECTS/Mol_Feturizer/Test_systems_manuscript/rnas/4jf2

>  <Rbt.Executable>
rbdock ($Id: //depot/dev/client3/rdock/2013.1/src/exe/rbdock.cxx#4 $)

>  <Rbt.Library>
libRbt.so (2013.1, Build901 2013/11/27)

>  <Rbt.Parameter_File>
/export/apps/rDock/src/rDock_2013.1_src/data/scripts/dock_solv.prm

>  <Rbt.Receptor>
prm/pocket_docking_5.prm

>  <SCORE>
-15.8364

>  <SCORE.INTER>
-15.6261

>  <SCORE.INTER.CONST>
1

>  <SCORE.INTER.POLAR>
0

>  <SCORE.INTER.ROT>
1

>  <SCORE.INTER.SOLV>
16.5724

>  <SCORE.INTER.VDW>
-20.2082

>  <SCORE.INTER.norm>
-1.20201

>  <SCORE.INTRA>
-0.21035

>  <SCORE.INTRA.DIHEDRAL>
-0.185246

>  <SCORE.INTRA.DIHEDRAL.0>
1.75624

>  <SCORE.INTRA.POLAR>
0

>  <SCORE.INTRA.POLAR.0>
0

>  <SCORE.INTRA.REPUL>
0

>  <SCORE.INTRA.REPUL.0>
0

>  <SCORE.INTRA.SOLV>
-0.290311

>  <SCORE.INTRA.SOLV.lig_0>
-46.5296

>  <SCORE.INTRA.VDW>
0.0274285

>  <SCORE.INTRA.VDW.0>
-0.381873

>  <SCORE.INTRA.norm>
-0.0161808

>  <SCORE.RESTR>
0

>  <SCORE.RESTR.CAVITY>
0

>  <SCORE.RESTR.norm>
0

>  <SCORE.SYSTEM>
0

>  <SCORE.SYSTEM.CONST>
0

>  <SCORE.SYSTEM.DIHEDRAL>
0

>  <SCORE.SYSTEM.SOLV>
0

>  <SCORE.SYSTEM.norm>
0

>  <SCORE.heavy>
13

>  <SCORE.norm>
-1.21819

>  <RMSD>
0.835

$$$$
ligand
 OpenBabel02271912143D
libRbt.so/2013.1/901 2013/11/27
 13 14  0  0  0  0  0  0  0  0999 V2000
   -3.3818   31.5511   54.9622 N   0  0  0  0  0  0  0  0  0  0  0  0
   -2.3337   30.6183   55.0221 C   0  0  0  0  0  0  0  0  0  0  0  0
   -1.0652   31.0099   55.5920 N   0  0  0  0  0  0  0  0  0  0  0  0
   -2.5171   29.3379   54.5516 N   0  0  0  0  0  0  0  0  0  0  0  0
   -3.7489   28.9187   53.9862 C   0  0  0  0  0  0  0  0  0  0  0  0
   -4.8351   29.8556   53.8897 C   0  0  0  0  0  0  0  0  0  0  0  0
   -4.6053   31.1930   54.3862 C   0  0  0  0  0  0  0  0  0  0  0  0
   -5.6479   32.0728   54.2987 O   0  0  0  0  0  0  0  0  0  0  0  0
   -5.9642   29.1852   53.2872 C   0  0  0  0  0  0  0  0  0  0  0  0
   -5.5121   27.8904   53.0277 C   0  0  0  0  0  0  0  0  0  0  0  0
   -4.2045   27.7394   53.4525 N   0  0  0  0  0  0  0  0  0  0  0  0
   -7.3222   29.7757   52.9619 C   0  0  0  0  0  0  0  0  0  0  0  0
   -7.3571   30.4731   51.6783 N   0  0  0  0  0  0  0  0  0  0  0  0
  1  2  1  0  0  0  0
  1  7  1  0  0  0  0
  2  3  1  0  0  0  0
  2  4  2  0  0  0  0
  4  5  1  0  0  0  0
  5  6  2  0  0  0  0
  5 11  1  0  0  0  0
  6  7  1  0  0  0  0
  6  9  1  0  0  0  0
  7  8  2  0  0  0  0
  9 10  2  0  0  0  0
  9 12  1  0  0  0  0
 10 11  1  0  0  0  0
 12 13  1  0  0  0  0
M  END
>  <CHROM.1>
83.90023481,-4.51322381,30.02025224,53.93444281,0.30586935,-0.42930909,0.27514100

>  <Name>
ligand

>  <RI>
-1

>  <Rbt.Current_Directory>
/home/itssahil/PROJECTS/Mol_Feturizer/Test_systems_manuscript/rnas/4jf2

>  <Rbt.Executable>
rbdock ($Id: //depot/dev/client3/rdock/2013.1/src/exe/rbdock.cxx#4 $)

>  <Rbt.Library>
libRbt.so (2013.1, Build901 2013/11/27)

>  <Rbt.Parameter_File>
/export/apps/rDock/src/rDock_2013.1_src/data/scripts/dock_solv.prm

>  <Rbt.Receptor>
prm/pocket_docking_5.prm

>  <SCORE>
-15.8846

>  <SCORE.INTER>
-15.6828

>  <SCORE.INTER.CONST>
1

>  <SCORE.INTER.POLAR>
0

>  <SCORE.INTER.ROT>
1

>  <SCORE.INTER.SOLV>
16.6532

>  <SCORE.INTER.VDW>
-20.273

>  <SCORE.INTER.norm>
-1.20637

>  <SCORE.INTRA>
-0.201786

>  <SCORE.INTRA.DIHEDRAL>
-0.184283

>  <SCORE.INTRA.DIHEDRAL.0>
1.75624

>  <SCORE.INTRA.POLAR>
0

>  <SCORE.INTRA.POLAR.0>
0

>  <SCORE.INTRA.REPUL>
0

>  <SCORE.INTRA.REPUL.0>
0

>  <SCORE.INTRA.SOLV>
-0.270201

>  <SCORE.INTRA.SOLV.lig_0>
-46.5296

>  <SCORE.INTRA.VDW>
0.0254559

>  <SCORE.INTRA.VDW.0>
-0.381873

>  <SCORE.INTRA.norm>
-0.015522

>  <SCORE.RESTR>
0

>  <SCORE.RESTR.CAVITY>
0

>  <SCORE.RESTR.norm>
0

>  <SCORE.SYSTEM>
0

>  <SCORE.SYSTEM.CONST>
0

>  <SCORE.SYSTEM.DIHEDRAL>
0

>  <SCORE.SYSTEM.SOLV>
0

>  <SCORE.SYSTEM.norm>
0

>  <SCORE.heavy>
13

>  <SCORE.norm>
-1.22189

>  <RMSD>
0.837

$$$$
ligand
 OpenBabel02271912143D
libRbt.so/2013.1/901 2013/11/27
 13 14  0  0  0  0  0  0  0  0999 V2000
   -3.3876   31.5648   54.9425 N   0  0  0  0  0  0  0  0  0  0  0  0
   -2.3353   30.6373   55.0106 C   0  0  0  0  0  0  0  0  0  0  0  0
   -1.0673   31.0408   55.5735 N   0  0  0  0  0  0  0  0  0  0  0  0
   -2.5140   29.3510   54.5547 N   0  0  0  0  0  0  0  0  0  0  0  0
   -3.7451   28.9200   53.9966 C   0  0  0  0  0  0  0  0  0  0  0  0
   -4.8356   29.8510   53.8919 C   0  0  0  0  0  0  0  0  0  0  0  0
   -4.6107   31.1949   54.3731 C   0  0  0  0  0  0  0  0  0  0  0  0
   -5.6574   32.0691   54.2780 O   0  0  0  0  0  0  0  0  0  0  0  0
   -5.9630   29.1690   53.2993 C   0  0  0  0  0  0  0  0  0  0  0  0
   -5.5056   27.8734   53.0533 C   0  0  0  0  0  0  0  0  0  0  0  0
   -4.1965   27.7330   53.4770 N   0  0  0  0  0  0  0  0  0  0  0  0
   -7.3242   29.7499   52.9703 C   0  0  0  0  0  0  0  0  0  0  0  0
   -7.3543   30.4680   51.6981 N   0  0  0  0  0  0  0  0  0  0  0  0
  1  2  1  0  0  0  0
  1  7  1  0  0  0  0
  2  3  1  0  0  0  0
  2  4  2  0  0  0  0
  4  5  1  0  0  0  0
  5  6  2  0  0  0  0
  5 11  1  0  0  0  0
  6  7  1  0  0  0  0
  6  9  1  0  0  0  0
  7  8  2  0  0  0  0
  9 10  2  0  0  0  0
  9 12  1  0  0  0  0
 10 11  1  0  0  0  0
 12 13  1  0  0  0  0
M  END
>  <CHROM.1>
82.13621713,-4.51350901,30.02047595,53.93573865,0.30645960,-0.42588056,0.26412625

>  <Name>
ligand

>  <RI>
-1

>  <Rbt.Current_Directory>
/home/itssahil/PROJECTS/Mol_Feturizer/Test_systems_manuscript/rnas/4jf2

>  <Rbt.Executable>
rbdock ($Id: //depot/dev/client3/rdock/2013.1/src/exe/rbdock.cxx#4 $)

>  <Rbt.Library>
libRbt.so (2013.1, Build901 2013/11/27)

>  <Rbt.Parameter_File>
/export/apps/rDock/src/rDock_2013.1_src/data/scripts/dock_solv.prm

>  <Rbt.Receptor>
prm/pocket_docking_6.prm

>  <SCORE>
-15.8535

>  <SCORE.INTER>
-15.6733

>  <SCORE.INTER.CONST>
1

>  <SCORE.INTER.POLAR>
0

>  <SCORE.INTER.ROT>
1

>  <SCORE.INTER.SOLV>
16.7196

>  <SCORE.INTER.VDW>
-20.2887

>  <SCORE.INTER.norm>
-1.20564

>  <SCORE.INTRA>
-0.180153

>  <SCORE.INTRA.DIHEDRAL>
-0.181247

>  <SCORE.INTRA.DIHEDRAL.0>
1.75624

>  <SCORE.INTRA.POLAR>
0

>  <SCORE.INTRA.POLAR.0>
0

>  <SCORE.INTRA.REPUL>
0

>  <SCORE.INTRA.REPUL.0>
0

>  <SCORE.INTRA.SOLV>
-0.220037

>  <SCORE.INTRA.SOLV.lig_0>
-46.5296

>  <SCORE.INTRA.VDW>
0.0204895

>  <SCORE.INTRA.VDW.0>
-0.381873

>  <SCORE.INTRA.norm>
-0.0138579

>  <SCORE.RESTR>
0

>  <SCORE.RESTR.CAVITY>
0

>  <SCORE.RESTR.norm>
0

>  <SCORE.SYSTEM>
0

>  <SCORE.SYSTEM.CONST>
0

>  <SCORE.SYSTEM.DIHEDRAL>
0

>  <SCORE.SYSTEM.SOLV>
0

>  <SCORE.SYSTEM.norm>
0

>  <SCORE.heavy>
13

>  <SCORE.norm>
-1.2195

>  <RMSD>
0.837

$$$$
ligand
 OpenBabel02271912143D
libRbt.so/2013.1/901 2013/11/27
 13 14  0  0  0  0  0  0  0  0999 V2000
   -3.3762   31.5331   54.9580 N   0  0  0  0  0  0  0  0  0  0  0  0
   -2.3127   30.6166   54.9914 C   0  0  0  0  0  0  0  0  0  0  0  0
   -1.0409   31.0232   55.5433 N   0  0  0  0  0  0  0  0  0  0  0  0
   -2.4839   29.3378   54.5121 N   0  0  0  0  0  0  0  0  0  0  0  0
   -3.7185   28.9040   53.9639 C   0  0  0  0  0  0  0  0  0  0  0  0
   -4.8207   29.8244   53.8946 C   0  0  0  0  0  0  0  0  0  0  0  0
   -4.6036   31.1608   54.3996 C   0  0  0  0  0  0  0  0  0  0  0  0
   -5.6613   32.0246   54.3379 O   0  0  0  0  0  0  0  0  0  0  0  0
   -5.9493   29.1415   53.3052 C   0  0  0  0  0  0  0  0  0  0  0  0
   -5.4813   27.8565   53.0261 C   0  0  0  0  0  0  0  0  0  0  0  0
   -4.1644   27.7225   53.4271 N   0  0  0  0  0  0  0  0  0  0  0  0
   -7.3219   29.7132   53.0085 C   0  0  0  0  0  0  0  0  0  0  0  0
   -7.4334   30.2831   51.6676 N   0  0  0  0  0  0  0  0  0  0  0  0
  1  2  1  0  0  0  0
  1  7  1  0  0  0  0
  2  3  1  0  0  0  0
  2  4  2  0  0  0  0
  4  5  1  0  0  0  0
  5  6  2  0  0  0  0
  5 11  1  0  0  0  0
  6  7  1  0  0  0  0
  6  9  1  0  0  0  0
  7  8  2  0  0  0  0
  9 10  2  0  0  0  0
  9 12  1  0  0  0  0
 10 11  1  0  0  0  0
 12 13  1  0  0  0  0
M  END
>  <CHROM.1>
90.68535473,-4.50435864,29.98246346,53.93015903,0.33100017,-0.40840546,0.29544137

>  <Name>
ligand

>  <RI>
-1

>  <Rbt.Current_Directory>
/home/itssahil/PROJECTS/Mol_Feturizer/Test_systems_manuscript/rnas/4jf2

>  <Rbt.Executable>
rbdock ($Id: //depot/dev/client3/rdock/2013.1/src/exe/rbdock.cxx#4 $)

>  <Rbt.Library>
libRbt.so (2013.1, Build901 2013/11/27)

>  <Rbt.Parameter_File>
/export/apps/rDock/src/rDock_2013.1_src/data/scripts/dock_solv.prm

>  <Rbt.Receptor>
prm/pocket_docking_6.prm

>  <SCORE>
-15.8706

>  <SCORE.INTER>
-15.6005

>  <SCORE.INTER.CONST>
1

>  <SCORE.INTER.POLAR>
0

>  <SCORE.INTER.ROT>
1

>  <SCORE.INTER.SOLV>
17.0974

>  <SCORE.INTER.VDW>
-20.3662

>  <SCORE.INTER.norm>
-1.20004

>  <SCORE.INTRA>
-0.27007

>  <SCORE.INTRA.DIHEDRAL>
-0.187249

>  <SCORE.INTRA.DIHEDRAL.0>
1.75624

>  <SCORE.INTRA.POLAR>
0

>  <SCORE.INTRA.POLAR.0>
0

>  <SCORE.INTRA.REPUL>
0

>  <SCORE.INTRA.REPUL.0>
0

>  <SCORE.INTRA.SOLV>
-0.440068

>  <SCORE.INTRA.SOLV.lig_0>
-46.5296

>  <SCORE.INTRA.VDW>
0.0435888

>  <SCORE.INTRA.VDW.0>
-0.381873

>  <SCORE.INTRA.norm>
-0.0207746

>  <SCORE.RESTR>
0

>  <SCORE.RESTR.CAVITY>
0

>  <SCORE.RESTR.norm>
0

>  <SCORE.SYSTEM>
0

>  <SCORE.SYSTEM.CONST>
0

>  <SCORE.SYSTEM.DIHEDRAL>
0

>  <SCORE.SYSTEM.SOLV>
0

>  <SCORE.SYSTEM.norm>
0

>  <SCORE.heavy>
13

>  <SCORE.norm>
-1.22082

>  <RMSD>
0.842

$$$$
ligand
 OpenBabel02271912143D
libRbt.so/2013.1/901 2013/11/27
 13 14  0  0  0  0  0  0  0  0999 V2000
   -3.4128   31.5639   54.9537 N   0  0  0  0  0  0  0  0  0  0  0  0
   -2.3630   30.6346   55.0336 C   0  0  0  0  0  0  0  0  0  0  0  0
   -1.1030   31.0337   55.6174 N   0  0  0  0  0  0  0  0  0  0  0  0
   -2.5366   29.3506   54.5694 N   0  0  0  0  0  0  0  0  0  0  0  0
   -3.7598   28.9239   53.9909 C   0  0  0  0  0  0  0  0  0  0  0  0
   -4.8472   29.8571   53.8739 C   0  0  0  0  0  0  0  0  0  0  0  0
   -4.6276   31.1985   54.3643 C   0  0  0  0  0  0  0  0  0  0  0  0
   -5.6715   32.0746   54.2572 O   0  0  0  0  0  0  0  0  0  0  0  0
   -5.9665   29.1793   53.2613 C   0  0  0  0  0  0  0  0  0  0  0  0
   -5.5074   27.8841   53.0166 C   0  0  0  0  0  0  0  0  0  0  0  0
   -4.2051   27.7398   53.4594 N   0  0  0  0  0  0  0  0  0  0  0  0
   -7.3218   29.7637   52.9144 C   0  0  0  0  0  0  0  0  0  0  0  0
   -7.3487   30.4293   51.6138 N   0  0  0  0  0  0  0  0  0  0  0  0
  1  2  1  0  0  0  0
  1  7  1  0  0  0  0
  2  3  1  0  0  0  0
  2  4  2  0  0  0  0
  4  5  1  0  0  0  0
  5  6  2  0  0  0  0
  5 11  1  0  0  0  0
  6  7  1  0  0  0  0
  6  9  1  0  0  0  0
  7  8  2  0  0  0  0
  9 10  2  0  0  0  0
  9 12  1  0  0  0  0
 10 11  1  0  0  0  0
 12 13  1  0  0  0  0
M  END
>  <CHROM.1>
85.04491653,-4.52696317,30.02106942,53.92077481,0.31506892,-0.44119975,0.27234591

>  <Name>
ligand

>  <RI>
-1

>  <Rbt.Current_Directory>
/home/itssahil/PROJECTS/Mol_Feturizer/Test_systems_manuscript/rnas/4jf2

>  <Rbt.Executable>
rbdock ($Id: //depot/dev/client3/rdock/2013.1/src/exe/rbdock.cxx#4 $)

>  <Rbt.Library>
libRbt.so (2013.1, Build901 2013/11/27)

>  <Rbt.Parameter_File>
/export/apps/rDock/src/rDock_2013.1_src/data/scripts/dock_solv.prm

>  <Rbt.Receptor>
prm/pocket_docking_3.prm

>  <SCORE>
-15.8648

>  <SCORE.INTER>
-15.6492

>  <SCORE.INTER.CONST>
1

>  <SCORE.INTER.POLAR>
0

>  <SCORE.INTER.ROT>
1

>  <SCORE.INTER.SOLV>
16.6908

>  <SCORE.INTER.VDW>
-20.2631

>  <SCORE.INTER.norm>
-1.20379

>  <SCORE.INTRA>
-0.215562

>  <SCORE.INTRA.DIHEDRAL>
-0.185762

>  <SCORE.INTRA.DIHEDRAL.0>
1.75624

>  <SCORE.INTRA.POLAR>
0

>  <SCORE.INTRA.POLAR.0>
0

>  <SCORE.INTRA.REPUL>
0

>  <SCORE.INTRA.REPUL.0>
0

>  <SCORE.INTRA.SOLV>
-0.302623

>  <SCORE.INTRA.SOLV.lig_0>
-46.5296

>  <SCORE.INTRA.VDW>
0.0286303

>  <SCORE.INTRA.VDW.0>
-0.381873

>  <SCORE.INTRA.norm>
-0.0165817

>  <SCORE.RESTR>
0

>  <SCORE.RESTR.CAVITY>
0

>  <SCORE.RESTR.norm>
0

>  <SCORE.SYSTEM>
0

>  <SCORE.SYSTEM.CONST>
0

>  <SCORE.SYSTEM.DIHEDRAL>
0

>  <SCORE.SYSTEM.SOLV>
0

>  <SCORE.SYSTEM.norm>
0

>  <SCORE.heavy>
13

>  <SCORE.norm>
-1.22037

>  <RMSD>
0.847

$$$$
ligand
 OpenBabel02271912143D
libRbt.so/2013.1/901 2013/11/27
 13 14  0  0  0  0  0  0  0  0999 V2000
   -3.4093   31.5427   55.0062 N   0  0  0  0  0  0  0  0  0  0  0  0
   -2.3629   30.6083   55.0711 C   0  0  0  0  0  0  0  0  0  0  0  0
   -1.1038   30.9913   55.6672 N   0  0  0  0  0  0  0  0  0  0  0  0
   -2.5391   29.3345   54.5805 N   0  0  0  0  0  0  0  0  0  0  0  0
   -3.7616   28.9238   53.9892 C   0  0  0  0  0  0  0  0  0  0  0  0
   -4.8455   29.8628   53.8871 C   0  0  0  0  0  0  0  0  0  0  0  0
   -4.6232   31.1933   54.4052 C   0  0  0  0  0  0  0  0  0  0  0  0
   -5.6638   32.0750   54.3121 O   0  0  0  0  0  0  0  0  0  0  0  0
   -5.9648   29.2013   53.2571 C   0  0  0  0  0  0  0  0  0  0  0  0
   -5.5091   27.9098   52.9879 C   0  0  0  0  0  0  0  0  0  0  0  0
   -4.2089   27.7521   53.4323 N   0  0  0  0  0  0  0  0  0  0  0  0
   -7.3169   29.7972   52.9171 C   0  0  0  0  0  0  0  0  0  0  0  0
   -7.3513   30.4428   51.6067 N   0  0  0  0  0  0  0  0  0  0  0  0
  1  2  1  0  0  0  0
  1  7  1  0  0  0  0
  2  3  1  0  0  0  0
  2  4  2  0  0  0  0
  4  5  1  0  0  0  0
  5  6  2  0  0  0  0
  5 11  1  0  0  0  0
  6  7  1  0  0  0  0
  6  9  1  0  0  0  0
  7  8  2  0  0  0  0
  9 10  2  0  0  0  0
  9 12  1  0  0  0  0
 10 11  1  0  0  0  0
 12 13  1  0  0  0  0
M  END
>  <CHROM.1>
87.33765105,-4.52606240,30.02095077,53.93651183,0.31726830,-0.44565319,0.29362703

>  <Name>
ligand

>  <RI>
-1

>  <Rbt.Current_Directory>
/home/itssahil/PROJECTS/Mol_Feturizer/Test_systems_manuscript/rnas/4jf2

>  <Rbt.Executable>
rbdock ($Id: //depot/dev/client3/rdock/2013.1/src/exe/rbdock.cxx#4 $)

>  <Rbt.Library>
libRbt.so (2013.1, Build901 2013/11/27)

>  <Rbt.Parameter_File>
/export/apps/rDock/src/rDock_2013.1_src/data/scripts/dock_solv.prm

>  <Rbt.Receptor>
prm/pocket_docking_4.prm

>  <SCORE>
-15.8675

>  <SCORE.INTER>
-15.625

>  <SCORE.INTER.CONST>
1

>  <SCORE.INTER.POLAR>
0

>  <SCORE.INTER.ROT>
1

>  <SCORE.INTER.SOLV>
16.5661

>  <SCORE.INTER.VDW>
-20.2054

>  <SCORE.INTER.norm>
-1.20192

>  <SCORE.INTRA>
-0.242515

>  <SCORE.INTRA.DIHEDRAL>
-0.187536

>  <SCORE.INTRA.DIHEDRAL.0>
1.75624

>  <SCORE.INTRA.POLAR>
0

>  <SCORE.INTRA.POLAR.0>
0

>  <SCORE.INTRA.REPUL>
0

>  <SCORE.INTRA.REPUL.0>
0

>  <SCORE.INTRA.SOLV>
-0.367204

>  <SCORE.INTRA.SOLV.lig_0>
-46.5296

>  <SCORE.INTRA.VDW>
0.0348549

>  <SCORE.INTRA.VDW.0>
-0.381873

>  <SCORE.INTRA.norm>
-0.018655

>  <SCORE.RESTR>
0

>  <SCORE.RESTR.CAVITY>
0

>  <SCORE.RESTR.norm>
0

>  <SCORE.SYSTEM>
0

>  <SCORE.SYSTEM.CONST>
0

>  <SCORE.SYSTEM.DIHEDRAL>
0

>  <SCORE.SYSTEM.SOLV>
0

>  <SCORE.SYSTEM.norm>
0

>  <SCORE.heavy>
13

>  <SCORE.norm>
-1.22058

>  <RMSD>
0.847

$$$$
ligand
 OpenBabel02271912143D
libRbt.so/2013.1/901 2013/11/27
 13 14  0  0  0  0  0  0  0  0999 V2000
   -3.3756   31.5195   54.9721 N   0  0  0  0  0  0  0  0  0  0  0  0
   -2.3356   30.5776   55.0307 C   0  0  0  0  0  0  0  0  0  0  0  0
   -1.0692   30.9524   55.6164 N   0  0  0  0  0  0  0  0  0  0  0  0
   -2.5249   29.3043   54.5438 N   0  0  0  0  0  0  0  0  0  0  0  0
   -3.7549   28.9015   53.9626 C   0  0  0  0  0  0  0  0  0  0  0  0
   -4.8326   29.8482   53.8672 C   0  0  0  0  0  0  0  0  0  0  0  0
   -4.5966   31.1780   54.3811 C   0  0  0  0  0  0  0  0  0  0  0  0
   -5.6314   32.0671   54.2942 O   0  0  0  0  0  0  0  0  0  0  0  0
   -5.9616   29.1939   53.2469 C   0  0  0  0  0  0  0  0  0  0  0  0
   -5.5174   27.8985   52.9766 C   0  0  0  0  0  0  0  0  0  0  0  0
   -4.2150   27.7321   53.4114 N   0  0  0  0  0  0  0  0  0  0  0  0
   -7.3118   29.7990   52.9162 C   0  0  0  0  0  0  0  0  0  0  0  0
   -7.3512   30.4435   51.6054 N   0  0  0  0  0  0  0  0  0  0  0  0
  1  2  1  0  0  0  0
  1  7  1  0  0  0  0
  2  3  1  0  0  0  0
  2  4  2  0  0  0  0
  4  5  1  0  0  0  0
  5  6  2  0  0  0  0
  5 11  1  0  0  0  0
  6  7  1  0  0  0  0
  6  9  1  0  0  0  0
  7  8  2  0  0  0  0
  9 10  2  0  0  0  0
  9 12  1  0  0  0  0
 10 11  1  0  0  0  0
 12 13  1  0  0  0  0
M  END
>  <CHROM.1>
87.28931168,-4.51163843,30.00421977,53.91383575,0.30696580,-0.44040551,0.28737041

>  <Name>
ligand

>  <RI>
-1

>  <Rbt.Current_Directory>
/home/itssahil/PROJECTS/Mol_Feturizer/Test_systems_manuscript/rnas/4jf2

>  <Rbt.Executable>
rbdock ($Id: //depot/dev/client3/rdock/2013.1/src/exe/rbdock.cxx#4 $)

>  <Rbt.Library>
libRbt.so (2013.1, Build901 2013/11/27)

>  <Rbt.Parameter_File>
/export/apps/rDock/src/rDock_2013.1_src/data/scripts/dock_solv.prm

>  <Rbt.Receptor>
prm/pocket_docking_4.prm

>  <SCORE>
-15.874

>  <SCORE.INTER>
-15.632

>  <SCORE.INTER.CONST>
1

>  <SCORE.INTER.POLAR>
0

>  <SCORE.INTER.ROT>
1

>  <SCORE.INTER.SOLV>
16.5946

>  <SCORE.INTER.VDW>
-20.2195

>  <SCORE.INTER.norm>
-1.20246

>  <SCORE.INTRA>
-0.241956

>  <SCORE.INTRA.DIHEDRAL>
-0.187515

>  <SCORE.INTRA.DIHEDRAL.0>
1.75624

>  <SCORE.INTRA.POLAR>
0

>  <SCORE.INTRA.POLAR.0>
0

>  <SCORE.INTRA.REPUL>
0

>  <SCORE.INTRA.REPUL.0>
0

>  <SCORE.INTRA.SOLV>
-0.365847

>  <SCORE.INTRA.SOLV.lig_0>
-46.5296

>  <SCORE.INTRA.VDW>
0.0347256

>  <SCORE.INTRA.VDW.0>
-0.381873

>  <SCORE.INTRA.norm>
-0.018612

>  <SCORE.RESTR>
0

>  <SCORE.RESTR.CAVITY>
0

>  <SCORE.RESTR.norm>
0

>  <SCORE.SYSTEM>
0

>  <SCORE.SYSTEM.CONST>
0

>  <SCORE.SYSTEM.DIHEDRAL>
0

>  <SCORE.SYSTEM.SOLV>
0

>  <SCORE.SYSTEM.norm>
0

>  <SCORE.heavy>
13

>  <SCORE.norm>
-1.22108

>  <RMSD>
0.849

$$$$
ligand
 OpenBabel02271912143D
libRbt.so/2013.1/901 2013/11/27
 13 14  0  0  0  0  0  0  0  0999 V2000
   -3.3909   31.5009   55.0255 N   0  0  0  0  0  0  0  0  0  0  0  0
   -2.3565   30.5539   55.0987 C   0  0  0  0  0  0  0  0  0  0  0  0
   -1.0941   30.9247   55.6956 N   0  0  0  0  0  0  0  0  0  0  0  0
   -2.5475   29.2794   54.6155 N   0  0  0  0  0  0  0  0  0  0  0  0
   -3.7737   28.8804   54.0236 C   0  0  0  0  0  0  0  0  0  0  0  0
   -4.8454   29.8323   53.9132 C   0  0  0  0  0  0  0  0  0  0  0  0
   -4.6077   31.1631   54.4237 C   0  0  0  0  0  0  0  0  0  0  0  0
   -5.6368   32.0572   54.3225 O   0  0  0  0  0  0  0  0  0  0  0  0
   -5.9715   29.1811   53.2844 C   0  0  0  0  0  0  0  0  0  0  0  0
   -5.5314   27.8823   53.0243 C   0  0  0  0  0  0  0  0  0  0  0  0
   -4.2343   27.7111   53.4729 N   0  0  0  0  0  0  0  0  0  0  0  0
   -7.3151   29.7918   52.9375 C   0  0  0  0  0  0  0  0  0  0  0  0
   -7.3406   30.4227   51.6197 N   0  0  0  0  0  0  0  0  0  0  0  0
  1  2  1  0  0  0  0
  1  7  1  0  0  0  0
  2  3  1  0  0  0  0
  2  4  2  0  0  0  0
  4  5  1  0  0  0  0
  5  6  2  0  0  0  0
  5 11  1  0  0  0  0
  6  7  1  0  0  0  0
  6  9  1  0  0  0  0
  7  8  2  0  0  0  0
  9 10  2  0  0  0  0
  9 12  1  0  0  0  0
 10 11  1  0  0  0  0
 12 13  1  0  0  0  0
M  END
>  <CHROM.1>
87.68599890,-4.52433195,29.98620930,53.96210695,0.30538348,-0.45155013,0.28235791

>  <Name>
ligand

>  <RI>
-1

>  <Rbt.Current_Directory>
/home/itssahil/PROJECTS/Mol_Feturizer/Test_systems_manuscript/rnas/4jf2

>  <Rbt.Executable>
rbdock ($Id: //depot/dev/client3/rdock/2013.1/src/exe/rbdock.cxx#4 $)

>  <Rbt.Library>
libRbt.so (2013.1, Build901 2013/11/27)

>  <Rbt.Parameter_File>
/export/apps/rDock/src/rDock_2013.1_src/data/scripts/dock_solv.prm

>  <Rbt.Receptor>
prm/pocket_docking_5.prm

>  <SCORE>
-15.8519

>  <SCORE.INTER>
-15.6053

>  <SCORE.INTER.CONST>
1

>  <SCORE.INTER.POLAR>
0

>  <SCORE.INTER.ROT>
1

>  <SCORE.INTER.SOLV>
16.4711

>  <SCORE.INTER.VDW>
-20.1606

>  <SCORE.INTER.norm>
-1.20041

>  <SCORE.INTRA>
-0.246534

>  <SCORE.INTRA.DIHEDRAL>
-0.187666

>  <SCORE.INTRA.DIHEDRAL.0>
1.75624

>  <SCORE.INTRA.POLAR>
0

>  <SCORE.INTRA.POLAR.0>
0

>  <SCORE.INTRA.REPUL>
0

>  <SCORE.INTRA.REPUL.0>
0

>  <SCORE.INTRA.SOLV>
-0.37697

>  <SCORE.INTRA.SOLV.lig_0>
-46.5296

>  <SCORE.INTRA.VDW>
0.0357839

>  <SCORE.INTRA.VDW.0>
-0.381873

>  <SCORE.INTRA.norm>
-0.0189642

>  <SCORE.RESTR>
0

>  <SCORE.RESTR.CAVITY>
0

>  <SCORE.RESTR.norm>
0

>  <SCORE.SYSTEM>
0

>  <SCORE.SYSTEM.CONST>
0

>  <SCORE.SYSTEM.DIHEDRAL>
0

>  <SCORE.SYSTEM.SOLV>
0

>  <SCORE.SYSTEM.norm>
0

>  <SCORE.heavy>
13

>  <SCORE.norm>
-1.21937

>  <RMSD>
0.850

$$$$
ligand
 OpenBabel02271912143D
libRbt.so/2013.1/901 2013/11/27
 13 14  0  0  0  0  0  0  0  0999 V2000
   -3.3324   31.5580   55.0645 N   0  0  0  0  0  0  0  0  0  0  0  0
   -2.2651   30.6454   55.0800 C   0  0  0  0  0  0  0  0  0  0  0  0
   -0.9894   31.0526   55.6225 N   0  0  0  0  0  0  0  0  0  0  0  0
   -2.4362   29.3698   54.5924 N   0  0  0  0  0  0  0  0  0  0  0  0
   -3.6745   28.9356   54.0530 C   0  0  0  0  0  0  0  0  0  0  0  0
   -4.7809   29.8522   54.0019 C   0  0  0  0  0  0  0  0  0  0  0  0
   -4.5638   31.1854   54.5153 C   0  0  0  0  0  0  0  0  0  0  0  0
   -5.6254   32.0456   54.4710 O   0  0  0  0  0  0  0  0  0  0  0  0
   -5.9127   29.1697   53.4183 C   0  0  0  0  0  0  0  0  0  0  0  0
   -5.4426   27.8887   53.1243 C   0  0  0  0  0  0  0  0  0  0  0  0
   -4.1213   27.7567   53.5112 N   0  0  0  0  0  0  0  0  0  0  0  0
   -7.2903   29.7384   53.1398 C   0  0  0  0  0  0  0  0  0  0  0  0
   -7.4327   30.2726   51.7872 N   0  0  0  0  0  0  0  0  0  0  0  0
  1  2  1  0  0  0  0
  1  7  1  0  0  0  0
  2  3  1  0  0  0  0
  2  4  2  0  0  0  0
  4  5  1  0  0  0  0
  5  6  2  0  0  0  0
  5 11  1  0  0  0  0
  6  7  1  0  0  0  0
  6  9  1  0  0  0  0
  7  8  2  0  0  0  0
  9 10  2  0  0  0  0
  9 12  1  0  0  0  0
 10 11  1  0  0  0  0
 12 13  1  0  0  0  0
M  END
>  <CHROM.1>
92.87864096,-4.46605841,30.00752287,54.03417091,0.33626830,-0.39741000,0.30586986

>  <Name>
ligand

>  <RI>
-1

>  <Rbt.Current_Directory>
/home/itssahil/PROJECTS/Mol_Feturizer/Test_systems_manuscript/rnas/4jf2

>  <Rbt.Executable>
rbdock ($Id: //depot/dev/client3/rdock/2013.1/src/exe/rbdock.cxx#4 $)

>  <Rbt.Library>
libRbt.so (2013.1, Build901 2013/11/27)

>  <Rbt.Parameter_File>
/export/apps/rDock/src/rDock_2013.1_src/data/scripts/dock_solv.prm

>  <Rbt.Receptor>
prm/pocket_docking_3.prm

>  <SCORE>
-15.8696

>  <SCORE.INTER>
-15.587

>  <SCORE.INTER.CONST>
1

>  <SCORE.INTER.POLAR>
0

>  <SCORE.INTER.ROT>
1

>  <SCORE.INTER.SOLV>
17.1324

>  <SCORE.INTER.VDW>
-20.3688

>  <SCORE.INTER.norm>
-1.199

>  <SCORE.INTRA>
-0.282587

>  <SCORE.INTRA.DIHEDRAL>
-0.185211

>  <SCORE.INTRA.DIHEDRAL.0>
1.75624

>  <SCORE.INTRA.POLAR>
0

>  <SCORE.INTRA.POLAR.0>
0

>  <SCORE.INTRA.REPUL>
0

>  <SCORE.INTRA.REPUL.0>
0

>  <SCORE.INTRA.SOLV>
-0.478106

>  <SCORE.INTRA.SOLV.lig_0>
-46.5296

>  <SCORE.INTRA.VDW>
0.0490711

>  <SCORE.INTRA.VDW.0>
-0.381873

>  <SCORE.INTRA.norm>
-0.0217375

>  <SCORE.RESTR>
0

>  <SCORE.RESTR.CAVITY>
0

>  <SCORE.RESTR.norm>
0

>  <SCORE.SYSTEM>
0

>  <SCORE.SYSTEM.CONST>
0

>  <SCORE.SYSTEM.DIHEDRAL>
0

>  <SCORE.SYSTEM.SOLV>
0

>  <SCORE.SYSTEM.norm>
0

>  <SCORE.heavy>
13

>  <SCORE.norm>
-1.22074

>  <RMSD>
0.851

$$$$
ligand
 OpenBabel02271912143D
libRbt.so/2013.1/901 2013/11/27
 13 14  0  0  0  0  0  0  0  0999 V2000
   -3.3967   31.5124   55.0315 N   0  0  0  0  0  0  0  0  0  0  0  0
   -2.3519   30.5756   55.0857 C   0  0  0  0  0  0  0  0  0  0  0  0
   -1.0920   30.9498   55.6858 N   0  0  0  0  0  0  0  0  0  0  0  0
   -2.5304   29.3076   54.5811 N   0  0  0  0  0  0  0  0  0  0  0  0
   -3.7537   28.9055   53.9856 C   0  0  0  0  0  0  0  0  0  0  0  0
   -4.8360   29.8474   53.8942 C   0  0  0  0  0  0  0  0  0  0  0  0
   -4.6113   31.1717   54.4270 C   0  0  0  0  0  0  0  0  0  0  0  0
   -5.6504   32.0561   54.3439 O   0  0  0  0  0  0  0  0  0  0  0  0
   -5.9566   29.1949   53.2572 C   0  0  0  0  0  0  0  0  0  0  0  0
   -5.5032   27.9056   52.9735 C   0  0  0  0  0  0  0  0  0  0  0  0
   -4.2031   27.7409   53.4159 N   0  0  0  0  0  0  0  0  0  0  0  0
   -7.3078   29.7968   52.9242 C   0  0  0  0  0  0  0  0  0  0  0  0
   -7.3486   30.4346   51.6102 N   0  0  0  0  0  0  0  0  0  0  0  0
  1  2  1  0  0  0  0
  1  7  1  0  0  0  0
  2  3  1  0  0  0  0
  2  4  2  0  0  0  0
  4  5  1  0  0  0  0
  5  6  2  0  0  0  0
  5 11  1  0  0  0  0
  6  7  1  0  0  0  0
  6  9  1  0  0  0  0
  7  8  2  0  0  0  0
  9 10  2  0  0  0  0
  9 12  1  0  0  0  0
 10 11  1  0  0  0  0
 12 13  1  0  0  0  0
M  END
>  <CHROM.1>
88.44102513,-4.51688748,30.00267719,53.94440272,0.31767088,-0.44588047,0.30498632

>  <Name>
ligand

>  <RI>
-1

>  <Rbt.Current_Directory>
/home/itssahil/PROJECTS/Mol_Feturizer/Test_systems_manuscript/rnas/4jf2

>  <Rbt.Executable>
rbdock ($Id: //depot/dev/client3/rdock/2013.1/src/exe/rbdock.cxx#4 $)

>  <Rbt.Library>
libRbt.so (2013.1, Build901 2013/11/27)

>  <Rbt.Parameter_File>
/export/apps/rDock/src/rDock_2013.1_src/data/scripts/dock_solv.prm

>  <Rbt.Receptor>
prm/pocket_docking_3.prm

>  <SCORE>
-15.8751

>  <SCORE.INTER>
-15.6199

>  <SCORE.INTER.CONST>
1

>  <SCORE.INTER.POLAR>
0

>  <SCORE.INTER.ROT>
1

>  <SCORE.INTER.SOLV>
16.5029

>  <SCORE.INTER.VDW>
-20.1809

>  <SCORE.INTER.norm>
-1.20153

>  <SCORE.INTRA>
-0.255174

>  <SCORE.INTRA.DIHEDRAL>
-0.18782

>  <SCORE.INTRA.DIHEDRAL.0>
1.75624

>  <SCORE.INTRA.POLAR>
0

>  <SCORE.INTRA.POLAR.0>
0

>  <SCORE.INTRA.REPUL>
0

>  <SCORE.INTRA.REPUL.0>
0

>  <SCORE.INTRA.SOLV>
-0.398092

>  <SCORE.INTRA.SOLV.lig_0>
-46.5296

>  <SCORE.INTRA.VDW>
0.0377816

>  <SCORE.INTRA.VDW.0>
-0.381873

>  <SCORE.INTRA.norm>
-0.0196288

>  <SCORE.RESTR>
0

>  <SCORE.RESTR.CAVITY>
0

>  <SCORE.RESTR.norm>
0

>  <SCORE.SYSTEM>
0

>  <SCORE.SYSTEM.CONST>
0

>  <SCORE.SYSTEM.DIHEDRAL>
0

>  <SCORE.SYSTEM.SOLV>
0

>  <SCORE.SYSTEM.norm>
0

>  <SCORE.heavy>
13

>  <SCORE.norm>
-1.22116

>  <RMSD>
0.851

$$$$
ligand
 OpenBabel02271912143D
libRbt.so/2013.1/901 2013/11/27
 13 14  0  0  0  0  0  0  0  0999 V2000
   -3.3568   31.5888   55.1111 N   0  0  0  0  0  0  0  0  0  0  0  0
   -2.2721   30.6968   55.1032 C   0  0  0  0  0  0  0  0  0  0  0  0
   -1.0028   31.1163   55.6513 N   0  0  0  0  0  0  0  0  0  0  0  0
   -2.4201   29.4294   54.5874 N   0  0  0  0  0  0  0  0  0  0  0  0
   -3.6515   28.9836   54.0417 C   0  0  0  0  0  0  0  0  0  0  0  0
   -4.7755   29.8796   54.0143 C   0  0  0  0  0  0  0  0  0  0  0  0
   -4.5826   31.2048   54.5570 C   0  0  0  0  0  0  0  0  0  0  0  0
   -5.6607   32.0451   54.5350 O   0  0  0  0  0  0  0  0  0  0  0  0
   -5.8958   29.1885   53.4185 C   0  0  0  0  0  0  0  0  0  0  0  0
   -5.4020   27.9238   53.0945 C   0  0  0  0  0  0  0  0  0  0  0  0
   -4.0772   27.8088   53.4748 N   0  0  0  0  0  0  0  0  0  0  0  0
   -7.2850   29.7366   53.1567 C   0  0  0  0  0  0  0  0  0  0  0  0
   -7.4445   30.2901   51.8138 N   0  0  0  0  0  0  0  0  0  0  0  0
  1  2  1  0  0  0  0
  1  7  1  0  0  0  0
  2  3  1  0  0  0  0
  2  4  2  0  0  0  0
  4  5  1  0  0  0  0
  5  6  2  0  0  0  0
  5 11  1  0  0  0  0
  6  7  1  0  0  0  0
  6  9  1  0  0  0  0
  7  8  2  0  0  0  0
  9 10  2  0  0  0  0
  9 12  1  0  0  0  0
 10 11  1  0  0  0  0
 12 13  1  0  0  0  0
M  END
>  <CHROM.1>
93.27048640,-4.46385655,30.03950175,54.04894307,0.35590011,-0.38845291,0.33597443

>  <Name>
ligand

>  <RI>
-1

>  <Rbt.Current_Directory>
/home/itssahil/PROJECTS/Mol_Feturizer/Test_systems_manuscript/rnas/4jf2

>  <Rbt.Executable>
rbdock ($Id: //depot/dev/client3/rdock/2013.1/src/exe/rbdock.cxx#4 $)

>  <Rbt.Library>
libRbt.so (2013.1, Build901 2013/11/27)

>  <Rbt.Parameter_File>
/export/apps/rDock/src/rDock_2013.1_src/data/scripts/dock_solv.prm

>  <Rbt.Receptor>
prm/pocket_docking_4.prm

>  <SCORE>
-15.7972

>  <SCORE.INTER>
-15.5125

>  <SCORE.INTER.CONST>
1

>  <SCORE.INTER.POLAR>
0

>  <SCORE.INTER.ROT>
1

>  <SCORE.INTER.SOLV>
17.1899

>  <SCORE.INTER.VDW>
-20.3383

>  <SCORE.INTER.norm>
-1.19327

>  <SCORE.INTRA>
-0.284738

>  <SCORE.INTRA.DIHEDRAL>
-0.184695

>  <SCORE.INTRA.DIHEDRAL.0>
1.75624

>  <SCORE.INTRA.POLAR>
0

>  <SCORE.INTRA.POLAR.0>
0

>  <SCORE.INTRA.REPUL>
0

>  <SCORE.INTRA.REPUL.0>
0

>  <SCORE.INTRA.SOLV>
-0.484842

>  <SCORE.INTRA.SOLV.lig_0>
-46.5296

>  <SCORE.INTRA.VDW>
0.0500305

>  <SCORE.INTRA.VDW.0>
-0.381873

>  <SCORE.INTRA.norm>
-0.0219029

>  <SCORE.RESTR>
0

>  <SCORE.RESTR.CAVITY>
0

>  <SCORE.RESTR.norm>
0

>  <SCORE.SYSTEM>
0

>  <SCORE.SYSTEM.CONST>
0

>  <SCORE.SYSTEM.DIHEDRAL>
0

>  <SCORE.SYSTEM.SOLV>
0

>  <SCORE.SYSTEM.norm>
0

>  <SCORE.heavy>
13

>  <SCORE.norm>
-1.21517

>  <RMSD>
0.853

$$$$
ligand
 OpenBabel02271912143D
libRbt.so/2013.1/901 2013/11/27
 13 14  0  0  0  0  0  0  0  0999 V2000
   -3.4075   31.5384   54.9839 N   0  0  0  0  0  0  0  0  0  0  0  0
   -2.3638   30.6019   55.0610 C   0  0  0  0  0  0  0  0  0  0  0  0
   -1.1055   30.9873   55.6572 N   0  0  0  0  0  0  0  0  0  0  0  0
   -2.5420   29.3239   54.5822 N   0  0  0  0  0  0  0  0  0  0  0  0
   -3.7638   28.9108   53.9911 C   0  0  0  0  0  0  0  0  0  0  0  0
   -4.8448   29.8516   53.8767 C   0  0  0  0  0  0  0  0  0  0  0  0
   -4.6205   31.1865   54.3826 C   0  0  0  0  0  0  0  0  0  0  0  0
   -5.6584   32.0700   54.2778 O   0  0  0  0  0  0  0  0  0  0  0  0
   -5.9641   29.1871   53.2497 C   0  0  0  0  0  0  0  0  0  0  0  0
   -5.5111   27.8918   52.9943 C   0  0  0  0  0  0  0  0  0  0  0  0
   -4.2126   27.7350   53.4442 N   0  0  0  0  0  0  0  0  0  0  0  0
   -7.3135   29.7833   52.8999 C   0  0  0  0  0  0  0  0  0  0  0  0
   -7.3395   30.4247   51.5872 N   0  0  0  0  0  0  0  0  0  0  0  0
  1  2  1  0  0  0  0
  1  7  1  0  0  0  0
  2  3  1  0  0  0  0
  2  4  2  0  0  0  0
  4  5  1  0  0  0  0
  5  6  2  0  0  0  0
  5 11  1  0  0  0  0
  6  7  1  0  0  0  0
  6  9  1  0  0  0  0
  7  8  2  0  0  0  0
  9 10  2  0  0  0  0
  9 12  1  0  0  0  0
 10 11  1  0  0  0  0
 12 13  1  0  0  0  0
M  END
>  <CHROM.1>
86.92429528,-4.52493273,30.01010725,53.92588322,0.31451470,-0.44930896,0.28274367

>  <Name>
ligand

>  <RI>
-1

>  <Rbt.Current_Directory>
/home/itssahil/PROJECTS/Mol_Feturizer/Test_systems_manuscript/rnas/4jf2

>  <Rbt.Executable>
rbdock ($Id: //depot/dev/client3/rdock/2013.1/src/exe/rbdock.cxx#4 $)

>  <Rbt.Library>
libRbt.so (2013.1, Build901 2013/11/27)

>  <Rbt.Parameter_File>
/export/apps/rDock/src/rDock_2013.1_src/data/scripts/dock_solv.prm

>  <Rbt.Receptor>
prm/pocket_docking_5.prm

>  <SCORE>
-15.8778

>  <SCORE.INTER>
-15.6401

>  <SCORE.INTER.CONST>
1

>  <SCORE.INTER.POLAR>
0

>  <SCORE.INTER.ROT>
1

>  <SCORE.INTER.SOLV>
16.595

>  <SCORE.INTER.VDW>
-20.2251

>  <SCORE.INTER.norm>
-1.20309

>  <SCORE.INTRA>
-0.23772

>  <SCORE.INTRA.DIHEDRAL>
-0.187334

>  <SCORE.INTRA.DIHEDRAL.0>
1.75624

>  <SCORE.INTRA.POLAR>
0

>  <SCORE.INTRA.POLAR.0>
0

>  <SCORE.INTRA.REPUL>
0

>  <SCORE.INTRA.REPUL.0>
0

>  <SCORE.INTRA.SOLV>
-0.355599

>  <SCORE.INTRA.SOLV.lig_0>
-46.5296

>  <SCORE.INTRA.VDW>
0.0337466

>  <SCORE.INTRA.VDW.0>
-0.381873

>  <SCORE.INTRA.norm>
-0.0182861

>  <SCORE.RESTR>
0

>  <SCORE.RESTR.CAVITY>
0

>  <SCORE.RESTR.norm>
0

>  <SCORE.SYSTEM>
0

>  <SCORE.SYSTEM.CONST>
0

>  <SCORE.SYSTEM.DIHEDRAL>
0

>  <SCORE.SYSTEM.SOLV>
0

>  <SCORE.SYSTEM.norm>
0

>  <SCORE.heavy>
13

>  <SCORE.norm>
-1.22137

>  <RMSD>
0.853

$$$$
ligand
 OpenBabel02271912143D
libRbt.so/2013.1/901 2013/11/27
 13 14  0  0  0  0  0  0  0  0999 V2000
   -3.4297   31.5427   54.9574 N   0  0  0  0  0  0  0  0  0  0  0  0
   -2.3820   30.6110   55.0379 C   0  0  0  0  0  0  0  0  0  0  0  0
   -1.1217   31.0071   55.6229 N   0  0  0  0  0  0  0  0  0  0  0  0
   -2.5581   29.3275   54.5732 N   0  0  0  0  0  0  0  0  0  0  0  0
   -3.7817   28.9038   53.9935 C   0  0  0  0  0  0  0  0  0  0  0  0
   -4.8669   29.8393   53.8758 C   0  0  0  0  0  0  0  0  0  0  0  0
   -4.6448   31.1801   54.3668 C   0  0  0  0  0  0  0  0  0  0  0  0
   -5.6866   32.0586   54.2591 O   0  0  0  0  0  0  0  0  0  0  0  0
   -5.9872   29.1643   53.2621 C   0  0  0  0  0  0  0  0  0  0  0  0
   -5.5307   27.8681   53.0173 C   0  0  0  0  0  0  0  0  0  0  0  0
   -4.2291   27.7208   53.4612 N   0  0  0  0  0  0  0  0  0  0  0  0
   -7.3409   29.7517   52.9141 C   0  0  0  0  0  0  0  0  0  0  0  0
   -7.4728   30.1038   51.5021 N   0  0  0  0  0  0  0  0  0  0  0  0
  1  2  1  0  0  0  0
  1  7  1  0  0  0  0
  2  3  1  0  0  0  0
  2  4  2  0  0  0  0
  4  5  1  0  0  0  0
  5  6  2  0  0  0  0
  5 11  1  0  0  0  0
  6  7  1  0  0  0  0
  6  9  1  0  0  0  0
  7  8  2  0  0  0  0
  9 10  2  0  0  0  0
  9 12  1  0  0  0  0
 10 11  1  0  0  0  0
 12 13  1  0  0  0  0
M  END
>  <CHROM.1>
100.03831813,-4.55513121,29.97706245,53.91391821,0.34413429,-0.43978047,0.28677084

>  <Name>
ligand

>  <RI>
0

>  <Rbt.Current_Directory>
/home/itssahil/PROJECTS/Mol_Feturizer/Test_systems_manuscript/rnas/4jf2

>  <Rbt.Executable>
rbdock ($Id: //depot/dev/client3/rdock/2013.1/src/exe/rbdock.cxx#4 $)

>  <Rbt.Library>
libRbt.so (2013.1, Build901 2013/11/27)

>  <Rbt.Parameter_File>
/export/apps/rDock/src/rDock_2013.1_src/data/scripts/dock_solv.prm

>  <Rbt.Receptor>
prm/blind_docking_100.prm

>  <SCORE>
-15.7657

>  <SCORE.INTER>
-15.4479

>  <SCORE.INTER.CONST>
1

>  <SCORE.INTER.POLAR>
0

>  <SCORE.INTER.ROT>
1

>  <SCORE.INTER.SOLV>
17.2659

>  <SCORE.INTER.VDW>
-20.3206

>  <SCORE.INTER.norm>
-1.1883

>  <SCORE.INTRA>
-0.317739

>  <SCORE.INTRA.DIHEDRAL>
-0.168838

>  <SCORE.INTRA.DIHEDRAL.0>
1.75624

>  <SCORE.INTRA.POLAR>
0

>  <SCORE.INTRA.POLAR.0>
0

>  <SCORE.INTRA.REPUL>
0

>  <SCORE.INTRA.REPUL.0>
0

>  <SCORE.INTRA.SOLV>
-0.598042

>  <SCORE.INTRA.SOLV.lig_0>
-46.5296

>  <SCORE.INTRA.VDW>
0.0657009

>  <SCORE.INTRA.VDW.0>
-0.381873

>  <SCORE.INTRA.norm>
-0.0244415

>  <SCORE.RESTR>
0

>  <SCORE.RESTR.CAVITY>
0

>  <SCORE.RESTR.norm>
0

>  <SCORE.SYSTEM>
0

>  <SCORE.SYSTEM.CONST>
0

>  <SCORE.SYSTEM.DIHEDRAL>
0

>  <SCORE.SYSTEM.SOLV>
0

>  <SCORE.SYSTEM.norm>
0

>  <SCORE.heavy>
13

>  <SCORE.norm>
-1.21274

>  <RMSD>
0.854

$$$$
ligand
 OpenBabel02271912143D
libRbt.so/2013.1/901 2013/11/27
 13 14  0  0  0  0  0  0  0  0999 V2000
   -3.3973   31.5283   54.9956 N   0  0  0  0  0  0  0  0  0  0  0  0
   -2.3565   30.5886   55.0713 C   0  0  0  0  0  0  0  0  0  0  0  0
   -1.0976   30.9687   55.6698 N   0  0  0  0  0  0  0  0  0  0  0  0
   -2.5379   29.3124   54.5890 N   0  0  0  0  0  0  0  0  0  0  0  0
   -3.7603   28.9043   53.9956 C   0  0  0  0  0  0  0  0  0  0  0  0
   -4.8384   29.8486   53.8826 C   0  0  0  0  0  0  0  0  0  0  0  0
   -4.6108   31.1815   54.3922 C   0  0  0  0  0  0  0  0  0  0  0  0
   -5.6459   32.0683   54.2886 O   0  0  0  0  0  0  0  0  0  0  0  0
   -5.9590   29.1890   53.2527 C   0  0  0  0  0  0  0  0  0  0  0  0
   -5.5095   27.8930   52.9944 C   0  0  0  0  0  0  0  0  0  0  0  0
   -4.2120   27.7313   53.4452 N   0  0  0  0  0  0  0  0  0  0  0  0
   -7.3063   29.7900   52.9031 C   0  0  0  0  0  0  0  0  0  0  0  0
   -7.3320   30.4260   51.5878 N   0  0  0  0  0  0  0  0  0  0  0  0
  1  2  1  0  0  0  0
  1  7  1  0  0  0  0
  2  3  1  0  0  0  0
  2  4  2  0  0  0  0
  4  5  1  0  0  0  0
  5  6  2  0  0  0  0
  5 11  1  0  0  0  0
  6  7  1  0  0  0  0
  6  9  1  0  0  0  0
  7  8  2  0  0  0  0
  9 10  2  0  0  0  0
  9 12  1  0  0  0  0
 10 11  1  0  0  0  0
 12 13  1  0  0  0  0
M  END
>  <CHROM.1>
87.36165398,-4.51835454,30.00531601,53.93210976,0.31261698,-0.45111139,0.28454090

>  <Name>
ligand

>  <RI>
-1

>  <Rbt.Current_Directory>
/home/itssahil/PROJECTS/Mol_Feturizer/Test_systems_manuscript/rnas/4jf2

>  <Rbt.Executable>
rbdock ($Id: //depot/dev/client3/rdock/2013.1/src/exe/rbdock.cxx#4 $)

>  <Rbt.Library>
libRbt.so (2013.1, Build901 2013/11/27)

>  <Rbt.Parameter_File>
/export/apps/rDock/src/rDock_2013.1_src/data/scripts/dock_solv.prm

>  <Rbt.Receptor>
prm/pocket_docking_3.prm

>  <SCORE>
-15.8728

>  <SCORE.INTER>
-15.6301

>  <SCORE.INTER.CONST>
1

>  <SCORE.INTER.POLAR>
0

>  <SCORE.INTER.ROT>
1

>  <SCORE.INTER.SOLV>
16.5544

>  <SCORE.INTER.VDW>
-20.2048

>  <SCORE.INTER.norm>
-1.20231

>  <SCORE.INTRA>
-0.242793

>  <SCORE.INTRA.DIHEDRAL>
-0.187546

>  <SCORE.INTRA.DIHEDRAL.0>
1.75624

>  <SCORE.INTRA.POLAR>
0

>  <SCORE.INTRA.POLAR.0>
0

>  <SCORE.INTRA.REPUL>
0

>  <SCORE.INTRA.REPUL.0>
0

>  <SCORE.INTRA.SOLV>
-0.367877

>  <SCORE.INTRA.SOLV.lig_0>
-46.5296

>  <SCORE.INTRA.VDW>
0.034919

>  <SCORE.INTRA.VDW.0>
-0.381873

>  <SCORE.INTRA.norm>
-0.0186764

>  <SCORE.RESTR>
0

>  <SCORE.RESTR.CAVITY>
0

>  <SCORE.RESTR.norm>
0

>  <SCORE.SYSTEM>
0

>  <SCORE.SYSTEM.CONST>
0

>  <SCORE.SYSTEM.DIHEDRAL>
0

>  <SCORE.SYSTEM.SOLV>
0

>  <SCORE.SYSTEM.norm>
0

>  <SCORE.heavy>
13

>  <SCORE.norm>
-1.22099

>  <RMSD>
0.856

$$$$
ligand
 OpenBabel02271912143D
libRbt.so/2013.1/901 2013/11/27
 13 14  0  0  0  0  0  0  0  0999 V2000
   -3.4043   31.5365   54.9891 N   0  0  0  0  0  0  0  0  0  0  0  0
   -2.3605   30.6003   55.0677 C   0  0  0  0  0  0  0  0  0  0  0  0
   -1.1029   30.9862   55.6651 N   0  0  0  0  0  0  0  0  0  0  0  0
   -2.5379   29.3220   54.5894 N   0  0  0  0  0  0  0  0  0  0  0  0
   -3.7590   28.9082   53.9973 C   0  0  0  0  0  0  0  0  0  0  0  0
   -4.8401   29.8488   53.8813 C   0  0  0  0  0  0  0  0  0  0  0  0
   -4.6166   31.1840   54.3868 C   0  0  0  0  0  0  0  0  0  0  0  0
   -5.6546   32.0672   54.2805 O   0  0  0  0  0  0  0  0  0  0  0  0
   -5.9586   29.1837   53.2535 C   0  0  0  0  0  0  0  0  0  0  0  0
   -5.5050   27.8883   52.9993 C   0  0  0  0  0  0  0  0  0  0  0  0
   -4.2069   27.7321   53.4506 N   0  0  0  0  0  0  0  0  0  0  0  0
   -7.3078   29.7794   52.9020 C   0  0  0  0  0  0  0  0  0  0  0  0
   -7.3312   30.4246   51.5912 N   0  0  0  0  0  0  0  0  0  0  0  0
  1  2  1  0  0  0  0
  1  7  1  0  0  0  0
  2  3  1  0  0  0  0
  2  4  2  0  0  0  0
  4  5  1  0  0  0  0
  5  6  2  0  0  0  0
  5 11  1  0  0  0  0
  6  7  1  0  0  0  0
  6  9  1  0  0  0  0
  7  8  2  0  0  0  0
  9 10  2  0  0  0  0
  9 12  1  0  0  0  0
 10 11  1  0  0  0  0
 12 13  1  0  0  0  0
M  END
>  <CHROM.1>
86.70180179,-4.52018321,30.00774481,53.93092714,0.31463035,-0.45022902,0.28226483

>  <Name>
ligand

>  <RI>
-1

>  <Rbt.Current_Directory>
/home/itssahil/PROJECTS/Mol_Feturizer/Test_systems_manuscript/rnas/4jf2

>  <Rbt.Executable>
rbdock ($Id: //depot/dev/client3/rdock/2013.1/src/exe/rbdock.cxx#4 $)

>  <Rbt.Library>
libRbt.so (2013.1, Build901 2013/11/27)

>  <Rbt.Parameter_File>
/export/apps/rDock/src/rDock_2013.1_src/data/scripts/dock_solv.prm

>  <Rbt.Receptor>
prm/pocket_docking_4.prm

>  <SCORE>
-15.8705

>  <SCORE.INTER>
-15.6353

>  <SCORE.INTER.CONST>
1

>  <SCORE.INTER.POLAR>
0

>  <SCORE.INTER.ROT>
1

>  <SCORE.INTER.SOLV>
16.5815

>  <SCORE.INTER.VDW>
-20.2174

>  <SCORE.INTER.norm>
-1.20272

>  <SCORE.INTRA>
-0.235127

>  <SCORE.INTRA.DIHEDRAL>
-0.187204

>  <SCORE.INTRA.DIHEDRAL.0>
1.75624

>  <SCORE.INTRA.POLAR>
0

>  <SCORE.INTRA.POLAR.0>
0

>  <SCORE.INTRA.REPUL>
0

>  <SCORE.INTRA.REPUL.0>
0

>  <SCORE.INTRA.SOLV>
-0.349345

>  <SCORE.INTRA.SOLV.lig_0>
-46.5296

>  <SCORE.INTRA.VDW>
0.0331475

>  <SCORE.INTRA.VDW.0>
-0.381873

>  <SCORE.INTRA.norm>
-0.0180867

>  <SCORE.RESTR>
0

>  <SCORE.RESTR.CAVITY>
0

>  <SCORE.RESTR.norm>
0

>  <SCORE.SYSTEM>
0

>  <SCORE.SYSTEM.CONST>
0

>  <SCORE.SYSTEM.DIHEDRAL>
0

>  <SCORE.SYSTEM.SOLV>
0

>  <SCORE.SYSTEM.norm>
0

>  <SCORE.heavy>
13

>  <SCORE.norm>
-1.22081

>  <RMSD>
0.856

$$$$
ligand
 OpenBabel02271912143D
libRbt.so/2013.1/901 2013/11/27
 13 14  0  0  0  0  0  0  0  0999 V2000
   -3.4036   31.5297   54.9945 N   0  0  0  0  0  0  0  0  0  0  0  0
   -2.3634   30.5894   55.0718 C   0  0  0  0  0  0  0  0  0  0  0  0
   -1.1060   30.9681   55.6742 N   0  0  0  0  0  0  0  0  0  0  0  0
   -2.5441   29.3138   54.5874 N   0  0  0  0  0  0  0  0  0  0  0  0
   -3.7651   28.9071   53.9903 C   0  0  0  0  0  0  0  0  0  0  0  0
   -4.8425   29.8520   53.8755 C   0  0  0  0  0  0  0  0  0  0  0  0
   -4.6156   31.1841   54.3874 C   0  0  0  0  0  0  0  0  0  0  0  0
   -5.6501   32.0716   54.2821 O   0  0  0  0  0  0  0  0  0  0  0  0
   -5.9617   29.1937   53.2417 C   0  0  0  0  0  0  0  0  0  0  0  0
   -5.5121   27.8978   52.9831 C   0  0  0  0  0  0  0  0  0  0  0  0
   -4.2158   27.7349   53.4372 N   0  0  0  0  0  0  0  0  0  0  0  0
   -7.3078   29.7958   52.8893 C   0  0  0  0  0  0  0  0  0  0  0  0
   -7.3341   30.4195   51.5681 N   0  0  0  0  0  0  0  0  0  0  0  0
  1  2  1  0  0  0  0
  1  7  1  0  0  0  0
  2  3  1  0  0  0  0
  2  4  2  0  0  0  0
  4  5  1  0  0  0  0
  5  6  2  0  0  0  0
  5 11  1  0  0  0  0
  6  7  1  0  0  0  0
  6  9  1  0  0  0  0
  7  8  2  0  0  0  0
  9 10  2  0  0  0  0
  9 12  1  0  0  0  0
 10 11  1  0  0  0  0
 12 13  1  0  0  0  0
M  END
>  <CHROM.1>
88.04809533,-4.52286178,30.00736739,53.92555107,0.31438890,-0.45381386,0.28662169

>  <Name>
ligand

>  <RI>
-1

>  <Rbt.Current_Directory>
/home/itssahil/PROJECTS/Mol_Feturizer/Test_systems_manuscript/rnas/4jf2

>  <Rbt.Executable>
rbdock ($Id: //depot/dev/client3/rdock/2013.1/src/exe/rbdock.cxx#4 $)

>  <Rbt.Library>
libRbt.so (2013.1, Build901 2013/11/27)

>  <Rbt.Parameter_File>
/export/apps/rDock/src/rDock_2013.1_src/data/scripts/dock_solv.prm

>  <Rbt.Receptor>
prm/pocket_docking_5.prm

>  <SCORE>
-15.8709

>  <SCORE.INTER>
-15.6202

>  <SCORE.INTER.CONST>
1

>  <SCORE.INTER.POLAR>
0

>  <SCORE.INTER.ROT>
1

>  <SCORE.INTER.SOLV>
16.5593

>  <SCORE.INTER.VDW>
-20.1999

>  <SCORE.INTER.norm>
-1.20156

>  <SCORE.INTRA>
-0.25069

>  <SCORE.INTRA.DIHEDRAL>
-0.187762

>  <SCORE.INTRA.DIHEDRAL.0>
1.75624

>  <SCORE.INTRA.POLAR>
0

>  <SCORE.INTRA.POLAR.0>
0

>  <SCORE.INTRA.REPUL>
0

>  <SCORE.INTRA.REPUL.0>
0

>  <SCORE.INTRA.SOLV>
-0.387107

>  <SCORE.INTRA.SOLV.lig_0>
-46.5296

>  <SCORE.INTRA.VDW>
0.0367447

>  <SCORE.INTRA.VDW.0>
-0.381873

>  <SCORE.INTRA.norm>
-0.0192838

>  <SCORE.RESTR>
0

>  <SCORE.RESTR.CAVITY>
0

>  <SCORE.RESTR.norm>
0

>  <SCORE.SYSTEM>
0

>  <SCORE.SYSTEM.CONST>
0

>  <SCORE.SYSTEM.DIHEDRAL>
0

>  <SCORE.SYSTEM.SOLV>
0

>  <SCORE.SYSTEM.norm>
0

>  <SCORE.heavy>
13

>  <SCORE.norm>
-1.22084

>  <RMSD>
0.858

$$$$
ligand
 OpenBabel02271912143D
libRbt.so/2013.1/901 2013/11/27
 13 14  0  0  0  0  0  0  0  0999 V2000
   -3.4011   31.5404   54.9925 N   0  0  0  0  0  0  0  0  0  0  0  0
   -2.3660   30.5956   55.0830 C   0  0  0  0  0  0  0  0  0  0  0  0
   -1.1092   30.9736   55.6871 N   0  0  0  0  0  0  0  0  0  0  0  0
   -2.5513   29.3165   54.6096 N   0  0  0  0  0  0  0  0  0  0  0  0
   -3.7718   28.9105   54.0111 C   0  0  0  0  0  0  0  0  0  0  0  0
   -4.8438   29.8598   53.8830 C   0  0  0  0  0  0  0  0  0  0  0  0
   -4.6123   31.1954   54.3835 C   0  0  0  0  0  0  0  0  0  0  0  0
   -5.6418   32.0871   54.2657 O   0  0  0  0  0  0  0  0  0  0  0  0
   -5.9637   29.2013   53.2506 C   0  0  0  0  0  0  0  0  0  0  0  0
   -5.5196   27.9008   53.0059 C   0  0  0  0  0  0  0  0  0  0  0  0
   -4.2262   27.7356   53.4670 N   0  0  0  0  0  0  0  0  0  0  0  0
   -7.3052   29.8069   52.8869 C   0  0  0  0  0  0  0  0  0  0  0  0
   -7.3263   30.4077   51.5551 N   0  0  0  0  0  0  0  0  0  0  0  0
  1  2  1  0  0  0  0
  1  7  1  0  0  0  0
  2  3  1  0  0  0  0
  2  4  2  0  0  0  0
  4  5  1  0  0  0  0
  5  6  2  0  0  0  0
  5 11  1  0  0  0  0
  6  7  1  0  0  0  0
  6  9  1  0  0  0  0
  7  8  2  0  0  0  0
  9 10  2  0  0  0  0
  9 12  1  0  0  0  0
 10 11  1  0  0  0  0
 12 13  1  0  0  0  0
M  END
>  <CHROM.1>
88.57461573,-4.52390266,30.01309086,53.93261065,0.31133531,-0.45926280,0.27605339

>  <Name>
ligand

>  <RI>
-1

>  <Rbt.Current_Directory>
/home/itssahil/PROJECTS/Mol_Feturizer/Test_systems_manuscript/rnas/4jf2

>  <Rbt.Executable>
rbdock ($Id: //depot/dev/client3/rdock/2013.1/src/exe/rbdock.cxx#4 $)

>  <Rbt.Library>
libRbt.so (2013.1, Build901 2013/11/27)

>  <Rbt.Parameter_File>
/export/apps/rDock/src/rDock_2013.1_src/data/scripts/dock_solv.prm

>  <Rbt.Receptor>
prm/pocket_docking_4.prm

>  <SCORE>
-15.865

>  <SCORE.INTER>
-15.6083

>  <SCORE.INTER.CONST>
1

>  <SCORE.INTER.POLAR>
0

>  <SCORE.INTER.ROT>
1

>  <SCORE.INTER.SOLV>
16.5652

>  <SCORE.INTER.VDW>
-20.194

>  <SCORE.INTER.norm>
-1.20064

>  <SCORE.INTRA>
-0.256693

>  <SCORE.INTRA.DIHEDRAL>
-0.187829

>  <SCORE.INTRA.DIHEDRAL.0>
1.75624

>  <SCORE.INTRA.POLAR>
0

>  <SCORE.INTRA.POLAR.0>
0

>  <SCORE.INTRA.REPUL>
0

>  <SCORE.INTRA.REPUL.0>
0

>  <SCORE.INTRA.SOLV>
-0.401822

>  <SCORE.INTRA.SOLV.lig_0>
-46.5296

>  <SCORE.INTRA.VDW>
0.0381328

>  <SCORE.INTRA.VDW.0>
-0.381873

>  <SCORE.INTRA.norm>
-0.0197456

>  <SCORE.RESTR>
0

>  <SCORE.RESTR.CAVITY>
0

>  <SCORE.RESTR.norm>
0

>  <SCORE.SYSTEM>
0

>  <SCORE.SYSTEM.CONST>
0

>  <SCORE.SYSTEM.DIHEDRAL>
0

>  <SCORE.SYSTEM.SOLV>
0

>  <SCORE.SYSTEM.norm>
0

>  <SCORE.heavy>
13

>  <SCORE.norm>
-1.22039

>  <RMSD>
0.862

$$$$
ligand
 OpenBabel02271912143D
libRbt.so/2013.1/901 2013/11/27
 13 14  0  0  0  0  0  0  0  0999 V2000
   -3.3642   31.5550   55.0412 N   0  0  0  0  0  0  0  0  0  0  0  0
   -2.2996   30.6408   55.0954 C   0  0  0  0  0  0  0  0  0  0  0  0
   -1.0358   31.0540   55.6605 N   0  0  0  0  0  0  0  0  0  0  0  0
   -2.4623   29.3580   54.6238 N   0  0  0  0  0  0  0  0  0  0  0  0
   -3.6889   28.9178   54.0630 C   0  0  0  0  0  0  0  0  0  0  0  0
   -4.7918   29.8356   53.9723 C   0  0  0  0  0  0  0  0  0  0  0  0
   -4.5836   31.1762   54.4698 C   0  0  0  0  0  0  0  0  0  0  0  0
   -5.6420   32.0375   54.3878 O   0  0  0  0  0  0  0  0  0  0  0  0
   -5.9115   29.1461   53.3736 C   0  0  0  0  0  0  0  0  0  0  0  0
   -5.4376   27.8598   53.1104 C   0  0  0  0  0  0  0  0  0  0  0  0
   -4.1258   27.7315   53.5295 N   0  0  0  0  0  0  0  0  0  0  0  0
   -7.2811   29.7130   53.0548 C   0  0  0  0  0  0  0  0  0  0  0  0
   -7.3755   30.2745   51.7091 N   0  0  0  0  0  0  0  0  0  0  0  0
  1  2  1  0  0  0  0
  1  7  1  0  0  0  0
  2  3  1  0  0  0  0
  2  4  2  0  0  0  0
  4  5  1  0  0  0  0
  5  6  2  0  0  0  0
  5 11  1  0  0  0  0
  6  7  1  0  0  0  0
  6  9  1  0  0  0  0
  7  8  2  0  0  0  0
  9 10  2  0  0  0  0
  9 12  1  0  0  0  0
 10 11  1  0  0  0  0
 12 13  1  0  0  0  0
M  END
>  <CHROM.1>
90.58445683,-4.47615002,29.99468183,54.01082593,0.33677208,-0.42029160,0.29009561

>  <Name>
ligand

>  <RI>
-1

>  <Rbt.Current_Directory>
/home/itssahil/PROJECTS/Mol_Feturizer/Test_systems_manuscript/rnas/4jf2

>  <Rbt.Executable>
rbdock ($Id: //depot/dev/client3/rdock/2013.1/src/exe/rbdock.cxx#4 $)

>  <Rbt.Library>
libRbt.so (2013.1, Build901 2013/11/27)

>  <Rbt.Parameter_File>
/export/apps/rDock/src/rDock_2013.1_src/data/scripts/dock_solv.prm

>  <Rbt.Receptor>
prm/pocket_docking_3.prm

>  <SCORE>
-15.8233

>  <SCORE.INTER>
-15.5538

>  <SCORE.INTER.CONST>
1

>  <SCORE.INTER.POLAR>
0

>  <SCORE.INTER.ROT>
1

>  <SCORE.INTER.SOLV>
16.9558

>  <SCORE.INTER.VDW>
-20.2878

>  <SCORE.INTER.norm>
-1.19645

>  <SCORE.INTRA>
-0.269474

>  <SCORE.INTRA.DIHEDRAL>
-0.187308

>  <SCORE.INTRA.DIHEDRAL.0>
1.75624

>  <SCORE.INTRA.POLAR>
0

>  <SCORE.INTRA.POLAR.0>
0

>  <SCORE.INTRA.REPUL>
0

>  <SCORE.INTRA.REPUL.0>
0

>  <SCORE.INTRA.SOLV>
-0.438305

>  <SCORE.INTRA.SOLV.lig_0>
-46.5296

>  <SCORE.INTRA.VDW>
0.043332

>  <SCORE.INTRA.VDW.0>
-0.381873

>  <SCORE.INTRA.norm>
-0.0207288

>  <SCORE.RESTR>
0

>  <SCORE.RESTR.CAVITY>
0

>  <SCORE.RESTR.norm>
0

>  <SCORE.SYSTEM>
0

>  <SCORE.SYSTEM.CONST>
0

>  <SCORE.SYSTEM.DIHEDRAL>
0

>  <SCORE.SYSTEM.SOLV>
0

>  <SCORE.SYSTEM.norm>
0

>  <SCORE.heavy>
13

>  <SCORE.norm>
-1.21717

>  <RMSD>
0.866

$$$$
ligand
 OpenBabel02271912143D
libRbt.so/2013.1/901 2013/11/27
 13 14  0  0  0  0  0  0  0  0999 V2000
   -3.3841   31.5080   55.0065 N   0  0  0  0  0  0  0  0  0  0  0  0
   -2.3559   30.5556   55.0962 C   0  0  0  0  0  0  0  0  0  0  0  0
   -1.0985   30.9221   55.7061 N   0  0  0  0  0  0  0  0  0  0  0  0
   -2.5486   29.2799   54.6168 N   0  0  0  0  0  0  0  0  0  0  0  0
   -3.7700   28.8850   54.0126 C   0  0  0  0  0  0  0  0  0  0  0  0
   -4.8349   29.8423   53.8851 C   0  0  0  0  0  0  0  0  0  0  0  0
   -4.5956   31.1741   54.3921 C   0  0  0  0  0  0  0  0  0  0  0  0
   -5.6184   32.0735   54.2748 O   0  0  0  0  0  0  0  0  0  0  0  0
   -5.9572   29.1944   53.2463 C   0  0  0  0  0  0  0  0  0  0  0  0
   -5.5215   27.8920   52.9974 C   0  0  0  0  0  0  0  0  0  0  0  0
   -4.2307   27.7156   53.4619 N   0  0  0  0  0  0  0  0  0  0  0  0
   -7.2933   29.8110   52.8808 C   0  0  0  0  0  0  0  0  0  0  0  0
   -7.2970   30.4443   51.5640 N   0  0  0  0  0  0  0  0  0  0  0  0
  1  2  1  0  0  0  0
  1  7  1  0  0  0  0
  2  3  1  0  0  0  0
  2  4  2  0  0  0  0
  4  5  1  0  0  0  0
  5  6  2  0  0  0  0
  5 11  1  0  0  0  0
  6  7  1  0  0  0  0
  6  9  1  0  0  0  0
  7  8  2  0  0  0  0
  9 10  2  0  0  0  0
  9 12  1  0  0  0  0
 10 11  1  0  0  0  0
 12 13  1  0  0  0  0
M  END
>  <CHROM.1>
87.26360093,-4.51332834,29.99533309,53.93740436,0.30206966,-0.46432605,0.27614967

>  <Name>
ligand

>  <RI>
-1

>  <Rbt.Current_Directory>
/home/itssahil/PROJECTS/Mol_Feturizer/Test_systems_manuscript/rnas/4jf2

>  <Rbt.Executable>
rbdock ($Id: //depot/dev/client3/rdock/2013.1/src/exe/rbdock.cxx#4 $)

>  <Rbt.Library>
libRbt.so (2013.1, Build901 2013/11/27)

>  <Rbt.Parameter_File>
/export/apps/rDock/src/rDock_2013.1_src/data/scripts/dock_solv.prm

>  <Rbt.Receptor>
prm/pocket_docking_4.prm

>  <SCORE>
-15.8656

>  <SCORE.INTER>
-15.6239

>  <SCORE.INTER.CONST>
1

>  <SCORE.INTER.POLAR>
0

>  <SCORE.INTER.ROT>
1

>  <SCORE.INTER.SOLV>
16.4231

>  <SCORE.INTER.VDW>
-20.157

>  <SCORE.INTER.norm>
-1.20184

>  <SCORE.INTRA>
-0.241658

>  <SCORE.INTRA.DIHEDRAL>
-0.187504

>  <SCORE.INTRA.DIHEDRAL.0>
1.75624

>  <SCORE.INTRA.POLAR>
0

>  <SCORE.INTRA.POLAR.0>
0

>  <SCORE.INTRA.REPUL>
0

>  <SCORE.INTRA.REPUL.0>
0

>  <SCORE.INTRA.SOLV>
-0.365126

>  <SCORE.INTRA.SOLV.lig_0>
-46.5296

>  <SCORE.INTRA.VDW>
0.0346568

>  <SCORE.INTRA.VDW.0>
-0.381873

>  <SCORE.INTRA.norm>
-0.0185891

>  <SCORE.RESTR>
0

>  <SCORE.RESTR.CAVITY>
0

>  <SCORE.RESTR.norm>
0

>  <SCORE.SYSTEM>
0

>  <SCORE.SYSTEM.CONST>
0

>  <SCORE.SYSTEM.DIHEDRAL>
0

>  <SCORE.SYSTEM.SOLV>
0

>  <SCORE.SYSTEM.norm>
0

>  <SCORE.heavy>
13

>  <SCORE.norm>
-1.22043

>  <RMSD>
0.867

$$$$
ligand
 OpenBabel02271912143D
libRbt.so/2013.1/901 2013/11/27
 13 14  0  0  0  0  0  0  0  0999 V2000
   -3.4187   31.5201   55.0259 N   0  0  0  0  0  0  0  0  0  0  0  0
   -2.3853   30.5744   55.1257 C   0  0  0  0  0  0  0  0  0  0  0  0
   -1.1300   30.9543   55.7316 N   0  0  0  0  0  0  0  0  0  0  0  0
   -2.5708   29.2926   54.6598 N   0  0  0  0  0  0  0  0  0  0  0  0
   -3.7900   28.8846   54.0598 C   0  0  0  0  0  0  0  0  0  0  0  0
   -4.8602   29.8346   53.9223 C   0  0  0  0  0  0  0  0  0  0  0  0
   -4.6284   31.1730   54.4151 C   0  0  0  0  0  0  0  0  0  0  0  0
   -5.6562   32.0654   54.2883 O   0  0  0  0  0  0  0  0  0  0  0  0
   -5.9789   29.1737   53.2903 C   0  0  0  0  0  0  0  0  0  0  0  0
   -5.5359   27.8711   53.0552 C   0  0  0  0  0  0  0  0  0  0  0  0
   -4.2442   27.7069   53.5216 N   0  0  0  0  0  0  0  0  0  0  0  0
   -7.3183   29.7790   52.9184 C   0  0  0  0  0  0  0  0  0  0  0  0
   -7.4267   30.1163   51.5008 N   0  0  0  0  0  0  0  0  0  0  0  0
  1  2  1  0  0  0  0
  1  7  1  0  0  0  0
  2  3  1  0  0  0  0
  2  4  2  0  0  0  0
  4  5  1  0  0  0  0
  5  6  2  0  0  0  0
  5 11  1  0  0  0  0
  6  7  1  0  0  0  0
  6  9  1  0  0  0  0
  7  8  2  0  0  0  0
  9 10  2  0  0  0  0
  9 12  1  0  0  0  0
 10 11  1  0  0  0  0
 12 13  1  0  0  0  0
M  END
>  <CHROM.1>
100.69966384,-4.54775334,29.96697813,53.96525623,0.33639773,-0.45974575,0.28195798

>  <Name>
ligand

>  <RI>
0

>  <Rbt.Current_Directory>
/home/itssahil/PROJECTS/Mol_Feturizer/Test_systems_manuscript/rnas/4jf2

>  <Rbt.Executable>
rbdock ($Id: //depot/dev/client3/rdock/2013.1/src/exe/rbdock.cxx#4 $)

>  <Rbt.Library>
libRbt.so (2013.1, Build901 2013/11/27)

>  <Rbt.Parameter_File>
/export/apps/rDock/src/rDock_2013.1_src/data/scripts/dock_solv.prm

>  <Rbt.Receptor>
prm/blind_docking_100.prm

>  <SCORE>
-15.7165

>  <SCORE.INTER>
-15.3959

>  <SCORE.INTER.CONST>
1

>  <SCORE.INTER.POLAR>
0

>  <SCORE.INTER.ROT>
1

>  <SCORE.INTER.SOLV>
17.0137

>  <SCORE.INTER.VDW>
-20.2019

>  <SCORE.INTER.norm>
-1.1843

>  <SCORE.INTRA>
-0.320547

>  <SCORE.INTRA.DIHEDRAL>
-0.166627

>  <SCORE.INTRA.DIHEDRAL.0>
1.75624

>  <SCORE.INTRA.POLAR>
0

>  <SCORE.INTRA.POLAR.0>
0

>  <SCORE.INTRA.REPUL>
0

>  <SCORE.INTRA.REPUL.0>
0

>  <SCORE.INTRA.SOLV>
-0.608765

>  <SCORE.INTRA.SOLV.lig_0>
-46.5296

>  <SCORE.INTRA.VDW>
0.0671486

>  <SCORE.INTRA.VDW.0>
-0.381873

>  <SCORE.INTRA.norm>
-0.0246575

>  <SCORE.RESTR>
0

>  <SCORE.RESTR.CAVITY>
0

>  <SCORE.RESTR.norm>
0

>  <SCORE.SYSTEM>
0

>  <SCORE.SYSTEM.CONST>
0

>  <SCORE.SYSTEM.DIHEDRAL>
0

>  <SCORE.SYSTEM.SOLV>
0

>  <SCORE.SYSTEM.norm>
0

>  <SCORE.heavy>
13

>  <SCORE.norm>
-1.20896

>  <RMSD>
0.868

$$$$
ligand
 OpenBabel02271912143D
libRbt.so/2013.1/901 2013/11/27
 13 14  0  0  0  0  0  0  0  0999 V2000
   -3.3850   31.5112   55.0101 N   0  0  0  0  0  0  0  0  0  0  0  0
   -2.3483   30.5669   55.0857 C   0  0  0  0  0  0  0  0  0  0  0  0
   -1.0883   30.9410   55.6855 N   0  0  0  0  0  0  0  0  0  0  0  0
   -2.5350   29.2919   54.6022 N   0  0  0  0  0  0  0  0  0  0  0  0
   -3.7587   28.8897   54.0076 C   0  0  0  0  0  0  0  0  0  0  0  0
   -4.8326   29.8387   53.8946 C   0  0  0  0  0  0  0  0  0  0  0  0
   -4.5995   31.1702   54.4056 C   0  0  0  0  0  0  0  0  0  0  0  0
   -5.6308   32.0616   54.3021 O   0  0  0  0  0  0  0  0  0  0  0  0
   -5.9556   29.1846   53.2633 C   0  0  0  0  0  0  0  0  0  0  0  0
   -5.5115   27.8869   53.0043 C   0  0  0  0  0  0  0  0  0  0  0  0
   -4.2150   27.7191   53.4559 N   0  0  0  0  0  0  0  0  0  0  0  0
   -7.3000   29.7917   52.9133 C   0  0  0  0  0  0  0  0  0  0  0  0
   -7.4395   30.1082   51.4936 N   0  0  0  0  0  0  0  0  0  0  0  0
  1  2  1  0  0  0  0
  1  7  1  0  0  0  0
  2  3  1  0  0  0  0
  2  4  2  0  0  0  0
  4  5  1  0  0  0  0
  5  6  2  0  0  0  0
  5 11  1  0  0  0  0
  6  7  1  0  0  0  0
  6  9  1  0  0  0  0
  7  8  2  0  0  0  0
  9 10  2  0  0  0  0
  9 12  1  0  0  0  0
 10 11  1  0  0  0  0
 12 13  1  0  0  0  0
M  END
>  <CHROM.1>
102.66715008,-4.52148627,29.96791114,53.93600454,0.34030120,-0.44895645,0.29902678

>  <Name>
ligand

>  <RI>
0

>  <Rbt.Current_Directory>
/home/itssahil/PROJECTS/Mol_Feturizer/Test_systems_manuscript/rnas/4jf2

>  <Rbt.Executable>
rbdock ($Id: //depot/dev/client3/rdock/2013.1/src/exe/rbdock.cxx#4 $)

>  <Rbt.Library>
libRbt.so (2013.1, Build901 2013/11/27)

>  <Rbt.Parameter_File>
/export/apps/rDock/src/rDock_2013.1_src/data/scripts/dock_solv.prm

>  <Rbt.Receptor>
prm/blind_docking_100.prm

>  <SCORE>
-15.7578

>  <SCORE.INTER>
-15.4294

>  <SCORE.INTER.CONST>
1

>  <SCORE.INTER.POLAR>
0

>  <SCORE.INTER.ROT>
1

>  <SCORE.INTER.SOLV>
17.0813

>  <SCORE.INTER.VDW>
-20.2467

>  <SCORE.INTER.norm>
-1.18687

>  <SCORE.INTRA>
-0.32847

>  <SCORE.INTRA.DIHEDRAL>
-0.159417

>  <SCORE.INTRA.DIHEDRAL.0>
1.75624

>  <SCORE.INTRA.POLAR>
0

>  <SCORE.INTRA.POLAR.0>
0

>  <SCORE.INTRA.REPUL>
0

>  <SCORE.INTRA.REPUL.0>
0

>  <SCORE.INTRA.SOLV>
-0.640283

>  <SCORE.INTRA.SOLV.lig_0>
-46.5296

>  <SCORE.INTRA.VDW>
0.0713796

>  <SCORE.INTRA.VDW.0>
-0.381873

>  <SCORE.INTRA.norm>
-0.0252669

>  <SCORE.RESTR>
0

>  <SCORE.RESTR.CAVITY>
0

>  <SCORE.RESTR.norm>
0

>  <SCORE.SYSTEM>
0

>  <SCORE.SYSTEM.CONST>
0

>  <SCORE.SYSTEM.DIHEDRAL>
0

>  <SCORE.SYSTEM.SOLV>
0

>  <SCORE.SYSTEM.norm>
0

>  <SCORE.heavy>
13

>  <SCORE.norm>
-1.21214

>  <RMSD>
0.870

$$$$
ligand
 OpenBabel02271912143D
libRbt.so/2013.1/901 2013/11/27
 13 14  0  0  0  0  0  0  0  0999 V2000
   -3.3504   31.5812   55.0800 N   0  0  0  0  0  0  0  0  0  0  0  0
   -2.2825   30.6705   55.1291 C   0  0  0  0  0  0  0  0  0  0  0  0
   -1.0201   31.0851   55.6964 N   0  0  0  0  0  0  0  0  0  0  0  0
   -2.4407   29.3898   54.6505 N   0  0  0  0  0  0  0  0  0  0  0  0
   -3.6658   28.9482   54.0875 C   0  0  0  0  0  0  0  0  0  0  0  0
   -4.7720   29.8625   54.0020 C   0  0  0  0  0  0  0  0  0  0  0  0
   -4.5685   31.2011   54.5068 C   0  0  0  0  0  0  0  0  0  0  0  0
   -5.6300   32.0591   54.4296 O   0  0  0  0  0  0  0  0  0  0  0  0
   -5.8893   29.1723   53.3997 C   0  0  0  0  0  0  0  0  0  0  0  0
   -5.4109   27.8892   53.1294 C   0  0  0  0  0  0  0  0  0  0  0  0
   -4.0986   27.7632   53.5477 N   0  0  0  0  0  0  0  0  0  0  0  0
   -7.2610   29.7360   53.0842 C   0  0  0  0  0  0  0  0  0  0  0  0
   -7.3276   30.4019   51.7853 N   0  0  0  0  0  0  0  0  0  0  0  0
  1  2  1  0  0  0  0
  1  7  1  0  0  0  0
  2  3  1  0  0  0  0
  2  4  2  0  0  0  0
  4  5  1  0  0  0  0
  5  6  2  0  0  0  0
  5 11  1  0  0  0  0
  6  7  1  0  0  0  0
  6  9  1  0  0  0  0
  7  8  2  0  0  0  0
  9 10  2  0  0  0  0
  9 12  1  0  0  0  0
 10 11  1  0  0  0  0
 12 13  1  0  0  0  0
M  END
>  <CHROM.1>
85.84853235,-4.45448100,30.03043807,54.04490456,0.33084859,-0.41937576,0.29246059

>  <Name>
ligand

>  <RI>
-1

>  <Rbt.Current_Directory>
/home/itssahil/PROJECTS/Mol_Feturizer/Test_systems_manuscript/rnas/4jf2

>  <Rbt.Executable>
rbdock ($Id: //depot/dev/client3/rdock/2013.1/src/exe/rbdock.cxx#4 $)

>  <Rbt.Library>
libRbt.so (2013.1, Build901 2013/11/27)

>  <Rbt.Parameter_File>
/export/apps/rDock/src/rDock_2013.1_src/data/scripts/dock_solv.prm

>  <Rbt.Receptor>
prm/pocket_docking_5.prm

>  <SCORE>
-15.8935

>  <SCORE.INTER>
-15.6684

>  <SCORE.INTER.CONST>
1

>  <SCORE.INTER.POLAR>
0

>  <SCORE.INTER.ROT>
1

>  <SCORE.INTER.SOLV>
16.741

>  <SCORE.INTER.VDW>
-20.2926

>  <SCORE.INTER.norm>
-1.20526

>  <SCORE.INTRA>
-0.225107

>  <SCORE.INTRA.DIHEDRAL>
-0.186565

>  <SCORE.INTRA.DIHEDRAL.0>
1.75624

>  <SCORE.INTRA.POLAR>
0

>  <SCORE.INTRA.POLAR.0>
0

>  <SCORE.INTRA.REPUL>
0

>  <SCORE.INTRA.REPUL.0>
0

>  <SCORE.INTRA.SOLV>
-0.325316

>  <SCORE.INTRA.SOLV.lig_0>
-46.5296

>  <SCORE.INTRA.VDW>
0.0308331

>  <SCORE.INTRA.VDW.0>
-0.381873

>  <SCORE.INTRA.norm>
-0.0173159

>  <SCORE.RESTR>
0

>  <SCORE.RESTR.CAVITY>
0

>  <SCORE.RESTR.norm>
0

>  <SCORE.SYSTEM>
0

>  <SCORE.SYSTEM.CONST>
0

>  <SCORE.SYSTEM.DIHEDRAL>
0

>  <SCORE.SYSTEM.SOLV>
0

>  <SCORE.SYSTEM.norm>
0

>  <SCORE.heavy>
13

>  <SCORE.norm>
-1.22258

>  <RMSD>
0.870

$$$$
ligand
 OpenBabel02271912143D
libRbt.so/2013.1/901 2013/11/27
 13 14  0  0  0  0  0  0  0  0999 V2000
   -3.4054   31.5405   54.9886 N   0  0  0  0  0  0  0  0  0  0  0  0
   -2.3592   30.6075   55.0741 C   0  0  0  0  0  0  0  0  0  0  0  0
   -1.1029   31.0007   55.6696 N   0  0  0  0  0  0  0  0  0  0  0  0
   -2.5330   29.3256   54.6043 N   0  0  0  0  0  0  0  0  0  0  0  0
   -3.7527   28.9047   54.0142 C   0  0  0  0  0  0  0  0  0  0  0  0
   -4.8361   29.8417   53.8913 C   0  0  0  0  0  0  0  0  0  0  0  0
   -4.6164   31.1808   54.3879 C   0  0  0  0  0  0  0  0  0  0  0  0
   -5.6566   32.0606   54.2751 O   0  0  0  0  0  0  0  0  0  0  0  0
   -5.9525   29.1695   53.2673 C   0  0  0  0  0  0  0  0  0  0  0  0
   -5.4954   27.8737   53.0220 C   0  0  0  0  0  0  0  0  0  0  0  0
   -4.1973   27.7238   53.4751 N   0  0  0  0  0  0  0  0  0  0  0  0
   -7.3030   29.7593   52.9110 C   0  0  0  0  0  0  0  0  0  0  0  0
   -7.4231   30.1181   51.4996 N   0  0  0  0  0  0  0  0  0  0  0  0
  1  2  1  0  0  0  0
  1  7  1  0  0  0  0
  2  3  1  0  0  0  0
  2  4  2  0  0  0  0
  4  5  1  0  0  0  0
  5  6  2  0  0  0  0
  5 11  1  0  0  0  0
  6  7  1  0  0  0  0
  6  9  1  0  0  0  0
  7  8  2  0  0  0  0
  9 10  2  0  0  0  0
  9 12  1  0  0  0  0
 10 11  1  0  0  0  0
 12 13  1  0  0  0  0
M  END
>  <CHROM.1>
99.92413987,-4.52443955,29.97919970,53.93218280,0.34522262,-0.44721879,0.29018393

>  <Name>
ligand

>  <RI>
0

>  <Rbt.Current_Directory>
/home/itssahil/PROJECTS/Mol_Feturizer/Test_systems_manuscript/rnas/4jf2

>  <Rbt.Executable>
rbdock ($Id: //depot/dev/client3/rdock/2013.1/src/exe/rbdock.cxx#4 $)

>  <Rbt.Library>
libRbt.so (2013.1, Build901 2013/11/27)

>  <Rbt.Parameter_File>
/export/apps/rDock/src/rDock_2013.1_src/data/scripts/dock_solv.prm

>  <Rbt.Receptor>
prm/blind_docking_100.prm

>  <SCORE>
-15.7509

>  <SCORE.INTER>
-15.4339

>  <SCORE.INTER.CONST>
1

>  <SCORE.INTER.POLAR>
0

>  <SCORE.INTER.ROT>
1

>  <SCORE.INTER.SOLV>
17.1555

>  <SCORE.INTER.VDW>
-20.2744

>  <SCORE.INTER.norm>
-1.18722

>  <SCORE.INTRA>
-0.317247

>  <SCORE.INTRA.DIHEDRAL>
-0.169209

>  <SCORE.INTRA.DIHEDRAL.0>
1.75624

>  <SCORE.INTRA.POLAR>
0

>  <SCORE.INTRA.POLAR.0>
0

>  <SCORE.INTRA.REPUL>
0

>  <SCORE.INTRA.REPUL.0>
0

>  <SCORE.INTRA.SOLV>
-0.596185

>  <SCORE.INTRA.SOLV.lig_0>
-46.5296

>  <SCORE.INTRA.VDW>
0.0654496

>  <SCORE.INTRA.VDW.0>
-0.381873

>  <SCORE.INTRA.norm>
-0.0244036

>  <SCORE.RESTR>
0.000193516

>  <SCORE.RESTR.CAVITY>
0.000193516

>  <SCORE.RESTR.norm>
1.48859e-05

>  <SCORE.SYSTEM>
0

>  <SCORE.SYSTEM.CONST>
0

>  <SCORE.SYSTEM.DIHEDRAL>
0

>  <SCORE.SYSTEM.SOLV>
0

>  <SCORE.SYSTEM.norm>
0

>  <SCORE.heavy>
13

>  <SCORE.norm>
-1.21161

>  <RMSD>
0.872

$$$$
ligand
 OpenBabel02271912143D
libRbt.so/2013.1/901 2013/11/27
 13 14  0  0  0  0  0  0  0  0999 V2000
   -3.4151   31.5377   55.0192 N   0  0  0  0  0  0  0  0  0  0  0  0
   -2.3854   30.5891   55.1298 C   0  0  0  0  0  0  0  0  0  0  0  0
   -1.1417   30.9606   55.7643 N   0  0  0  0  0  0  0  0  0  0  0  0
   -2.5638   29.3125   54.6473 N   0  0  0  0  0  0  0  0  0  0  0  0
   -3.7715   28.9128   54.0191 C   0  0  0  0  0  0  0  0  0  0  0  0
   -4.8372   29.8662   53.8701 C   0  0  0  0  0  0  0  0  0  0  0  0
   -4.6129   31.1991   54.3811 C   0  0  0  0  0  0  0  0  0  0  0  0
   -5.6366   32.0946   54.2430 O   0  0  0  0  0  0  0  0  0  0  0  0
   -5.9442   29.2139   53.2094 C   0  0  0  0  0  0  0  0  0  0  0  0
   -5.4989   27.9129   52.9699 C   0  0  0  0  0  0  0  0  0  0  0  0
   -4.2169   27.7416   53.4600 N   0  0  0  0  0  0  0  0  0  0  0  0
   -7.2750   29.8253   52.8172 C   0  0  0  0  0  0  0  0  0  0  0  0
   -7.2491   30.4767   51.5095 N   0  0  0  0  0  0  0  0  0  0  0  0
  1  2  1  0  0  0  0
  1  7  1  0  0  0  0
  2  3  1  0  0  0  0
  2  4  2  0  0  0  0
  4  5  1  0  0  0  0
  5  6  2  0  0  0  0
  5 11  1  0  0  0  0
  6  7  1  0  0  0  0
  6  9  1  0  0  0  0
  7  8  2  0  0  0  0
  9 10  2  0  0  0  0
  9 12  1  0  0  0  0
 10 11  1  0  0  0  0
 12 13  1  0  0  0  0
M  END
>  <CHROM.1>
86.33933506,-4.51682491,30.02192040,53.92943793,0.31025469,-0.48237838,0.27938569

>  <Name>
ligand

>  <RI>
-1

>  <Rbt.Current_Directory>
/home/itssahil/PROJECTS/Mol_Feturizer/Test_systems_manuscript/rnas/4jf2

>  <Rbt.Executable>
rbdock ($Id: //depot/dev/client3/rdock/2013.1/src/exe/rbdock.cxx#4 $)

>  <Rbt.Library>
libRbt.so (2013.1, Build901 2013/11/27)

>  <Rbt.Parameter_File>
/export/apps/rDock/src/rDock_2013.1_src/data/scripts/dock_solv.prm

>  <Rbt.Receptor>
prm/pocket_docking_4.prm

>  <SCORE>
-15.8223

>  <SCORE.INTER>
-15.5914

>  <SCORE.INTER.CONST>
1

>  <SCORE.INTER.POLAR>
0

>  <SCORE.INTER.ROT>
1

>  <SCORE.INTER.SOLV>
16.3719

>  <SCORE.INTER.VDW>
-20.1183

>  <SCORE.INTER.norm>
-1.19934

>  <SCORE.INTRA>
-0.230885

>  <SCORE.INTRA.DIHEDRAL>
-0.186959

>  <SCORE.INTRA.DIHEDRAL.0>
1.75624

>  <SCORE.INTRA.POLAR>
0

>  <SCORE.INTRA.POLAR.0>
0

>  <SCORE.INTRA.REPUL>
0

>  <SCORE.INTRA.REPUL.0>
0

>  <SCORE.INTRA.SOLV>
-0.339146

>  <SCORE.INTRA.SOLV.lig_0>
-46.5296

>  <SCORE.INTRA.VDW>
0.0321675

>  <SCORE.INTRA.VDW.0>
-0.381873

>  <SCORE.INTRA.norm>
-0.0177604

>  <SCORE.RESTR>
0

>  <SCORE.RESTR.CAVITY>
0

>  <SCORE.RESTR.norm>
0

>  <SCORE.SYSTEM>
0

>  <SCORE.SYSTEM.CONST>
0

>  <SCORE.SYSTEM.DIHEDRAL>
0

>  <SCORE.SYSTEM.SOLV>
0

>  <SCORE.SYSTEM.norm>
0

>  <SCORE.heavy>
13

>  <SCORE.norm>
-1.2171

>  <RMSD>
0.884

$$$$
ligand
 OpenBabel02271912143D
libRbt.so/2013.1/901 2013/11/27
 13 14  0  0  0  0  0  0  0  0999 V2000
   -3.3724   31.5306   54.9790 N   0  0  0  0  0  0  0  0  0  0  0  0
   -2.3659   30.5628   55.1293 C   0  0  0  0  0  0  0  0  0  0  0  0
   -1.1228   30.9237   55.7710 N   0  0  0  0  0  0  0  0  0  0  0  0
   -2.5665   29.2779   54.6786 N   0  0  0  0  0  0  0  0  0  0  0  0
   -3.7744   28.8883   54.0445 C   0  0  0  0  0  0  0  0  0  0  0  0
   -4.8163   29.8606   53.8552 C   0  0  0  0  0  0  0  0  0  0  0  0
   -4.5689   31.2016   54.3334 C   0  0  0  0  0  0  0  0  0  0  0  0
   -5.5701   32.1155   54.1571 O   0  0  0  0  0  0  0  0  0  0  0  0
   -5.9288   29.2154   53.1967 C   0  0  0  0  0  0  0  0  0  0  0  0
   -5.5096   27.8988   52.9983 C   0  0  0  0  0  0  0  0  0  0  0  0
   -4.2386   27.7124   53.5108 N   0  0  0  0  0  0  0  0  0  0  0  0
   -7.2401   29.8453   52.7697 C   0  0  0  0  0  0  0  0  0  0  0  0
   -7.0999   30.7649   51.6428 N   0  0  0  0  0  0  0  0  0  0  0  0
  1  2  1  0  0  0  0
  1  7  1  0  0  0  0
  2  3  1  0  0  0  0
  2  4  2  0  0  0  0
  4  5  1  0  0  0  0
  5  6  2  0  0  0  0
  5 11  1  0  0  0  0
  6  7  1  0  0  0  0
  6  9  1  0  0  0  0
  7  8  2  0  0  0  0
  9 10  2  0  0  0  0
  9 12  1  0  0  0  0
 10 11  1  0  0  0  0
 12 13  1  0  0  0  0
M  END
>  <CHROM.1>
70.40569006,-4.48661342,30.03553409,53.93085513,0.25877955,-0.49627823,0.22975308

>  <Name>
ligand

>  <RI>
0

>  <Rbt.Current_Directory>
/home/itssahil/PROJECTS/Mol_Feturizer/Test_systems_manuscript/rnas/4jf2

>  <Rbt.Executable>
rbdock ($Id: //depot/dev/client3/rdock/2013.1/src/exe/rbdock.cxx#4 $)

>  <Rbt.Library>
libRbt.so (2013.1, Build901 2013/11/27)

>  <Rbt.Parameter_File>
/export/apps/rDock/src/rDock_2013.1_src/data/scripts/dock_solv.prm

>  <Rbt.Receptor>
prm/blind_docking_100.prm

>  <SCORE>
-15.7849

>  <SCORE.INTER>
-15.7606

>  <SCORE.INTER.CONST>
1

>  <SCORE.INTER.POLAR>
0

>  <SCORE.INTER.ROT>
1

>  <SCORE.INTER.SOLV>
15.8991

>  <SCORE.INTER.VDW>
-20.0734

>  <SCORE.INTER.norm>
-1.21235

>  <SCORE.INTRA>
-0.0243245

>  <SCORE.INTRA.DIHEDRAL>
-0.140289

>  <SCORE.INTRA.DIHEDRAL.0>
1.75624

>  <SCORE.INTRA.POLAR>
0

>  <SCORE.INTRA.POLAR.0>
0

>  <SCORE.INTRA.REPUL>
0

>  <SCORE.INTRA.REPUL.0>
0

>  <SCORE.INTRA.SOLV>
0.116574

>  <SCORE.INTRA.SOLV.lig_0>
-46.5296

>  <SCORE.INTRA.VDW>
-0.0124671

>  <SCORE.INTRA.VDW.0>
-0.381873

>  <SCORE.INTRA.norm>
-0.00187111

>  <SCORE.RESTR>
0

>  <SCORE.RESTR.CAVITY>
0

>  <SCORE.RESTR.norm>
0

>  <SCORE.SYSTEM>
0

>  <SCORE.SYSTEM.CONST>
0

>  <SCORE.SYSTEM.DIHEDRAL>
0

>  <SCORE.SYSTEM.SOLV>
0

>  <SCORE.SYSTEM.norm>
0

>  <SCORE.heavy>
13

>  <SCORE.norm>
-1.21423

>  <RMSD>
0.890

$$$$
ligand
 OpenBabel02271912143D
libRbt.so/2013.1/901 2013/11/27
 13 14  0  0  0  0  0  0  0  0999 V2000
   -3.2455   31.6139   55.0956 N   0  0  0  0  0  0  0  0  0  0  0  0
   -2.1868   30.6913   55.1137 C   0  0  0  0  0  0  0  0  0  0  0  0
   -0.9109   31.0842   55.6660 N   0  0  0  0  0  0  0  0  0  0  0  0
   -2.3667   29.4196   54.6192 N   0  0  0  0  0  0  0  0  0  0  0  0
   -3.6056   28.9994   54.0701 C   0  0  0  0  0  0  0  0  0  0  0  0
   -4.7031   29.9264   54.0163 C   0  0  0  0  0  0  0  0  0  0  0  0
   -4.4768   31.2552   54.5371 C   0  0  0  0  0  0  0  0  0  0  0  0
   -5.5301   32.1254   54.4901 O   0  0  0  0  0  0  0  0  0  0  0  0
   -5.8375   29.2571   53.4226 C   0  0  0  0  0  0  0  0  0  0  0  0
   -5.3774   27.9731   53.1257 C   0  0  0  0  0  0  0  0  0  0  0  0
   -4.0599   27.8271   53.5202 N   0  0  0  0  0  0  0  0  0  0  0  0
   -7.2079   29.8398   53.1381 C   0  0  0  0  0  0  0  0  0  0  0  0
   -7.3075   30.4676   51.8223 N   0  0  0  0  0  0  0  0  0  0  0  0
  1  2  1  0  0  0  0
  1  7  1  0  0  0  0
  2  3  1  0  0  0  0
  2  4  2  0  0  0  0
  4  5  1  0  0  0  0
  5  6  2  0  0  0  0
  5 11  1  0  0  0  0
  6  7  1  0  0  0  0
  6  9  1  0  0  0  0
  7  8  2  0  0  0  0
  9 10  2  0  0  0  0
  9 12  1  0  0  0  0
 10 11  1  0  0  0  0
 12 13  1  0  0  0  0
M  END
>  <CHROM.1>
88.71181115,-4.38461115,30.08565988,54.05409833,0.32018797,-0.40672684,0.30331094

>  <Name>
ligand

>  <RI>
-1

>  <Rbt.Current_Directory>
/home/itssahil/PROJECTS/Mol_Feturizer/Test_systems_manuscript/rnas/4jf2

>  <Rbt.Executable>
rbdock ($Id: //depot/dev/client3/rdock/2013.1/src/exe/rbdock.cxx#4 $)

>  <Rbt.Library>
libRbt.so (2013.1, Build901 2013/11/27)

>  <Rbt.Parameter_File>
/export/apps/rDock/src/rDock_2013.1_src/data/scripts/dock_solv.prm

>  <Rbt.Receptor>
prm/pocket_docking_4.prm

>  <SCORE>
-15.7704

>  <SCORE.INTER>
-15.5123

>  <SCORE.INTER.CONST>
1

>  <SCORE.INTER.POLAR>
0

>  <SCORE.INTER.ROT>
1

>  <SCORE.INTER.SOLV>
16.7646

>  <SCORE.INTER.VDW>
-20.1964

>  <SCORE.INTER.norm>
-1.19325

>  <SCORE.INTRA>
-0.258113

>  <SCORE.INTRA.DIHEDRAL>
-0.187833

>  <SCORE.INTRA.DIHEDRAL.0>
1.75624

>  <SCORE.INTRA.POLAR>
0

>  <SCORE.INTRA.POLAR.0>
0

>  <SCORE.INTRA.REPUL>
0

>  <SCORE.INTRA.REPUL.0>
0

>  <SCORE.INTRA.SOLV>
-0.405378

>  <SCORE.INTRA.SOLV.lig_0>
-46.5296

>  <SCORE.INTRA.VDW>
0.0384927

>  <SCORE.INTRA.VDW.0>
-0.381873

>  <SCORE.INTRA.norm>
-0.0198548

>  <SCORE.RESTR>
0

>  <SCORE.RESTR.CAVITY>
0

>  <SCORE.RESTR.norm>
0

>  <SCORE.SYSTEM>
0

>  <SCORE.SYSTEM.CONST>
0

>  <SCORE.SYSTEM.DIHEDRAL>
0

>  <SCORE.SYSTEM.SOLV>
0

>  <SCORE.SYSTEM.norm>
0

>  <SCORE.heavy>
13

>  <SCORE.norm>
-1.21311

>  <RMSD>
0.893

$$$$
ligand
 OpenBabel02271912143D
libRbt.so/2013.1/901 2013/11/27
 13 14  0  0  0  0  0  0  0  0999 V2000
   -3.2808   31.5745   55.0274 N   0  0  0  0  0  0  0  0  0  0  0  0
   -2.2689   30.6061   55.1297 C   0  0  0  0  0  0  0  0  0  0  0  0
   -1.0008   30.9628   55.7230 N   0  0  0  0  0  0  0  0  0  0  0  0
   -2.4875   29.3244   54.6782 N   0  0  0  0  0  0  0  0  0  0  0  0
   -3.7200   28.9388   54.0908 C   0  0  0  0  0  0  0  0  0  0  0  0
   -4.7689   29.9120   53.9510 C   0  0  0  0  0  0  0  0  0  0  0  0
   -4.5025   31.2496   54.4286 C   0  0  0  0  0  0  0  0  0  0  0  0
   -5.5102   32.1643   54.2998 O   0  0  0  0  0  0  0  0  0  0  0  0
   -5.9071   29.2711   53.3336 C   0  0  0  0  0  0  0  0  0  0  0  0
   -5.4962   27.9563   53.1087 C   0  0  0  0  0  0  0  0  0  0  0  0
   -4.2053   27.7667   53.5678 N   0  0  0  0  0  0  0  0  0  0  0  0
   -7.2348   29.9036   52.9648 C   0  0  0  0  0  0  0  0  0  0  0  0
   -7.4004   30.1034   51.5268 N   0  0  0  0  0  0  0  0  0  0  0  0
  1  2  1  0  0  0  0
  1  7  1  0  0  0  0
  2  3  1  0  0  0  0
  2  4  2  0  0  0  0
  4  5  1  0  0  0  0
  5  6  2  0  0  0  0
  5 11  1  0  0  0  0
  6  7  1  0  0  0  0
  6  9  1  0  0  0  0
  7  8  2  0  0  0  0
  9 10  2  0  0  0  0
  9 12  1  0  0  0  0
 10 11  1  0  0  0  0
 12 13  1  0  0  0  0
M  END
>  <CHROM.1>
106.61094350,-4.45760691,30.02734554,53.98902872,0.32164526,-0.45607407,0.26576246

>  <Name>
ligand

>  <RI>
0

>  <Rbt.Current_Directory>
/home/itssahil/PROJECTS/Mol_Feturizer/Test_systems_manuscript/rnas/4jf2

>  <Rbt.Executable>
rbdock ($Id: //depot/dev/client3/rdock/2013.1/src/exe/rbdock.cxx#4 $)

>  <Rbt.Library>
libRbt.so (2013.1, Build901 2013/11/27)

>  <Rbt.Parameter_File>
/export/apps/rDock/src/rDock_2013.1_src/data/scripts/dock_solv.prm

>  <Rbt.Receptor>
prm/blind_docking_100.prm

>  <SCORE>
-15.6829

>  <SCORE.INTER>
-15.3404

>  <SCORE.INTER.CONST>
1

>  <SCORE.INTER.POLAR>
0

>  <SCORE.INTER.ROT>
1

>  <SCORE.INTER.SOLV>
17.0289

>  <SCORE.INTER.VDW>
-20.1699

>  <SCORE.INTER.norm>
-1.18003

>  <SCORE.INTRA>
-0.342465

>  <SCORE.INTRA.DIHEDRAL>
-0.142397

>  <SCORE.INTRA.DIHEDRAL.0>
1.75624

>  <SCORE.INTRA.POLAR>
0

>  <SCORE.INTRA.POLAR.0>
0

>  <SCORE.INTRA.REPUL>
0

>  <SCORE.INTRA.REPUL.0>
0

>  <SCORE.INTRA.SOLV>
-0.701665

>  <SCORE.INTRA.SOLV.lig_0>
-46.5296

>  <SCORE.INTRA.VDW>
0.0795657

>  <SCORE.INTRA.VDW.0>
-0.381873

>  <SCORE.INTRA.norm>
-0.0263435

>  <SCORE.RESTR>
0

>  <SCORE.RESTR.CAVITY>
0

>  <SCORE.RESTR.norm>
0

>  <SCORE.SYSTEM>
0

>  <SCORE.SYSTEM.CONST>
0

>  <SCORE.SYSTEM.DIHEDRAL>
0

>  <SCORE.SYSTEM.SOLV>
0

>  <SCORE.SYSTEM.norm>
0

>  <SCORE.heavy>
13

>  <SCORE.norm>
-1.20638

>  <RMSD>
0.896

$$$$
ligand
 OpenBabel02271912143D
libRbt.so/2013.1/901 2013/11/27
 13 14  0  0  0  0  0  0  0  0999 V2000
   -3.3414   31.5910   55.0426 N   0  0  0  0  0  0  0  0  0  0  0  0
   -2.2787   30.6761   55.1202 C   0  0  0  0  0  0  0  0  0  0  0  0
   -1.0205   31.0950   55.6937 N   0  0  0  0  0  0  0  0  0  0  0  0
   -2.4381   29.3876   54.6635 N   0  0  0  0  0  0  0  0  0  0  0  0
   -3.6592   28.9418   54.0951 C   0  0  0  0  0  0  0  0  0  0  0  0
   -4.7598   29.8597   53.9806 C   0  0  0  0  0  0  0  0  0  0  0  0
   -4.5550   31.2063   54.4629 C   0  0  0  0  0  0  0  0  0  0  0  0
   -5.6112   32.0679   54.3583 O   0  0  0  0  0  0  0  0  0  0  0  0
   -5.8739   29.1640   53.3788 C   0  0  0  0  0  0  0  0  0  0  0  0
   -5.3990   27.8738   53.1374 C   0  0  0  0  0  0  0  0  0  0  0  0
   -4.0920   27.7491   53.5724 N   0  0  0  0  0  0  0  0  0  0  0  0
   -7.2391   29.7284   53.0378 C   0  0  0  0  0  0  0  0  0  0  0  0
   -7.3403   30.2042   51.6599 N   0  0  0  0  0  0  0  0  0  0  0  0
  1  2  1  0  0  0  0
  1  7  1  0  0  0  0
  2  3  1  0  0  0  0
  2  4  2  0  0  0  0
  4  5  1  0  0  0  0
  5  6  2  0  0  0  0
  5 11  1  0  0  0  0
  6  7  1  0  0  0  0
  6  9  1  0  0  0  0
  7  8  2  0  0  0  0
  9 10  2  0  0  0  0
  9 12  1  0  0  0  0
 10 11  1  0  0  0  0
 12 13  1  0  0  0  0
M  END
>  <CHROM.1>
93.82261630,-4.44610968,30.01330161,54.01853062,0.34538098,-0.43048690,0.28117501

>  <Name>
ligand

>  <RI>
-1

>  <Rbt.Current_Directory>
/home/itssahil/PROJECTS/Mol_Feturizer/Test_systems_manuscript/rnas/4jf2

>  <Rbt.Executable>
rbdock ($Id: //depot/dev/client3/rdock/2013.1/src/exe/rbdock.cxx#4 $)

>  <Rbt.Library>
libRbt.so (2013.1, Build901 2013/11/27)

>  <Rbt.Parameter_File>
/export/apps/rDock/src/rDock_2013.1_src/data/scripts/dock_solv.prm

>  <Rbt.Receptor>
prm/pocket_docking_5.prm

>  <SCORE>
-15.8083

>  <SCORE.INTER>
-15.5206

>  <SCORE.INTER.CONST>
1

>  <SCORE.INTER.POLAR>
0

>  <SCORE.INTER.ROT>
1

>  <SCORE.INTER.SOLV>
17.0694

>  <SCORE.INTER.VDW>
-20.3035

>  <SCORE.INTER.norm>
-1.19389

>  <SCORE.INTRA>
-0.287723

>  <SCORE.INTRA.DIHEDRAL>
-0.18389

>  <SCORE.INTRA.DIHEDRAL.0>
1.75624

>  <SCORE.INTRA.POLAR>
0

>  <SCORE.INTRA.POLAR.0>
0

>  <SCORE.INTRA.REPUL>
0

>  <SCORE.INTRA.REPUL.0>
0

>  <SCORE.INTRA.SOLV>
-0.494301

>  <SCORE.INTRA.SOLV.lig_0>
-46.5296

>  <SCORE.INTRA.VDW>
0.0513722

>  <SCORE.INTRA.VDW.0>
-0.381873

>  <SCORE.INTRA.norm>
-0.0221325

>  <SCORE.RESTR>
0

>  <SCORE.RESTR.CAVITY>
0

>  <SCORE.RESTR.norm>
0

>  <SCORE.SYSTEM>
0

>  <SCORE.SYSTEM.CONST>
0

>  <SCORE.SYSTEM.DIHEDRAL>
0

>  <SCORE.SYSTEM.SOLV>
0

>  <SCORE.SYSTEM.norm>
0

>  <SCORE.heavy>
13

>  <SCORE.norm>
-1.21603

>  <RMSD>
0.896

$$$$
ligand
 OpenBabel02271912143D
libRbt.so/2013.1/901 2013/11/27
 13 14  0  0  0  0  0  0  0  0999 V2000
   -3.2314   31.6254   55.1869 N   0  0  0  0  0  0  0  0  0  0  0  0
   -2.1750   30.7000   55.1867 C   0  0  0  0  0  0  0  0  0  0  0  0
   -0.8994   31.0773   55.7505 N   0  0  0  0  0  0  0  0  0  0  0  0
   -2.3568   29.4401   54.6634 N   0  0  0  0  0  0  0  0  0  0  0  0
   -3.5955   29.0353   54.1023 C   0  0  0  0  0  0  0  0  0  0  0  0
   -4.6906   29.9661   54.0668 C   0  0  0  0  0  0  0  0  0  0  0  0
   -4.4624   31.2823   54.6178 C   0  0  0  0  0  0  0  0  0  0  0  0
   -5.5134   32.1559   54.5879 O   0  0  0  0  0  0  0  0  0  0  0  0
   -5.8253   29.3130   53.4557 C   0  0  0  0  0  0  0  0  0  0  0  0
   -5.3677   28.0349   53.1312 C   0  0  0  0  0  0  0  0  0  0  0  0
   -4.0514   27.8768   53.5254 N   0  0  0  0  0  0  0  0  0  0  0  0
   -7.1937   29.9053   53.1813 C   0  0  0  0  0  0  0  0  0  0  0  0
   -7.4287   30.1870   51.7669 N   0  0  0  0  0  0  0  0  0  0  0  0
  1  2  1  0  0  0  0
  1  7  1  0  0  0  0
  2  3  1  0  0  0  0
  2  4  2  0  0  0  0
  4  5  1  0  0  0  0
  5  6  2  0  0  0  0
  5 11  1  0  0  0  0
  6  7  1  0  0  0  0
  6  9  1  0  0  0  0
  7  8  2  0  0  0  0
  9 10  2  0  0  0  0
  9 12  1  0  0  0  0
 10 11  1  0  0  0  0
 12 13  1  0  0  0  0
M  END
>  <CHROM.1>
106.56257956,-4.38324231,30.09306846,54.09971520,0.35487610,-0.40323654,0.34257072

>  <Name>
ligand

>  <RI>
-1

>  <Rbt.Current_Directory>
/home/itssahil/PROJECTS/Mol_Feturizer/Test_systems_manuscript/rnas/4jf2

>  <Rbt.Executable>
rbdock ($Id: //depot/dev/client3/rdock/2013.1/src/exe/rbdock.cxx#4 $)

>  <Rbt.Library>
libRbt.so (2013.1, Build901 2013/11/27)

>  <Rbt.Parameter_File>
/export/apps/rDock/src/rDock_2013.1_src/data/scripts/dock_solv.prm

>  <Rbt.Receptor>
prm/pocket_docking_5.prm

>  <SCORE>
-15.8239

>  <SCORE.INTER>
-15.4816

>  <SCORE.INTER.CONST>
1

>  <SCORE.INTER.POLAR>
0

>  <SCORE.INTER.ROT>
1

>  <SCORE.INTER.SOLV>
17.1226

>  <SCORE.INTER.VDW>
-20.2953

>  <SCORE.INTER.norm>
-1.19089

>  <SCORE.INTRA>
-0.342309

>  <SCORE.INTRA.DIHEDRAL>
-0.142624

>  <SCORE.INTRA.DIHEDRAL.0>
1.75624

>  <SCORE.INTRA.POLAR>
0

>  <SCORE.INTRA.POLAR.0>
0

>  <SCORE.INTRA.REPUL>
0

>  <SCORE.INTRA.REPUL.0>
0

>  <SCORE.INTRA.SOLV>
-0.700928

>  <SCORE.INTRA.SOLV.lig_0>
-46.5296

>  <SCORE.INTRA.VDW>
0.0794674

>  <SCORE.INTRA.VDW.0>
-0.381873

>  <SCORE.INTRA.norm>
-0.0263314

>  <SCORE.RESTR>
0

>  <SCORE.RESTR.CAVITY>
0

>  <SCORE.RESTR.norm>
0

>  <SCORE.SYSTEM>
0

>  <SCORE.SYSTEM.CONST>
0

>  <SCORE.SYSTEM.DIHEDRAL>
0

>  <SCORE.SYSTEM.SOLV>
0

>  <SCORE.SYSTEM.norm>
0

>  <SCORE.heavy>
13

>  <SCORE.norm>
-1.21722

>  <RMSD>
0.908

$$$$
ligand
 OpenBabel02271912143D
libRbt.so/2013.1/901 2013/11/27
 13 14  0  0  0  0  0  0  0  0999 V2000
   -3.2458   31.5598   55.0716 N   0  0  0  0  0  0  0  0  0  0  0  0
   -2.2518   30.5740   55.1829 C   0  0  0  0  0  0  0  0  0  0  0  0
   -0.9890   30.9045   55.8022 N   0  0  0  0  0  0  0  0  0  0  0  0
   -2.4829   29.3003   54.7154 N   0  0  0  0  0  0  0  0  0  0  0  0
   -3.7107   28.9403   54.1025 C   0  0  0  0  0  0  0  0  0  0  0  0
   -4.7410   29.9318   53.9531 C   0  0  0  0  0  0  0  0  0  0  0  0
   -4.4616   31.2604   54.4479 C   0  0  0  0  0  0  0  0  0  0  0  0
   -5.4519   32.1926   54.3097 O   0  0  0  0  0  0  0  0  0  0  0  0
   -5.8781   29.3153   53.3093 C   0  0  0  0  0  0  0  0  0  0  0  0
   -5.4845   27.9960   53.0795 C   0  0  0  0  0  0  0  0  0  0  0  0
   -4.2054   27.7811   53.5598 N   0  0  0  0  0  0  0  0  0  0  0  0
   -7.1884   29.9727   52.9228 C   0  0  0  0  0  0  0  0  0  0  0  0
   -7.1000   30.7606   51.6953 N   0  0  0  0  0  0  0  0  0  0  0  0
  1  2  1  0  0  0  0
  1  7  1  0  0  0  0
  2  3  1  0  0  0  0
  2  4  2  0  0  0  0
  4  5  1  0  0  0  0
  5  6  2  0  0  0  0
  5 11  1  0  0  0  0
  6  7  1  0  0  0  0
  6  9  1  0  0  0  0
  7  8  2  0  0  0  0
  9 10  2  0  0  0  0
  9 12  1  0  0  0  0
 10 11  1  0  0  0  0
 12 13  1  0  0  0  0
M  END
>  <CHROM.1>
78.57454071,-4.41030482,30.08820230,54.01495968,0.25057696,-0.48177671,0.24155660

>  <Name>
ligand

>  <RI>
0

>  <Rbt.Current_Directory>
/home/itssahil/PROJECTS/Mol_Feturizer/Test_systems_manuscript/rnas/4jf2

>  <Rbt.Executable>
rbdock ($Id: //depot/dev/client3/rdock/2013.1/src/exe/rbdock.cxx#4 $)

>  <Rbt.Library>
libRbt.so (2013.1, Build901 2013/11/27)

>  <Rbt.Parameter_File>
/export/apps/rDock/src/rDock_2013.1_src/data/scripts/dock_solv.prm

>  <Rbt.Receptor>
prm/blind_docking_100.prm

>  <SCORE>
-15.7242

>  <SCORE.INTER>
-15.5892

>  <SCORE.INTER.CONST>
1

>  <SCORE.INTER.POLAR>
0

>  <SCORE.INTER.ROT>
1

>  <SCORE.INTER.SOLV>
15.8991

>  <SCORE.INTER.VDW>
-19.9592

>  <SCORE.INTER.norm>
-1.19917

>  <SCORE.INTRA>
-0.135028

>  <SCORE.INTRA.DIHEDRAL>
-0.172424

>  <SCORE.INTRA.DIHEDRAL.0>
1.75624

>  <SCORE.INTRA.POLAR>
0

>  <SCORE.INTRA.POLAR.0>
0

>  <SCORE.INTRA.REPUL>
0

>  <SCORE.INTRA.REPUL.0>
0

>  <SCORE.INTRA.SOLV>
-0.118177

>  <SCORE.INTRA.SOLV.lig_0>
-46.5296

>  <SCORE.INTRA.VDW>
0.0102719

>  <SCORE.INTRA.VDW.0>
-0.381873

>  <SCORE.INTRA.norm>
-0.0103868

>  <SCORE.RESTR>
2.64531e-05

>  <SCORE.RESTR.CAVITY>
2.64531e-05

>  <SCORE.RESTR.norm>
2.03486e-06

>  <SCORE.SYSTEM>
0

>  <SCORE.SYSTEM.CONST>
0

>  <SCORE.SYSTEM.DIHEDRAL>
0

>  <SCORE.SYSTEM.SOLV>
0

>  <SCORE.SYSTEM.norm>
0

>  <SCORE.heavy>
13

>  <SCORE.norm>
-1.20956

>  <RMSD>
0.914

$$$$
ligand
 OpenBabel02271912143D
libRbt.so/2013.1/901 2013/11/27
 13 14  0  0  0  0  0  0  0  0999 V2000
   -3.2118   31.6304   55.1583 N   0  0  0  0  0  0  0  0  0  0  0  0
   -2.1676   30.6916   55.1791 C   0  0  0  0  0  0  0  0  0  0  0  0
   -0.8944   31.0571   55.7561 N   0  0  0  0  0  0  0  0  0  0  0  0
   -2.3589   29.4299   54.6636 N   0  0  0  0  0  0  0  0  0  0  0  0
   -3.5955   29.0365   54.0899 C   0  0  0  0  0  0  0  0  0  0  0  0
   -4.6779   29.9808   54.0329 C   0  0  0  0  0  0  0  0  0  0  0  0
   -4.4397   31.2985   54.5761 C   0  0  0  0  0  0  0  0  0  0  0  0
   -5.4789   32.1853   54.5258 O   0  0  0  0  0  0  0  0  0  0  0  0
   -5.8131   29.3373   53.4126 C   0  0  0  0  0  0  0  0  0  0  0  0
   -5.3679   28.0509   53.1042 C   0  0  0  0  0  0  0  0  0  0  0  0
   -4.0589   27.8792   53.5165 N   0  0  0  0  0  0  0  0  0  0  0  0
   -7.1701   29.9449   53.1158 C   0  0  0  0  0  0  0  0  0  0  0  0
   -7.2689   30.5108   51.7723 N   0  0  0  0  0  0  0  0  0  0  0  0
  1  2  1  0  0  0  0
  1  7  1  0  0  0  0
  2  3  1  0  0  0  0
  2  4  2  0  0  0  0
  4  5  1  0  0  0  0
  5  6  2  0  0  0  0
  5 11  1  0  0  0  0
  6  7  1  0  0  0  0
  6  9  1  0  0  0  0
  7  8  2  0  0  0  0
  9 10  2  0  0  0  0
  9 12  1  0  0  0  0
 10 11  1  0  0  0  0
 12 13  1  0  0  0  0
M  END
>  <CHROM.1>
92.71779686,-4.36007984,30.12798389,54.07491097,0.31769621,-0.42533784,0.31721464

>  <Name>
ligand

>  <RI>
-1

>  <Rbt.Current_Directory>
/home/itssahil/PROJECTS/Mol_Feturizer/Test_systems_manuscript/rnas/4jf2

>  <Rbt.Executable>
rbdock ($Id: //depot/dev/client3/rdock/2013.1/src/exe/rbdock.cxx#4 $)

>  <Rbt.Library>
libRbt.so (2013.1, Build901 2013/11/27)

>  <Rbt.Parameter_File>
/export/apps/rDock/src/rDock_2013.1_src/data/scripts/dock_solv.prm

>  <Rbt.Receptor>
prm/pocket_docking_5.prm

>  <SCORE>
-15.776

>  <SCORE.INTER>
-15.4943

>  <SCORE.INTER.CONST>
1

>  <SCORE.INTER.POLAR>
0

>  <SCORE.INTER.ROT>
1

>  <SCORE.INTER.SOLV>
16.5133

>  <SCORE.INTER.VDW>
-20.1007

>  <SCORE.INTER.norm>
-1.19187

>  <SCORE.INTRA>
-0.281697

>  <SCORE.INTRA.DIHEDRAL>
-0.18541

>  <SCORE.INTRA.DIHEDRAL.0>
1.75624

>  <SCORE.INTRA.POLAR>
0

>  <SCORE.INTRA.POLAR.0>
0

>  <SCORE.INTRA.REPUL>
0

>  <SCORE.INTRA.REPUL.0>
0

>  <SCORE.INTRA.SOLV>
-0.475336

>  <SCORE.INTRA.SOLV.lig_0>
-46.5296

>  <SCORE.INTRA.VDW>
0.0486755

>  <SCORE.INTRA.VDW.0>
-0.381873

>  <SCORE.INTRA.norm>
-0.021669

>  <SCORE.RESTR>
0

>  <SCORE.RESTR.CAVITY>
0

>  <SCORE.RESTR.norm>
0

>  <SCORE.SYSTEM>
0

>  <SCORE.SYSTEM.CONST>
0

>  <SCORE.SYSTEM.DIHEDRAL>
0

>  <SCORE.SYSTEM.SOLV>
0

>  <SCORE.SYSTEM.norm>
0

>  <SCORE.heavy>
13

>  <SCORE.norm>
-1.21354

>  <RMSD>
0.921

$$$$
ligand
 OpenBabel02271912143D
libRbt.so/2013.1/901 2013/11/27
 13 14  0  0  0  0  0  0  0  0999 V2000
   -2.9256   31.6275   55.2867 N   0  0  0  0  0  0  0  0  0  0  0  0
   -2.0626   30.5506   55.5472 C   0  0  0  0  0  0  0  0  0  0  0  0
   -0.9132   30.7508   56.3994 N   0  0  0  0  0  0  0  0  0  0  0  0
   -2.3159   29.3117   55.0038 N   0  0  0  0  0  0  0  0  0  0  0  0
   -3.4349   29.0788   54.1633 C   0  0  0  0  0  0  0  0  0  0  0  0
   -4.3257   30.1654   53.8588 C   0  0  0  0  0  0  0  0  0  0  0  0
   -4.0254   31.4539   54.4399 C   0  0  0  0  0  0  0  0  0  0  0  0
   -4.8845   32.4775   54.1518 O   0  0  0  0  0  0  0  0  0  0  0  0
   -5.3733   29.6690   52.9964 C   0  0  0  0  0  0  0  0  0  0  0  0
   -5.0640   28.3221   52.8001 C   0  0  0  0  0  0  0  0  0  0  0  0
   -3.9217   27.9800   53.5010 N   0  0  0  0  0  0  0  0  0  0  0  0
   -6.5238   30.4531   52.3963 C   0  0  0  0  0  0  0  0  0  0  0  0
   -7.6776   30.5596   53.2866 N   0  0  0  0  0  0  0  0  0  0  0  0
  1  2  1  0  0  0  0
  1  7  1  0  0  0  0
  2  3  1  0  0  0  0
  2  4  2  0  0  0  0
  4  5  1  0  0  0  0
  5  6  2  0  0  0  0
  5 11  1  0  0  0  0
  6  7  1  0  0  0  0
  6  9  1  0  0  0  0
  7  8  2  0  0  0  0
  9 10  2  0  0  0  0
  9 12  1  0  0  0  0
 10 11  1  0  0  0  0
 12 13  1  0  0  0  0
M  END
>  <CHROM.1>
-85.50901111,-4.12505859,30.23285313,54.15284069,0.25101116,-0.49374618,0.32709016

>  <Name>
ligand

>  <RI>
0

>  <Rbt.Current_Directory>
/home/itssahil/PROJECTS/Mol_Feturizer/Test_systems_manuscript/rnas/4jf2

>  <Rbt.Executable>
rbdock ($Id: //depot/dev/client3/rdock/2013.1/src/exe/rbdock.cxx#4 $)

>  <Rbt.Library>
libRbt.so (2013.1, Build901 2013/11/27)

>  <Rbt.Parameter_File>
/export/apps/rDock/src/rDock_2013.1_src/data/scripts/dock_solv.prm

>  <Rbt.Receptor>
prm/pocket_docking_8.prm

>  <SCORE>
-14.3354

>  <SCORE.INTER>
-14.2374

>  <SCORE.INTER.CONST>
1

>  <SCORE.INTER.POLAR>
0

>  <SCORE.INTER.ROT>
1

>  <SCORE.INTER.SOLV>
16.2164

>  <SCORE.INTER.VDW>
-19.1637

>  <SCORE.INTER.norm>
-1.09518

>  <SCORE.INTRA>
-0.0986038

>  <SCORE.INTRA.DIHEDRAL>
0.0303121

>  <SCORE.INTRA.DIHEDRAL.0>
1.75624

>  <SCORE.INTRA.POLAR>
0

>  <SCORE.INTRA.POLAR.0>
0

>  <SCORE.INTRA.REPUL>
0

>  <SCORE.INTRA.REPUL.0>
0

>  <SCORE.INTRA.SOLV>
-0.284343

>  <SCORE.INTRA.SOLV.lig_0>
-46.5296

>  <SCORE.INTRA.VDW>
0.0284118

>  <SCORE.INTRA.VDW.0>
-0.381873

>  <SCORE.INTRA.norm>
-0.00758491

>  <SCORE.RESTR>
0.000589451

>  <SCORE.RESTR.CAVITY>
0.000589451

>  <SCORE.RESTR.norm>
4.53423e-05

>  <SCORE.SYSTEM>
0

>  <SCORE.SYSTEM.CONST>
0

>  <SCORE.SYSTEM.DIHEDRAL>
0

>  <SCORE.SYSTEM.SOLV>
0

>  <SCORE.SYSTEM.norm>
0

>  <SCORE.heavy>
13

>  <SCORE.norm>
-1.10272

>  <RMSD>
0.970

$$$$
ligand
 OpenBabel02271912143D
libRbt.so/2013.1/901 2013/11/27
 13 14  0  0  0  0  0  0  0  0999 V2000
   -2.9084   31.6277   55.3925 N   0  0  0  0  0  0  0  0  0  0  0  0
   -1.9899   30.5807   55.5728 C   0  0  0  0  0  0  0  0  0  0  0  0
   -0.7900   30.8126   56.3435 N   0  0  0  0  0  0  0  0  0  0  0  0
   -2.2362   29.3407   55.0289 N   0  0  0  0  0  0  0  0  0  0  0  0
   -3.4038   29.0771   54.2672 C   0  0  0  0  0  0  0  0  0  0  0  0
   -4.3535   30.1333   54.0451 C   0  0  0  0  0  0  0  0  0  0  0  0
   -4.0594   31.4242   54.6240 C   0  0  0  0  0  0  0  0  0  0  0  0
   -4.9741   32.4185   54.4150 O   0  0  0  0  0  0  0  0  0  0  0  0
   -5.4418   29.6095   53.2522 C   0  0  0  0  0  0  0  0  0  0  0  0
   -5.0983   28.2780   53.0124 C   0  0  0  0  0  0  0  0  0  0  0  0
   -3.8966   27.9698   53.6238 N   0  0  0  0  0  0  0  0  0  0  0  0
   -6.6607   30.3577   52.7490 C   0  0  0  0  0  0  0  0  0  0  0  0
   -7.9083   29.6190   52.9307 N   0  0  0  0  0  0  0  0  0  0  0  0
  1  2  1  0  0  0  0
  1  7  1  0  0  0  0
  2  3  1  0  0  0  0
  2  4  2  0  0  0  0
  4  5  1  0  0  0  0
  5  6  2  0  0  0  0
  5 11  1  0  0  0  0
  6  7  1  0  0  0  0
  6  9  1  0  0  0  0
  7  8  2  0  0  0  0
  9 10  2  0  0  0  0
  9 12  1  0  0  0  0
 10 11  1  0  0  0  0
 12 13  1  0  0  0  0
M  END
>  <CHROM.1>
-135.23636948,-4.14763708,30.14006891,54.26073472,0.32512058,-0.44290908
0.30641396

>  <Name>
ligand

>  <RI>
0

>  <Rbt.Current_Directory>
/home/itssahil/PROJECTS/Mol_Feturizer/Test_systems_manuscript/rnas/4jf2

>  <Rbt.Executable>
rbdock ($Id: //depot/dev/client3/rdock/2013.1/src/exe/rbdock.cxx#4 $)

>  <Rbt.Library>
libRbt.so (2013.1, Build901 2013/11/27)

>  <Rbt.Parameter_File>
/export/apps/rDock/src/rDock_2013.1_src/data/scripts/dock_solv.prm

>  <Rbt.Receptor>
prm/blind_docking_100.prm

>  <SCORE>
-14.4402

>  <SCORE.INTER>
-13.9757

>  <SCORE.INTER.CONST>
1

>  <SCORE.INTER.POLAR>
0

>  <SCORE.INTER.ROT>
1

>  <SCORE.INTER.SOLV>
18.604

>  <SCORE.INTER.VDW>
-19.7852

>  <SCORE.INTER.norm>
-1.07506

>  <SCORE.INTRA>
-0.464747

>  <SCORE.INTRA.DIHEDRAL>
-0.150767

>  <SCORE.INTRA.DIHEDRAL.0>
1.75624

>  <SCORE.INTRA.POLAR>
0

>  <SCORE.INTRA.POLAR.0>
0

>  <SCORE.INTRA.REPUL>
0

>  <SCORE.INTRA.REPUL.0>
0

>  <SCORE.INTRA.SOLV>
-1.04147

>  <SCORE.INTRA.SOLV.lig_0>
-46.5296

>  <SCORE.INTRA.VDW>
0.131372

>  <SCORE.INTRA.VDW.0>
-0.381873

>  <SCORE.INTRA.norm>
-0.0357498

>  <SCORE.RESTR>
0.000241421

>  <SCORE.RESTR.CAVITY>
0.000241421

>  <SCORE.RESTR.norm>
1.85708e-05

>  <SCORE.SYSTEM>
0

>  <SCORE.SYSTEM.CONST>
0

>  <SCORE.SYSTEM.DIHEDRAL>
0

>  <SCORE.SYSTEM.SOLV>
0

>  <SCORE.SYSTEM.norm>
0

>  <SCORE.heavy>
13

>  <SCORE.norm>
-1.11079

>  <RMSD>
0.984

$$$$
ligand
 OpenBabel02271912143D
libRbt.so/2013.1/901 2013/11/27
 13 14  0  0  0  0  0  0  0  0999 V2000
   -2.7021   29.2956   54.6776 N   0  0  0  0  0  0  0  0  0  0  0  0
   -2.2985   30.5139   55.2479 C   0  0  0  0  0  0  0  0  0  0  0  0
   -0.9814   30.6240   55.8313 N   0  0  0  0  0  0  0  0  0  0  0  0
   -3.1471   31.5975   55.2413 N   0  0  0  0  0  0  0  0  0  0  0  0
   -4.4468   31.5257   54.6769 C   0  0  0  0  0  0  0  0  0  0  0  0
   -4.8990   30.2867   54.1048 C   0  0  0  0  0  0  0  0  0  0  0  0
   -3.9854   29.1676   54.1358 C   0  0  0  0  0  0  0  0  0  0  0  0
   -4.4219   27.9974   53.5801 O   0  0  0  0  0  0  0  0  0  0  0  0
   -6.2395   30.4788   53.6012 C   0  0  0  0  0  0  0  0  0  0  0  0
   -6.5470   31.8059   53.9055 C   0  0  0  0  0  0  0  0  0  0  0  0
   -5.4780   32.4194   54.5331 N   0  0  0  0  0  0  0  0  0  0  0  0
   -7.1322   29.4491   52.9366 C   0  0  0  0  0  0  0  0  0  0  0  0
   -8.0934   30.0331   52.0038 N   0  0  0  0  0  0  0  0  0  0  0  0
  1  2  1  0  0  0  0
  1  7  1  0  0  0  0
  2  3  1  0  0  0  0
  2  4  2  0  0  0  0
  4  5  1  0  0  0  0
  5  6  2  0  0  0  0
  5 11  1  0  0  0  0
  6  7  1  0  0  0  0
  6  9  1  0  0  0  0
  7  8  2  0  0  0  0
  9 10  2  0  0  0  0
  9 12  1  0  0  0  0
 10 11  1  0  0  0  0
 12 13  1  0  0  0  0
M  END
>  <CHROM.1>
-152.29945970,-4.63533780,30.35564267,54.17709624,-0.17726511,0.41471544
-2.81956367

>  <Name>
ligand

>  <RI>
-1

>  <Rbt.Current_Directory>
/home/itssahil/PROJECTS/Mol_Feturizer/Test_systems_manuscript/rnas/4jf2

>  <Rbt.Executable>
rbdock ($Id: //depot/dev/client3/rdock/2013.1/src/exe/rbdock.cxx#4 $)

>  <Rbt.Library>
libRbt.so (2013.1, Build901 2013/11/27)

>  <Rbt.Parameter_File>
/export/apps/rDock/src/rDock_2013.1_src/data/scripts/dock_solv.prm

>  <Rbt.Receptor>
prm/pocket_docking_2.prm

>  <SCORE>
-13.4957

>  <SCORE.INTER>
-13.0518

>  <SCORE.INTER.CONST>
1

>  <SCORE.INTER.POLAR>
0

>  <SCORE.INTER.ROT>
1

>  <SCORE.INTER.SOLV>
17.7793

>  <SCORE.INTER.VDW>
-18.8943

>  <SCORE.INTER.norm>
-1.00398

>  <SCORE.INTRA>
-0.443903

>  <SCORE.INTRA.DIHEDRAL>
-0.187671

>  <SCORE.INTRA.DIHEDRAL.0>
1.75624

>  <SCORE.INTRA.POLAR>
0

>  <SCORE.INTRA.POLAR.0>
0

>  <SCORE.INTRA.REPUL>
0

>  <SCORE.INTRA.REPUL.0>
0

>  <SCORE.INTRA.SOLV>
-1.03099

>  <SCORE.INTRA.SOLV.lig_0>
-46.5296

>  <SCORE.INTRA.VDW>
0.165426

>  <SCORE.INTRA.VDW.0>
-0.381873

>  <SCORE.INTRA.norm>
-0.0341464

>  <SCORE.RESTR>
0

>  <SCORE.RESTR.CAVITY>
0

>  <SCORE.RESTR.norm>
0

>  <SCORE.SYSTEM>
0

>  <SCORE.SYSTEM.CONST>
0

>  <SCORE.SYSTEM.DIHEDRAL>
0

>  <SCORE.SYSTEM.SOLV>
0

>  <SCORE.SYSTEM.norm>
0

>  <SCORE.heavy>
13

>  <SCORE.norm>
-1.03813

>  <RMSD>
2.644

$$$$
ligand
 OpenBabel02271912143D
libRbt.so/2013.1/901 2013/11/27
 13 14  0  0  0  0  0  0  0  0999 V2000
   -2.7002   29.3016   54.6757 N   0  0  0  0  0  0  0  0  0  0  0  0
   -2.3019   30.5168   55.2561 C   0  0  0  0  0  0  0  0  0  0  0  0
   -0.9855   30.6275   55.8412 N   0  0  0  0  0  0  0  0  0  0  0  0
   -3.1548   31.5971   55.2577 N   0  0  0  0  0  0  0  0  0  0  0  0
   -4.4539   31.5246   54.6920 C   0  0  0  0  0  0  0  0  0  0  0  0
   -4.9008   30.2885   54.1096 C   0  0  0  0  0  0  0  0  0  0  0  0
   -3.9827   29.1729   54.1321 C   0  0  0  0  0  0  0  0  0  0  0  0
   -4.4142   28.0054   53.5667 O   0  0  0  0  0  0  0  0  0  0  0  0
   -6.2418   30.4793   53.6068 C   0  0  0  0  0  0  0  0  0  0  0  0
   -6.5548   31.8026   53.9216 C   0  0  0  0  0  0  0  0  0  0  0  0
   -5.4886   32.4153   54.5548 N   0  0  0  0  0  0  0  0  0  0  0  0
   -7.1299   29.4514   52.9334 C   0  0  0  0  0  0  0  0  0  0  0  0
   -8.0794   30.0372   51.9898 N   0  0  0  0  0  0  0  0  0  0  0  0
  1  2  1  0  0  0  0
  1  7  1  0  0  0  0
  2  3  1  0  0  0  0
  2  4  2  0  0  0  0
  4  5  1  0  0  0  0
  5  6  2  0  0  0  0
  5 11  1  0  0  0  0
  6  7  1  0  0  0  0
  6  9  1  0  0  0  0
  7  8  2  0  0  0  0
  9 10  2  0  0  0  0
  9 12  1  0  0  0  0
 10 11  1  0  0  0  0
 12 13  1  0  0  0  0
M  END
>  <CHROM.1>
-151.43361220,-4.63633475,30.35776803,54.18142466,-0.18266446,0.41507466
-2.80904607

>  <Name>
ligand

>  <RI>
-1

>  <Rbt.Current_Directory>
/home/itssahil/PROJECTS/Mol_Feturizer/Test_systems_manuscript/rnas/4jf2

>  <Rbt.Executable>
rbdock ($Id: //depot/dev/client3/rdock/2013.1/src/exe/rbdock.cxx#4 $)

>  <Rbt.Library>
libRbt.so (2013.1, Build901 2013/11/27)

>  <Rbt.Parameter_File>
/export/apps/rDock/src/rDock_2013.1_src/data/scripts/dock_solv.prm

>  <Rbt.Receptor>
prm/pocket_docking_2.prm

>  <SCORE>
-13.5106

>  <SCORE.INTER>
-13.0647

>  <SCORE.INTER.CONST>
1

>  <SCORE.INTER.POLAR>
0

>  <SCORE.INTER.ROT>
1

>  <SCORE.INTER.SOLV>
17.7232

>  <SCORE.INTER.VDW>
-18.8842

>  <SCORE.INTER.norm>
-1.00498

>  <SCORE.INTRA>
-0.445967

>  <SCORE.INTRA.DIHEDRAL>
-0.187829

>  <SCORE.INTRA.DIHEDRAL.0>
1.75624

>  <SCORE.INTRA.POLAR>
0

>  <SCORE.INTRA.POLAR.0>
0

>  <SCORE.INTRA.REPUL>
0

>  <SCORE.INTRA.REPUL.0>
0

>  <SCORE.INTRA.SOLV>
-1.03151

>  <SCORE.INTRA.SOLV.lig_0>
-46.5296

>  <SCORE.INTRA.VDW>
0.1637

>  <SCORE.INTRA.VDW.0>
-0.381873

>  <SCORE.INTRA.norm>
-0.0343052

>  <SCORE.RESTR>
2.12243e-05

>  <SCORE.RESTR.CAVITY>
2.12243e-05

>  <SCORE.RESTR.norm>
1.63264e-06

>  <SCORE.SYSTEM>
0

>  <SCORE.SYSTEM.CONST>
0

>  <SCORE.SYSTEM.DIHEDRAL>
0

>  <SCORE.SYSTEM.SOLV>
0

>  <SCORE.SYSTEM.norm>
0

>  <SCORE.heavy>
13

>  <SCORE.norm>
-1.03928

>  <RMSD>
2.646

$$$$
ligand
 OpenBabel02271912143D
libRbt.so/2013.1/901 2013/11/27
 13 14  0  0  0  0  0  0  0  0999 V2000
   -2.7171   29.3315   54.6314 N   0  0  0  0  0  0  0  0  0  0  0  0
   -2.3130   30.5430   55.2156 C   0  0  0  0  0  0  0  0  0  0  0  0
   -0.9829   30.6570   55.7681 N   0  0  0  0  0  0  0  0  0  0  0  0
   -3.1734   31.6166   55.2516 N   0  0  0  0  0  0  0  0  0  0  0  0
   -4.4860   31.5407   54.7185 C   0  0  0  0  0  0  0  0  0  0  0  0
   -4.9386   30.3080   54.1332 C   0  0  0  0  0  0  0  0  0  0  0  0
   -4.0121   29.1992   54.1192 C   0  0  0  0  0  0  0  0  0  0  0  0
   -4.4494   28.0351   53.5514 O   0  0  0  0  0  0  0  0  0  0  0  0
   -6.2934   30.4943   53.6671 C   0  0  0  0  0  0  0  0  0  0  0  0
   -6.6079   31.8115   54.0053 C   0  0  0  0  0  0  0  0  0  0  0  0
   -5.5305   32.4250   54.6182 N   0  0  0  0  0  0  0  0  0  0  0  0
   -7.1909   29.4675   53.0046 C   0  0  0  0  0  0  0  0  0  0  0  0
   -8.0730   30.0396   51.9898 N   0  0  0  0  0  0  0  0  0  0  0  0
  1  2  1  0  0  0  0
  1  7  1  0  0  0  0
  2  3  1  0  0  0  0
  2  4  2  0  0  0  0
  4  5  1  0  0  0  0
  5  6  2  0  0  0  0
  5 11  1  0  0  0  0
  6  7  1  0  0  0  0
  6  9  1  0  0  0  0
  7  8  2  0  0  0  0
  9 10  2  0  0  0  0
  9 12  1  0  0  0  0
 10 11  1  0  0  0  0
 12 13  1  0  0  0  0
M  END
>  <CHROM.1>
-145.39602940,-4.66515895,30.37703137,54.19072627,-0.18892871,0.39567636
-2.79304890

>  <Name>
ligand

>  <RI>
-1

>  <Rbt.Current_Directory>
/home/itssahil/PROJECTS/Mol_Feturizer/Test_systems_manuscript/rnas/4jf2

>  <Rbt.Executable>
rbdock ($Id: //depot/dev/client3/rdock/2013.1/src/exe/rbdock.cxx#4 $)

>  <Rbt.Library>
libRbt.so (2013.1, Build901 2013/11/27)

>  <Rbt.Parameter_File>
/export/apps/rDock/src/rDock_2013.1_src/data/scripts/dock_solv.prm

>  <Rbt.Receptor>
prm/pocket_docking_2.prm

>  <SCORE>
-13.483

>  <SCORE.INTER>
-13.0256

>  <SCORE.INTER.CONST>
1

>  <SCORE.INTER.POLAR>
0

>  <SCORE.INTER.ROT>
1

>  <SCORE.INTER.SOLV>
17.8623

>  <SCORE.INTER.VDW>
-18.9045

>  <SCORE.INTER.norm>
-1.00197

>  <SCORE.INTRA>
-0.457396

>  <SCORE.INTRA.DIHEDRAL>
-0.182597

>  <SCORE.INTRA.DIHEDRAL.0>
1.75624

>  <SCORE.INTRA.POLAR>
0

>  <SCORE.INTRA.POLAR.0>
0

>  <SCORE.INTRA.REPUL>
0

>  <SCORE.INTRA.REPUL.0>
0

>  <SCORE.INTRA.SOLV>
-1.03521

>  <SCORE.INTRA.SOLV.lig_0>
-46.5296

>  <SCORE.INTRA.VDW>
0.151506

>  <SCORE.INTRA.VDW.0>
-0.381873

>  <SCORE.INTRA.norm>
-0.0351843

>  <SCORE.RESTR>
0

>  <SCORE.RESTR.CAVITY>
0

>  <SCORE.RESTR.norm>
0

>  <SCORE.SYSTEM>
0

>  <SCORE.SYSTEM.CONST>
0

>  <SCORE.SYSTEM.DIHEDRAL>
0

>  <SCORE.SYSTEM.SOLV>
0

>  <SCORE.SYSTEM.norm>
0

>  <SCORE.heavy>
13

>  <SCORE.norm>
-1.03715

>  <RMSD>
2.649

$$$$
ligand
 OpenBabel02271912143D
libRbt.so/2013.1/901 2013/11/27
 13 14  0  0  0  0  0  0  0  0999 V2000
   -2.6482   29.3923   54.5455 N   0  0  0  0  0  0  0  0  0  0  0  0
   -2.3057   30.6409   55.0895 C   0  0  0  0  0  0  0  0  0  0  0  0
   -0.9735   30.8490   55.6084 N   0  0  0  0  0  0  0  0  0  0  0  0
   -3.2286   31.6616   55.1180 N   0  0  0  0  0  0  0  0  0  0  0  0
   -4.5452   31.4931   54.6170 C   0  0  0  0  0  0  0  0  0  0  0  0
   -4.9348   30.2204   54.0736 C   0  0  0  0  0  0  0  0  0  0  0  0
   -3.9434   29.1691   54.0665 C   0  0  0  0  0  0  0  0  0  0  0  0
   -4.3214   27.9662   53.5384 O   0  0  0  0  0  0  0  0  0  0  0  0
   -6.3080   30.3127   53.6339 C   0  0  0  0  0  0  0  0  0  0  0  0
   -6.6943   31.6173   53.9458 C   0  0  0  0  0  0  0  0  0  0  0  0
   -5.6431   32.3103   54.5182 N   0  0  0  0  0  0  0  0  0  0  0  0
   -7.1556   29.2168   53.0182 C   0  0  0  0  0  0  0  0  0  0  0  0
   -6.6945   28.8039   51.6946 N   0  0  0  0  0  0  0  0  0  0  0  0
  1  2  1  0  0  0  0
  1  7  1  0  0  0  0
  2  3  1  0  0  0  0
  2  4  2  0  0  0  0
  4  5  1  0  0  0  0
  5  6  2  0  0  0  0
  5 11  1  0  0  0  0
  6  7  1  0  0  0  0
  6  9  1  0  0  0  0
  7  8  2  0  0  0  0
  9 10  2  0  0  0  0
  9 12  1  0  0  0  0
 10 11  1  0  0  0  0
 12 13  1  0  0  0  0
M  END
>  <CHROM.1>
-67.12780742,-4.55110206,30.23363321,54.09742532,-0.38283828,0.35429095,-2.73511115

>  <Name>
ligand

>  <RI>
-1

>  <Rbt.Current_Directory>
/home/itssahil/PROJECTS/Mol_Feturizer/Test_systems_manuscript/rnas/4jf2

>  <Rbt.Executable>
rbdock ($Id: //depot/dev/client3/rdock/2013.1/src/exe/rbdock.cxx#4 $)

>  <Rbt.Library>
libRbt.so (2013.1, Build901 2013/11/27)

>  <Rbt.Parameter_File>
/export/apps/rDock/src/rDock_2013.1_src/data/scripts/dock_solv.prm

>  <Rbt.Receptor>
prm/pocket_docking_2.prm

>  <SCORE>
-13.3717

>  <SCORE.INTER>
-13.4531

>  <SCORE.INTER.CONST>
1

>  <SCORE.INTER.POLAR>
0

>  <SCORE.INTER.ROT>
1

>  <SCORE.INTER.SOLV>
19.1922

>  <SCORE.INTER.VDW>
-19.6328

>  <SCORE.INTER.norm>
-1.03485

>  <SCORE.INTRA>
0.0813672

>  <SCORE.INTRA.DIHEDRAL>
-0.0425465

>  <SCORE.INTRA.DIHEDRAL.0>
1.75624

>  <SCORE.INTRA.POLAR>
0

>  <SCORE.INTRA.POLAR.0>
0

>  <SCORE.INTRA.REPUL>
0

>  <SCORE.INTRA.REPUL.0>
0

>  <SCORE.INTRA.SOLV>
0.245332

>  <SCORE.INTRA.SOLV.lig_0>
-46.5296

>  <SCORE.INTRA.VDW>
-0.0200258

>  <SCORE.INTRA.VDW.0>
-0.381873

>  <SCORE.INTRA.norm>
0.00625901

>  <SCORE.RESTR>
0

>  <SCORE.RESTR.CAVITY>
0

>  <SCORE.RESTR.norm>
0

>  <SCORE.SYSTEM>
0

>  <SCORE.SYSTEM.CONST>
0

>  <SCORE.SYSTEM.DIHEDRAL>
0

>  <SCORE.SYSTEM.SOLV>
0

>  <SCORE.SYSTEM.norm>
0

>  <SCORE.heavy>
13

>  <SCORE.norm>
-1.02859

>  <RMSD>
2.714

$$$$
ligand
 OpenBabel02271912143D
libRbt.so/2013.1/901 2013/11/27
 13 14  0  0  0  0  0  0  0  0999 V2000
   -2.4530   29.4094   54.6506 N   0  0  0  0  0  0  0  0  0  0  0  0
   -2.1473   30.6650   55.2005 C   0  0  0  0  0  0  0  0  0  0  0  0
   -0.8286   30.9025   55.7408 N   0  0  0  0  0  0  0  0  0  0  0  0
   -3.0932   31.6647   55.2148 N   0  0  0  0  0  0  0  0  0  0  0  0
   -4.3976   31.4671   54.6928 C   0  0  0  0  0  0  0  0  0  0  0  0
   -4.7498   30.1864   54.1427 C   0  0  0  0  0  0  0  0  0  0  0  0
   -3.7350   29.1576   54.1510 C   0  0  0  0  0  0  0  0  0  0  0  0
   -4.0776   27.9469   53.6165 O   0  0  0  0  0  0  0  0  0  0  0  0
   -6.1175   30.2482   53.6813 C   0  0  0  0  0  0  0  0  0  0  0  0
   -6.5379   31.5435   53.9875 C   0  0  0  0  0  0  0  0  0  0  0  0
   -5.5118   32.2595   54.5769 N   0  0  0  0  0  0  0  0  0  0  0  0
   -6.9304   29.1340   53.0517 C   0  0  0  0  0  0  0  0  0  0  0  0
   -6.7881   29.0641   51.5991 N   0  0  0  0  0  0  0  0  0  0  0  0
  1  2  1  0  0  0  0
  1  7  1  0  0  0  0
  2  3  1  0  0  0  0
  2  4  2  0  0  0  0
  4  5  1  0  0  0  0
  5  6  2  0  0  0  0
  5 11  1  0  0  0  0
  6  7  1  0  0  0  0
  6  9  1  0  0  0  0
  7  8  2  0  0  0  0
  9 10  2  0  0  0  0
  9 12  1  0  0  0  0
 10 11  1  0  0  0  0
 12 13  1  0  0  0  0
M  END
>  <CHROM.1>
-88.61071536,-4.39530866,30.23517915,54.16158265,-0.37727272,0.37505768,-2.72953732

>  <Name>
ligand

>  <RI>
-1

>  <Rbt.Current_Directory>
/home/itssahil/PROJECTS/Mol_Feturizer/Test_systems_manuscript/rnas/4jf2

>  <Rbt.Executable>
rbdock ($Id: //depot/dev/client3/rdock/2013.1/src/exe/rbdock.cxx#4 $)

>  <Rbt.Library>
libRbt.so (2013.1, Build901 2013/11/27)

>  <Rbt.Parameter_File>
/export/apps/rDock/src/rDock_2013.1_src/data/scripts/dock_solv.prm

>  <Rbt.Receptor>
prm/blind_docking_80.prm

>  <SCORE>
-13.9862

>  <SCORE.INTER>
-13.8542

>  <SCORE.INTER.CONST>
1

>  <SCORE.INTER.POLAR>
0

>  <SCORE.INTER.ROT>
1

>  <SCORE.INTER.SOLV>
18.8387

>  <SCORE.INTER.VDW>
-19.7823

>  <SCORE.INTER.norm>
-1.06571

>  <SCORE.INTRA>
-0.132074

>  <SCORE.INTRA.DIHEDRAL>
0.0342701

>  <SCORE.INTRA.DIHEDRAL.0>
1.75624

>  <SCORE.INTRA.POLAR>
0

>  <SCORE.INTRA.POLAR.0>
0

>  <SCORE.INTRA.REPUL>
0

>  <SCORE.INTRA.REPUL.0>
0

>  <SCORE.INTRA.SOLV>
-0.372337

>  <SCORE.INTRA.SOLV.lig_0>
-46.5296

>  <SCORE.INTRA.VDW>
0.03696

>  <SCORE.INTRA.VDW.0>
-0.381873

>  <SCORE.INTRA.norm>
-0.0101595

>  <SCORE.RESTR>
0

>  <SCORE.RESTR.CAVITY>
0

>  <SCORE.RESTR.norm>
0

>  <SCORE.SYSTEM>
0

>  <SCORE.SYSTEM.CONST>
0

>  <SCORE.SYSTEM.DIHEDRAL>
0

>  <SCORE.SYSTEM.SOLV>
0

>  <SCORE.SYSTEM.norm>
0

>  <SCORE.heavy>
13

>  <SCORE.norm>
-1.07586

>  <RMSD>
2.727

$$$$
ligand
 OpenBabel02271912143D
libRbt.so/2013.1/901 2013/11/27
 13 14  0  0  0  0  0  0  0  0999 V2000
   -2.3900   29.4317   54.7396 N   0  0  0  0  0  0  0  0  0  0  0  0
   -2.0544   30.6347   55.3818 C   0  0  0  0  0  0  0  0  0  0  0  0
   -0.7642   30.7645   56.0190 N   0  0  0  0  0  0  0  0  0  0  0  0
   -2.9433   31.6854   55.3947 N   0  0  0  0  0  0  0  0  0  0  0  0
   -4.2182   31.5935   54.7790 C   0  0  0  0  0  0  0  0  0  0  0  0
   -4.6016   30.3681   54.1321 C   0  0  0  0  0  0  0  0  0  0  0  0
   -3.6472   29.2832   54.1444 C   0  0  0  0  0  0  0  0  0  0  0  0
   -4.0181   28.1262   53.5178 O   0  0  0  0  0  0  0  0  0  0  0  0
   -5.9296   30.5351   53.5881 C   0  0  0  0  0  0  0  0  0  0  0  0
   -6.2987   31.8336   53.9431 C   0  0  0  0  0  0  0  0  0  0  0  0
   -5.2773   32.4546   54.6389 N   0  0  0  0  0  0  0  0  0  0  0  0
   -6.7575   29.5070   52.8423 C   0  0  0  0  0  0  0  0  0  0  0  0
   -7.3750   30.0332   51.6270 N   0  0  0  0  0  0  0  0  0  0  0  0
  1  2  1  0  0  0  0
  1  7  1  0  0  0  0
  2  3  1  0  0  0  0
  2  4  2  0  0  0  0
  4  5  1  0  0  0  0
  5  6  2  0  0  0  0
  5 11  1  0  0  0  0
  6  7  1  0  0  0  0
  6  9  1  0  0  0  0
  7  8  2  0  0  0  0
  9 10  2  0  0  0  0
  9 12  1  0  0  0  0
 10 11  1  0  0  0  0
 12 13  1  0  0  0  0
M  END
>  <CHROM.1>
-133.59161359,-4.31652702,30.43765893,54.19506628,-0.25881584,0.45512810
-2.73115837

>  <Name>
ligand

>  <RI>
-1

>  <Rbt.Current_Directory>
/home/itssahil/PROJECTS/Mol_Feturizer/Test_systems_manuscript/rnas/4jf2

>  <Rbt.Executable>
rbdock ($Id: //depot/dev/client3/rdock/2013.1/src/exe/rbdock.cxx#4 $)

>  <Rbt.Library>
libRbt.so (2013.1, Build901 2013/11/27)

>  <Rbt.Parameter_File>
/export/apps/rDock/src/rDock_2013.1_src/data/scripts/dock_solv.prm

>  <Rbt.Receptor>
prm/pocket_docking_5.prm

>  <SCORE>
-14.3236

>  <SCORE.INTER>
-13.8594

>  <SCORE.INTER.CONST>
1

>  <SCORE.INTER.POLAR>
0

>  <SCORE.INTER.ROT>
1

>  <SCORE.INTER.SOLV>
16.5699

>  <SCORE.INTER.VDW>
-19.0296

>  <SCORE.INTER.norm>
-1.06611

>  <SCORE.INTRA>
-0.464197

>  <SCORE.INTRA.DIHEDRAL>
-0.143346

>  <SCORE.INTRA.DIHEDRAL.0>
1.75624

>  <SCORE.INTRA.POLAR>
0

>  <SCORE.INTRA.POLAR.0>
0

>  <SCORE.INTRA.REPUL>
0

>  <SCORE.INTRA.REPUL.0>
0

>  <SCORE.INTRA.SOLV>
-1.04151

>  <SCORE.INTRA.SOLV.lig_0>
-46.5296

>  <SCORE.INTRA.VDW>
0.128232

>  <SCORE.INTRA.VDW.0>
-0.381873

>  <SCORE.INTRA.norm>
-0.0357075

>  <SCORE.RESTR>
0

>  <SCORE.RESTR.CAVITY>
0

>  <SCORE.RESTR.norm>
0

>  <SCORE.SYSTEM>
0

>  <SCORE.SYSTEM.CONST>
0

>  <SCORE.SYSTEM.DIHEDRAL>
0

>  <SCORE.SYSTEM.SOLV>
0

>  <SCORE.SYSTEM.norm>
0

>  <SCORE.heavy>
13

>  <SCORE.norm>
-1.10181

>  <RMSD>
2.741

$$$$
ligand
 OpenBabel02271912143D
libRbt.so/2013.1/901 2013/11/27
 13 14  0  0  0  0  0  0  0  0999 V2000
   -2.3678   29.4338   54.7306 N   0  0  0  0  0  0  0  0  0  0  0  0
   -2.0322   30.6393   55.3680 C   0  0  0  0  0  0  0  0  0  0  0  0
   -0.7401   30.7735   56.0003 N   0  0  0  0  0  0  0  0  0  0  0  0
   -2.9230   31.6884   55.3807 N   0  0  0  0  0  0  0  0  0  0  0  0
   -4.1998   31.5923   54.7697 C   0  0  0  0  0  0  0  0  0  0  0  0
   -4.5831   30.3643   54.1278 C   0  0  0  0  0  0  0  0  0  0  0  0
   -3.6267   29.2812   54.1401 C   0  0  0  0  0  0  0  0  0  0  0  0
   -3.9976   28.1217   53.5182 O   0  0  0  0  0  0  0  0  0  0  0  0
   -5.9133   30.5273   53.5879 C   0  0  0  0  0  0  0  0  0  0  0  0
   -6.2836   31.8261   53.9403 C   0  0  0  0  0  0  0  0  0  0  0  0
   -5.2610   32.4511   54.6308 N   0  0  0  0  0  0  0  0  0  0  0  0
   -6.7418   29.4954   52.8480 C   0  0  0  0  0  0  0  0  0  0  0  0
   -7.3770   30.0209   51.6415 N   0  0  0  0  0  0  0  0  0  0  0  0
  1  2  1  0  0  0  0
  1  7  1  0  0  0  0
  2  3  1  0  0  0  0
  2  4  2  0  0  0  0
  4  5  1  0  0  0  0
  5  6  2  0  0  0  0
  5 11  1  0  0  0  0
  6  7  1  0  0  0  0
  6  9  1  0  0  0  0
  7  8  2  0  0  0  0
  9 10  2  0  0  0  0
  9 12  1  0  0  0  0
 10 11  1  0  0  0  0
 12 13  1  0  0  0  0
M  END
>  <CHROM.1>
-134.25127176,-4.29901316,30.43490788,54.19027591,-0.25800171,0.45072199
-2.73471382

>  <Name>
ligand

>  <RI>
-1

>  <Rbt.Current_Directory>
/home/itssahil/PROJECTS/Mol_Feturizer/Test_systems_manuscript/rnas/4jf2

>  <Rbt.Executable>
rbdock ($Id: //depot/dev/client3/rdock/2013.1/src/exe/rbdock.cxx#4 $)

>  <Rbt.Library>
libRbt.so (2013.1, Build901 2013/11/27)

>  <Rbt.Parameter_File>
/export/apps/rDock/src/rDock_2013.1_src/data/scripts/dock_solv.prm

>  <Rbt.Receptor>
prm/pocket_docking_5.prm

>  <SCORE>
-14.2877

>  <SCORE.INTER>
-13.823

>  <SCORE.INTER.CONST>
1

>  <SCORE.INTER.POLAR>
0

>  <SCORE.INTER.ROT>
1

>  <SCORE.INTER.SOLV>
16.6199

>  <SCORE.INTER.VDW>
-19.022

>  <SCORE.INTER.norm>
-1.06331

>  <SCORE.INTRA>
-0.464736

>  <SCORE.INTRA.DIHEDRAL>
-0.146385

>  <SCORE.INTRA.DIHEDRAL.0>
1.75624

>  <SCORE.INTRA.POLAR>
0

>  <SCORE.INTRA.POLAR.0>
0

>  <SCORE.INTRA.REPUL>
0

>  <SCORE.INTRA.REPUL.0>
0

>  <SCORE.INTRA.SOLV>
-1.04206

>  <SCORE.INTRA.SOLV.lig_0>
-46.5296

>  <SCORE.INTRA.VDW>
0.129487

>  <SCORE.INTRA.VDW.0>
-0.381873

>  <SCORE.INTRA.norm>
-0.0357489

>  <SCORE.RESTR>
0

>  <SCORE.RESTR.CAVITY>
0

>  <SCORE.RESTR.norm>
0

>  <SCORE.SYSTEM>
0

>  <SCORE.SYSTEM.CONST>
0

>  <SCORE.SYSTEM.DIHEDRAL>
0

>  <SCORE.SYSTEM.SOLV>
0

>  <SCORE.SYSTEM.norm>
0

>  <SCORE.heavy>
13

>  <SCORE.norm>
-1.09906

>  <RMSD>
2.741

$$$$
ligand
 OpenBabel02271912143D
libRbt.so/2013.1/901 2013/11/27
 13 14  0  0  0  0  0  0  0  0999 V2000
   -2.3833   29.4319   54.7327 N   0  0  0  0  0  0  0  0  0  0  0  0
   -2.0447   30.6336   55.3756 C   0  0  0  0  0  0  0  0  0  0  0  0
   -0.7520   30.7619   56.0080 N   0  0  0  0  0  0  0  0  0  0  0  0
   -2.9331   31.6847   55.3937 N   0  0  0  0  0  0  0  0  0  0  0  0
   -4.2105   31.5943   54.7828 C   0  0  0  0  0  0  0  0  0  0  0  0
   -4.5968   30.3702   54.1354 C   0  0  0  0  0  0  0  0  0  0  0  0
   -3.6428   29.2849   54.1421 C   0  0  0  0  0  0  0  0  0  0  0  0
   -4.0166   28.1291   53.5150 O   0  0  0  0  0  0  0  0  0  0  0  0
   -5.9269   30.5386   53.5968 C   0  0  0  0  0  0  0  0  0  0  0  0
   -6.2941   31.8366   53.9555 C   0  0  0  0  0  0  0  0  0  0  0  0
   -5.2698   32.4560   54.6483 N   0  0  0  0  0  0  0  0  0  0  0  0
   -6.7580   29.5120   52.8524 C   0  0  0  0  0  0  0  0  0  0  0  0
   -7.3750   30.0388   51.6371 N   0  0  0  0  0  0  0  0  0  0  0  0
  1  2  1  0  0  0  0
  1  7  1  0  0  0  0
  2  3  1  0  0  0  0
  2  4  2  0  0  0  0
  4  5  1  0  0  0  0
  5  6  2  0  0  0  0
  5 11  1  0  0  0  0
  6  7  1  0  0  0  0
  6  9  1  0  0  0  0
  7  8  2  0  0  0  0
  9 10  2  0  0  0  0
  9 12  1  0  0  0  0
 10 11  1  0  0  0  0
 12 13  1  0  0  0  0
M  END
>  <CHROM.1>
-133.32018190,-4.31108231,30.43933561,54.19704998,-0.25718853,0.45192887
-2.73009566

>  <Name>
ligand

>  <RI>
-1

>  <Rbt.Current_Directory>
/home/itssahil/PROJECTS/Mol_Feturizer/Test_systems_manuscript/rnas/4jf2

>  <Rbt.Executable>
rbdock ($Id: //depot/dev/client3/rdock/2013.1/src/exe/rbdock.cxx#4 $)

>  <Rbt.Library>
libRbt.so (2013.1, Build901 2013/11/27)

>  <Rbt.Parameter_File>
/export/apps/rDock/src/rDock_2013.1_src/data/scripts/dock_solv.prm

>  <Rbt.Receptor>
prm/pocket_docking_4.prm

>  <SCORE>
-14.3271

>  <SCORE.INTER>
-13.8644

>  <SCORE.INTER.CONST>
1

>  <SCORE.INTER.POLAR>
0

>  <SCORE.INTER.ROT>
1

>  <SCORE.INTER.SOLV>
16.554

>  <SCORE.INTER.VDW>
-19.0276

>  <SCORE.INTER.norm>
-1.06649

>  <SCORE.INTRA>
-0.462664

>  <SCORE.INTRA.DIHEDRAL>
-0.142073

>  <SCORE.INTRA.DIHEDRAL.0>
1.75624

>  <SCORE.INTRA.POLAR>
0

>  <SCORE.INTRA.POLAR.0>
0

>  <SCORE.INTRA.REPUL>
0

>  <SCORE.INTRA.REPUL.0>
0

>  <SCORE.INTRA.SOLV>
-1.03869

>  <SCORE.INTRA.SOLV.lig_0>
-46.5296

>  <SCORE.INTRA.VDW>
0.127718

>  <SCORE.INTRA.VDW.0>
-0.381873

>  <SCORE.INTRA.norm>
-0.0355895

>  <SCORE.RESTR>
0

>  <SCORE.RESTR.CAVITY>
0

>  <SCORE.RESTR.norm>
0

>  <SCORE.SYSTEM>
0

>  <SCORE.SYSTEM.CONST>
0

>  <SCORE.SYSTEM.DIHEDRAL>
0

>  <SCORE.SYSTEM.SOLV>
0

>  <SCORE.SYSTEM.norm>
0

>  <SCORE.heavy>
13

>  <SCORE.norm>
-1.10208

>  <RMSD>
2.742

$$$$
ligand
 OpenBabel02271912143D
libRbt.so/2013.1/901 2013/11/27
 13 14  0  0  0  0  0  0  0  0999 V2000
   -2.3483   29.4361   54.7402 N   0  0  0  0  0  0  0  0  0  0  0  0
   -2.0171   30.6430   55.3772 C   0  0  0  0  0  0  0  0  0  0  0  0
   -0.7237   30.7837   56.0054 N   0  0  0  0  0  0  0  0  0  0  0  0
   -2.9134   31.6874   55.3933 N   0  0  0  0  0  0  0  0  0  0  0  0
   -4.1917   31.5848   54.7864 C   0  0  0  0  0  0  0  0  0  0  0  0
   -4.5705   30.3552   54.1451 C   0  0  0  0  0  0  0  0  0  0  0  0
   -3.6083   29.2771   54.1537 C   0  0  0  0  0  0  0  0  0  0  0  0
   -3.9751   28.1159   53.5324 O   0  0  0  0  0  0  0  0  0  0  0  0
   -5.9033   30.5113   53.6095 C   0  0  0  0  0  0  0  0  0  0  0  0
   -6.2793   31.8079   53.9638 C   0  0  0  0  0  0  0  0  0  0  0  0
   -5.2578   32.4380   54.6513 N   0  0  0  0  0  0  0  0  0  0  0  0
   -6.7287   29.4754   52.8717 C   0  0  0  0  0  0  0  0  0  0  0  0
   -7.3651   29.9964   51.6640 N   0  0  0  0  0  0  0  0  0  0  0  0
  1  2  1  0  0  0  0
  1  7  1  0  0  0  0
  2  3  1  0  0  0  0
  2  4  2  0  0  0  0
  4  5  1  0  0  0  0
  5  6  2  0  0  0  0
  5 11  1  0  0  0  0
  6  7  1  0  0  0  0
  6  9  1  0  0  0  0
  7  8  2  0  0  0  0
  9 10  2  0  0  0  0
  9 12  1  0  0  0  0
 10 11  1  0  0  0  0
 12 13  1  0  0  0  0
M  END
>  <CHROM.1>
-133.96606631,-4.28614514,30.42704621,54.20635346,-0.26249990,0.44588614
-2.73215344

>  <Name>
ligand

>  <RI>
-1

>  <Rbt.Current_Directory>
/home/itssahil/PROJECTS/Mol_Feturizer/Test_systems_manuscript/rnas/4jf2

>  <Rbt.Executable>
rbdock ($Id: //depot/dev/client3/rdock/2013.1/src/exe/rbdock.cxx#4 $)

>  <Rbt.Library>
libRbt.so (2013.1, Build901 2013/11/27)

>  <Rbt.Parameter_File>
/export/apps/rDock/src/rDock_2013.1_src/data/scripts/dock_solv.prm

>  <Rbt.Receptor>
prm/pocket_docking_5.prm

>  <SCORE>
-14.2912

>  <SCORE.INTER>
-13.8265

>  <SCORE.INTER.CONST>
1

>  <SCORE.INTER.POLAR>
0

>  <SCORE.INTER.ROT>
1

>  <SCORE.INTER.SOLV>
16.6645

>  <SCORE.INTER.VDW>
-19.0392

>  <SCORE.INTER.norm>
-1.06358

>  <SCORE.INTRA>
-0.464712

>  <SCORE.INTRA.DIHEDRAL>
-0.145082

>  <SCORE.INTRA.DIHEDRAL.0>
1.75624

>  <SCORE.INTRA.POLAR>
0

>  <SCORE.INTRA.POLAR.0>
0

>  <SCORE.INTRA.REPUL>
0

>  <SCORE.INTRA.REPUL.0>
0

>  <SCORE.INTRA.SOLV>
-1.04223

>  <SCORE.INTRA.SOLV.lig_0>
-46.5296

>  <SCORE.INTRA.VDW>
0.128944

>  <SCORE.INTRA.VDW.0>
-0.381873

>  <SCORE.INTRA.norm>
-0.0357471

>  <SCORE.RESTR>
0

>  <SCORE.RESTR.CAVITY>
0

>  <SCORE.RESTR.norm>
0

>  <SCORE.SYSTEM>
0

>  <SCORE.SYSTEM.CONST>
0

>  <SCORE.SYSTEM.DIHEDRAL>
0

>  <SCORE.SYSTEM.SOLV>
0

>  <SCORE.SYSTEM.norm>
0

>  <SCORE.heavy>
13

>  <SCORE.norm>
-1.09932

>  <RMSD>
2.743

$$$$
ligand
 OpenBabel02271912143D
libRbt.so/2013.1/901 2013/11/27
 13 14  0  0  0  0  0  0  0  0999 V2000
   -2.3594   29.4085   54.7571 N   0  0  0  0  0  0  0  0  0  0  0  0
   -2.0356   30.6481   55.3321 C   0  0  0  0  0  0  0  0  0  0  0  0
   -0.7313   30.8384   55.9237 N   0  0  0  0  0  0  0  0  0  0  0  0
   -2.9497   31.6770   55.3225 N   0  0  0  0  0  0  0  0  0  0  0  0
   -4.2391   31.5260   54.7502 C   0  0  0  0  0  0  0  0  0  0  0  0
   -4.6102   30.2627   54.1729 C   0  0  0  0  0  0  0  0  0  0  0  0
   -3.6291   29.2024   54.2073 C   0  0  0  0  0  0  0  0  0  0  0  0
   -3.9889   28.0086   53.6467 O   0  0  0  0  0  0  0  0  0  0  0  0
   -5.9571   30.3723   53.6617 C   0  0  0  0  0  0  0  0  0  0  0  0
   -6.3481   31.6771   53.9667 C   0  0  0  0  0  0  0  0  0  0  0  0
   -5.3230   32.3543   54.6019 N   0  0  0  0  0  0  0  0  0  0  0  0
   -6.7802   29.2908   52.9897 C   0  0  0  0  0  0  0  0  0  0  0  0
   -6.6147   29.2561   51.5383 N   0  0  0  0  0  0  0  0  0  0  0  0
  1  2  1  0  0  0  0
  1  7  1  0  0  0  0
  2  3  1  0  0  0  0
  2  4  2  0  0  0  0
  4  5  1  0  0  0  0
  5  6  2  0  0  0  0
  5 11  1  0  0  0  0
  6  7  1  0  0  0  0
  6  9  1  0  0  0  0
  7  8  2  0  0  0  0
  9 10  2  0  0  0  0
  9 12  1  0  0  0  0
 10 11  1  0  0  0  0
 12 13  1  0  0  0  0
M  END
>  <CHROM.1>
-90.25452422,-4.25773901,30.30207449,54.20515053,-0.35924400,0.42277729,-2.72574336

>  <Name>
ligand

>  <RI>
-1

>  <Rbt.Current_Directory>
/home/itssahil/PROJECTS/Mol_Feturizer/Test_systems_manuscript/rnas/4jf2

>  <Rbt.Executable>
rbdock ($Id: //depot/dev/client3/rdock/2013.1/src/exe/rbdock.cxx#4 $)

>  <Rbt.Library>
libRbt.so (2013.1, Build901 2013/11/27)

>  <Rbt.Parameter_File>
/export/apps/rDock/src/rDock_2013.1_src/data/scripts/dock_solv.prm

>  <Rbt.Receptor>
prm/pocket_docking_5.prm

>  <SCORE>
-14.0024

>  <SCORE.INTER>
-13.8537

>  <SCORE.INTER.CONST>
1

>  <SCORE.INTER.POLAR>
0

>  <SCORE.INTER.ROT>
1

>  <SCORE.INTER.SOLV>
18.086

>  <SCORE.INTER.VDW>
-19.5312

>  <SCORE.INTER.norm>
-1.06567

>  <SCORE.INTRA>
-0.148649

>  <SCORE.INTRA.DIHEDRAL>
0.0351921

>  <SCORE.INTRA.DIHEDRAL.0>
1.75624

>  <SCORE.INTRA.POLAR>
0

>  <SCORE.INTRA.POLAR.0>
0

>  <SCORE.INTRA.REPUL>
0

>  <SCORE.INTRA.REPUL.0>
0

>  <SCORE.INTRA.SOLV>
-0.415163

>  <SCORE.INTRA.SOLV.lig_0>
-46.5296

>  <SCORE.INTRA.VDW>
0.0413365

>  <SCORE.INTRA.VDW.0>
-0.381873

>  <SCORE.INTRA.norm>
-0.0114345

>  <SCORE.RESTR>
0

>  <SCORE.RESTR.CAVITY>
0

>  <SCORE.RESTR.norm>
0

>  <SCORE.SYSTEM>
0

>  <SCORE.SYSTEM.CONST>
0

>  <SCORE.SYSTEM.DIHEDRAL>
0

>  <SCORE.SYSTEM.SOLV>
0

>  <SCORE.SYSTEM.norm>
0

>  <SCORE.heavy>
13

>  <SCORE.norm>
-1.0771

>  <RMSD>
2.774

$$$$
ligand
 OpenBabel02271912143D
libRbt.so/2013.1/901 2013/11/27
 13 14  0  0  0  0  0  0  0  0999 V2000
   -2.3455   29.4189   54.7441 N   0  0  0  0  0  0  0  0  0  0  0  0
   -2.0252   30.6582   55.3220 C   0  0  0  0  0  0  0  0  0  0  0  0
   -0.7207   30.8516   55.9120 N   0  0  0  0  0  0  0  0  0  0  0  0
   -2.9430   31.6838   55.3164 N   0  0  0  0  0  0  0  0  0  0  0  0
   -4.2328   31.5297   54.7457 C   0  0  0  0  0  0  0  0  0  0  0  0
   -4.6002   30.2666   54.1657 C   0  0  0  0  0  0  0  0  0  0  0  0
   -3.6152   29.2097   54.1957 C   0  0  0  0  0  0  0  0  0  0  0  0
   -3.9716   28.0161   53.6326 O   0  0  0  0  0  0  0  0  0  0  0  0
   -5.9482   30.3728   53.6567 C   0  0  0  0  0  0  0  0  0  0  0  0
   -6.3435   31.6753   53.9658 C   0  0  0  0  0  0  0  0  0  0  0  0
   -5.3198   32.3545   54.6012 N   0  0  0  0  0  0  0  0  0  0  0  0
   -6.7685   29.2901   52.9832 C   0  0  0  0  0  0  0  0  0  0  0  0
   -6.6022   29.2574   51.5318 N   0  0  0  0  0  0  0  0  0  0  0  0
  1  2  1  0  0  0  0
  1  7  1  0  0  0  0
  2  3  1  0  0  0  0
  2  4  2  0  0  0  0
  4  5  1  0  0  0  0
  5  6  2  0  0  0  0
  5 11  1  0  0  0  0
  6  7  1  0  0  0  0
  6  9  1  0  0  0  0
  7  8  2  0  0  0  0
  9 10  2  0  0  0  0
  9 12  1  0  0  0  0
 10 11  1  0  0  0  0
 12 13  1  0  0  0  0
M  END
>  <CHROM.1>
-90.09522166,-4.24757200,30.30696817,54.19748101,-0.36247516,0.41985046,-2.72178510

>  <Name>
ligand

>  <RI>
-1

>  <Rbt.Current_Directory>
/home/itssahil/PROJECTS/Mol_Feturizer/Test_systems_manuscript/rnas/4jf2

>  <Rbt.Executable>
rbdock ($Id: //depot/dev/client3/rdock/2013.1/src/exe/rbdock.cxx#4 $)

>  <Rbt.Library>
libRbt.so (2013.1, Build901 2013/11/27)

>  <Rbt.Parameter_File>
/export/apps/rDock/src/rDock_2013.1_src/data/scripts/dock_solv.prm

>  <Rbt.Receptor>
prm/pocket_docking_5.prm

>  <SCORE>
-14.0238

>  <SCORE.INTER>
-13.8762

>  <SCORE.INTER.CONST>
1

>  <SCORE.INTER.POLAR>
0

>  <SCORE.INTER.ROT>
1

>  <SCORE.INTER.SOLV>
18.1091

>  <SCORE.INTER.VDW>
-19.5538

>  <SCORE.INTER.norm>
-1.0674

>  <SCORE.INTRA>
-0.147676

>  <SCORE.INTRA.DIHEDRAL>
0.0351388

>  <SCORE.INTRA.DIHEDRAL.0>
1.75624

>  <SCORE.INTRA.POLAR>
0

>  <SCORE.INTRA.POLAR.0>
0

>  <SCORE.INTRA.REPUL>
0

>  <SCORE.INTRA.REPUL.0>
0

>  <SCORE.INTRA.SOLV>
-0.412325

>  <SCORE.INTRA.SOLV.lig_0>
-46.5296

>  <SCORE.INTRA.VDW>
0.0409173

>  <SCORE.INTRA.VDW.0>
-0.381873

>  <SCORE.INTRA.norm>
-0.0113597

>  <SCORE.RESTR>
0

>  <SCORE.RESTR.CAVITY>
0

>  <SCORE.RESTR.norm>
0

>  <SCORE.SYSTEM>
0

>  <SCORE.SYSTEM.CONST>
0

>  <SCORE.SYSTEM.DIHEDRAL>
0

>  <SCORE.SYSTEM.SOLV>
0

>  <SCORE.SYSTEM.norm>
0

>  <SCORE.heavy>
13

>  <SCORE.norm>
-1.07876

>  <RMSD>
2.776

$$$$
ligand
 OpenBabel02271912143D
libRbt.so/2013.1/901 2013/11/27
 13 14  0  0  0  0  0  0  0  0999 V2000
   -2.4000   29.3281   54.9461 N   0  0  0  0  0  0  0  0  0  0  0  0
   -2.0694   30.5170   55.6166 C   0  0  0  0  0  0  0  0  0  0  0  0
   -0.8571   30.5778   56.4002 N   0  0  0  0  0  0  0  0  0  0  0  0
   -2.8883   31.6189   55.5190 N   0  0  0  0  0  0  0  0  0  0  0  0
   -4.0857   31.5953   54.7584 C   0  0  0  0  0  0  0  0  0  0  0  0
   -4.4644   30.3869   54.0778 C   0  0  0  0  0  0  0  0  0  0  0  0
   -3.5856   29.2473   54.2081 C   0  0  0  0  0  0  0  0  0  0  0  0
   -3.9502   28.1066   53.5488 O   0  0  0  0  0  0  0  0  0  0  0  0
   -5.7071   30.6259   53.3806 C   0  0  0  0  0  0  0  0  0  0  0  0
   -6.0357   31.9484   53.6826 C   0  0  0  0  0  0  0  0  0  0  0  0
   -5.0670   32.5162   54.4901 N   0  0  0  0  0  0  0  0  0  0  0  0
   -6.5030   29.6396   52.5484 C   0  0  0  0  0  0  0  0  0  0  0  0
   -7.3157   30.2781   51.5155 N   0  0  0  0  0  0  0  0  0  0  0  0
  1  2  1  0  0  0  0
  1  7  1  0  0  0  0
  2  3  1  0  0  0  0
  2  4  2  0  0  0  0
  4  5  1  0  0  0  0
  5  6  2  0  0  0  0
  5 11  1  0  0  0  0
  6  7  1  0  0  0  0
  6  9  1  0  0  0  0
  7  8  2  0  0  0  0
  9 10  2  0  0  0  0
  9 12  1  0  0  0  0
 10 11  1  0  0  0  0
 12 13  1  0  0  0  0
M  END
>  <CHROM.1>
-153.29791538,-4.21550342,30.44761055,54.19369305,-0.21527751,0.56635645
-2.76614806

>  <Name>
ligand

>  <RI>
-1

>  <Rbt.Current_Directory>
/home/itssahil/PROJECTS/Mol_Feturizer/Test_systems_manuscript/rnas/4jf2

>  <Rbt.Executable>
rbdock ($Id: //depot/dev/client3/rdock/2013.1/src/exe/rbdock.cxx#4 $)

>  <Rbt.Library>
libRbt.so (2013.1, Build901 2013/11/27)

>  <Rbt.Parameter_File>
/export/apps/rDock/src/rDock_2013.1_src/data/scripts/dock_solv.prm

>  <Rbt.Receptor>
prm/pocket_docking_7.prm

>  <SCORE>
-13.3774

>  <SCORE.INTER>
-12.936

>  <SCORE.INTER.CONST>
1

>  <SCORE.INTER.POLAR>
0

>  <SCORE.INTER.ROT>
1

>  <SCORE.INTER.SOLV>
15.6458

>  <SCORE.INTER.VDW>
-18.106

>  <SCORE.INTER.norm>
-0.995081

>  <SCORE.INTRA>
-0.441398

>  <SCORE.INTRA.DIHEDRAL>
-0.187204

>  <SCORE.INTRA.DIHEDRAL.0>
1.75624

>  <SCORE.INTRA.POLAR>
0

>  <SCORE.INTRA.POLAR.0>
0

>  <SCORE.INTRA.REPUL>
0

>  <SCORE.INTRA.REPUL.0>
0

>  <SCORE.INTRA.SOLV>
-1.0304

>  <SCORE.INTRA.SOLV.lig_0>
-46.5296

>  <SCORE.INTRA.VDW>
0.167402

>  <SCORE.INTRA.VDW.0>
-0.381873

>  <SCORE.INTRA.norm>
-0.0339537

>  <SCORE.RESTR>
0

>  <SCORE.RESTR.CAVITY>
0

>  <SCORE.RESTR.norm>
0

>  <SCORE.SYSTEM>
0

>  <SCORE.SYSTEM.CONST>
0

>  <SCORE.SYSTEM.DIHEDRAL>
0

>  <SCORE.SYSTEM.SOLV>
0

>  <SCORE.SYSTEM.norm>
0

>  <SCORE.heavy>
13

>  <SCORE.norm>
-1.02903

>  <RMSD>
2.791

$$$$
ligand
 OpenBabel02271912143D
libRbt.so/2013.1/901 2013/11/27
 13 14  0  0  0  0  0  0  0  0999 V2000
   -2.2048   29.3964   55.0165 N   0  0  0  0  0  0  0  0  0  0  0  0
   -1.9076   30.6097   55.6581 C   0  0  0  0  0  0  0  0  0  0  0  0
   -0.6746   30.7381   56.4002 N   0  0  0  0  0  0  0  0  0  0  0  0
   -2.7788   31.6717   55.5715 N   0  0  0  0  0  0  0  0  0  0  0  0
   -3.9979   31.5815   54.8512 C   0  0  0  0  0  0  0  0  0  0  0  0
   -4.3427   30.3463   54.2014 C   0  0  0  0  0  0  0  0  0  0  0  0
   -3.4088   29.2500   54.3194 C   0  0  0  0  0  0  0  0  0  0  0  0
   -3.7419   28.0834   53.6893 O   0  0  0  0  0  0  0  0  0  0  0  0
   -5.6169   30.5174   53.5423 C   0  0  0  0  0  0  0  0  0  0  0  0
   -5.9958   31.8284   53.8355 C   0  0  0  0  0  0  0  0  0  0  0  0
   -5.0285   32.4525   54.6020 N   0  0  0  0  0  0  0  0  0  0  0  0
   -6.3932   29.4827   52.7515 C   0  0  0  0  0  0  0  0  0  0  0  0
   -7.2399   30.0647   51.7125 N   0  0  0  0  0  0  0  0  0  0  0  0
  1  2  1  0  0  0  0
  1  7  1  0  0  0  0
  2  3  1  0  0  0  0
  2  4  2  0  0  0  0
  4  5  1  0  0  0  0
  5  6  2  0  0  0  0
  5 11  1  0  0  0  0
  6  7  1  0  0  0  0
  6  9  1  0  0  0  0
  7  8  2  0  0  0  0
  9 10  2  0  0  0  0
  9 12  1  0  0  0  0
 10 11  1  0  0  0  0
 12 13  1  0  0  0  0
M  END
>  <CHROM.1>
-151.73040060,-4.09090980,30.41992676,54.30614636,-0.25279468,0.52103886
-2.76187025

>  <Name>
ligand

>  <RI>
0

>  <Rbt.Current_Directory>
/home/itssahil/PROJECTS/Mol_Feturizer/Test_systems_manuscript/rnas/4jf2

>  <Rbt.Executable>
rbdock ($Id: //depot/dev/client3/rdock/2013.1/src/exe/rbdock.cxx#4 $)

>  <Rbt.Library>
libRbt.so (2013.1, Build901 2013/11/27)

>  <Rbt.Parameter_File>
/export/apps/rDock/src/rDock_2013.1_src/data/scripts/dock_solv.prm

>  <Rbt.Receptor>
prm/pocket_docking_8.prm

>  <SCORE>
-13.7625

>  <SCORE.INTER>
-13.3172

>  <SCORE.INTER.CONST>
1

>  <SCORE.INTER.POLAR>
0

>  <SCORE.INTER.ROT>
1

>  <SCORE.INTER.SOLV>
16.0104

>  <SCORE.INTER.VDW>
-18.4816

>  <SCORE.INTER.norm>
-1.0244

>  <SCORE.INTRA>
-0.445271

>  <SCORE.INTRA.DIHEDRAL>
-0.1878

>  <SCORE.INTRA.DIHEDRAL.0>
1.75624

>  <SCORE.INTRA.POLAR>
0

>  <SCORE.INTRA.POLAR.0>
0

>  <SCORE.INTRA.REPUL>
0

>  <SCORE.INTRA.REPUL.0>
0

>  <SCORE.INTRA.SOLV>
-1.03133

>  <SCORE.INTRA.SOLV.lig_0>
-46.5296

>  <SCORE.INTRA.VDW>
0.164293

>  <SCORE.INTRA.VDW.0>
-0.381873

>  <SCORE.INTRA.norm>
-0.0342516

>  <SCORE.RESTR>
0

>  <SCORE.RESTR.CAVITY>
0

>  <SCORE.RESTR.norm>
0

>  <SCORE.SYSTEM>
0

>  <SCORE.SYSTEM.CONST>
0

>  <SCORE.SYSTEM.DIHEDRAL>
0

>  <SCORE.SYSTEM.SOLV>
0

>  <SCORE.SYSTEM.norm>
0

>  <SCORE.heavy>
13

>  <SCORE.norm>
-1.05865

>  <RMSD>
2.810

$$$$
ligand
 OpenBabel02271912143D
libRbt.so/2013.1/901 2013/11/27
 13 14  0  0  0  0  0  0  0  0999 V2000
   -2.1368   29.4160   54.9977 N   0  0  0  0  0  0  0  0  0  0  0  0
   -1.8459   30.6152   55.6680 C   0  0  0  0  0  0  0  0  0  0  0  0
   -0.6051   30.7388   56.3979 N   0  0  0  0  0  0  0  0  0  0  0  0
   -2.7308   31.6683   55.6209 N   0  0  0  0  0  0  0  0  0  0  0  0
   -3.9577   31.5826   54.9138 C   0  0  0  0  0  0  0  0  0  0  0  0
   -4.2960   30.3611   54.2352 C   0  0  0  0  0  0  0  0  0  0  0  0
   -3.3477   29.2735   54.3120 C   0  0  0  0  0  0  0  0  0  0  0  0
   -3.6749   28.1203   53.6549 O   0  0  0  0  0  0  0  0  0  0  0  0
   -5.5806   30.5341   53.5968 C   0  0  0  0  0  0  0  0  0  0  0  0
   -5.9713   31.8320   53.9299 C   0  0  0  0  0  0  0  0  0  0  0  0
   -5.0018   32.4472   54.7009 N   0  0  0  0  0  0  0  0  0  0  0  0
   -6.3545   29.5115   52.7882 C   0  0  0  0  0  0  0  0  0  0  0  0
   -7.2476   30.1118   51.7997 N   0  0  0  0  0  0  0  0  0  0  0  0
  1  2  1  0  0  0  0
  1  7  1  0  0  0  0
  2  3  1  0  0  0  0
  2  4  2  0  0  0  0
  4  5  1  0  0  0  0
  5  6  2  0  0  0  0
  5 11  1  0  0  0  0
  6  7  1  0  0  0  0
  6  9  1  0  0  0  0
  7  8  2  0  0  0  0
  9 10  2  0  0  0  0
  9 12  1  0  0  0  0
 10 11  1  0  0  0  0
 12 13  1  0  0  0  0
M  END
>  <CHROM.1>
-153.24826222,-4.04601301,30.43504098,54.34069541,-0.25805280,0.50288842
-2.73283655

>  <Name>
ligand

>  <RI>
-1

>  <Rbt.Current_Directory>
/home/itssahil/PROJECTS/Mol_Feturizer/Test_systems_manuscript/rnas/4jf2

>  <Rbt.Executable>
rbdock ($Id: //depot/dev/client3/rdock/2013.1/src/exe/rbdock.cxx#4 $)

>  <Rbt.Library>
libRbt.so (2013.1, Build901 2013/11/27)

>  <Rbt.Parameter_File>
/export/apps/rDock/src/rDock_2013.1_src/data/scripts/dock_solv.prm

>  <Rbt.Receptor>
prm/pocket_docking_6.prm

>  <SCORE>
-13.7961

>  <SCORE.INTER>
-13.3567

>  <SCORE.INTER.CONST>
1

>  <SCORE.INTER.POLAR>
0

>  <SCORE.INTER.ROT>
1

>  <SCORE.INTER.SOLV>
15.7599

>  <SCORE.INTER.VDW>
-18.4244

>  <SCORE.INTER.norm>
-1.02744

>  <SCORE.INTRA>
-0.441526

>  <SCORE.INTRA.DIHEDRAL>
-0.187234

>  <SCORE.INTRA.DIHEDRAL.0>
1.75624

>  <SCORE.INTRA.POLAR>
0

>  <SCORE.INTRA.POLAR.0>
0

>  <SCORE.INTRA.REPUL>
0

>  <SCORE.INTRA.REPUL.0>
0

>  <SCORE.INTRA.SOLV>
-1.03043

>  <SCORE.INTRA.SOLV.lig_0>
-46.5296

>  <SCORE.INTRA.VDW>
0.167304

>  <SCORE.INTRA.VDW.0>
-0.381873

>  <SCORE.INTRA.norm>
-0.0339635

>  <SCORE.RESTR>
0.00210361

>  <SCORE.RESTR.CAVITY>
0.00210361

>  <SCORE.RESTR.norm>
0.000161816

>  <SCORE.SYSTEM>
0

>  <SCORE.SYSTEM.CONST>
0

>  <SCORE.SYSTEM.DIHEDRAL>
0

>  <SCORE.SYSTEM.SOLV>
0

>  <SCORE.SYSTEM.norm>
0

>  <SCORE.heavy>
13

>  <SCORE.norm>
-1.06124

>  <RMSD>
2.824

$$$$
ligand
 OpenBabel02271912143D
libRbt.so/2013.1/901 2013/11/27
 13 14  0  0  0  0  0  0  0  0999 V2000
   -2.1617   29.4271   54.9500 N   0  0  0  0  0  0  0  0  0  0  0  0
   -1.8712   30.6044   55.6583 C   0  0  0  0  0  0  0  0  0  0  0  0
   -0.6351   30.7012   56.4000 N   0  0  0  0  0  0  0  0  0  0  0  0
   -2.7520   31.6617   55.6371 N   0  0  0  0  0  0  0  0  0  0  0  0
   -3.9743   31.6020   54.9193 C   0  0  0  0  0  0  0  0  0  0  0  0
   -4.3122   30.4029   54.2018 C   0  0  0  0  0  0  0  0  0  0  0  0
   -3.3683   29.3100   54.2520 C   0  0  0  0  0  0  0  0  0  0  0  0
   -3.6950   28.1784   53.5580 O   0  0  0  0  0  0  0  0  0  0  0  0
   -5.5917   30.5999   53.5602 C   0  0  0  0  0  0  0  0  0  0  0  0
   -5.9802   31.8886   53.9298 C   0  0  0  0  0  0  0  0  0  0  0  0
   -5.0138   32.4766   54.7257 N   0  0  0  0  0  0  0  0  0  0  0  0
   -6.3636   29.6052   52.7156 C   0  0  0  0  0  0  0  0  0  0  0  0
   -7.2652   30.2384   51.7557 N   0  0  0  0  0  0  0  0  0  0  0  0
  1  2  1  0  0  0  0
  1  7  1  0  0  0  0
  2  3  1  0  0  0  0
  2  4  2  0  0  0  0
  4  5  1  0  0  0  0
  5  6  2  0  0  0  0
  5 11  1  0  0  0  0
  6  7  1  0  0  0  0
  6  9  1  0  0  0  0
  7  8  2  0  0  0  0
  9 10  2  0  0  0  0
  9 12  1  0  0  0  0
 10 11  1  0  0  0  0
 12 13  1  0  0  0  0
M  END
>  <CHROM.1>
-154.25911617,-4.06409915,30.47267164,54.31244750,-0.25622195,0.50939220
-2.70370922

>  <Name>
ligand

>  <RI>
-1

>  <Rbt.Current_Directory>
/home/itssahil/PROJECTS/Mol_Feturizer/Test_systems_manuscript/rnas/4jf2

>  <Rbt.Executable>
rbdock ($Id: //depot/dev/client3/rdock/2013.1/src/exe/rbdock.cxx#4 $)

>  <Rbt.Library>
libRbt.so (2013.1, Build901 2013/11/27)

>  <Rbt.Parameter_File>
/export/apps/rDock/src/rDock_2013.1_src/data/scripts/dock_solv.prm

>  <Rbt.Receptor>
prm/pocket_docking_6.prm

>  <SCORE>
-13.761

>  <SCORE.INTER>
-13.3221

>  <SCORE.INTER.CONST>
1

>  <SCORE.INTER.POLAR>
0

>  <SCORE.INTER.ROT>
1

>  <SCORE.INTER.SOLV>
15.5166

>  <SCORE.INTER.VDW>
-18.3203

>  <SCORE.INTER.norm>
-1.02478

>  <SCORE.INTRA>
-0.438864

>  <SCORE.INTRA.DIHEDRAL>
-0.186469

>  <SCORE.INTRA.DIHEDRAL.0>
1.75624

>  <SCORE.INTRA.POLAR>
0

>  <SCORE.INTRA.POLAR.0>
0

>  <SCORE.INTRA.REPUL>
0

>  <SCORE.INTRA.REPUL.0>
0

>  <SCORE.INTRA.SOLV>
-1.02983

>  <SCORE.INTRA.SOLV.lig_0>
-46.5296

>  <SCORE.INTRA.VDW>
0.169286

>  <SCORE.INTRA.VDW.0>
-0.381873

>  <SCORE.INTRA.norm>
-0.0337588

>  <SCORE.RESTR>
0

>  <SCORE.RESTR.CAVITY>
0

>  <SCORE.RESTR.norm>
0

>  <SCORE.SYSTEM>
0

>  <SCORE.SYSTEM.CONST>
0

>  <SCORE.SYSTEM.DIHEDRAL>
0

>  <SCORE.SYSTEM.SOLV>
0

>  <SCORE.SYSTEM.norm>
0

>  <SCORE.heavy>
13

>  <SCORE.norm>
-1.05854

>  <RMSD>
2.826

$$$$
ligand
 OpenBabel02271912143D
libRbt.so/2013.1/901 2013/11/27
 13 14  0  0  0  0  0  0  0  0999 V2000
   -2.1642   29.4119   54.9835 N   0  0  0  0  0  0  0  0  0  0  0  0
   -1.8610   30.6020   55.6646 C   0  0  0  0  0  0  0  0  0  0  0  0
   -0.6214   30.7043   56.3997 N   0  0  0  0  0  0  0  0  0  0  0  0
   -2.7328   31.6662   55.6231 N   0  0  0  0  0  0  0  0  0  0  0  0
   -3.9582   31.6013   54.9110 C   0  0  0  0  0  0  0  0  0  0  0  0
   -4.3090   30.3897   54.2213 C   0  0  0  0  0  0  0  0  0  0  0  0
   -3.3744   29.2899   54.2924 C   0  0  0  0  0  0  0  0  0  0  0  0
   -3.7133   28.1462   53.6248 O   0  0  0  0  0  0  0  0  0  0  0  0
   -5.5890   30.5837   53.5800 C   0  0  0  0  0  0  0  0  0  0  0  0
   -5.9650   31.8835   53.9224 C   0  0  0  0  0  0  0  0  0  0  0  0
   -4.9908   32.4805   54.7017 N   0  0  0  0  0  0  0  0  0  0  0  0
   -6.3726   29.5773   52.7603 C   0  0  0  0  0  0  0  0  0  0  0  0
   -7.2595   30.1967   51.7780 N   0  0  0  0  0  0  0  0  0  0  0  0
  1  2  1  0  0  0  0
  1  7  1  0  0  0  0
  2  3  1  0  0  0  0
  2  4  2  0  0  0  0
  4  5  1  0  0  0  0
  5  6  2  0  0  0  0
  5 11  1  0  0  0  0
  6  7  1  0  0  0  0
  6  9  1  0  0  0  0
  7  8  2  0  0  0  0
  9 10  2  0  0  0  0
  9 12  1  0  0  0  0
 10 11  1  0  0  0  0
 12 13  1  0  0  0  0
M  END
>  <CHROM.1>
-153.52171742,-4.05886161,30.45968667,54.32862973,-0.24642426,0.51063948
-2.73036794

>  <Name>
ligand

>  <RI>
0

>  <Rbt.Current_Directory>
/home/itssahil/PROJECTS/Mol_Feturizer/Test_systems_manuscript/rnas/4jf2

>  <Rbt.Executable>
rbdock ($Id: //depot/dev/client3/rdock/2013.1/src/exe/rbdock.cxx#4 $)

>  <Rbt.Library>
libRbt.so (2013.1, Build901 2013/11/27)

>  <Rbt.Parameter_File>
/export/apps/rDock/src/rDock_2013.1_src/data/scripts/dock_solv.prm

>  <Rbt.Receptor>
prm/pocket_docking_8.prm

>  <SCORE>
-13.772

>  <SCORE.INTER>
-13.3315

>  <SCORE.INTER.CONST>
1

>  <SCORE.INTER.POLAR>
0

>  <SCORE.INTER.ROT>
1

>  <SCORE.INTER.SOLV>
15.5827

>  <SCORE.INTER.VDW>
-18.3486

>  <SCORE.INTER.norm>
-1.0255

>  <SCORE.INTRA>
-0.440819

>  <SCORE.INTRA.DIHEDRAL>
-0.187058

>  <SCORE.INTRA.DIHEDRAL.0>
1.75624

>  <SCORE.INTRA.POLAR>
0

>  <SCORE.INTRA.POLAR.0>
0

>  <SCORE.INTRA.REPUL>
0

>  <SCORE.INTRA.REPUL.0>
0

>  <SCORE.INTRA.SOLV>
-1.03026

>  <SCORE.INTRA.SOLV.lig_0>
-46.5296

>  <SCORE.INTRA.VDW>
0.167842

>  <SCORE.INTRA.VDW.0>
-0.381873

>  <SCORE.INTRA.norm>
-0.0339091

>  <SCORE.RESTR>
0.000275153

>  <SCORE.RESTR.CAVITY>
0.000275153

>  <SCORE.RESTR.norm>
2.11656e-05

>  <SCORE.SYSTEM>
0

>  <SCORE.SYSTEM.CONST>
0

>  <SCORE.SYSTEM.DIHEDRAL>
0

>  <SCORE.SYSTEM.SOLV>
0

>  <SCORE.SYSTEM.norm>
0

>  <SCORE.heavy>
13

>  <SCORE.norm>
-1.05939

>  <RMSD>
2.826

$$$$
ligand
 OpenBabel02271912143D
libRbt.so/2013.1/901 2013/11/27
 13 14  0  0  0  0  0  0  0  0999 V2000
   -2.0601   29.5683   54.7725 N   0  0  0  0  0  0  0  0  0  0  0  0
   -1.8563   30.6734   55.6148 C   0  0  0  0  0  0  0  0  0  0  0  0
   -0.6778   30.7236   56.4491 N   0  0  0  0  0  0  0  0  0  0  0  0
   -2.7666   31.7054   55.6372 N   0  0  0  0  0  0  0  0  0  0  0  0
   -3.9342   31.6899   54.8314 C   0  0  0  0  0  0  0  0  0  0  0  0
   -4.1839   30.5629   53.9744 C   0  0  0  0  0  0  0  0  0  0  0  0
   -3.2116   29.4940   53.9817 C   0  0  0  0  0  0  0  0  0  0  0  0
   -3.4539   28.4320   53.1557 O   0  0  0  0  0  0  0  0  0  0  0  0
   -5.4218   30.7935   53.2660 C   0  0  0  0  0  0  0  0  0  0  0  0
   -5.8753   32.0275   53.7348 C   0  0  0  0  0  0  0  0  0  0  0  0
   -4.9850   32.5541   54.6530 N   0  0  0  0  0  0  0  0  0  0  0  0
   -6.1021   29.8722   52.2724 C   0  0  0  0  0  0  0  0  0  0  0  0
   -7.2253   29.1331   52.8445 N   0  0  0  0  0  0  0  0  0  0  0  0
  1  2  1  0  0  0  0
  1  7  1  0  0  0  0
  2  3  1  0  0  0  0
  2  4  2  0  0  0  0
  4  5  1  0  0  0  0
  5  6  2  0  0  0  0
  5 11  1  0  0  0  0
  6  7  1  0  0  0  0
  6  9  1  0  0  0  0
  7  8  2  0  0  0  0
  9 10  2  0  0  0  0
  9 12  1  0  0  0  0
 10 11  1  0  0  0  0
 12 13  1  0  0  0  0
M  END
>  <CHROM.1>
101.48608864,-3.96827697,30.50938965,54.23314554,-0.34006145,0.45486788,-2.67190128

>  <Name>
ligand

>  <RI>
0

>  <Rbt.Current_Directory>
/home/itssahil/PROJECTS/Mol_Feturizer/Test_systems_manuscript/rnas/4jf2

>  <Rbt.Executable>
rbdock ($Id: //depot/dev/client3/rdock/2013.1/src/exe/rbdock.cxx#4 $)

>  <Rbt.Library>
libRbt.so (2013.1, Build901 2013/11/27)

>  <Rbt.Parameter_File>
/export/apps/rDock/src/rDock_2013.1_src/data/scripts/dock_solv.prm

>  <Rbt.Receptor>
prm/pocket_docking_8.prm

>  <SCORE>
-13.0299

>  <SCORE.INTER>
-12.7061

>  <SCORE.INTER.CONST>
1

>  <SCORE.INTER.POLAR>
0

>  <SCORE.INTER.ROT>
1

>  <SCORE.INTER.SOLV>
17.7609

>  <SCORE.INTER.VDW>
-18.6577

>  <SCORE.INTER.norm>
-0.97739

>  <SCORE.INTRA>
-0.323791

>  <SCORE.INTRA.DIHEDRAL>
-0.163856

>  <SCORE.INTRA.DIHEDRAL.0>
1.75624

>  <SCORE.INTRA.POLAR>
0

>  <SCORE.INTRA.POLAR.0>
0

>  <SCORE.INTRA.REPUL>
0

>  <SCORE.INTRA.REPUL.0>
0

>  <SCORE.INTRA.SOLV>
-0.621432

>  <SCORE.INTRA.SOLV.lig_0>
-46.5296

>  <SCORE.INTRA.VDW>
0.068853

>  <SCORE.INTRA.VDW.0>
-0.381873

>  <SCORE.INTRA.norm>
-0.024907

>  <SCORE.RESTR>
0

>  <SCORE.RESTR.CAVITY>
0

>  <SCORE.RESTR.norm>
0

>  <SCORE.SYSTEM>
0

>  <SCORE.SYSTEM.CONST>
0

>  <SCORE.SYSTEM.DIHEDRAL>
0

>  <SCORE.SYSTEM.SOLV>
0

>  <SCORE.SYSTEM.norm>
0

>  <SCORE.heavy>
13

>  <SCORE.norm>
-1.0023

>  <RMSD>
2.834

$$$$
ligand
 OpenBabel02271912143D
libRbt.so/2013.1/901 2013/11/27
 13 14  0  0  0  0  0  0  0  0999 V2000
   -2.1687   29.4225   54.9516 N   0  0  0  0  0  0  0  0  0  0  0  0
   -1.8640   30.5942   55.6633 C   0  0  0  0  0  0  0  0  0  0  0  0
   -0.6239   30.6762   56.4002 N   0  0  0  0  0  0  0  0  0  0  0  0
   -2.7348   31.6599   55.6500 N   0  0  0  0  0  0  0  0  0  0  0  0
   -3.9607   31.6147   54.9372 C   0  0  0  0  0  0  0  0  0  0  0  0
   -4.3130   30.4217   54.2164 C   0  0  0  0  0  0  0  0  0  0  0  0
   -3.3793   29.3197   54.2582 C   0  0  0  0  0  0  0  0  0  0  0  0
   -3.7196   28.1940   53.5612 O   0  0  0  0  0  0  0  0  0  0  0  0
   -5.5932   30.6335   53.5810 C   0  0  0  0  0  0  0  0  0  0  0  0
   -5.9678   31.9243   53.9574 C   0  0  0  0  0  0  0  0  0  0  0  0
   -4.9926   32.4999   54.7515 N   0  0  0  0  0  0  0  0  0  0  0  0
   -6.3781   29.6495   52.7358 C   0  0  0  0  0  0  0  0  0  0  0  0
   -7.2321   30.2944   51.7409 N   0  0  0  0  0  0  0  0  0  0  0  0
  1  2  1  0  0  0  0
  1  7  1  0  0  0  0
  2  3  1  0  0  0  0
  2  4  2  0  0  0  0
  4  5  1  0  0  0  0
  5  6  2  0  0  0  0
  5 11  1  0  0  0  0
  6  7  1  0  0  0  0
  6  9  1  0  0  0  0
  7  8  2  0  0  0  0
  9 10  2  0  0  0  0
  9 12  1  0  0  0  0
 10 11  1  0  0  0  0
 12 13  1  0  0  0  0
M  END
>  <CHROM.1>
-151.63159675,-4.06002973,30.48862402,54.32290584,-0.24771806,0.51282736
-2.70315227

>  <Name>
ligand

>  <RI>
-1

>  <Rbt.Current_Directory>
/home/itssahil/PROJECTS/Mol_Feturizer/Test_systems_manuscript/rnas/4jf2

>  <Rbt.Executable>
rbdock ($Id: //depot/dev/client3/rdock/2013.1/src/exe/rbdock.cxx#4 $)

>  <Rbt.Library>
libRbt.so (2013.1, Build901 2013/11/27)

>  <Rbt.Parameter_File>
/export/apps/rDock/src/rDock_2013.1_src/data/scripts/dock_solv.prm

>  <Rbt.Receptor>
prm/pocket_docking_6.prm

>  <SCORE>
-13.8073

>  <SCORE.INTER>
-13.3618

>  <SCORE.INTER.CONST>
1

>  <SCORE.INTER.POLAR>
0

>  <SCORE.INTER.ROT>
1

>  <SCORE.INTER.SOLV>
15.3908

>  <SCORE.INTER.VDW>
-18.3048

>  <SCORE.INTER.norm>
-1.02783

>  <SCORE.INTRA>
-0.445504

>  <SCORE.INTRA.DIHEDRAL>
-0.187813

>  <SCORE.INTRA.DIHEDRAL.0>
1.75624

>  <SCORE.INTRA.POLAR>
0

>  <SCORE.INTRA.POLAR.0>
0

>  <SCORE.INTRA.REPUL>
0

>  <SCORE.INTRA.REPUL.0>
0

>  <SCORE.INTRA.SOLV>
-1.03139

>  <SCORE.INTRA.SOLV.lig_0>
-46.5296

>  <SCORE.INTRA.VDW>
0.164096

>  <SCORE.INTRA.VDW.0>
-0.381873

>  <SCORE.INTRA.norm>
-0.0342696

>  <SCORE.RESTR>
0

>  <SCORE.RESTR.CAVITY>
0

>  <SCORE.RESTR.norm>
0

>  <SCORE.SYSTEM>
0

>  <SCORE.SYSTEM.CONST>
0

>  <SCORE.SYSTEM.DIHEDRAL>
0

>  <SCORE.SYSTEM.SOLV>
0

>  <SCORE.SYSTEM.norm>
0

>  <SCORE.heavy>
13

>  <SCORE.norm>
-1.0621

>  <RMSD>
2.835

$$$$
ligand
 OpenBabel02271912143D
libRbt.so/2013.1/901 2013/11/27
 13 14  0  0  0  0  0  0  0  0999 V2000
   -2.1660   29.4239   54.9529 N   0  0  0  0  0  0  0  0  0  0  0  0
   -1.8622   30.5991   55.6592 C   0  0  0  0  0  0  0  0  0  0  0  0
   -0.6247   30.6835   56.3999 N   0  0  0  0  0  0  0  0  0  0  0  0
   -2.7315   31.6659   55.6369 N   0  0  0  0  0  0  0  0  0  0  0  0
   -3.9549   31.6184   54.9201 C   0  0  0  0  0  0  0  0  0  0  0  0
   -4.3064   30.4220   54.2046 C   0  0  0  0  0  0  0  0  0  0  0  0
   -3.3744   29.3189   54.2559 C   0  0  0  0  0  0  0  0  0  0  0  0
   -3.7138   28.1898   53.5640 O   0  0  0  0  0  0  0  0  0  0  0  0
   -5.5840   30.6319   53.5636 C   0  0  0  0  0  0  0  0  0  0  0  0
   -5.9582   31.9254   53.9315 C   0  0  0  0  0  0  0  0  0  0  0  0
   -4.9850   32.5040   54.7258 N   0  0  0  0  0  0  0  0  0  0  0  0
   -6.3674   29.6443   52.7211 C   0  0  0  0  0  0  0  0  0  0  0  0
   -7.2309   30.2854   51.7320 N   0  0  0  0  0  0  0  0  0  0  0  0
  1  2  1  0  0  0  0
  1  7  1  0  0  0  0
  2  3  1  0  0  0  0
  2  4  2  0  0  0  0
  4  5  1  0  0  0  0
  5  6  2  0  0  0  0
  5 11  1  0  0  0  0
  6  7  1  0  0  0  0
  6  9  1  0  0  0  0
  7  8  2  0  0  0  0
  9 10  2  0  0  0  0
  9 12  1  0  0  0  0
 10 11  1  0  0  0  0
 12 13  1  0  0  0  0
M  END
>  <CHROM.1>
-152.42529338,-4.05484070,30.48915274,54.31268049,-0.24691255,0.51562800
-2.70933352

>  <Name>
ligand

>  <RI>
0

>  <Rbt.Current_Directory>
/home/itssahil/PROJECTS/Mol_Feturizer/Test_systems_manuscript/rnas/4jf2

>  <Rbt.Executable>
rbdock ($Id: //depot/dev/client3/rdock/2013.1/src/exe/rbdock.cxx#4 $)

>  <Rbt.Library>
libRbt.so (2013.1, Build901 2013/11/27)

>  <Rbt.Parameter_File>
/export/apps/rDock/src/rDock_2013.1_src/data/scripts/dock_solv.prm

>  <Rbt.Receptor>
prm/pocket_docking_8.prm

>  <SCORE>
-13.8308

>  <SCORE.INTER>
-13.3873

>  <SCORE.INTER.CONST>
1

>  <SCORE.INTER.POLAR>
0

>  <SCORE.INTER.ROT>
1

>  <SCORE.INTER.SOLV>
15.4319

>  <SCORE.INTER.VDW>
-18.3355

>  <SCORE.INTER.norm>
-1.02979

>  <SCORE.INTRA>
-0.443595

>  <SCORE.INTRA.DIHEDRAL>
-0.187629

>  <SCORE.INTRA.DIHEDRAL.0>
1.75624

>  <SCORE.INTRA.POLAR>
0

>  <SCORE.INTRA.POLAR.0>
0

>  <SCORE.INTRA.REPUL>
0

>  <SCORE.INTRA.REPUL.0>
0

>  <SCORE.INTRA.SOLV>
-1.03091

>  <SCORE.INTRA.SOLV.lig_0>
-46.5296

>  <SCORE.INTRA.VDW>
0.165676

>  <SCORE.INTRA.VDW.0>
-0.381873

>  <SCORE.INTRA.norm>
-0.0341227

>  <SCORE.RESTR>
9.06533e-05

>  <SCORE.RESTR.CAVITY>
9.06533e-05

>  <SCORE.RESTR.norm>
6.97333e-06

>  <SCORE.SYSTEM>
0

>  <SCORE.SYSTEM.CONST>
0

>  <SCORE.SYSTEM.DIHEDRAL>
0

>  <SCORE.SYSTEM.SOLV>
0

>  <SCORE.SYSTEM.norm>
0

>  <SCORE.heavy>
13

>  <SCORE.norm>
-1.06391

>  <RMSD>
2.836

$$$$
ligand
 OpenBabel02271912143D
libRbt.so/2013.1/901 2013/11/27
 13 14  0  0  0  0  0  0  0  0999 V2000
   -2.1496   29.4360   54.9526 N   0  0  0  0  0  0  0  0  0  0  0  0
   -1.8453   30.6071   55.6654 C   0  0  0  0  0  0  0  0  0  0  0  0
   -0.6039   30.6899   56.4000 N   0  0  0  0  0  0  0  0  0  0  0  0
   -2.7176   31.6716   55.6553 N   0  0  0  0  0  0  0  0  0  0  0  0
   -3.9448   31.6257   54.9447 C   0  0  0  0  0  0  0  0  0  0  0  0
   -4.2967   30.4333   54.2229 C   0  0  0  0  0  0  0  0  0  0  0  0
   -3.3614   29.3325   54.2614 C   0  0  0  0  0  0  0  0  0  0  0  0
   -3.7015   28.2073   53.5634 O   0  0  0  0  0  0  0  0  0  0  0  0
   -5.5784   30.6441   53.5902 C   0  0  0  0  0  0  0  0  0  0  0  0
   -5.9542   31.9339   53.9692 C   0  0  0  0  0  0  0  0  0  0  0  0
   -4.9783   32.5097   54.7622 N   0  0  0  0  0  0  0  0  0  0  0  0
   -6.3636   29.6602   52.7451 C   0  0  0  0  0  0  0  0  0  0  0  0
   -7.2281   30.3056   51.7596 N   0  0  0  0  0  0  0  0  0  0  0  0
  1  2  1  0  0  0  0
  1  7  1  0  0  0  0
  2  3  1  0  0  0  0
  2  4  2  0  0  0  0
  4  5  1  0  0  0  0
  5  6  2  0  0  0  0
  5 11  1  0  0  0  0
  6  7  1  0  0  0  0
  6  9  1  0  0  0  0
  7  8  2  0  0  0  0
  9 10  2  0  0  0  0
  9 12  1  0  0  0  0
 10 11  1  0  0  0  0
 12 13  1  0  0  0  0
M  END
>  <CHROM.1>
-152.06956869,-4.04430221,30.50038446,54.32955508,-0.24767381,0.50997699
-2.70187500

>  <Name>
ligand

>  <RI>
-1

>  <Rbt.Current_Directory>
/home/itssahil/PROJECTS/Mol_Feturizer/Test_systems_manuscript/rnas/4jf2

>  <Rbt.Executable>
rbdock ($Id: //depot/dev/client3/rdock/2013.1/src/exe/rbdock.cxx#4 $)

>  <Rbt.Library>
libRbt.so (2013.1, Build901 2013/11/27)

>  <Rbt.Parameter_File>
/export/apps/rDock/src/rDock_2013.1_src/data/scripts/dock_solv.prm

>  <Rbt.Receptor>
prm/pocket_docking_6.prm

>  <SCORE>
-13.8229

>  <SCORE.INTER>
-13.3784

>  <SCORE.INTER.CONST>
1

>  <SCORE.INTER.POLAR>
0

>  <SCORE.INTER.ROT>
1

>  <SCORE.INTER.SOLV>
15.3491

>  <SCORE.INTER.VDW>
-18.302

>  <SCORE.INTER.norm>
-1.02911

>  <SCORE.INTRA>
-0.444461

>  <SCORE.INTRA.DIHEDRAL>
-0.187735

>  <SCORE.INTRA.DIHEDRAL.0>
1.75624

>  <SCORE.INTRA.POLAR>
0

>  <SCORE.INTRA.POLAR.0>
0

>  <SCORE.INTRA.REPUL>
0

>  <SCORE.INTRA.REPUL.0>
0

>  <SCORE.INTRA.SOLV>
-1.03113

>  <SCORE.INTRA.SOLV.lig_0>
-46.5296

>  <SCORE.INTRA.VDW>
0.164969

>  <SCORE.INTRA.VDW.0>
-0.381873

>  <SCORE.INTRA.norm>
-0.0341893

>  <SCORE.RESTR>
7.93719e-06

>  <SCORE.RESTR.CAVITY>
7.93719e-06

>  <SCORE.RESTR.norm>
6.10553e-07

>  <SCORE.SYSTEM>
0

>  <SCORE.SYSTEM.CONST>
0

>  <SCORE.SYSTEM.DIHEDRAL>
0

>  <SCORE.SYSTEM.SOLV>
0

>  <SCORE.SYSTEM.norm>
0

>  <SCORE.heavy>
13

>  <SCORE.norm>
-1.0633

>  <RMSD>
2.841

$$$$
ligand
 OpenBabel02271912143D
libRbt.so/2013.1/901 2013/11/27
 13 14  0  0  0  0  0  0  0  0999 V2000
   -6.6091   31.9224   53.8679 N   0  0  0  0  0  0  0  0  0  0  0  0
   -5.6444   32.7733   54.4315 C   0  0  0  0  0  0  0  0  0  0  0  0
   -5.9935   34.1423   54.7336 N   0  0  0  0  0  0  0  0  0  0  0  0
   -4.3797   32.3036   54.7039 N   0  0  0  0  0  0  0  0  0  0  0  0
   -4.0022   30.9656   54.4209 C   0  0  0  0  0  0  0  0  0  0  0  0
   -4.9594   30.0748   53.8234 C   0  0  0  0  0  0  0  0  0  0  0  0
   -6.2750   30.6033   53.5438 C   0  0  0  0  0  0  0  0  0  0  0  0
   -7.1802   29.7449   52.9848 O   0  0  0  0  0  0  0  0  0  0  0  0
   -4.3329   28.7854   53.6434 C   0  0  0  0  0  0  0  0  0  0  0  0
   -3.0301   28.9541   54.1151 C   0  0  0  0  0  0  0  0  0  0  0  0
   -2.8465   30.2433   54.5811 N   0  0  0  0  0  0  0  0  0  0  0  0
   -4.9427   27.5406   53.0290 C   0  0  0  0  0  0  0  0  0  0  0  0
   -5.5985   27.7903   51.7473 N   0  0  0  0  0  0  0  0  0  0  0  0
  1  2  1  0  0  0  0
  1  7  1  0  0  0  0
  2  3  1  0  0  0  0
  2  4  2  0  0  0  0
  4  5  1  0  0  0  0
  5  6  2  0  0  0  0
  5 11  1  0  0  0  0
  6  7  1  0  0  0  0
  6  9  1  0  0  0  0
  7  8  2  0  0  0  0
  9 10  2  0  0  0  0
  9 12  1  0  0  0  0
 10 11  1  0  0  0  0
 12 13  1  0  0  0  0
M  END
>  <CHROM.1>
48.92668418,-5.11020832,30.44730784,53.79518968,1.73456831,-0.35723164,0.37707067

>  <Name>
ligand

>  <RI>
0

>  <Rbt.Current_Directory>
/home/itssahil/PROJECTS/Mol_Feturizer/Test_systems_manuscript/rnas/4jf2

>  <Rbt.Executable>
rbdock ($Id: //depot/dev/client3/rdock/2013.1/src/exe/rbdock.cxx#4 $)

>  <Rbt.Library>
libRbt.so (2013.1, Build901 2013/11/27)

>  <Rbt.Parameter_File>
/export/apps/rDock/src/rDock_2013.1_src/data/scripts/dock_solv.prm

>  <Rbt.Receptor>
prm/blind_docking_100.prm

>  <SCORE>
-14.2163

>  <SCORE.INTER>
-14.5884

>  <SCORE.INTER.CONST>
1

>  <SCORE.INTER.POLAR>
0

>  <SCORE.INTER.ROT>
1

>  <SCORE.INTER.SOLV>
17.9135

>  <SCORE.INTER.VDW>
-19.9634

>  <SCORE.INTER.norm>
-1.12218

>  <SCORE.INTRA>
0.367503

>  <SCORE.INTRA.DIHEDRAL>
-0.0214417

>  <SCORE.INTRA.DIHEDRAL.0>
1.75624

>  <SCORE.INTRA.POLAR>
0

>  <SCORE.INTRA.POLAR.0>
0

>  <SCORE.INTRA.REPUL>
0

>  <SCORE.INTRA.REPUL.0>
0

>  <SCORE.INTRA.SOLV>
0.708686

>  <SCORE.INTRA.SOLV.lig_0>
-46.5296

>  <SCORE.INTRA.VDW>
0.0238806

>  <SCORE.INTRA.VDW.0>
-0.381873

>  <SCORE.INTRA.norm>
0.0282695

>  <SCORE.RESTR>
0.00458363

>  <SCORE.RESTR.CAVITY>
0.00458363

>  <SCORE.RESTR.norm>
0.000352587

>  <SCORE.SYSTEM>
0

>  <SCORE.SYSTEM.CONST>
0

>  <SCORE.SYSTEM.DIHEDRAL>
0

>  <SCORE.SYSTEM.SOLV>
0

>  <SCORE.SYSTEM.norm>
0

>  <SCORE.heavy>
13

>  <SCORE.norm>
-1.09356

>  <RMSD>
3.359

$$$$
ligand
 OpenBabel02271912143D
libRbt.so/2013.1/901 2013/11/27
 13 14  0  0  0  0  0  0  0  0999 V2000
   -6.6745   31.8542   53.8440 N   0  0  0  0  0  0  0  0  0  0  0  0
   -5.7636   32.7477   54.4306 C   0  0  0  0  0  0  0  0  0  0  0  0
   -6.1744   34.1063   54.7009 N   0  0  0  0  0  0  0  0  0  0  0  0
   -4.4932   32.3295   54.7554 N   0  0  0  0  0  0  0  0  0  0  0  0
   -4.0561   31.0032   54.5048 C   0  0  0  0  0  0  0  0  0  0  0  0
   -4.9567   30.0696   53.8851 C   0  0  0  0  0  0  0  0  0  0  0  0
   -6.2798   30.5446   53.5505 C   0  0  0  0  0  0  0  0  0  0  0  0
   -7.1312   29.6459   52.9708 O   0  0  0  0  0  0  0  0  0  0  0  0
   -4.2765   28.8026   53.7459 C   0  0  0  0  0  0  0  0  0  0  0  0
   -2.9992   29.0262   54.2624 C   0  0  0  0  0  0  0  0  0  0  0  0
   -2.8810   30.3271   54.7169 N   0  0  0  0  0  0  0  0  0  0  0  0
   -4.8164   27.5283   53.1269 C   0  0  0  0  0  0  0  0  0  0  0  0
   -5.4983   27.7479   51.8533 N   0  0  0  0  0  0  0  0  0  0  0  0
  1  2  1  0  0  0  0
  1  7  1  0  0  0  0
  2  3  1  0  0  0  0
  2  4  2  0  0  0  0
  4  5  1  0  0  0  0
  5  6  2  0  0  0  0
  5 11  1  0  0  0  0
  6  7  1  0  0  0  0
  6  9  1  0  0  0  0
  7  8  2  0  0  0  0
  9 10  2  0  0  0  0
  9 12  1  0  0  0  0
 10 11  1  0  0  0  0
 12 13  1  0  0  0  0
M  END
>  <CHROM.1>
45.74874497,-5.12544346,30.43669952,53.84912556,1.78168320,-0.37661200,0.37855149

>  <Name>
ligand

>  <RI>
0

>  <Rbt.Current_Directory>
/home/itssahil/PROJECTS/Mol_Feturizer/Test_systems_manuscript/rnas/4jf2

>  <Rbt.Executable>
rbdock ($Id: //depot/dev/client3/rdock/2013.1/src/exe/rbdock.cxx#4 $)

>  <Rbt.Library>
libRbt.so (2013.1, Build901 2013/11/27)

>  <Rbt.Parameter_File>
/export/apps/rDock/src/rDock_2013.1_src/data/scripts/dock_solv.prm

>  <Rbt.Receptor>
prm/blind_docking_100.prm

>  <SCORE>
-14.3789

>  <SCORE.INTER>
-14.9126

>  <SCORE.INTER.CONST>
1

>  <SCORE.INTER.POLAR>
0

>  <SCORE.INTER.ROT>
1

>  <SCORE.INTER.SOLV>
17.2687

>  <SCORE.INTER.VDW>
-19.9646

>  <SCORE.INTER.norm>
-1.14712

>  <SCORE.INTRA>
0.475069

>  <SCORE.INTRA.DIHEDRAL>
-0.00609793

>  <SCORE.INTRA.DIHEDRAL.0>
1.75624

>  <SCORE.INTRA.POLAR>
0

>  <SCORE.INTRA.POLAR.0>
0

>  <SCORE.INTRA.REPUL>
0

>  <SCORE.INTRA.REPUL.0>
0

>  <SCORE.INTRA.SOLV>
0.788816

>  <SCORE.INTRA.SOLV.lig_0>
-46.5296

>  <SCORE.INTRA.VDW>
0.0837095

>  <SCORE.INTRA.VDW.0>
-0.381873

>  <SCORE.INTRA.norm>
0.0365437

>  <SCORE.RESTR>
0.0586227

>  <SCORE.RESTR.CAVITY>
0.0586227

>  <SCORE.RESTR.norm>
0.00450944

>  <SCORE.SYSTEM>
0

>  <SCORE.SYSTEM.CONST>
0

>  <SCORE.SYSTEM.DIHEDRAL>
0

>  <SCORE.SYSTEM.SOLV>
0

>  <SCORE.SYSTEM.norm>
0

>  <SCORE.heavy>
13

>  <SCORE.norm>
-1.10607

>  <RMSD>
3.435

$$$$
ligand
 OpenBabel02271912143D
libRbt.so/2013.1/901 2013/11/27
 13 14  0  0  0  0  0  0  0  0999 V2000
   -6.9119   31.8462   53.9203 N   0  0  0  0  0  0  0  0  0  0  0  0
   -6.0371   32.8260   54.4173 C   0  0  0  0  0  0  0  0  0  0  0  0
   -6.5328   34.1592   54.6705 N   0  0  0  0  0  0  0  0  0  0  0  0
   -4.7205   32.5156   54.6713 N   0  0  0  0  0  0  0  0  0  0  0  0
   -4.1996   31.2172   54.4351 C   0  0  0  0  0  0  0  0  0  0  0  0
   -5.0633   30.1971   53.9057 C   0  0  0  0  0  0  0  0  0  0  0  0
   -6.4373   30.5598   53.6434 C   0  0  0  0  0  0  0  0  0  0  0  0
   -7.2521   29.5795   53.1496 O   0  0  0  0  0  0  0  0  0  0  0  0
   -4.2981   28.9800   53.7626 C   0  0  0  0  0  0  0  0  0  0  0  0
   -3.0117   29.3167   54.1871 C   0  0  0  0  0  0  0  0  0  0  0  0
   -2.9652   30.6386   54.5912 N   0  0  0  0  0  0  0  0  0  0  0  0
   -4.7767   27.6471   53.2212 C   0  0  0  0  0  0  0  0  0  0  0  0
   -5.4694   27.7588   51.9394 N   0  0  0  0  0  0  0  0  0  0  0  0
  1  2  1  0  0  0  0
  1  7  1  0  0  0  0
  2  3  1  0  0  0  0
  2  4  2  0  0  0  0
  4  5  1  0  0  0  0
  5  6  2  0  0  0  0
  5 11  1  0  0  0  0
  6  7  1  0  0  0  0
  6  9  1  0  0  0  0
  7  8  2  0  0  0  0
  9 10  2  0  0  0  0
  9 12  1  0  0  0  0
 10 11  1  0  0  0  0
 12 13  1  0  0  0  0
M  END
>  <CHROM.1>
49.87957427,-5.25484524,30.54824495,53.86513145,1.83745716,-0.29012017,0.36567916

>  <Name>
ligand

>  <RI>
-1

>  <Rbt.Current_Directory>
/home/itssahil/PROJECTS/Mol_Feturizer/Test_systems_manuscript/rnas/4jf2

>  <Rbt.Executable>
rbdock ($Id: //depot/dev/client3/rdock/2013.1/src/exe/rbdock.cxx#4 $)

>  <Rbt.Library>
libRbt.so (2013.1, Build901 2013/11/27)

>  <Rbt.Parameter_File>
/export/apps/rDock/src/rDock_2013.1_src/data/scripts/dock_solv.prm

>  <Rbt.Receptor>
prm/pocket_docking_6.prm

>  <SCORE>
-14.7796

>  <SCORE.INTER>
-15.1226

>  <SCORE.INTER.CONST>
1

>  <SCORE.INTER.POLAR>
0

>  <SCORE.INTER.ROT>
1

>  <SCORE.INTER.SOLV>
16.2528

>  <SCORE.INTER.VDW>
-19.766

>  <SCORE.INTER.norm>
-1.16328

>  <SCORE.INTRA>
0.342944

>  <SCORE.INTRA.DIHEDRAL>
-0.026358

>  <SCORE.INTRA.DIHEDRAL.0>
1.75624

>  <SCORE.INTRA.POLAR>
0

>  <SCORE.INTRA.POLAR.0>
0

>  <SCORE.INTRA.REPUL>
0

>  <SCORE.INTRA.REPUL.0>
0

>  <SCORE.INTRA.SOLV>
0.684137

>  <SCORE.INTRA.SOLV.lig_0>
-46.5296

>  <SCORE.INTRA.VDW>
0.014054

>  <SCORE.INTRA.VDW.0>
-0.381873

>  <SCORE.INTRA.norm>
0.0263803

>  <SCORE.RESTR>
0

>  <SCORE.RESTR.CAVITY>
0

>  <SCORE.RESTR.norm>
0

>  <SCORE.SYSTEM>
0

>  <SCORE.SYSTEM.CONST>
0

>  <SCORE.SYSTEM.DIHEDRAL>
0

>  <SCORE.SYSTEM.SOLV>
0

>  <SCORE.SYSTEM.norm>
0

>  <SCORE.heavy>
13

>  <SCORE.norm>
-1.1369

>  <RMSD>
3.559

$$$$
ligand
 OpenBabel02271912143D
libRbt.so/2013.1/901 2013/11/27
 13 14  0  0  0  0  0  0  0  0999 V2000
   -6.9158   31.8362   53.9138 N   0  0  0  0  0  0  0  0  0  0  0  0
   -6.0490   32.8214   54.4139 C   0  0  0  0  0  0  0  0  0  0  0  0
   -6.5532   34.1524   54.6621 N   0  0  0  0  0  0  0  0  0  0  0  0
   -4.7322   32.5184   54.6758 N   0  0  0  0  0  0  0  0  0  0  0  0
   -4.2032   31.2224   54.4446 C   0  0  0  0  0  0  0  0  0  0  0  0
   -5.0585   30.1969   53.9122 C   0  0  0  0  0  0  0  0  0  0  0  0
   -6.4329   30.5519   53.6418 C   0  0  0  0  0  0  0  0  0  0  0  0
   -7.2398   29.5664   53.1451 O   0  0  0  0  0  0  0  0  0  0  0  0
   -4.2861   28.9836   53.7755 C   0  0  0  0  0  0  0  0  0  0  0  0
   -3.0039   29.3278   54.2065 C   0  0  0  0  0  0  0  0  0  0  0  0
   -2.9666   30.6506   54.6086 N   0  0  0  0  0  0  0  0  0  0  0  0
   -4.7546   27.6473   53.2337 C   0  0  0  0  0  0  0  0  0  0  0  0
   -5.4797   27.7579   51.9699 N   0  0  0  0  0  0  0  0  0  0  0  0
  1  2  1  0  0  0  0
  1  7  1  0  0  0  0
  2  3  1  0  0  0  0
  2  4  2  0  0  0  0
  4  5  1  0  0  0  0
  5  6  2  0  0  0  0
  5 11  1  0  0  0  0
  6  7  1  0  0  0  0
  6  9  1  0  0  0  0
  7  8  2  0  0  0  0
  9 10  2  0  0  0  0
  9 12  1  0  0  0  0
 10 11  1  0  0  0  0
 12 13  1  0  0  0  0
M  END
>  <CHROM.1>
47.96294641,-5.25483163,30.54733354,53.87180008,1.84198168,-0.29312402,0.36372575

>  <Name>
ligand

>  <RI>
-1

>  <Rbt.Current_Directory>
/home/itssahil/PROJECTS/Mol_Feturizer/Test_systems_manuscript/rnas/4jf2

>  <Rbt.Executable>
rbdock ($Id: //depot/dev/client3/rdock/2013.1/src/exe/rbdock.cxx#4 $)

>  <Rbt.Library>
libRbt.so (2013.1, Build901 2013/11/27)

>  <Rbt.Parameter_File>
/export/apps/rDock/src/rDock_2013.1_src/data/scripts/dock_solv.prm

>  <Rbt.Receptor>
prm/pocket_docking_7.prm

>  <SCORE>
-14.8049

>  <SCORE.INTER>
-15.2144

>  <SCORE.INTER.CONST>
1

>  <SCORE.INTER.POLAR>
0

>  <SCORE.INTER.ROT>
1

>  <SCORE.INTER.SOLV>
16.0952

>  <SCORE.INTER.VDW>
-19.7747

>  <SCORE.INTER.norm>
-1.17034

>  <SCORE.INTRA>
0.409534

>  <SCORE.INTRA.DIHEDRAL>
-0.0166083

>  <SCORE.INTRA.DIHEDRAL.0>
1.75624

>  <SCORE.INTRA.POLAR>
0

>  <SCORE.INTRA.POLAR.0>
0

>  <SCORE.INTRA.REPUL>
0

>  <SCORE.INTRA.REPUL.0>
0

>  <SCORE.INTRA.SOLV>
0.733277

>  <SCORE.INTRA.SOLV.lig_0>
-46.5296

>  <SCORE.INTRA.VDW>
0.0511996

>  <SCORE.INTRA.VDW.0>
-0.381873

>  <SCORE.INTRA.norm>
0.0315026

>  <SCORE.RESTR>
0

>  <SCORE.RESTR.CAVITY>
0

>  <SCORE.RESTR.norm>
0

>  <SCORE.SYSTEM>
0

>  <SCORE.SYSTEM.CONST>
0

>  <SCORE.SYSTEM.DIHEDRAL>
0

>  <SCORE.SYSTEM.SOLV>
0

>  <SCORE.SYSTEM.norm>
0

>  <SCORE.heavy>
13

>  <SCORE.norm>
-1.13884

>  <RMSD>
3.566

$$$$
ligand
 OpenBabel02271912143D
libRbt.so/2013.1/901 2013/11/27
 13 14  0  0  0  0  0  0  0  0999 V2000
   -6.9085   31.8298   53.9045 N   0  0  0  0  0  0  0  0  0  0  0  0
   -6.0408   32.8177   54.3979 C   0  0  0  0  0  0  0  0  0  0  0  0
   -6.5446   34.1500   54.6399 N   0  0  0  0  0  0  0  0  0  0  0  0
   -4.7235   32.5161   54.6591 N   0  0  0  0  0  0  0  0  0  0  0  0
   -4.1949   31.2189   54.4338 C   0  0  0  0  0  0  0  0  0  0  0  0
   -5.0511   30.1906   53.9083 C   0  0  0  0  0  0  0  0  0  0  0  0
   -6.4260   30.5440   53.6384 C   0  0  0  0  0  0  0  0  0  0  0  0
   -7.2337   29.5560   53.1484 O   0  0  0  0  0  0  0  0  0  0  0  0
   -4.2789   28.9765   53.7767 C   0  0  0  0  0  0  0  0  0  0  0  0
   -2.9959   29.3231   54.2036 C   0  0  0  0  0  0  0  0  0  0  0  0
   -2.9580   30.6480   54.5987 N   0  0  0  0  0  0  0  0  0  0  0  0
   -4.7483   27.6374   53.2428 C   0  0  0  0  0  0  0  0  0  0  0  0
   -5.4504   27.7382   51.9653 N   0  0  0  0  0  0  0  0  0  0  0  0
  1  2  1  0  0  0  0
  1  7  1  0  0  0  0
  2  3  1  0  0  0  0
  2  4  2  0  0  0  0
  4  5  1  0  0  0  0
  5  6  2  0  0  0  0
  5 11  1  0  0  0  0
  6  7  1  0  0  0  0
  6  9  1  0  0  0  0
  7  8  2  0  0  0  0
  9 10  2  0  0  0  0
  9 12  1  0  0  0  0
 10 11  1  0  0  0  0
 12 13  1  0  0  0  0
M  END
>  <CHROM.1>
49.20499480,-5.24545164,30.54051337,53.86524815,1.84311214,-0.29167692,0.35978127

>  <Name>
ligand

>  <RI>
-1

>  <Rbt.Current_Directory>
/home/itssahil/PROJECTS/Mol_Feturizer/Test_systems_manuscript/rnas/4jf2

>  <Rbt.Executable>
rbdock ($Id: //depot/dev/client3/rdock/2013.1/src/exe/rbdock.cxx#4 $)

>  <Rbt.Library>
libRbt.so (2013.1, Build901 2013/11/27)

>  <Rbt.Parameter_File>
/export/apps/rDock/src/rDock_2013.1_src/data/scripts/dock_solv.prm

>  <Rbt.Receptor>
prm/pocket_docking_3.prm

>  <SCORE>
-14.8068

>  <SCORE.INTER>
-15.167

>  <SCORE.INTER.CONST>
1

>  <SCORE.INTER.POLAR>
0

>  <SCORE.INTER.ROT>
1

>  <SCORE.INTER.SOLV>
16.0942

>  <SCORE.INTER.VDW>
-19.7427

>  <SCORE.INTER.norm>
-1.16669

>  <SCORE.INTRA>
0.360203

>  <SCORE.INTRA.DIHEDRAL>
-0.0228641

>  <SCORE.INTRA.DIHEDRAL.0>
1.75624

>  <SCORE.INTRA.POLAR>
0

>  <SCORE.INTRA.POLAR.0>
0

>  <SCORE.INTRA.REPUL>
0

>  <SCORE.INTRA.REPUL.0>
0

>  <SCORE.INTRA.SOLV>
0.70154

>  <SCORE.INTRA.SOLV.lig_0>
-46.5296

>  <SCORE.INTRA.VDW>
0.0208655

>  <SCORE.INTRA.VDW.0>
-0.381873

>  <SCORE.INTRA.norm>
0.027708

>  <SCORE.RESTR>
0

>  <SCORE.RESTR.CAVITY>
0

>  <SCORE.RESTR.norm>
0

>  <SCORE.SYSTEM>
0

>  <SCORE.SYSTEM.CONST>
0

>  <SCORE.SYSTEM.DIHEDRAL>
0

>  <SCORE.SYSTEM.SOLV>
0

>  <SCORE.SYSTEM.norm>
0

>  <SCORE.heavy>
13

>  <SCORE.norm>
-1.13898

>  <RMSD>
3.568

$$$$
ligand
 OpenBabel02271912143D
libRbt.so/2013.1/901 2013/11/27
 13 14  0  0  0  0  0  0  0  0999 V2000
   -6.8806   31.8282   53.9105 N   0  0  0  0  0  0  0  0  0  0  0  0
   -6.0228   32.8171   54.4189 C   0  0  0  0  0  0  0  0  0  0  0  0
   -6.5397   34.1408   54.6800 N   0  0  0  0  0  0  0  0  0  0  0  0
   -4.7028   32.5246   54.6765 N   0  0  0  0  0  0  0  0  0  0  0  0
   -4.1614   31.2360   54.4327 C   0  0  0  0  0  0  0  0  0  0  0  0
   -5.0073   30.2072   53.8916 C   0  0  0  0  0  0  0  0  0  0  0  0
   -6.3855   30.5512   53.6260 C   0  0  0  0  0  0  0  0  0  0  0  0
   -7.1833   29.5626   53.1210 O   0  0  0  0  0  0  0  0  0  0  0  0
   -4.2233   29.0028   53.7428 C   0  0  0  0  0  0  0  0  0  0  0  0
   -2.9440   29.3555   54.1756 C   0  0  0  0  0  0  0  0  0  0  0  0
   -2.9192   30.6749   54.5900 N   0  0  0  0  0  0  0  0  0  0  0  0
   -4.6793   27.6671   53.1891 C   0  0  0  0  0  0  0  0  0  0  0  0
   -5.4569   27.7868   51.9577 N   0  0  0  0  0  0  0  0  0  0  0  0
  1  2  1  0  0  0  0
  1  7  1  0  0  0  0
  2  3  1  0  0  0  0
  2  4  2  0  0  0  0
  4  5  1  0  0  0  0
  5  6  2  0  0  0  0
  5 11  1  0  0  0  0
  6  7  1  0  0  0  0
  6  9  1  0  0  0  0
  7  8  2  0  0  0  0
  9 10  2  0  0  0  0
  9 12  1  0  0  0  0
 10 11  1  0  0  0  0
 12 13  1  0  0  0  0
M  END
>  <CHROM.1>
45.45298673,-5.21119179,30.55640208,53.85720320,1.84763181,-0.28802987,0.37248263

>  <Name>
ligand

>  <RI>
-1

>  <Rbt.Current_Directory>
/home/itssahil/PROJECTS/Mol_Feturizer/Test_systems_manuscript/rnas/4jf2

>  <Rbt.Executable>
rbdock ($Id: //depot/dev/client3/rdock/2013.1/src/exe/rbdock.cxx#4 $)

>  <Rbt.Library>
libRbt.so (2013.1, Build901 2013/11/27)

>  <Rbt.Parameter_File>
/export/apps/rDock/src/rDock_2013.1_src/data/scripts/dock_solv.prm

>  <Rbt.Receptor>
prm/pocket_docking_6.prm

>  <SCORE>
-14.7091

>  <SCORE.INTER>
-15.1936

>  <SCORE.INTER.CONST>
1

>  <SCORE.INTER.POLAR>
0

>  <SCORE.INTER.ROT>
1

>  <SCORE.INTER.SOLV>
16.2054

>  <SCORE.INTER.VDW>
-19.7975

>  <SCORE.INTER.norm>
-1.16874

>  <SCORE.INTRA>
0.48448

>  <SCORE.INTRA.DIHEDRAL>
-0.00476238

>  <SCORE.INTRA.DIHEDRAL.0>
1.75624

>  <SCORE.INTRA.POLAR>
0

>  <SCORE.INTRA.POLAR.0>
0

>  <SCORE.INTRA.REPUL>
0

>  <SCORE.INTRA.REPUL.0>
0

>  <SCORE.INTRA.SOLV>
0.796128

>  <SCORE.INTRA.SOLV.lig_0>
-46.5296

>  <SCORE.INTRA.VDW>
0.0887968

>  <SCORE.INTRA.VDW.0>
-0.381873

>  <SCORE.INTRA.norm>
0.0372677

>  <SCORE.RESTR>
0

>  <SCORE.RESTR.CAVITY>
0

>  <SCORE.RESTR.norm>
0

>  <SCORE.SYSTEM>
0

>  <SCORE.SYSTEM.CONST>
0

>  <SCORE.SYSTEM.DIHEDRAL>
0

>  <SCORE.SYSTEM.SOLV>
0

>  <SCORE.SYSTEM.norm>
0

>  <SCORE.heavy>
13

>  <SCORE.norm>
-1.13147

>  <RMSD>
3.569

$$$$
ligand
 OpenBabel02271912143D
libRbt.so/2013.1/901 2013/11/27
 13 14  0  0  0  0  0  0  0  0999 V2000
   -6.9286   31.8169   53.9105 N   0  0  0  0  0  0  0  0  0  0  0  0
   -6.0605   32.8132   54.3859 C   0  0  0  0  0  0  0  0  0  0  0  0
   -6.5693   34.1438   54.6265 N   0  0  0  0  0  0  0  0  0  0  0  0
   -4.7380   32.5214   54.6312 N   0  0  0  0  0  0  0  0  0  0  0  0
   -4.2044   31.2261   54.4069 C   0  0  0  0  0  0  0  0  0  0  0  0
   -5.0612   30.1891   53.8995 C   0  0  0  0  0  0  0  0  0  0  0  0
   -6.4418   30.5324   53.6460 C   0  0  0  0  0  0  0  0  0  0  0  0
   -7.2499   29.5364   53.1731 O   0  0  0  0  0  0  0  0  0  0  0  0
   -4.2833   28.9791   53.7650 C   0  0  0  0  0  0  0  0  0  0  0  0
   -2.9969   29.3362   54.1723 C   0  0  0  0  0  0  0  0  0  0  0  0
   -2.9619   30.6638   54.5586 N   0  0  0  0  0  0  0  0  0  0  0  0
   -4.7515   27.6337   53.2459 C   0  0  0  0  0  0  0  0  0  0  0  0
   -5.4433   27.7185   51.9616 N   0  0  0  0  0  0  0  0  0  0  0  0
  1  2  1  0  0  0  0
  1  7  1  0  0  0  0
  2  3  1  0  0  0  0
  2  4  2  0  0  0  0
  4  5  1  0  0  0  0
  5  6  2  0  0  0  0
  5 11  1  0  0  0  0
  6  7  1  0  0  0  0
  6  9  1  0  0  0  0
  7  8  2  0  0  0  0
  9 10  2  0  0  0  0
  9 12  1  0  0  0  0
 10 11  1  0  0  0  0
 12 13  1  0  0  0  0
M  END
>  <CHROM.1>
50.59192087,-5.25600850,30.53731253,53.85555480,1.84619081,-0.27700160,0.35545343

>  <Name>
ligand

>  <RI>
-1

>  <Rbt.Current_Directory>
/home/itssahil/PROJECTS/Mol_Feturizer/Test_systems_manuscript/rnas/4jf2

>  <Rbt.Executable>
rbdock ($Id: //depot/dev/client3/rdock/2013.1/src/exe/rbdock.cxx#4 $)

>  <Rbt.Library>
libRbt.so (2013.1, Build901 2013/11/27)

>  <Rbt.Parameter_File>
/export/apps/rDock/src/rDock_2013.1_src/data/scripts/dock_solv.prm

>  <Rbt.Receptor>
prm/pocket_docking_5.prm

>  <SCORE>
-14.7804

>  <SCORE.INTER>
-15.1058

>  <SCORE.INTER.CONST>
1

>  <SCORE.INTER.POLAR>
0

>  <SCORE.INTER.ROT>
1

>  <SCORE.INTER.SOLV>
16.0622

>  <SCORE.INTER.VDW>
-19.6913

>  <SCORE.INTER.norm>
-1.16198

>  <SCORE.INTRA>
0.325348

>  <SCORE.INTRA.DIHEDRAL>
-0.030115

>  <SCORE.INTRA.DIHEDRAL.0>
1.75624

>  <SCORE.INTRA.POLAR>
0

>  <SCORE.INTRA.POLAR.0>
0

>  <SCORE.INTRA.REPUL>
0

>  <SCORE.INTRA.REPUL.0>
0

>  <SCORE.INTRA.SOLV>
0.665639

>  <SCORE.INTRA.SOLV.lig_0>
-46.5296

>  <SCORE.INTRA.VDW>
0.00758583

>  <SCORE.INTRA.VDW.0>
-0.381873

>  <SCORE.INTRA.norm>
0.0250267

>  <SCORE.RESTR>
0

>  <SCORE.RESTR.CAVITY>
0

>  <SCORE.RESTR.norm>
0

>  <SCORE.SYSTEM>
0

>  <SCORE.SYSTEM.CONST>
0

>  <SCORE.SYSTEM.DIHEDRAL>
0

>  <SCORE.SYSTEM.SOLV>
0

>  <SCORE.SYSTEM.norm>
0

>  <SCORE.heavy>
13

>  <SCORE.norm>
-1.13696

>  <RMSD>
3.576

$$$$
ligand
 OpenBabel02271912143D
libRbt.so/2013.1/901 2013/11/27
 13 14  0  0  0  0  0  0  0  0999 V2000
   -6.9036   31.8353   53.9409 N   0  0  0  0  0  0  0  0  0  0  0  0
   -6.0397   32.8350   54.4169 C   0  0  0  0  0  0  0  0  0  0  0  0
   -6.5562   34.1610   54.6668 N   0  0  0  0  0  0  0  0  0  0  0  0
   -4.7141   32.5509   54.6539 N   0  0  0  0  0  0  0  0  0  0  0  0
   -4.1729   31.2604   54.4203 C   0  0  0  0  0  0  0  0  0  0  0  0
   -5.0253   30.2203   53.9120 C   0  0  0  0  0  0  0  0  0  0  0  0
   -6.4095   30.5556   53.6674 C   0  0  0  0  0  0  0  0  0  0  0  0
   -7.2133   29.5565   53.1936 O   0  0  0  0  0  0  0  0  0  0  0  0
   -4.2400   29.0162   53.7674 C   0  0  0  0  0  0  0  0  0  0  0  0
   -2.9539   29.3799   54.1700 C   0  0  0  0  0  0  0  0  0  0  0  0
   -2.9259   30.7058   54.5627 N   0  0  0  0  0  0  0  0  0  0  0  0
   -4.7019   27.6704   53.2439 C   0  0  0  0  0  0  0  0  0  0  0  0
   -5.3909   27.7556   51.9582 N   0  0  0  0  0  0  0  0  0  0  0  0
  1  2  1  0  0  0  0
  1  7  1  0  0  0  0
  2  3  1  0  0  0  0
  2  4  2  0  0  0  0
  4  5  1  0  0  0  0
  5  6  2  0  0  0  0
  5 11  1  0  0  0  0
  6  7  1  0  0  0  0
  6  9  1  0  0  0  0
  7  8  2  0  0  0  0
  9 10  2  0  0  0  0
  9 12  1  0  0  0  0
 10 11  1  0  0  0  0
 12 13  1  0  0  0  0
M  END
>  <CHROM.1>
51.07838823,-5.22188760,30.56725720,53.87041974,1.85154007,-0.26986656,0.36233006

>  <Name>
ligand

>  <RI>
0

>  <Rbt.Current_Directory>
/home/itssahil/PROJECTS/Mol_Feturizer/Test_systems_manuscript/rnas/4jf2

>  <Rbt.Executable>
rbdock ($Id: //depot/dev/client3/rdock/2013.1/src/exe/rbdock.cxx#4 $)

>  <Rbt.Library>
libRbt.so (2013.1, Build901 2013/11/27)

>  <Rbt.Parameter_File>
/export/apps/rDock/src/rDock_2013.1_src/data/scripts/dock_solv.prm

>  <Rbt.Receptor>
prm/pocket_docking_8.prm

>  <SCORE>
-14.7352

>  <SCORE.INTER>
-15.0489

>  <SCORE.INTER.CONST>
1

>  <SCORE.INTER.POLAR>
0

>  <SCORE.INTER.ROT>
1

>  <SCORE.INTER.SOLV>
16.3284

>  <SCORE.INTER.VDW>
-19.742

>  <SCORE.INTER.norm>
-1.1576

>  <SCORE.INTRA>
0.313681

>  <SCORE.INTRA.DIHEDRAL>
-0.0327179

>  <SCORE.INTRA.DIHEDRAL.0>
1.75624

>  <SCORE.INTRA.POLAR>
0

>  <SCORE.INTRA.POLAR.0>
0

>  <SCORE.INTRA.REPUL>
0

>  <SCORE.INTRA.REPUL.0>
0

>  <SCORE.INTRA.SOLV>
0.652936

>  <SCORE.INTRA.SOLV.lig_0>
-46.5296

>  <SCORE.INTRA.VDW>
0.00357209

>  <SCORE.INTRA.VDW.0>
-0.381873

>  <SCORE.INTRA.norm>
0.0241293

>  <SCORE.RESTR>
0

>  <SCORE.RESTR.CAVITY>
0

>  <SCORE.RESTR.norm>
0

>  <SCORE.SYSTEM>
0

>  <SCORE.SYSTEM.CONST>
0

>  <SCORE.SYSTEM.DIHEDRAL>
0

>  <SCORE.SYSTEM.SOLV>
0

>  <SCORE.SYSTEM.norm>
0

>  <SCORE.heavy>
13

>  <SCORE.norm>
-1.13348

>  <RMSD>
3.583

$$$$
ligand
 OpenBabel02271912143D
libRbt.so/2013.1/901 2013/11/27
 13 14  0  0  0  0  0  0  0  0999 V2000
   -6.9321   31.8105   53.7884 N   0  0  0  0  0  0  0  0  0  0  0  0
   -6.0946   32.7937   54.3399 C   0  0  0  0  0  0  0  0  0  0  0  0
   -6.6152   34.1207   54.5753 N   0  0  0  0  0  0  0  0  0  0  0  0
   -4.7912   32.4924   54.6637 N   0  0  0  0  0  0  0  0  0  0  0  0
   -4.2467   31.2003   54.4469 C   0  0  0  0  0  0  0  0  0  0  0  0
   -5.0710   30.1772   53.8633 C   0  0  0  0  0  0  0  0  0  0  0  0
   -6.4317   30.5303   53.5287 C   0  0  0  0  0  0  0  0  0  0  0  0
   -7.2095   29.5471   52.9836 O   0  0  0  0  0  0  0  0  0  0  0  0
   -4.2884   28.9677   53.7537 C   0  0  0  0  0  0  0  0  0  0  0  0
   -3.0303   29.3119   54.2506 C   0  0  0  0  0  0  0  0  0  0  0  0
   -3.0177   30.6309   54.6664 N   0  0  0  0  0  0  0  0  0  0  0  0
   -4.7247   27.6351   53.1770 C   0  0  0  0  0  0  0  0  0  0  0  0
   -5.4626   27.7619   51.9222 N   0  0  0  0  0  0  0  0  0  0  0  0
  1  2  1  0  0  0  0
  1  7  1  0  0  0  0
  2  3  1  0  0  0  0
  2  4  2  0  0  0  0
  4  5  1  0  0  0  0
  5  6  2  0  0  0  0
  5 11  1  0  0  0  0
  6  7  1  0  0  0  0
  6  9  1  0  0  0  0
  7  8  2  0  0  0  0
  9 10  2  0  0  0  0
  9 12  1  0  0  0  0
 10 11  1  0  0  0  0
 12 13  1  0  0  0  0
M  END
>  <CHROM.1>
44.24953353,-5.27252141,30.52787848,53.81997834,1.85888730,-0.33711796,0.37519312

>  <Name>
ligand

>  <RI>
0

>  <Rbt.Current_Directory>
/home/itssahil/PROJECTS/Mol_Feturizer/Test_systems_manuscript/rnas/4jf2

>  <Rbt.Executable>
rbdock ($Id: //depot/dev/client3/rdock/2013.1/src/exe/rbdock.cxx#4 $)

>  <Rbt.Library>
libRbt.so (2013.1, Build901 2013/11/27)

>  <Rbt.Parameter_File>
/export/apps/rDock/src/rDock_2013.1_src/data/scripts/dock_solv.prm

>  <Rbt.Receptor>
prm/pocket_docking_8.prm

>  <SCORE>
-14.6614

>  <SCORE.INTER>
-15.1859

>  <SCORE.INTER.CONST>
1

>  <SCORE.INTER.POLAR>
0

>  <SCORE.INTER.ROT>
1

>  <SCORE.INTER.SOLV>
15.4696

>  <SCORE.INTER.VDW>
-19.5471

>  <SCORE.INTER.norm>
-1.16815

>  <SCORE.INTRA>
0.524554

>  <SCORE.INTRA.DIHEDRAL>
0.000491951

>  <SCORE.INTRA.DIHEDRAL.0>
1.75624

>  <SCORE.INTRA.POLAR>
0

>  <SCORE.INTRA.POLAR.0>
0

>  <SCORE.INTRA.REPUL>
0

>  <SCORE.INTRA.REPUL.0>
0

>  <SCORE.INTRA.SOLV>
0.825612

>  <SCORE.INTRA.SOLV.lig_0>
-46.5296

>  <SCORE.INTRA.VDW>
0.111502

>  <SCORE.INTRA.VDW.0>
-0.381873

>  <SCORE.INTRA.norm>
0.0403503

>  <SCORE.RESTR>
0

>  <SCORE.RESTR.CAVITY>
0

>  <SCORE.RESTR.norm>
0

>  <SCORE.SYSTEM>
0

>  <SCORE.SYSTEM.CONST>
0

>  <SCORE.SYSTEM.DIHEDRAL>
0

>  <SCORE.SYSTEM.SOLV>
0

>  <SCORE.SYSTEM.norm>
0

>  <SCORE.heavy>
13

>  <SCORE.norm>
-1.1278

>  <RMSD>
3.588

$$$$
ligand
 OpenBabel02271912143D
libRbt.so/2013.1/901 2013/11/27
 13 14  0  0  0  0  0  0  0  0999 V2000
   -6.9399   31.8179   53.9173 N   0  0  0  0  0  0  0  0  0  0  0  0
   -6.0869   32.8238   54.3997 C   0  0  0  0  0  0  0  0  0  0  0  0
   -6.6144   34.1465   54.6442 N   0  0  0  0  0  0  0  0  0  0  0  0
   -4.7613   32.5490   54.6480 N   0  0  0  0  0  0  0  0  0  0  0  0
   -4.2094   31.2620   54.4200 C   0  0  0  0  0  0  0  0  0  0  0  0
   -5.0505   30.2157   53.9054 C   0  0  0  0  0  0  0  0  0  0  0  0
   -6.4348   30.5413   53.6489 C   0  0  0  0  0  0  0  0  0  0  0  0
   -7.2278   29.5364   53.1692 O   0  0  0  0  0  0  0  0  0  0  0  0
   -4.2558   29.0169   53.7683 C   0  0  0  0  0  0  0  0  0  0  0  0
   -2.9756   29.3897   54.1813 C   0  0  0  0  0  0  0  0  0  0  0  0
   -2.9599   30.7160   54.5732 N   0  0  0  0  0  0  0  0  0  0  0  0
   -4.7040   27.6676   53.2420 C   0  0  0  0  0  0  0  0  0  0  0  0
   -5.4139   27.7508   51.9675 N   0  0  0  0  0  0  0  0  0  0  0  0
  1  2  1  0  0  0  0
  1  7  1  0  0  0  0
  2  3  1  0  0  0  0
  2  4  2  0  0  0  0
  4  5  1  0  0  0  0
  5  6  2  0  0  0  0
  5 11  1  0  0  0  0
  6  7  1  0  0  0  0
  6  9  1  0  0  0  0
  7  8  2  0  0  0  0
  9 10  2  0  0  0  0
  9 12  1  0  0  0  0
 10 11  1  0  0  0  0
 12 13  1  0  0  0  0
M  END
>  <CHROM.1>
49.55698669,-5.25155581,30.56159512,53.86325479,1.85910240,-0.27512253,0.36239793

>  <Name>
ligand

>  <RI>
-1

>  <Rbt.Current_Directory>
/home/itssahil/PROJECTS/Mol_Feturizer/Test_systems_manuscript/rnas/4jf2

>  <Rbt.Executable>
rbdock ($Id: //depot/dev/client3/rdock/2013.1/src/exe/rbdock.cxx#4 $)

>  <Rbt.Library>
libRbt.so (2013.1, Build901 2013/11/27)

>  <Rbt.Parameter_File>
/export/apps/rDock/src/rDock_2013.1_src/data/scripts/dock_solv.prm

>  <Rbt.Receptor>
prm/pocket_docking_6.prm

>  <SCORE>
-14.7864

>  <SCORE.INTER>
-15.1376

>  <SCORE.INTER.CONST>
1

>  <SCORE.INTER.POLAR>
0

>  <SCORE.INTER.ROT>
1

>  <SCORE.INTER.SOLV>
16.0244

>  <SCORE.INTER.VDW>
-19.6998

>  <SCORE.INTER.norm>
-1.16443

>  <SCORE.INTRA>
0.351122

>  <SCORE.INTRA.DIHEDRAL>
-0.0246791

>  <SCORE.INTRA.DIHEDRAL.0>
1.75624

>  <SCORE.INTRA.POLAR>
0

>  <SCORE.INTRA.POLAR.0>
0

>  <SCORE.INTRA.REPUL>
0

>  <SCORE.INTRA.REPUL.0>
0

>  <SCORE.INTRA.SOLV>
0.692474

>  <SCORE.INTRA.SOLV.lig_0>
-46.5296

>  <SCORE.INTRA.VDW>
0.0172253

>  <SCORE.INTRA.VDW.0>
-0.381873

>  <SCORE.INTRA.norm>
0.0270094

>  <SCORE.RESTR>
0

>  <SCORE.RESTR.CAVITY>
0

>  <SCORE.RESTR.norm>
0

>  <SCORE.SYSTEM>
0

>  <SCORE.SYSTEM.CONST>
0

>  <SCORE.SYSTEM.DIHEDRAL>
0

>  <SCORE.SYSTEM.SOLV>
0

>  <SCORE.SYSTEM.norm>
0

>  <SCORE.heavy>
13

>  <SCORE.norm>
-1.13742

>  <RMSD>
3.597

$$$$
ligand
 OpenBabel02271912143D
libRbt.so/2013.1/901 2013/11/27
 13 14  0  0  0  0  0  0  0  0999 V2000
   -6.9645   31.8052   53.8231 N   0  0  0  0  0  0  0  0  0  0  0  0
   -6.1143   32.8030   54.3268 C   0  0  0  0  0  0  0  0  0  0  0  0
   -6.6357   34.1302   54.5598 N   0  0  0  0  0  0  0  0  0  0  0  0
   -4.7976   32.5160   54.6065 N   0  0  0  0  0  0  0  0  0  0  0  0
   -4.2520   31.2243   54.3905 C   0  0  0  0  0  0  0  0  0  0  0  0
   -5.0898   30.1860   53.8550 C   0  0  0  0  0  0  0  0  0  0  0  0
   -6.4646   30.5243   53.5657 C   0  0  0  0  0  0  0  0  0  0  0  0
   -7.2549   29.5269   53.0663 O   0  0  0  0  0  0  0  0  0  0  0  0
   -4.3029   28.9802   53.7359 C   0  0  0  0  0  0  0  0  0  0  0  0
   -3.0297   29.3412   54.1797 C   0  0  0  0  0  0  0  0  0  0  0  0
   -3.0114   30.6670   54.5732 N   0  0  0  0  0  0  0  0  0  0  0  0
   -4.7505   27.6353   53.1977 C   0  0  0  0  0  0  0  0  0  0  0  0
   -5.4416   27.7274   51.9135 N   0  0  0  0  0  0  0  0  0  0  0  0
  1  2  1  0  0  0  0
  1  7  1  0  0  0  0
  2  3  1  0  0  0  0
  2  4  2  0  0  0  0
  4  5  1  0  0  0  0
  5  6  2  0  0  0  0
  5 11  1  0  0  0  0
  6  7  1  0  0  0  0
  6  9  1  0  0  0  0
  7  8  2  0  0  0  0
  9 10  2  0  0  0  0
  9 12  1  0  0  0  0
 10 11  1  0  0  0  0
 12 13  1  0  0  0  0
M  END
>  <CHROM.1>
48.93814287,-5.28777406,30.53386113,53.80894030,1.85832114,-0.30064467,0.36250432

>  <Name>
ligand

>  <RI>
-1

>  <Rbt.Current_Directory>
/home/itssahil/PROJECTS/Mol_Feturizer/Test_systems_manuscript/rnas/4jf2

>  <Rbt.Executable>
rbdock ($Id: //depot/dev/client3/rdock/2013.1/src/exe/rbdock.cxx#4 $)

>  <Rbt.Library>
libRbt.so (2013.1, Build901 2013/11/27)

>  <Rbt.Parameter_File>
/export/apps/rDock/src/rDock_2013.1_src/data/scripts/dock_solv.prm

>  <Rbt.Receptor>
prm/pocket_docking_7.prm

>  <SCORE>
-14.7189

>  <SCORE.INTER>
-15.0861

>  <SCORE.INTER.CONST>
1

>  <SCORE.INTER.POLAR>
0

>  <SCORE.INTER.ROT>
1

>  <SCORE.INTER.SOLV>
15.5358

>  <SCORE.INTER.VDW>
-19.5027

>  <SCORE.INTER.norm>
-1.16047

>  <SCORE.INTRA>
0.3672

>  <SCORE.INTRA.DIHEDRAL>
-0.0215001

>  <SCORE.INTRA.DIHEDRAL.0>
1.75624

>  <SCORE.INTRA.POLAR>
0

>  <SCORE.INTRA.POLAR.0>
0

>  <SCORE.INTRA.REPUL>
0

>  <SCORE.INTRA.REPUL.0>
0

>  <SCORE.INTRA.SOLV>
0.708392

>  <SCORE.INTRA.SOLV.lig_0>
-46.5296

>  <SCORE.INTRA.VDW>
0.023754

>  <SCORE.INTRA.VDW.0>
-0.381873

>  <SCORE.INTRA.norm>
0.0282462

>  <SCORE.RESTR>
0

>  <SCORE.RESTR.CAVITY>
0

>  <SCORE.RESTR.norm>
0

>  <SCORE.SYSTEM>
0

>  <SCORE.SYSTEM.CONST>
0

>  <SCORE.SYSTEM.DIHEDRAL>
0

>  <SCORE.SYSTEM.SOLV>
0

>  <SCORE.SYSTEM.norm>
0

>  <SCORE.heavy>
13

>  <SCORE.norm>
-1.13223

>  <RMSD>
3.597

$$$$
ligand
 OpenBabel02271912143D
libRbt.so/2013.1/901 2013/11/27
 13 14  0  0  0  0  0  0  0  0999 V2000
   -6.9661   31.8136   53.8407 N   0  0  0  0  0  0  0  0  0  0  0  0
   -6.1164   32.8162   54.3358 C   0  0  0  0  0  0  0  0  0  0  0  0
   -6.6391   34.1443   54.5601 N   0  0  0  0  0  0  0  0  0  0  0  0
   -4.7988   32.5329   54.6154 N   0  0  0  0  0  0  0  0  0  0  0  0
   -4.2519   31.2404   54.4078 C   0  0  0  0  0  0  0  0  0  0  0  0
   -5.0892   30.1972   53.8812 C   0  0  0  0  0  0  0  0  0  0  0  0
   -6.4649   30.5315   53.5918 C   0  0  0  0  0  0  0  0  0  0  0  0
   -7.2547   29.5296   53.1008 O   0  0  0  0  0  0  0  0  0  0  0  0
   -4.3009   28.9916   53.7694 C   0  0  0  0  0  0  0  0  0  0  0  0
   -3.0275   29.3574   54.2086 C   0  0  0  0  0  0  0  0  0  0  0  0
   -3.0103   30.6860   54.5924 N   0  0  0  0  0  0  0  0  0  0  0  0
   -4.7477   27.6423   53.2417 C   0  0  0  0  0  0  0  0  0  0  0  0
   -5.4371   27.7237   51.9559 N   0  0  0  0  0  0  0  0  0  0  0  0
  1  2  1  0  0  0  0
  1  7  1  0  0  0  0
  2  3  1  0  0  0  0
  2  4  2  0  0  0  0
  4  5  1  0  0  0  0
  5  6  2  0  0  0  0
  5 11  1  0  0  0  0
  6  7  1  0  0  0  0
  6  9  1  0  0  0  0
  7  8  2  0  0  0  0
  9 10  2  0  0  0  0
  9 12  1  0  0  0  0
 10 11  1  0  0  0  0
 12 13  1  0  0  0  0
M  END
>  <CHROM.1>
49.12608003,-5.28740902,30.54436457,53.83277050,1.85926332,-0.29867012,0.35572471

>  <Name>
ligand

>  <RI>
-1

>  <Rbt.Current_Directory>
/home/itssahil/PROJECTS/Mol_Feturizer/Test_systems_manuscript/rnas/4jf2

>  <Rbt.Executable>
rbdock ($Id: //depot/dev/client3/rdock/2013.1/src/exe/rbdock.cxx#4 $)

>  <Rbt.Library>
libRbt.so (2013.1, Build901 2013/11/27)

>  <Rbt.Parameter_File>
/export/apps/rDock/src/rDock_2013.1_src/data/scripts/dock_solv.prm

>  <Rbt.Receptor>
prm/pocket_docking_4.prm

>  <SCORE>
-14.7879

>  <SCORE.INTER>
-15.1502

>  <SCORE.INTER.CONST>
1

>  <SCORE.INTER.POLAR>
0

>  <SCORE.INTER.ROT>
1

>  <SCORE.INTER.SOLV>
15.4806

>  <SCORE.INTER.VDW>
-19.527

>  <SCORE.INTER.norm>
-1.1654

>  <SCORE.INTRA>
0.362262

>  <SCORE.INTRA.DIHEDRAL>
-0.0224596

>  <SCORE.INTRA.DIHEDRAL.0>
1.75624

>  <SCORE.INTRA.POLAR>
0

>  <SCORE.INTRA.POLAR.0>
0

>  <SCORE.INTRA.REPUL>
0

>  <SCORE.INTRA.REPUL.0>
0

>  <SCORE.INTRA.SOLV>
0.703568

>  <SCORE.INTRA.SOLV.lig_0>
-46.5296

>  <SCORE.INTRA.VDW>
0.021708

>  <SCORE.INTRA.VDW.0>
-0.381873

>  <SCORE.INTRA.norm>
0.0278663

>  <SCORE.RESTR>
0

>  <SCORE.RESTR.CAVITY>
0

>  <SCORE.RESTR.norm>
0

>  <SCORE.SYSTEM>
0

>  <SCORE.SYSTEM.CONST>
0

>  <SCORE.SYSTEM.DIHEDRAL>
0

>  <SCORE.SYSTEM.SOLV>
0

>  <SCORE.SYSTEM.norm>
0

>  <SCORE.heavy>
13

>  <SCORE.norm>
-1.13753

>  <RMSD>
3.602

$$$$
ligand
 OpenBabel02271912143D
libRbt.so/2013.1/901 2013/11/27
 13 14  0  0  0  0  0  0  0  0999 V2000
   -6.9793   31.8080   53.8385 N   0  0  0  0  0  0  0  0  0  0  0  0
   -6.1291   32.8139   54.3260 C   0  0  0  0  0  0  0  0  0  0  0  0
   -6.6536   34.1415   54.5494 N   0  0  0  0  0  0  0  0  0  0  0  0
   -4.8094   32.5344   54.5992 N   0  0  0  0  0  0  0  0  0  0  0  0
   -4.2607   31.2425   54.3924 C   0  0  0  0  0  0  0  0  0  0  0  0
   -5.0986   30.1959   53.8734 C   0  0  0  0  0  0  0  0  0  0  0  0
   -6.4766   30.5264   53.5905 C   0  0  0  0  0  0  0  0  0  0  0  0
   -7.2667   29.5212   53.1068 O   0  0  0  0  0  0  0  0  0  0  0  0
   -4.3081   28.9918   53.7608 C   0  0  0  0  0  0  0  0  0  0  0  0
   -3.0331   29.3617   54.1919 C   0  0  0  0  0  0  0  0  0  0  0  0
   -3.0169   30.6915   54.5719 N   0  0  0  0  0  0  0  0  0  0  0  0
   -4.7547   27.6399   53.2395 C   0  0  0  0  0  0  0  0  0  0  0  0
   -5.4555   27.7166   51.9595 N   0  0  0  0  0  0  0  0  0  0  0  0
  1  2  1  0  0  0  0
  1  7  1  0  0  0  0
  2  3  1  0  0  0  0
  2  4  2  0  0  0  0
  4  5  1  0  0  0  0
  5  6  2  0  0  0  0
  5 11  1  0  0  0  0
  6  7  1  0  0  0  0
  6  9  1  0  0  0  0
  7  8  2  0  0  0  0
  9 10  2  0  0  0  0
  9 12  1  0  0  0  0
 10 11  1  0  0  0  0
 12 13  1  0  0  0  0
M  END
>  <CHROM.1>
48.92162518,-5.29810468,30.54257830,53.82523802,1.85921138,-0.29274018,0.35264784

>  <Name>
ligand

>  <RI>
-1

>  <Rbt.Current_Directory>
/home/itssahil/PROJECTS/Mol_Feturizer/Test_systems_manuscript/rnas/4jf2

>  <Rbt.Executable>
rbdock ($Id: //depot/dev/client3/rdock/2013.1/src/exe/rbdock.cxx#4 $)

>  <Rbt.Library>
libRbt.so (2013.1, Build901 2013/11/27)

>  <Rbt.Parameter_File>
/export/apps/rDock/src/rDock_2013.1_src/data/scripts/dock_solv.prm

>  <Rbt.Receptor>
prm/pocket_docking_7.prm

>  <SCORE>
-14.7668

>  <SCORE.INTER>
-15.1344

>  <SCORE.INTER.CONST>
1

>  <SCORE.INTER.POLAR>
0

>  <SCORE.INTER.ROT>
1

>  <SCORE.INTER.SOLV>
15.3928

>  <SCORE.INTER.VDW>
-19.4872

>  <SCORE.INTER.norm>
-1.16419

>  <SCORE.INTRA>
0.367637

>  <SCORE.INTRA.DIHEDRAL>
-0.021416

>  <SCORE.INTRA.DIHEDRAL.0>
1.75624

>  <SCORE.INTRA.POLAR>
0

>  <SCORE.INTRA.POLAR.0>
0

>  <SCORE.INTRA.REPUL>
0

>  <SCORE.INTRA.REPUL.0>
0

>  <SCORE.INTRA.SOLV>
0.708816

>  <SCORE.INTRA.SOLV.lig_0>
-46.5296

>  <SCORE.INTRA.VDW>
0.0239365

>  <SCORE.INTRA.VDW.0>
-0.381873

>  <SCORE.INTRA.norm>
0.0282797

>  <SCORE.RESTR>
0

>  <SCORE.RESTR.CAVITY>
0

>  <SCORE.RESTR.norm>
0

>  <SCORE.SYSTEM>
0

>  <SCORE.SYSTEM.CONST>
0

>  <SCORE.SYSTEM.DIHEDRAL>
0

>  <SCORE.SYSTEM.SOLV>
0

>  <SCORE.SYSTEM.norm>
0

>  <SCORE.heavy>
13

>  <SCORE.norm>
-1.13591

>  <RMSD>
3.604

$$$$
ligand
 OpenBabel02271912143D
libRbt.so/2013.1/901 2013/11/27
 13 14  0  0  0  0  0  0  0  0999 V2000
   -6.9749   31.8114   53.8477 N   0  0  0  0  0  0  0  0  0  0  0  0
   -6.1280   32.8147   54.3460 C   0  0  0  0  0  0  0  0  0  0  0  0
   -6.6541   34.1408   54.5738 N   0  0  0  0  0  0  0  0  0  0  0  0
   -4.8099   32.5339   54.6255 N   0  0  0  0  0  0  0  0  0  0  0  0
   -4.2596   31.2433   54.4147 C   0  0  0  0  0  0  0  0  0  0  0  0
   -5.0941   30.1995   53.8846 C   0  0  0  0  0  0  0  0  0  0  0  0
   -6.4704   30.5313   53.5954 C   0  0  0  0  0  0  0  0  0  0  0  0
   -7.2574   29.5287   53.1011 O   0  0  0  0  0  0  0  0  0  0  0  0
   -4.3027   28.9962   53.7699 C   0  0  0  0  0  0  0  0  0  0  0  0
   -3.0304   29.3639   54.2108 C   0  0  0  0  0  0  0  0  0  0  0  0
   -3.0167   30.6915   54.5984 N   0  0  0  0  0  0  0  0  0  0  0  0
   -4.7458   27.6473   53.2381 C   0  0  0  0  0  0  0  0  0  0  0  0
   -5.4384   27.7311   51.9542 N   0  0  0  0  0  0  0  0  0  0  0  0
  1  2  1  0  0  0  0
  1  7  1  0  0  0  0
  2  3  1  0  0  0  0
  2  4  2  0  0  0  0
  4  5  1  0  0  0  0
  5  6  2  0  0  0  0
  5 11  1  0  0  0  0
  6  7  1  0  0  0  0
  6  9  1  0  0  0  0
  7  8  2  0  0  0  0
  9 10  2  0  0  0  0
  9 12  1  0  0  0  0
 10 11  1  0  0  0  0
 12 13  1  0  0  0  0
M  END
>  <CHROM.1>
48.94439121,-5.29336424,30.54639879,53.83722008,1.86164390,-0.29829283,0.35909871

>  <Name>
ligand

>  <RI>
-1

>  <Rbt.Current_Directory>
/home/itssahil/PROJECTS/Mol_Feturizer/Test_systems_manuscript/rnas/4jf2

>  <Rbt.Executable>
rbdock ($Id: //depot/dev/client3/rdock/2013.1/src/exe/rbdock.cxx#4 $)

>  <Rbt.Library>
libRbt.so (2013.1, Build901 2013/11/27)

>  <Rbt.Parameter_File>
/export/apps/rDock/src/rDock_2013.1_src/data/scripts/dock_solv.prm

>  <Rbt.Receptor>
prm/pocket_docking_6.prm

>  <SCORE>
-14.7986

>  <SCORE.INTER>
-15.1657

>  <SCORE.INTER.CONST>
1

>  <SCORE.INTER.POLAR>
0

>  <SCORE.INTER.ROT>
1

>  <SCORE.INTER.SOLV>
15.5127

>  <SCORE.INTER.VDW>
-19.548

>  <SCORE.INTER.norm>
-1.16659

>  <SCORE.INTRA>
0.367035

>  <SCORE.INTRA.DIHEDRAL>
-0.0215319

>  <SCORE.INTRA.DIHEDRAL.0>
1.75624

>  <SCORE.INTRA.POLAR>
0

>  <SCORE.INTRA.POLAR.0>
0

>  <SCORE.INTRA.REPUL>
0

>  <SCORE.INTRA.REPUL.0>
0

>  <SCORE.INTRA.SOLV>
0.708232

>  <SCORE.INTRA.SOLV.lig_0>
-46.5296

>  <SCORE.INTRA.VDW>
0.0236851

>  <SCORE.INTRA.VDW.0>
-0.381873

>  <SCORE.INTRA.norm>
0.0282335

>  <SCORE.RESTR>
0

>  <SCORE.RESTR.CAVITY>
0

>  <SCORE.RESTR.norm>
0

>  <SCORE.SYSTEM>
0

>  <SCORE.SYSTEM.CONST>
0

>  <SCORE.SYSTEM.DIHEDRAL>
0

>  <SCORE.SYSTEM.SOLV>
0

>  <SCORE.SYSTEM.norm>
0

>  <SCORE.heavy>
13

>  <SCORE.norm>
-1.13836

>  <RMSD>
3.605

$$$$
ligand
 OpenBabel02271912143D
libRbt.so/2013.1/901 2013/11/27
 13 14  0  0  0  0  0  0  0  0999 V2000
   -6.9851   31.8055   53.8276 N   0  0  0  0  0  0  0  0  0  0  0  0
   -6.1415   32.8092   54.3307 C   0  0  0  0  0  0  0  0  0  0  0  0
   -6.6703   34.1345   54.5579 N   0  0  0  0  0  0  0  0  0  0  0  0
   -4.8243   32.5297   54.6154 N   0  0  0  0  0  0  0  0  0  0  0  0
   -4.2715   31.2401   54.4053 C   0  0  0  0  0  0  0  0  0  0  0  0
   -5.1025   30.1959   53.8705 C   0  0  0  0  0  0  0  0  0  0  0  0
   -6.4780   30.5263   53.5759 C   0  0  0  0  0  0  0  0  0  0  0  0
   -7.2617   29.5234   53.0771 O   0  0  0  0  0  0  0  0  0  0  0  0
   -4.3091   28.9937   53.7576 C   0  0  0  0  0  0  0  0  0  0  0  0
   -3.0391   29.3625   54.2043 C   0  0  0  0  0  0  0  0  0  0  0  0
   -3.0288   30.6896   54.5936 N   0  0  0  0  0  0  0  0  0  0  0  0
   -4.7483   27.6449   53.2224 C   0  0  0  0  0  0  0  0  0  0  0  0
   -5.4360   27.7294   51.9359 N   0  0  0  0  0  0  0  0  0  0  0  0
  1  2  1  0  0  0  0
  1  7  1  0  0  0  0
  2  3  1  0  0  0  0
  2  4  2  0  0  0  0
  4  5  1  0  0  0  0
  5  6  2  0  0  0  0
  5 11  1  0  0  0  0
  6  7  1  0  0  0  0
  6  9  1  0  0  0  0
  7  8  2  0  0  0  0
  9 10  2  0  0  0  0
  9 12  1  0  0  0  0
 10 11  1  0  0  0  0
 12 13  1  0  0  0  0
M  END
>  <CHROM.1>
48.92991682,-5.30202347,30.54259367,53.82269071,1.86437945,-0.30177771,0.36109776

>  <Name>
ligand

>  <RI>
-1

>  <Rbt.Current_Directory>
/home/itssahil/PROJECTS/Mol_Feturizer/Test_systems_manuscript/rnas/4jf2

>  <Rbt.Executable>
rbdock ($Id: //depot/dev/client3/rdock/2013.1/src/exe/rbdock.cxx#4 $)

>  <Rbt.Library>
libRbt.so (2013.1, Build901 2013/11/27)

>  <Rbt.Parameter_File>
/export/apps/rDock/src/rDock_2013.1_src/data/scripts/dock_solv.prm

>  <Rbt.Receptor>
prm/pocket_docking_3.prm

>  <SCORE>
-14.748

>  <SCORE.INTER>
-15.1154

>  <SCORE.INTER.CONST>
1

>  <SCORE.INTER.POLAR>
0

>  <SCORE.INTER.ROT>
1

>  <SCORE.INTER.SOLV>
15.4276

>  <SCORE.INTER.VDW>
-19.4862

>  <SCORE.INTER.norm>
-1.16273

>  <SCORE.INTRA>
0.367417

>  <SCORE.INTRA.DIHEDRAL>
-0.0214582

>  <SCORE.INTRA.DIHEDRAL.0>
1.75624

>  <SCORE.INTRA.POLAR>
0

>  <SCORE.INTRA.POLAR.0>
0

>  <SCORE.INTRA.REPUL>
0

>  <SCORE.INTRA.REPUL.0>
0

>  <SCORE.INTRA.SOLV>
0.708603

>  <SCORE.INTRA.SOLV.lig_0>
-46.5296

>  <SCORE.INTRA.VDW>
0.0238449

>  <SCORE.INTRA.VDW.0>
-0.381873

>  <SCORE.INTRA.norm>
0.0282629

>  <SCORE.RESTR>
0

>  <SCORE.RESTR.CAVITY>
0

>  <SCORE.RESTR.norm>
0

>  <SCORE.SYSTEM>
0

>  <SCORE.SYSTEM.CONST>
0

>  <SCORE.SYSTEM.DIHEDRAL>
0

>  <SCORE.SYSTEM.SOLV>
0

>  <SCORE.SYSTEM.norm>
0

>  <SCORE.heavy>
13

>  <SCORE.norm>
-1.13446

>  <RMSD>
3.609

$$$$
ligand
 OpenBabel02271912143D
libRbt.so/2013.1/901 2013/11/27
 13 14  0  0  0  0  0  0  0  0999 V2000
   -6.9745   31.7947   53.8666 N   0  0  0  0  0  0  0  0  0  0  0  0
   -6.1325   32.8064   54.3559 C   0  0  0  0  0  0  0  0  0  0  0  0
   -6.6682   34.1287   54.5842 N   0  0  0  0  0  0  0  0  0  0  0  0
   -4.8100   32.5376   54.6263 N   0  0  0  0  0  0  0  0  0  0  0  0
   -4.2503   31.2512   54.4147 C   0  0  0  0  0  0  0  0  0  0  0  0
   -5.0799   30.1989   53.8937 C   0  0  0  0  0  0  0  0  0  0  0  0
   -6.4611   30.5182   53.6139 C   0  0  0  0  0  0  0  0  0  0  0  0
   -7.2433   29.5077   53.1282 O   0  0  0  0  0  0  0  0  0  0  0  0
   -4.2792   29.0020   53.7762 C   0  0  0  0  0  0  0  0  0  0  0  0
   -3.0068   29.3817   54.2066 C   0  0  0  0  0  0  0  0  0  0  0  0
   -3.0015   30.7104   54.5906 N   0  0  0  0  0  0  0  0  0  0  0  0
   -4.7147   27.6480   53.2513 C   0  0  0  0  0  0  0  0  0  0  0  0
   -5.4296   27.7237   51.9792 N   0  0  0  0  0  0  0  0  0  0  0  0
  1  2  1  0  0  0  0
  1  7  1  0  0  0  0
  2  3  1  0  0  0  0
  2  4  2  0  0  0  0
  4  5  1  0  0  0  0
  5  6  2  0  0  0  0
  5 11  1  0  0  0  0
  6  7  1  0  0  0  0
  6  9  1  0  0  0  0
  7  8  2  0  0  0  0
  9 10  2  0  0  0  0
  9 12  1  0  0  0  0
 10 11  1  0  0  0  0
 12 13  1  0  0  0  0
M  END
>  <CHROM.1>
48.35655331,-5.28342406,30.54406143,53.84742538,1.86637700,-0.28823383,0.35731639

>  <Name>
ligand

>  <RI>
-1

>  <Rbt.Current_Directory>
/home/itssahil/PROJECTS/Mol_Feturizer/Test_systems_manuscript/rnas/4jf2

>  <Rbt.Executable>
rbdock ($Id: //depot/dev/client3/rdock/2013.1/src/exe/rbdock.cxx#4 $)

>  <Rbt.Library>
libRbt.so (2013.1, Build901 2013/11/27)

>  <Rbt.Parameter_File>
/export/apps/rDock/src/rDock_2013.1_src/data/scripts/dock_solv.prm

>  <Rbt.Receptor>
prm/pocket_docking_3.prm

>  <SCORE>
-14.7499

>  <SCORE.INTER>
-15.1486

>  <SCORE.INTER.CONST>
1

>  <SCORE.INTER.POLAR>
0

>  <SCORE.INTER.ROT>
1

>  <SCORE.INTER.SOLV>
15.5702

>  <SCORE.INTER.VDW>
-19.5558

>  <SCORE.INTER.norm>
-1.16528

>  <SCORE.INTRA>
0.398718

>  <SCORE.INTRA.DIHEDRAL>
-0.0185647

>  <SCORE.INTRA.DIHEDRAL.0>
1.75624

>  <SCORE.INTRA.POLAR>
0

>  <SCORE.INTRA.POLAR.0>
0

>  <SCORE.INTRA.REPUL>
0

>  <SCORE.INTRA.REPUL.0>
0

>  <SCORE.INTRA.SOLV>
0.723263

>  <SCORE.INTRA.SOLV.lig_0>
-46.5296

>  <SCORE.INTRA.VDW>
0.0463683

>  <SCORE.INTRA.VDW.0>
-0.381873

>  <SCORE.INTRA.norm>
0.0306706

>  <SCORE.RESTR>
0

>  <SCORE.RESTR.CAVITY>
0

>  <SCORE.RESTR.norm>
0

>  <SCORE.SYSTEM>
0

>  <SCORE.SYSTEM.CONST>
0

>  <SCORE.SYSTEM.DIHEDRAL>
0

>  <SCORE.SYSTEM.SOLV>
0

>  <SCORE.SYSTEM.norm>
0

>  <SCORE.heavy>
13

>  <SCORE.norm>
-1.13461

>  <RMSD>
3.611

$$$$
ligand
 OpenBabel02271912143D
libRbt.so/2013.1/901 2013/11/27
 13 14  0  0  0  0  0  0  0  0999 V2000
   -7.0466   31.6008   53.7457 N   0  0  0  0  0  0  0  0  0  0  0  0
   -6.2201   32.6063   54.2729 C   0  0  0  0  0  0  0  0  0  0  0  0
   -6.7660   33.9225   54.5121 N   0  0  0  0  0  0  0  0  0  0  0  0
   -4.9034   32.3371   54.5696 N   0  0  0  0  0  0  0  0  0  0  0  0
   -4.3341   31.0565   54.3482 C   0  0  0  0  0  0  0  0  0  0  0  0
   -5.1471   30.0111   53.7888 C   0  0  0  0  0  0  0  0  0  0  0  0
   -6.5226   30.3308   53.4822 C   0  0  0  0  0  0  0  0  0  0  0  0
   -7.2893   29.3266   52.9601 O   0  0  0  0  0  0  0  0  0  0  0  0
   -4.3394   28.8192   53.6688 C   0  0  0  0  0  0  0  0  0  0  0  0
   -3.0789   29.1953   54.1359 C   0  0  0  0  0  0  0  0  0  0  0  0
   -3.0877   30.5169   54.5438 N   0  0  0  0  0  0  0  0  0  0  0  0
   -4.7574   27.4734   53.1095 C   0  0  0  0  0  0  0  0  0  0  0  0
   -5.3724   27.5627   51.7871 N   0  0  0  0  0  0  0  0  0  0  0  0
  1  2  1  0  0  0  0
  1  7  1  0  0  0  0
  2  3  1  0  0  0  0
  2  4  2  0  0  0  0
  4  5  1  0  0  0  0
  5  6  2  0  0  0  0
  5 11  1  0  0  0  0
  6  7  1  0  0  0  0
  6  9  1  0  0  0  0
  7  8  2  0  0  0  0
  9 10  2  0  0  0  0
  9 12  1  0  0  0  0
 10 11  1  0  0  0  0
 12 13  1  0  0  0  0
M  END
>  <CHROM.1>
51.71378526,-5.34515276,30.35578433,53.74112452,1.88359425,-0.30920357,0.38300340

>  <Name>
ligand

>  <RI>
-1

>  <Rbt.Current_Directory>
/home/itssahil/PROJECTS/Mol_Feturizer/Test_systems_manuscript/rnas/4jf2

>  <Rbt.Executable>
rbdock ($Id: //depot/dev/client3/rdock/2013.1/src/exe/rbdock.cxx#4 $)

>  <Rbt.Library>
libRbt.so (2013.1, Build901 2013/11/27)

>  <Rbt.Parameter_File>
/export/apps/rDock/src/rDock_2013.1_src/data/scripts/dock_solv.prm

>  <Rbt.Receptor>
prm/pocket_docking_2.prm

>  <SCORE>
-13.7283

>  <SCORE.INTER>
-14.3529

>  <SCORE.INTER.CONST>
1

>  <SCORE.INTER.POLAR>
0

>  <SCORE.INTER.ROT>
1

>  <SCORE.INTER.SOLV>
16.0459

>  <SCORE.INTER.VDW>
-19.1839

>  <SCORE.INTER.norm>
-1.10407

>  <SCORE.INTRA>
0.298846

>  <SCORE.INTRA.DIHEDRAL>
-0.0361598

>  <SCORE.INTRA.DIHEDRAL.0>
1.75624

>  <SCORE.INTRA.POLAR>
0

>  <SCORE.INTRA.POLAR.0>
0

>  <SCORE.INTRA.REPUL>
0

>  <SCORE.INTRA.REPUL.0>
0

>  <SCORE.INTRA.SOLV>
0.636262

>  <SCORE.INTRA.SOLV.lig_0>
-46.5296

>  <SCORE.INTRA.VDW>
-0.00120538

>  <SCORE.INTRA.VDW.0>
-0.381873

>  <SCORE.INTRA.norm>
0.0229881

>  <SCORE.RESTR>
0.32572

>  <SCORE.RESTR.CAVITY>
0.32572

>  <SCORE.RESTR.norm>
0.0250554

>  <SCORE.SYSTEM>
0

>  <SCORE.SYSTEM.CONST>
0

>  <SCORE.SYSTEM.DIHEDRAL>
0

>  <SCORE.SYSTEM.SOLV>
0

>  <SCORE.SYSTEM.norm>
0

>  <SCORE.heavy>
13

>  <SCORE.norm>
-1.05603

>  <RMSD>
3.618

$$$$
ligand
 OpenBabel02271912143D
libRbt.so/2013.1/901 2013/11/27
 13 14  0  0  0  0  0  0  0  0999 V2000
   -6.9807   31.7805   53.8488 N   0  0  0  0  0  0  0  0  0  0  0  0
   -6.1452   32.7952   54.3433 C   0  0  0  0  0  0  0  0  0  0  0  0
   -6.6879   34.1146   54.5719 N   0  0  0  0  0  0  0  0  0  0  0  0
   -4.8226   32.5319   54.6183 N   0  0  0  0  0  0  0  0  0  0  0  0
   -4.2563   31.2485   54.4066 C   0  0  0  0  0  0  0  0  0  0  0  0
   -5.0789   30.1934   53.8803 C   0  0  0  0  0  0  0  0  0  0  0  0
   -6.4605   30.5069   53.5957 C   0  0  0  0  0  0  0  0  0  0  0  0
   -7.2361   29.4937   53.1051 O   0  0  0  0  0  0  0  0  0  0  0  0
   -4.2722   29.0004   53.7638 C   0  0  0  0  0  0  0  0  0  0  0  0
   -3.0033   29.3851   54.1998 C   0  0  0  0  0  0  0  0  0  0  0  0
   -3.0056   30.7131   54.5863 N   0  0  0  0  0  0  0  0  0  0  0  0
   -4.6996   27.6454   53.2347 C   0  0  0  0  0  0  0  0  0  0  0  0
   -5.4121   27.7204   51.9612 N   0  0  0  0  0  0  0  0  0  0  0  0
  1  2  1  0  0  0  0
  1  7  1  0  0  0  0
  2  3  1  0  0  0  0
  2  4  2  0  0  0  0
  4  5  1  0  0  0  0
  5  6  2  0  0  0  0
  5 11  1  0  0  0  0
  6  7  1  0  0  0  0
  6  9  1  0  0  0  0
  7  8  2  0  0  0  0
  9 10  2  0  0  0  0
  9 12  1  0  0  0  0
 10 11  1  0  0  0  0
 12 13  1  0  0  0  0
M  END
>  <CHROM.1>
48.24453074,-5.28403040,30.53770772,53.83402872,1.87213598,-0.29028292,0.36073969

>  <Name>
ligand

>  <RI>
-1

>  <Rbt.Current_Directory>
/home/itssahil/PROJECTS/Mol_Feturizer/Test_systems_manuscript/rnas/4jf2

>  <Rbt.Executable>
rbdock ($Id: //depot/dev/client3/rdock/2013.1/src/exe/rbdock.cxx#4 $)

>  <Rbt.Library>
libRbt.so (2013.1, Build901 2013/11/27)

>  <Rbt.Parameter_File>
/export/apps/rDock/src/rDock_2013.1_src/data/scripts/dock_solv.prm

>  <Rbt.Receptor>
prm/pocket_docking_4.prm

>  <SCORE>
-14.7356

>  <SCORE.INTER>
-15.1374

>  <SCORE.INTER.CONST>
1

>  <SCORE.INTER.POLAR>
0

>  <SCORE.INTER.ROT>
1

>  <SCORE.INTER.SOLV>
15.5253

>  <SCORE.INTER.VDW>
-19.5334

>  <SCORE.INTER.norm>
-1.16441

>  <SCORE.INTRA>
0.401772

>  <SCORE.INTRA.DIHEDRAL>
-0.0180054

>  <SCORE.INTRA.DIHEDRAL.0>
1.75624

>  <SCORE.INTRA.POLAR>
0

>  <SCORE.INTRA.POLAR.0>
0

>  <SCORE.INTRA.REPUL>
0

>  <SCORE.INTRA.REPUL.0>
0

>  <SCORE.INTRA.SOLV>
0.726118

>  <SCORE.INTRA.SOLV.lig_0>
-46.5296

>  <SCORE.INTRA.VDW>
0.0477162

>  <SCORE.INTRA.VDW.0>
-0.381873

>  <SCORE.INTRA.norm>
0.0309056

>  <SCORE.RESTR>
0

>  <SCORE.RESTR.CAVITY>
0

>  <SCORE.RESTR.norm>
0

>  <SCORE.SYSTEM>
0

>  <SCORE.SYSTEM.CONST>
0

>  <SCORE.SYSTEM.DIHEDRAL>
0

>  <SCORE.SYSTEM.SOLV>
0

>  <SCORE.SYSTEM.norm>
0

>  <SCORE.heavy>
13

>  <SCORE.norm>
-1.13351

>  <RMSD>
3.619

$$$$
ligand
 OpenBabel02271912143D
libRbt.so/2013.1/901 2013/11/27
 13 14  0  0  0  0  0  0  0  0999 V2000
   -6.9692   31.8121   53.8728 N   0  0  0  0  0  0  0  0  0  0  0  0
   -6.1315   32.8326   54.3512 C   0  0  0  0  0  0  0  0  0  0  0  0
   -6.6757   34.1519   54.5768 N   0  0  0  0  0  0  0  0  0  0  0  0
   -4.8051   32.5752   54.6135 N   0  0  0  0  0  0  0  0  0  0  0  0
   -4.2372   31.2921   54.4042 C   0  0  0  0  0  0  0  0  0  0  0  0
   -5.0622   30.2310   53.8941 C   0  0  0  0  0  0  0  0  0  0  0  0
   -6.4478   30.5384   53.6226 C   0  0  0  0  0  0  0  0  0  0  0  0
   -7.2256   29.5195   53.1474 O   0  0  0  0  0  0  0  0  0  0  0  0
   -4.2532   29.0397   53.7768 C   0  0  0  0  0  0  0  0  0  0  0  0
   -2.9808   29.4312   54.1963 C   0  0  0  0  0  0  0  0  0  0  0  0
   -2.9830   30.7617   54.5738 N   0  0  0  0  0  0  0  0  0  0  0  0
   -4.6821   27.6798   53.2616 C   0  0  0  0  0  0  0  0  0  0  0  0
   -5.4324   27.7461   52.0095 N   0  0  0  0  0  0  0  0  0  0  0  0
  1  2  1  0  0  0  0
  1  7  1  0  0  0  0
  2  3  1  0  0  0  0
  2  4  2  0  0  0  0
  4  5  1  0  0  0  0
  5  6  2  0  0  0  0
  5 11  1  0  0  0  0
  6  7  1  0  0  0  0
  6  9  1  0  0  0  0
  7  8  2  0  0  0  0
  9 10  2  0  0  0  0
  9 12  1  0  0  0  0
 10 11  1  0  0  0  0
 12 13  1  0  0  0  0
M  END
>  <CHROM.1>
47.06928415,-5.27086958,30.57452144,53.84889182,1.86950254,-0.27875411,0.35221281

>  <Name>
ligand

>  <RI>
-1

>  <Rbt.Current_Directory>
/home/itssahil/PROJECTS/Mol_Feturizer/Test_systems_manuscript/rnas/4jf2

>  <Rbt.Executable>
rbdock ($Id: //depot/dev/client3/rdock/2013.1/src/exe/rbdock.cxx#4 $)

>  <Rbt.Library>
libRbt.so (2013.1, Build901 2013/11/27)

>  <Rbt.Parameter_File>
/export/apps/rDock/src/rDock_2013.1_src/data/scripts/dock_solv.prm

>  <Rbt.Receptor>
prm/pocket_docking_5.prm

>  <SCORE>
-14.7681

>  <SCORE.INTER>
-15.2031

>  <SCORE.INTER.CONST>
1

>  <SCORE.INTER.POLAR>
0

>  <SCORE.INTER.ROT>
1

>  <SCORE.INTER.SOLV>
15.416

>  <SCORE.INTER.VDW>
-19.5407

>  <SCORE.INTER.norm>
-1.16947

>  <SCORE.INTRA>
0.434988

>  <SCORE.INTRA.DIHEDRAL>
-0.0122617

>  <SCORE.INTRA.DIHEDRAL.0>
1.75624

>  <SCORE.INTRA.POLAR>
0

>  <SCORE.INTRA.POLAR.0>
0

>  <SCORE.INTRA.REPUL>
0

>  <SCORE.INTRA.REPUL.0>
0

>  <SCORE.INTRA.SOLV>
0.755858

>  <SCORE.INTRA.SOLV.lig_0>
-46.5296

>  <SCORE.INTRA.VDW>
0.0631902

>  <SCORE.INTRA.VDW.0>
-0.381873

>  <SCORE.INTRA.norm>
0.0334606

>  <SCORE.RESTR>
0

>  <SCORE.RESTR.CAVITY>
0

>  <SCORE.RESTR.norm>
0

>  <SCORE.SYSTEM>
0

>  <SCORE.SYSTEM.CONST>
0

>  <SCORE.SYSTEM.DIHEDRAL>
0

>  <SCORE.SYSTEM.SOLV>
0

>  <SCORE.SYSTEM.norm>
0

>  <SCORE.heavy>
13

>  <SCORE.norm>
-1.13601

>  <RMSD>
3.621

$$$$
ligand
 OpenBabel02271912143D
libRbt.so/2013.1/901 2013/11/27
 13 14  0  0  0  0  0  0  0  0999 V2000
   -6.9677   31.8111   53.8660 N   0  0  0  0  0  0  0  0  0  0  0  0
   -6.1288   32.8330   54.3397 C   0  0  0  0  0  0  0  0  0  0  0  0
   -6.6723   34.1531   54.5621 N   0  0  0  0  0  0  0  0  0  0  0  0
   -4.8020   32.5762   54.6003 N   0  0  0  0  0  0  0  0  0  0  0  0
   -4.2347   31.2922   54.3941 C   0  0  0  0  0  0  0  0  0  0  0  0
   -5.0609   30.2297   53.8889 C   0  0  0  0  0  0  0  0  0  0  0  0
   -6.4470   30.5365   53.6190 C   0  0  0  0  0  0  0  0  0  0  0  0
   -7.2258   29.5163   53.1484 O   0  0  0  0  0  0  0  0  0  0  0  0
   -4.2524   29.0379   53.7739 C   0  0  0  0  0  0  0  0  0  0  0  0
   -2.9791   29.4304   54.1898 C   0  0  0  0  0  0  0  0  0  0  0  0
   -2.9803   30.7622   54.5631 N   0  0  0  0  0  0  0  0  0  0  0  0
   -4.6825   27.6764   53.2638 C   0  0  0  0  0  0  0  0  0  0  0  0
   -5.3976   27.7353   51.9910 N   0  0  0  0  0  0  0  0  0  0  0  0
  1  2  1  0  0  0  0
  1  7  1  0  0  0  0
  2  3  1  0  0  0  0
  2  4  2  0  0  0  0
  4  5  1  0  0  0  0
  5  6  2  0  0  0  0
  5 11  1  0  0  0  0
  6  7  1  0  0  0  0
  6  9  1  0  0  0  0
  7  8  2  0  0  0  0
  9 10  2  0  0  0  0
  9 12  1  0  0  0  0
 10 11  1  0  0  0  0
 12 13  1  0  0  0  0
M  END
>  <CHROM.1>
48.92763075,-5.26652359,30.57284088,53.84120975,1.87121772,-0.27734819,0.35108767

>  <Name>
ligand

>  <RI>
-1

>  <Rbt.Current_Directory>
/home/itssahil/PROJECTS/Mol_Feturizer/Test_systems_manuscript/rnas/4jf2

>  <Rbt.Executable>
rbdock ($Id: //depot/dev/client3/rdock/2013.1/src/exe/rbdock.cxx#4 $)

>  <Rbt.Library>
libRbt.so (2013.1, Build901 2013/11/27)

>  <Rbt.Parameter_File>
/export/apps/rDock/src/rDock_2013.1_src/data/scripts/dock_solv.prm

>  <Rbt.Receptor>
prm/pocket_docking_5.prm

>  <SCORE>
-14.776

>  <SCORE.INTER>
-15.1435

>  <SCORE.INTER.CONST>
1

>  <SCORE.INTER.POLAR>
0

>  <SCORE.INTER.ROT>
1

>  <SCORE.INTER.SOLV>
15.4563

>  <SCORE.INTER.VDW>
-19.5144

>  <SCORE.INTER.norm>
-1.16488

>  <SCORE.INTRA>
0.367478

>  <SCORE.INTRA.DIHEDRAL>
-0.0214466

>  <SCORE.INTRA.DIHEDRAL.0>
1.75624

>  <SCORE.INTRA.POLAR>
0

>  <SCORE.INTRA.POLAR.0>
0

>  <SCORE.INTRA.REPUL>
0

>  <SCORE.INTRA.REPUL.0>
0

>  <SCORE.INTRA.SOLV>
0.708662

>  <SCORE.INTRA.SOLV.lig_0>
-46.5296

>  <SCORE.INTRA.VDW>
0.0238701

>  <SCORE.INTRA.VDW.0>
-0.381873

>  <SCORE.INTRA.norm>
0.0282675

>  <SCORE.RESTR>
0

>  <SCORE.RESTR.CAVITY>
0

>  <SCORE.RESTR.norm>
0

>  <SCORE.SYSTEM>
0

>  <SCORE.SYSTEM.CONST>
0

>  <SCORE.SYSTEM.DIHEDRAL>
0

>  <SCORE.SYSTEM.SOLV>
0

>  <SCORE.SYSTEM.norm>
0

>  <SCORE.heavy>
13

>  <SCORE.norm>
-1.13662

>  <RMSD>
3.625

$$$$
ligand
 OpenBabel02271912143D
libRbt.so/2013.1/901 2013/11/27
 13 14  0  0  0  0  0  0  0  0999 V2000
   -6.9657   31.8122   53.8695 N   0  0  0  0  0  0  0  0  0  0  0  0
   -6.1270   32.8330   54.3455 C   0  0  0  0  0  0  0  0  0  0  0  0
   -6.6704   34.1528   54.5700 N   0  0  0  0  0  0  0  0  0  0  0  0
   -4.8004   32.5755   54.6066 N   0  0  0  0  0  0  0  0  0  0  0  0
   -4.2331   31.2918   54.3983 C   0  0  0  0  0  0  0  0  0  0  0  0
   -5.0592   30.2303   53.8907 C   0  0  0  0  0  0  0  0  0  0  0  0
   -6.4450   30.5379   53.6204 C   0  0  0  0  0  0  0  0  0  0  0  0
   -7.2238   29.5187   53.1475 O   0  0  0  0  0  0  0  0  0  0  0  0
   -4.2508   29.0386   53.7741 C   0  0  0  0  0  0  0  0  0  0  0  0
   -2.9778   29.4301   54.1915 C   0  0  0  0  0  0  0  0  0  0  0  0
   -2.9790   30.7612   54.5672 N   0  0  0  0  0  0  0  0  0  0  0  0
   -4.6808   27.6781   53.2612 C   0  0  0  0  0  0  0  0  0  0  0  0
   -5.3897   27.7389   51.9849 N   0  0  0  0  0  0  0  0  0  0  0  0
  1  2  1  0  0  0  0
  1  7  1  0  0  0  0
  2  3  1  0  0  0  0
  2  4  2  0  0  0  0
  4  5  1  0  0  0  0
  5  6  2  0  0  0  0
  5 11  1  0  0  0  0
  6  7  1  0  0  0  0
  6  9  1  0  0  0  0
  7  8  2  0  0  0  0
  9 10  2  0  0  0  0
  9 12  1  0  0  0  0
 10 11  1  0  0  0  0
 12 13  1  0  0  0  0
M  END
>  <CHROM.1>
49.19475839,-5.26429783,30.57355945,53.84322562,1.87164448,-0.27806305,0.35325444

>  <Name>
ligand

>  <RI>
-1

>  <Rbt.Current_Directory>
/home/itssahil/PROJECTS/Mol_Feturizer/Test_systems_manuscript/rnas/4jf2

>  <Rbt.Executable>
rbdock ($Id: //depot/dev/client3/rdock/2013.1/src/exe/rbdock.cxx#4 $)

>  <Rbt.Library>
libRbt.so (2013.1, Build901 2013/11/27)

>  <Rbt.Parameter_File>
/export/apps/rDock/src/rDock_2013.1_src/data/scripts/dock_solv.prm

>  <Rbt.Receptor>
prm/pocket_docking_7.prm

>  <SCORE>
-14.7766

>  <SCORE.INTER>
-15.137

>  <SCORE.INTER.CONST>
1

>  <SCORE.INTER.POLAR>
0

>  <SCORE.INTER.ROT>
1

>  <SCORE.INTER.SOLV>
15.5139

>  <SCORE.INTER.VDW>
-19.5293

>  <SCORE.INTER.norm>
-1.16439

>  <SCORE.INTRA>
0.36047

>  <SCORE.INTRA.DIHEDRAL>
-0.0228115

>  <SCORE.INTRA.DIHEDRAL.0>
1.75624

>  <SCORE.INTRA.POLAR>
0

>  <SCORE.INTRA.POLAR.0>
0

>  <SCORE.INTRA.REPUL>
0

>  <SCORE.INTRA.REPUL.0>
0

>  <SCORE.INTRA.SOLV>
0.701803

>  <SCORE.INTRA.SOLV.lig_0>
-46.5296

>  <SCORE.INTRA.VDW>
0.0209743

>  <SCORE.INTRA.VDW.0>
-0.381873

>  <SCORE.INTRA.norm>
0.0277285

>  <SCORE.RESTR>
0

>  <SCORE.RESTR.CAVITY>
0

>  <SCORE.RESTR.norm>
0

>  <SCORE.SYSTEM>
0

>  <SCORE.SYSTEM.CONST>
0

>  <SCORE.SYSTEM.DIHEDRAL>
0

>  <SCORE.SYSTEM.SOLV>
0

>  <SCORE.SYSTEM.norm>
0

>  <SCORE.heavy>
13

>  <SCORE.norm>
-1.13666

>  <RMSD>
3.625

$$$$
ligand
 OpenBabel02271912143D
libRbt.so/2013.1/901 2013/11/27
 13 14  0  0  0  0  0  0  0  0999 V2000
   -6.9973   31.8597   53.7955 N   0  0  0  0  0  0  0  0  0  0  0  0
   -6.1630   32.8769   54.2872 C   0  0  0  0  0  0  0  0  0  0  0  0
   -6.7053   34.1983   54.5041 N   0  0  0  0  0  0  0  0  0  0  0  0
   -4.8421   32.6140   54.5704 N   0  0  0  0  0  0  0  0  0  0  0  0
   -4.2761   31.3286   54.3701 C   0  0  0  0  0  0  0  0  0  0  0  0
   -5.0973   30.2708   53.8470 C   0  0  0  0  0  0  0  0  0  0  0  0
   -6.4772   30.5839   53.5536 C   0  0  0  0  0  0  0  0  0  0  0  0
   -7.2515   29.5682   53.0661 O   0  0  0  0  0  0  0  0  0  0  0  0
   -4.2915   29.0762   53.7425 C   0  0  0  0  0  0  0  0  0  0  0  0
   -3.0242   29.4625   54.1821 C   0  0  0  0  0  0  0  0  0  0  0  0
   -3.0270   30.7931   54.5596 N   0  0  0  0  0  0  0  0  0  0  0  0
   -4.7177   27.7181   53.2206 C   0  0  0  0  0  0  0  0  0  0  0  0
   -5.4692   27.7893   51.9694 N   0  0  0  0  0  0  0  0  0  0  0  0
  1  2  1  0  0  0  0
  1  7  1  0  0  0  0
  2  3  1  0  0  0  0
  2  4  2  0  0  0  0
  4  5  1  0  0  0  0
  5  6  2  0  0  0  0
  5 11  1  0  0  0  0
  6  7  1  0  0  0  0
  6  9  1  0  0  0  0
  7  8  2  0  0  0  0
  9 10  2  0  0  0  0
  9 12  1  0  0  0  0
 10 11  1  0  0  0  0
 12 13  1  0  0  0  0
M  END
>  <CHROM.1>
46.00382612,-5.30555053,30.61536881,53.79954604,1.86972949,-0.29483674,0.35132260

>  <Name>
ligand

>  <RI>
-1

>  <Rbt.Current_Directory>
/home/itssahil/PROJECTS/Mol_Feturizer/Test_systems_manuscript/rnas/4jf2

>  <Rbt.Executable>
rbdock ($Id: //depot/dev/client3/rdock/2013.1/src/exe/rbdock.cxx#4 $)

>  <Rbt.Library>
libRbt.so (2013.1, Build901 2013/11/27)

>  <Rbt.Parameter_File>
/export/apps/rDock/src/rDock_2013.1_src/data/scripts/dock_solv.prm

>  <Rbt.Receptor>
prm/pocket_docking_4.prm

>  <SCORE>
-14.7359

>  <SCORE.INTER>
-15.203

>  <SCORE.INTER.CONST>
1

>  <SCORE.INTER.POLAR>
0

>  <SCORE.INTER.ROT>
1

>  <SCORE.INTER.SOLV>
14.7782

>  <SCORE.INTER.VDW>
-19.328

>  <SCORE.INTER.norm>
-1.16946

>  <SCORE.INTRA>
0.467083

>  <SCORE.INTRA.DIHEDRAL>
-0.00726332

>  <SCORE.INTRA.DIHEDRAL.0>
1.75624

>  <SCORE.INTRA.POLAR>
0

>  <SCORE.INTRA.POLAR.0>
0

>  <SCORE.INTRA.REPUL>
0

>  <SCORE.INTRA.REPUL.0>
0

>  <SCORE.INTRA.SOLV>
0.782489

>  <SCORE.INTRA.SOLV.lig_0>
-46.5296

>  <SCORE.INTRA.VDW>
0.0794708

>  <SCORE.INTRA.VDW.0>
-0.381873

>  <SCORE.INTRA.norm>
0.0359295

>  <SCORE.RESTR>
0

>  <SCORE.RESTR.CAVITY>
0

>  <SCORE.RESTR.norm>
0

>  <SCORE.SYSTEM>
0

>  <SCORE.SYSTEM.CONST>
0

>  <SCORE.SYSTEM.DIHEDRAL>
0

>  <SCORE.SYSTEM.SOLV>
0

>  <SCORE.SYSTEM.norm>
0

>  <SCORE.heavy>
13

>  <SCORE.norm>
-1.13353

>  <RMSD>
3.633

$$$$
ligand
 OpenBabel02271912143D
libRbt.so/2013.1/901 2013/11/27
 13 14  0  0  0  0  0  0  0  0999 V2000
   -6.9973   31.8592   53.8010 N   0  0  0  0  0  0  0  0  0  0  0  0
   -6.1629   32.8772   54.2905 C   0  0  0  0  0  0  0  0  0  0  0  0
   -6.7059   34.1981   54.5089 N   0  0  0  0  0  0  0  0  0  0  0  0
   -4.8409   32.6157   54.5703 N   0  0  0  0  0  0  0  0  0  0  0  0
   -4.2742   31.3307   54.3686 C   0  0  0  0  0  0  0  0  0  0  0  0
   -5.0957   30.2722   53.8476 C   0  0  0  0  0  0  0  0  0  0  0  0
   -6.4766   30.5839   53.5578 C   0  0  0  0  0  0  0  0  0  0  0  0
   -7.2512   29.5674   53.0723 O   0  0  0  0  0  0  0  0  0  0  0  0
   -4.2889   29.0784   53.7411 C   0  0  0  0  0  0  0  0  0  0  0  0
   -3.0210   29.4659   54.1774 C   0  0  0  0  0  0  0  0  0  0  0  0
   -3.0240   30.7965   54.5548 N   0  0  0  0  0  0  0  0  0  0  0  0
   -4.7152   27.7198   53.2202 C   0  0  0  0  0  0  0  0  0  0  0  0
   -5.4706   27.7903   51.9714 N   0  0  0  0  0  0  0  0  0  0  0  0
  1  2  1  0  0  0  0
  1  7  1  0  0  0  0
  2  3  1  0  0  0  0
  2  4  2  0  0  0  0
  4  5  1  0  0  0  0
  5  6  2  0  0  0  0
  5 11  1  0  0  0  0
  6  7  1  0  0  0  0
  6  9  1  0  0  0  0
  7  8  2  0  0  0  0
  9 10  2  0  0  0  0
  9 12  1  0  0  0  0
 10 11  1  0  0  0  0
 12 13  1  0  0  0  0
M  END
>  <CHROM.1>
45.97028254,-5.30445495,30.61653363,53.80072246,1.86972693,-0.29206561,0.35128386

>  <Name>
ligand

>  <RI>
0

>  <Rbt.Current_Directory>
/home/itssahil/PROJECTS/Mol_Feturizer/Test_systems_manuscript/rnas/4jf2

>  <Rbt.Executable>
rbdock ($Id: //depot/dev/client3/rdock/2013.1/src/exe/rbdock.cxx#4 $)

>  <Rbt.Library>
libRbt.so (2013.1, Build901 2013/11/27)

>  <Rbt.Parameter_File>
/export/apps/rDock/src/rDock_2013.1_src/data/scripts/dock_solv.prm

>  <Rbt.Receptor>
prm/pocket_docking_8.prm

>  <SCORE>
-14.7364

>  <SCORE.INTER>
-15.2045

>  <SCORE.INTER.CONST>
1

>  <SCORE.INTER.POLAR>
0

>  <SCORE.INTER.ROT>
1

>  <SCORE.INTER.SOLV>
14.8003

>  <SCORE.INTER.VDW>
-19.3364

>  <SCORE.INTER.norm>
-1.16958

>  <SCORE.INTRA>
0.468127

>  <SCORE.INTRA.DIHEDRAL>
-0.00710936

>  <SCORE.INTRA.DIHEDRAL.0>
1.75624

>  <SCORE.INTRA.POLAR>
0

>  <SCORE.INTRA.POLAR.0>
0

>  <SCORE.INTRA.REPUL>
0

>  <SCORE.INTRA.REPUL.0>
0

>  <SCORE.INTRA.SOLV>
0.783322

>  <SCORE.INTRA.SOLV.lig_0>
-46.5296

>  <SCORE.INTRA.VDW>
0.0800204

>  <SCORE.INTRA.VDW.0>
-0.381873

>  <SCORE.INTRA.norm>
0.0360097

>  <SCORE.RESTR>
0

>  <SCORE.RESTR.CAVITY>
0

>  <SCORE.RESTR.norm>
0

>  <SCORE.SYSTEM>
0

>  <SCORE.SYSTEM.CONST>
0

>  <SCORE.SYSTEM.DIHEDRAL>
0

>  <SCORE.SYSTEM.SOLV>
0

>  <SCORE.SYSTEM.norm>
0

>  <SCORE.heavy>
13

>  <SCORE.norm>
-1.13357

>  <RMSD>
3.634

$$$$
ligand
 OpenBabel02271912143D
libRbt.so/2013.1/901 2013/11/27
 13 14  0  0  0  0  0  0  0  0999 V2000
   -6.9801   31.8298   53.8664 N   0  0  0  0  0  0  0  0  0  0  0  0
   -6.1465   32.8590   54.3331 C   0  0  0  0  0  0  0  0  0  0  0  0
   -6.6986   34.1755   54.5553 N   0  0  0  0  0  0  0  0  0  0  0  0
   -4.8164   32.6128   54.5872 N   0  0  0  0  0  0  0  0  0  0  0  0
   -4.2406   31.3326   54.3809 C   0  0  0  0  0  0  0  0  0  0  0  0
   -5.0615   30.2627   53.8827 C   0  0  0  0  0  0  0  0  0  0  0  0
   -6.4513   30.5585   53.6195 C   0  0  0  0  0  0  0  0  0  0  0  0
   -7.2250   29.5314   53.1556 O   0  0  0  0  0  0  0  0  0  0  0  0
   -4.2447   29.0767   53.7662 C   0  0  0  0  0  0  0  0  0  0  0  0
   -2.9722   29.4798   54.1742 C   0  0  0  0  0  0  0  0  0  0  0  0
   -2.9814   30.8124   54.5444 N   0  0  0  0  0  0  0  0  0  0  0  0
   -4.6673   27.7108   53.2616 C   0  0  0  0  0  0  0  0  0  0  0  0
   -5.4248   27.7646   52.0132 N   0  0  0  0  0  0  0  0  0  0  0  0
  1  2  1  0  0  0  0
  1  7  1  0  0  0  0
  2  3  1  0  0  0  0
  2  4  2  0  0  0  0
  4  5  1  0  0  0  0
  5  6  2  0  0  0  0
  5 11  1  0  0  0  0
  6  7  1  0  0  0  0
  6  9  1  0  0  0  0
  7  8  2  0  0  0  0
  9 10  2  0  0  0  0
  9 12  1  0  0  0  0
 10 11  1  0  0  0  0
 12 13  1  0  0  0  0
M  END
>  <CHROM.1>
47.18241535,-5.27279268,30.60445369,53.83699880,1.87420395,-0.26948578,0.34801755

>  <Name>
ligand

>  <RI>
-1

>  <Rbt.Current_Directory>
/home/itssahil/PROJECTS/Mol_Feturizer/Test_systems_manuscript/rnas/4jf2

>  <Rbt.Executable>
rbdock ($Id: //depot/dev/client3/rdock/2013.1/src/exe/rbdock.cxx#4 $)

>  <Rbt.Library>
libRbt.so (2013.1, Build901 2013/11/27)

>  <Rbt.Parameter_File>
/export/apps/rDock/src/rDock_2013.1_src/data/scripts/dock_solv.prm

>  <Rbt.Receptor>
prm/pocket_docking_5.prm

>  <SCORE>
-14.7292

>  <SCORE.INTER>
-15.1609

>  <SCORE.INTER.CONST>
1

>  <SCORE.INTER.POLAR>
0

>  <SCORE.INTER.ROT>
1

>  <SCORE.INTER.SOLV>
15.2192

>  <SCORE.INTER.VDW>
-19.447

>  <SCORE.INTER.norm>
-1.16622

>  <SCORE.INTRA>
0.431695

>  <SCORE.INTRA.DIHEDRAL>
-0.0128044

>  <SCORE.INTRA.DIHEDRAL.0>
1.75624

>  <SCORE.INTRA.POLAR>
0

>  <SCORE.INTRA.POLAR.0>
0

>  <SCORE.INTRA.REPUL>
0

>  <SCORE.INTRA.REPUL.0>
0

>  <SCORE.INTRA.SOLV>
0.753012

>  <SCORE.INTRA.SOLV.lig_0>
-46.5296

>  <SCORE.INTRA.VDW>
0.0615911

>  <SCORE.INTRA.VDW.0>
-0.381873

>  <SCORE.INTRA.norm>
0.0332073

>  <SCORE.RESTR>
0

>  <SCORE.RESTR.CAVITY>
0

>  <SCORE.RESTR.norm>
0

>  <SCORE.SYSTEM>
0

>  <SCORE.SYSTEM.CONST>
0

>  <SCORE.SYSTEM.DIHEDRAL>
0

>  <SCORE.SYSTEM.SOLV>
0

>  <SCORE.SYSTEM.norm>
0

>  <SCORE.heavy>
13

>  <SCORE.norm>
-1.13302

>  <RMSD>
3.636

$$$$
ligand
 OpenBabel02271912143D
libRbt.so/2013.1/901 2013/11/27
 13 14  0  0  0  0  0  0  0  0999 V2000
   -6.9884   31.8254   53.8663 N   0  0  0  0  0  0  0  0  0  0  0  0
   -6.1524   32.8546   54.3289 C   0  0  0  0  0  0  0  0  0  0  0  0
   -6.7039   34.1706   54.5556 N   0  0  0  0  0  0  0  0  0  0  0  0
   -4.8207   32.6087   54.5746 N   0  0  0  0  0  0  0  0  0  0  0  0
   -4.2456   31.3290   54.3637 C   0  0  0  0  0  0  0  0  0  0  0  0
   -5.0690   30.2592   53.8696 C   0  0  0  0  0  0  0  0  0  0  0  0
   -6.4605   30.5545   53.6151 C   0  0  0  0  0  0  0  0  0  0  0  0
   -7.2365   29.5275   53.1550 O   0  0  0  0  0  0  0  0  0  0  0  0
   -4.2524   29.0737   53.7470 C   0  0  0  0  0  0  0  0  0  0  0  0
   -2.9776   29.4770   54.1477 C   0  0  0  0  0  0  0  0  0  0  0  0
   -2.9852   30.8092   54.5190 N   0  0  0  0  0  0  0  0  0  0  0  0
   -4.6774   27.7081   53.2438 C   0  0  0  0  0  0  0  0  0  0  0  0
   -5.4013   27.7588   51.9755 N   0  0  0  0  0  0  0  0  0  0  0  0
  1  2  1  0  0  0  0
  1  7  1  0  0  0  0
  2  3  1  0  0  0  0
  2  4  2  0  0  0  0
  4  5  1  0  0  0  0
  5  6  2  0  0  0  0
  5 11  1  0  0  0  0
  6  7  1  0  0  0  0
  6  9  1  0  0  0  0
  7  8  2  0  0  0  0
  9 10  2  0  0  0  0
  9 12  1  0  0  0  0
 10 11  1  0  0  0  0
 12 13  1  0  0  0  0
M  END
>  <CHROM.1>
49.23572148,-5.27738341,30.60056578,53.82343409,1.87531069,-0.26386919,0.35097721

>  <Name>
ligand

>  <RI>
-1

>  <Rbt.Current_Directory>
/home/itssahil/PROJECTS/Mol_Feturizer/Test_systems_manuscript/rnas/4jf2

>  <Rbt.Executable>
rbdock ($Id: //depot/dev/client3/rdock/2013.1/src/exe/rbdock.cxx#4 $)

>  <Rbt.Library>
libRbt.so (2013.1, Build901 2013/11/27)

>  <Rbt.Parameter_File>
/export/apps/rDock/src/rDock_2013.1_src/data/scripts/dock_solv.prm

>  <Rbt.Receptor>
prm/pocket_docking_6.prm

>  <SCORE>
-14.7439

>  <SCORE.INTER>
-15.1033

>  <SCORE.INTER.CONST>
1

>  <SCORE.INTER.POLAR>
0

>  <SCORE.INTER.ROT>
1

>  <SCORE.INTER.SOLV>
15.3315

>  <SCORE.INTER.VDW>
-19.446

>  <SCORE.INTER.norm>
-1.16179

>  <SCORE.INTRA>
0.359404

>  <SCORE.INTRA.DIHEDRAL>
-0.0230218

>  <SCORE.INTRA.DIHEDRAL.0>
1.75624

>  <SCORE.INTRA.POLAR>
0

>  <SCORE.INTRA.POLAR.0>
0

>  <SCORE.INTRA.REPUL>
0

>  <SCORE.INTRA.REPUL.0>
0

>  <SCORE.INTRA.SOLV>
0.70075

>  <SCORE.INTRA.SOLV.lig_0>
-46.5296

>  <SCORE.INTRA.VDW>
0.0205401

>  <SCORE.INTRA.VDW.0>
-0.381873

>  <SCORE.INTRA.norm>
0.0276465

>  <SCORE.RESTR>
0

>  <SCORE.RESTR.CAVITY>
0

>  <SCORE.RESTR.norm>
0

>  <SCORE.SYSTEM>
0

>  <SCORE.SYSTEM.CONST>
0

>  <SCORE.SYSTEM.DIHEDRAL>
0

>  <SCORE.SYSTEM.SOLV>
0

>  <SCORE.SYSTEM.norm>
0

>  <SCORE.heavy>
13

>  <SCORE.norm>
-1.13414

>  <RMSD>
3.637

$$$$
ligand
 OpenBabel02271912143D
libRbt.so/2013.1/901 2013/11/27
 13 14  0  0  0  0  0  0  0  0999 V2000
   -6.9826   31.8271   53.8753 N   0  0  0  0  0  0  0  0  0  0  0  0
   -6.1486   32.8553   54.3438 C   0  0  0  0  0  0  0  0  0  0  0  0
   -6.7013   34.1705   54.5722 N   0  0  0  0  0  0  0  0  0  0  0  0
   -4.8177   32.6091   54.5937 N   0  0  0  0  0  0  0  0  0  0  0  0
   -4.2414   31.3302   54.3813 C   0  0  0  0  0  0  0  0  0  0  0  0
   -5.0626   30.2615   53.8811 C   0  0  0  0  0  0  0  0  0  0  0  0
   -6.4532   30.5571   53.6224 C   0  0  0  0  0  0  0  0  0  0  0  0
   -7.2273   29.5311   53.1565 O   0  0  0  0  0  0  0  0  0  0  0  0
   -4.2451   29.0766   53.7581 C   0  0  0  0  0  0  0  0  0  0  0  0
   -2.9720   29.4792   54.1646 C   0  0  0  0  0  0  0  0  0  0  0  0
   -2.9814   30.8104   54.5397 N   0  0  0  0  0  0  0  0  0  0  0  0
   -4.6679   27.7123   53.2495 C   0  0  0  0  0  0  0  0  0  0  0  0
   -5.3856   27.7662   51.9778 N   0  0  0  0  0  0  0  0  0  0  0  0
  1  2  1  0  0  0  0
  1  7  1  0  0  0  0
  2  3  1  0  0  0  0
  2  4  2  0  0  0  0
  4  5  1  0  0  0  0
  5  6  2  0  0  0  0
  5 11  1  0  0  0  0
  6  7  1  0  0  0  0
  6  9  1  0  0  0  0
  7  8  2  0  0  0  0
  9 10  2  0  0  0  0
  9 12  1  0  0  0  0
 10 11  1  0  0  0  0
 12 13  1  0  0  0  0
M  END
>  <CHROM.1>
49.31497618,-5.27081475,30.60294329,53.83507764,1.87705441,-0.26720136,0.35434710

>  <Name>
ligand

>  <RI>
0

>  <Rbt.Current_Directory>
/home/itssahil/PROJECTS/Mol_Feturizer/Test_systems_manuscript/rnas/4jf2

>  <Rbt.Executable>
rbdock ($Id: //depot/dev/client3/rdock/2013.1/src/exe/rbdock.cxx#4 $)

>  <Rbt.Library>
libRbt.so (2013.1, Build901 2013/11/27)

>  <Rbt.Parameter_File>
/export/apps/rDock/src/rDock_2013.1_src/data/scripts/dock_solv.prm

>  <Rbt.Receptor>
prm/pocket_docking_8.prm

>  <SCORE>
-14.737

>  <SCORE.INTER>
-15.0944

>  <SCORE.INTER.CONST>
1

>  <SCORE.INTER.POLAR>
0

>  <SCORE.INTER.ROT>
1

>  <SCORE.INTER.SOLV>
15.435

>  <SCORE.INTER.VDW>
-19.4746

>  <SCORE.INTER.norm>
-1.1611

>  <SCORE.INTRA>
0.357348

>  <SCORE.INTRA.DIHEDRAL>
-0.0234293

>  <SCORE.INTRA.DIHEDRAL.0>
1.75624

>  <SCORE.INTRA.POLAR>
0

>  <SCORE.INTRA.POLAR.0>
0

>  <SCORE.INTRA.REPUL>
0

>  <SCORE.INTRA.REPUL.0>
0

>  <SCORE.INTRA.SOLV>
0.69871

>  <SCORE.INTRA.SOLV.lig_0>
-46.5296

>  <SCORE.INTRA.VDW>
0.0197076

>  <SCORE.INTRA.VDW.0>
-0.381873

>  <SCORE.INTRA.norm>
0.0274883

>  <SCORE.RESTR>
0

>  <SCORE.RESTR.CAVITY>
0

>  <SCORE.RESTR.norm>
0

>  <SCORE.SYSTEM>
0

>  <SCORE.SYSTEM.CONST>
0

>  <SCORE.SYSTEM.DIHEDRAL>
0

>  <SCORE.SYSTEM.SOLV>
0

>  <SCORE.SYSTEM.norm>
0

>  <SCORE.heavy>
13

>  <SCORE.norm>
-1.13362

>  <RMSD>
3.638

$$$$
ligand
 OpenBabel02271912143D
libRbt.so/2013.1/901 2013/11/27
 13 14  0  0  0  0  0  0  0  0999 V2000
   -7.0040   31.8472   53.7863 N   0  0  0  0  0  0  0  0  0  0  0  0
   -6.1743   32.8682   54.2777 C   0  0  0  0  0  0  0  0  0  0  0  0
   -6.7220   34.1877   54.4929 N   0  0  0  0  0  0  0  0  0  0  0  0
   -4.8525   32.6109   54.5623 N   0  0  0  0  0  0  0  0  0  0  0  0
   -4.2812   31.3275   54.3637 C   0  0  0  0  0  0  0  0  0  0  0  0
   -5.0978   30.2660   53.8410 C   0  0  0  0  0  0  0  0  0  0  0  0
   -6.4786   30.5732   53.5461 C   0  0  0  0  0  0  0  0  0  0  0  0
   -7.2484   29.5540   53.0590 O   0  0  0  0  0  0  0  0  0  0  0  0
   -4.2870   29.0745   53.7384 C   0  0  0  0  0  0  0  0  0  0  0  0
   -3.0217   29.4663   54.1786 C   0  0  0  0  0  0  0  0  0  0  0  0
   -3.0301   30.7973   54.5548 N   0  0  0  0  0  0  0  0  0  0  0  0
   -4.7074   27.7142   53.2174 C   0  0  0  0  0  0  0  0  0  0  0  0
   -5.4651   27.7816   51.9698 N   0  0  0  0  0  0  0  0  0  0  0  0
  1  2  1  0  0  0  0
  1  7  1  0  0  0  0
  2  3  1  0  0  0  0
  2  4  2  0  0  0  0
  4  5  1  0  0  0  0
  5  6  2  0  0  0  0
  5 11  1  0  0  0  0
  6  7  1  0  0  0  0
  6  9  1  0  0  0  0
  7  8  2  0  0  0  0
  9 10  2  0  0  0  0
  9 12  1  0  0  0  0
 10 11  1  0  0  0  0
 12 13  1  0  0  0  0
M  END
>  <CHROM.1>
45.65213998,-5.30788374,30.60970004,53.79336303,1.87347787,-0.29417089,0.35109822

>  <Name>
ligand

>  <RI>
0

>  <Rbt.Current_Directory>
/home/itssahil/PROJECTS/Mol_Feturizer/Test_systems_manuscript/rnas/4jf2

>  <Rbt.Executable>
rbdock ($Id: //depot/dev/client3/rdock/2013.1/src/exe/rbdock.cxx#4 $)

>  <Rbt.Library>
libRbt.so (2013.1, Build901 2013/11/27)

>  <Rbt.Parameter_File>
/export/apps/rDock/src/rDock_2013.1_src/data/scripts/dock_solv.prm

>  <Rbt.Receptor>
prm/pocket_docking_8.prm

>  <SCORE>
-14.7363

>  <SCORE.INTER>
-15.2144

>  <SCORE.INTER.CONST>
1

>  <SCORE.INTER.POLAR>
0

>  <SCORE.INTER.ROT>
1

>  <SCORE.INTER.SOLV>
14.7134

>  <SCORE.INTER.VDW>
-19.3141

>  <SCORE.INTER.norm>
-1.17034

>  <SCORE.INTRA>
0.478124

>  <SCORE.INTRA.DIHEDRAL>
-0.00565982

>  <SCORE.INTRA.DIHEDRAL.0>
1.75624

>  <SCORE.INTRA.POLAR>
0

>  <SCORE.INTRA.POLAR.0>
0

>  <SCORE.INTRA.REPUL>
0

>  <SCORE.INTRA.REPUL.0>
0

>  <SCORE.INTRA.SOLV>
0.791207

>  <SCORE.INTRA.SOLV.lig_0>
-46.5296

>  <SCORE.INTRA.VDW>
0.0853506

>  <SCORE.INTRA.VDW.0>
-0.381873

>  <SCORE.INTRA.norm>
0.0367788

>  <SCORE.RESTR>
0

>  <SCORE.RESTR.CAVITY>
0

>  <SCORE.RESTR.norm>
0

>  <SCORE.SYSTEM>
0

>  <SCORE.SYSTEM.CONST>
0

>  <SCORE.SYSTEM.DIHEDRAL>
0

>  <SCORE.SYSTEM.SOLV>
0

>  <SCORE.SYSTEM.norm>
0

>  <SCORE.heavy>
13

>  <SCORE.norm>
-1.13356

>  <RMSD>
3.639

$$$$
ligand
 OpenBabel02271912143D
libRbt.so/2013.1/901 2013/11/27
 13 14  0  0  0  0  0  0  0  0999 V2000
   -7.0019   31.8511   53.7956 N   0  0  0  0  0  0  0  0  0  0  0  0
   -6.1706   32.8731   54.2821 C   0  0  0  0  0  0  0  0  0  0  0  0
   -6.7180   34.1927   54.4975 N   0  0  0  0  0  0  0  0  0  0  0  0
   -4.8476   32.6168   54.5618 N   0  0  0  0  0  0  0  0  0  0  0  0
   -4.2766   31.3334   54.3629 C   0  0  0  0  0  0  0  0  0  0  0  0
   -5.0948   30.2707   53.8451 C   0  0  0  0  0  0  0  0  0  0  0  0
   -6.4770   30.5770   53.5552 C   0  0  0  0  0  0  0  0  0  0  0  0
   -7.2483   29.5567   53.0727 O   0  0  0  0  0  0  0  0  0  0  0  0
   -4.2840   29.0794   53.7410 C   0  0  0  0  0  0  0  0  0  0  0  0
   -3.0171   29.4724   54.1756 C   0  0  0  0  0  0  0  0  0  0  0  0
   -3.0246   30.8039   54.5498 N   0  0  0  0  0  0  0  0  0  0  0  0
   -4.7059   27.7181   53.2238 C   0  0  0  0  0  0  0  0  0  0  0  0
   -5.4476   27.7817   51.9664 N   0  0  0  0  0  0  0  0  0  0  0  0
  1  2  1  0  0  0  0
  1  7  1  0  0  0  0
  2  3  1  0  0  0  0
  2  4  2  0  0  0  0
  4  5  1  0  0  0  0
  5  6  2  0  0  0  0
  5 11  1  0  0  0  0
  6  7  1  0  0  0  0
  6  9  1  0  0  0  0
  7  8  2  0  0  0  0
  9 10  2  0  0  0  0
  9 12  1  0  0  0  0
 10 11  1  0  0  0  0
 12 13  1  0  0  0  0
M  END
>  <CHROM.1>
46.70429017,-5.30356225,30.61413144,53.79670532,1.87387697,-0.29049960,0.35064704

>  <Name>
ligand

>  <RI>
-1

>  <Rbt.Current_Directory>
/home/itssahil/PROJECTS/Mol_Feturizer/Test_systems_manuscript/rnas/4jf2

>  <Rbt.Executable>
rbdock ($Id: //depot/dev/client3/rdock/2013.1/src/exe/rbdock.cxx#4 $)

>  <Rbt.Library>
libRbt.so (2013.1, Build901 2013/11/27)

>  <Rbt.Parameter_File>
/export/apps/rDock/src/rDock_2013.1_src/data/scripts/dock_solv.prm

>  <Rbt.Receptor>
prm/pocket_docking_7.prm

>  <SCORE>
-14.7341

>  <SCORE.INTER>
-15.1798

>  <SCORE.INTER.CONST>
1

>  <SCORE.INTER.POLAR>
0

>  <SCORE.INTER.ROT>
1

>  <SCORE.INTER.SOLV>
14.79

>  <SCORE.INTER.VDW>
-19.3165

>  <SCORE.INTER.norm>
-1.16768

>  <SCORE.INTRA>
0.445761

>  <SCORE.INTRA.DIHEDRAL>
-0.0105262

>  <SCORE.INTRA.DIHEDRAL.0>
1.75624

>  <SCORE.INTRA.POLAR>
0

>  <SCORE.INTRA.POLAR.0>
0

>  <SCORE.INTRA.REPUL>
0

>  <SCORE.INTRA.REPUL.0>
0

>  <SCORE.INTRA.SOLV>
0.765017

>  <SCORE.INTRA.SOLV.lig_0>
-46.5296

>  <SCORE.INTRA.VDW>
0.0685155

>  <SCORE.INTRA.VDW.0>
-0.381873

>  <SCORE.INTRA.norm>
0.0342893

>  <SCORE.RESTR>
0

>  <SCORE.RESTR.CAVITY>
0

>  <SCORE.RESTR.norm>
0

>  <SCORE.SYSTEM>
0

>  <SCORE.SYSTEM.CONST>
0

>  <SCORE.SYSTEM.DIHEDRAL>
0

>  <SCORE.SYSTEM.SOLV>
0

>  <SCORE.SYSTEM.norm>
0

>  <SCORE.heavy>
13

>  <SCORE.norm>
-1.13339

>  <RMSD>
3.640

$$$$
ligand
 OpenBabel02271912143D
libRbt.so/2013.1/901 2013/11/27
 13 14  0  0  0  0  0  0  0  0999 V2000
   -6.9951   31.8281   53.8529 N   0  0  0  0  0  0  0  0  0  0  0  0
   -6.1632   32.8613   54.3141 C   0  0  0  0  0  0  0  0  0  0  0  0
   -6.7181   34.1775   54.5313 N   0  0  0  0  0  0  0  0  0  0  0  0
   -4.8323   32.6191   54.5675 N   0  0  0  0  0  0  0  0  0  0  0  0
   -4.2538   31.3394   54.3660 C   0  0  0  0  0  0  0  0  0  0  0  0
   -5.0729   30.2655   53.8735 C   0  0  0  0  0  0  0  0  0  0  0  0
   -6.4637   30.5570   53.6108 C   0  0  0  0  0  0  0  0  0  0  0  0
   -7.2356   29.5262   53.1523 O   0  0  0  0  0  0  0  0  0  0  0  0
   -4.2536   29.0808   53.7611 C   0  0  0  0  0  0  0  0  0  0  0  0
   -2.9815   29.4886   54.1658 C   0  0  0  0  0  0  0  0  0  0  0  0
   -2.9932   30.8227   54.5302 N   0  0  0  0  0  0  0  0  0  0  0  0
   -4.6737   27.7119   53.2630 C   0  0  0  0  0  0  0  0  0  0  0  0
   -5.3979   27.7553   51.9946 N   0  0  0  0  0  0  0  0  0  0  0  0
  1  2  1  0  0  0  0
  1  7  1  0  0  0  0
  2  3  1  0  0  0  0
  2  4  2  0  0  0  0
  4  5  1  0  0  0  0
  5  6  2  0  0  0  0
  5 11  1  0  0  0  0
  6  7  1  0  0  0  0
  6  9  1  0  0  0  0
  7  8  2  0  0  0  0
  9 10  2  0  0  0  0
  9 12  1  0  0  0  0
 10 11  1  0  0  0  0
 12 13  1  0  0  0  0
M  END
>  <CHROM.1>
48.92195963,-5.28219879,30.60631311,53.82490468,1.87834997,-0.26777229,0.34630769

>  <Name>
ligand

>  <RI>
-1

>  <Rbt.Current_Directory>
/home/itssahil/PROJECTS/Mol_Feturizer/Test_systems_manuscript/rnas/4jf2

>  <Rbt.Executable>
rbdock ($Id: //depot/dev/client3/rdock/2013.1/src/exe/rbdock.cxx#4 $)

>  <Rbt.Library>
libRbt.so (2013.1, Build901 2013/11/27)

>  <Rbt.Parameter_File>
/export/apps/rDock/src/rDock_2013.1_src/data/scripts/dock_solv.prm

>  <Rbt.Receptor>
prm/pocket_docking_6.prm

>  <SCORE>
-14.7494

>  <SCORE.INTER>
-15.117

>  <SCORE.INTER.CONST>
1

>  <SCORE.INTER.POLAR>
0

>  <SCORE.INTER.ROT>
1

>  <SCORE.INTER.SOLV>
15.151

>  <SCORE.INTER.VDW>
-19.395

>  <SCORE.INTER.norm>
-1.16285

>  <SCORE.INTRA>
0.367628

>  <SCORE.INTRA.DIHEDRAL>
-0.0214177

>  <SCORE.INTRA.DIHEDRAL.0>
1.75624

>  <SCORE.INTRA.POLAR>
0

>  <SCORE.INTRA.POLAR.0>
0

>  <SCORE.INTRA.REPUL>
0

>  <SCORE.INTRA.REPUL.0>
0

>  <SCORE.INTRA.SOLV>
0.708807

>  <SCORE.INTRA.SOLV.lig_0>
-46.5296

>  <SCORE.INTRA.VDW>
0.0239328

>  <SCORE.INTRA.VDW.0>
-0.381873

>  <SCORE.INTRA.norm>
0.0282791

>  <SCORE.RESTR>
0

>  <SCORE.RESTR.CAVITY>
0

>  <SCORE.RESTR.norm>
0

>  <SCORE.SYSTEM>
0

>  <SCORE.SYSTEM.CONST>
0

>  <SCORE.SYSTEM.DIHEDRAL>
0

>  <SCORE.SYSTEM.SOLV>
0

>  <SCORE.SYSTEM.norm>
0

>  <SCORE.heavy>
13

>  <SCORE.norm>
-1.13457

>  <RMSD>
3.645

$$$$
ligand
 OpenBabel02271912143D
libRbt.so/2013.1/901 2013/11/27
 13 14  0  0  0  0  0  0  0  0999 V2000
   -6.9922   31.8270   53.8561 N   0  0  0  0  0  0  0  0  0  0  0  0
   -6.1609   32.8605   54.3177 C   0  0  0  0  0  0  0  0  0  0  0  0
   -6.7170   34.1757   54.5374 N   0  0  0  0  0  0  0  0  0  0  0  0
   -4.8293   32.6195   54.5691 N   0  0  0  0  0  0  0  0  0  0  0  0
   -4.2497   31.3407   54.3651 C   0  0  0  0  0  0  0  0  0  0  0  0
   -5.0683   30.2665   53.8722 C   0  0  0  0  0  0  0  0  0  0  0  0
   -6.4596   30.5568   53.6117 C   0  0  0  0  0  0  0  0  0  0  0  0
   -7.2310   29.5257   53.1528 O   0  0  0  0  0  0  0  0  0  0  0  0
   -4.2477   29.0829   53.7571 C   0  0  0  0  0  0  0  0  0  0  0  0
   -2.9755   29.4915   54.1607 C   0  0  0  0  0  0  0  0  0  0  0  0
   -2.9883   30.8252   54.5269 N   0  0  0  0  0  0  0  0  0  0  0  0
   -4.6670   27.7142   53.2577 C   0  0  0  0  0  0  0  0  0  0  0  0
   -5.3936   27.7585   51.9907 N   0  0  0  0  0  0  0  0  0  0  0  0
  1  2  1  0  0  0  0
  1  7  1  0  0  0  0
  2  3  1  0  0  0  0
  2  4  2  0  0  0  0
  4  5  1  0  0  0  0
  5  6  2  0  0  0  0
  5 11  1  0  0  0  0
  6  7  1  0  0  0  0
  6  9  1  0  0  0  0
  7  8  2  0  0  0  0
  9 10  2  0  0  0  0
  9 12  1  0  0  0  0
 10 11  1  0  0  0  0
 12 13  1  0  0  0  0
M  END
>  <CHROM.1>
48.88486149,-5.27802404,30.60714305,53.82436261,1.87894187,-0.26616215,0.34778181

>  <Name>
ligand

>  <RI>
-1

>  <Rbt.Current_Directory>
/home/itssahil/PROJECTS/Mol_Feturizer/Test_systems_manuscript/rnas/4jf2

>  <Rbt.Executable>
rbdock ($Id: //depot/dev/client3/rdock/2013.1/src/exe/rbdock.cxx#4 $)

>  <Rbt.Library>
libRbt.so (2013.1, Build901 2013/11/27)

>  <Rbt.Parameter_File>
/export/apps/rDock/src/rDock_2013.1_src/data/scripts/dock_solv.prm

>  <Rbt.Receptor>
prm/pocket_docking_7.prm

>  <SCORE>
-14.7465

>  <SCORE.INTER>
-15.1151

>  <SCORE.INTER.CONST>
1

>  <SCORE.INTER.POLAR>
0

>  <SCORE.INTER.ROT>
1

>  <SCORE.INTER.SOLV>
15.1972

>  <SCORE.INTER.VDW>
-19.4091

>  <SCORE.INTER.norm>
-1.1627

>  <SCORE.INTRA>
0.368609

>  <SCORE.INTRA.DIHEDRAL>
-0.021229

>  <SCORE.INTRA.DIHEDRAL.0>
1.75624

>  <SCORE.INTRA.POLAR>
0

>  <SCORE.INTRA.POLAR.0>
0

>  <SCORE.INTRA.REPUL>
0

>  <SCORE.INTRA.REPUL.0>
0

>  <SCORE.INTRA.SOLV>
0.709758

>  <SCORE.INTRA.SOLV.lig_0>
-46.5296

>  <SCORE.INTRA.VDW>
0.0243443

>  <SCORE.INTRA.VDW.0>
-0.381873

>  <SCORE.INTRA.norm>
0.0283545

>  <SCORE.RESTR>
0

>  <SCORE.RESTR.CAVITY>
0

>  <SCORE.RESTR.norm>
0

>  <SCORE.SYSTEM>
0

>  <SCORE.SYSTEM.CONST>
0

>  <SCORE.SYSTEM.DIHEDRAL>
0

>  <SCORE.SYSTEM.SOLV>
0

>  <SCORE.SYSTEM.norm>
0

>  <SCORE.heavy>
13

>  <SCORE.norm>
-1.13435

>  <RMSD>
3.645

$$$$
ligand
 OpenBabel02271912143D
libRbt.so/2013.1/901 2013/11/27
 13 14  0  0  0  0  0  0  0  0999 V2000
   -6.9958   31.8273   53.8576 N   0  0  0  0  0  0  0  0  0  0  0  0
   -6.1645   32.8603   54.3202 C   0  0  0  0  0  0  0  0  0  0  0  0
   -6.7205   34.1755   54.5406 N   0  0  0  0  0  0  0  0  0  0  0  0
   -4.8331   32.6190   54.5720 N   0  0  0  0  0  0  0  0  0  0  0  0
   -4.2535   31.3403   54.3673 C   0  0  0  0  0  0  0  0  0  0  0  0
   -5.0719   30.2666   53.8733 C   0  0  0  0  0  0  0  0  0  0  0  0
   -6.4632   30.5572   53.6124 C   0  0  0  0  0  0  0  0  0  0  0  0
   -7.2345   29.5265   53.1525 O   0  0  0  0  0  0  0  0  0  0  0  0
   -4.2515   29.0830   53.7577 C   0  0  0  0  0  0  0  0  0  0  0  0
   -2.9794   29.4912   54.1621 C   0  0  0  0  0  0  0  0  0  0  0  0
   -2.9922   30.8246   54.5293 N   0  0  0  0  0  0  0  0  0  0  0  0
   -4.6707   27.7146   53.2571 C   0  0  0  0  0  0  0  0  0  0  0  0
   -5.3910   27.7595   51.9865 N   0  0  0  0  0  0  0  0  0  0  0  0
  1  2  1  0  0  0  0
  1  7  1  0  0  0  0
  2  3  1  0  0  0  0
  2  4  2  0  0  0  0
  4  5  1  0  0  0  0
  5  6  2  0  0  0  0
  5 11  1  0  0  0  0
  6  7  1  0  0  0  0
  6  9  1  0  0  0  0
  7  8  2  0  0  0  0
  9 10  2  0  0  0  0
  9 12  1  0  0  0  0
 10 11  1  0  0  0  0
 12 13  1  0  0  0  0
M  END
>  <CHROM.1>
49.17178374,-5.28119190,30.60723641,53.82534825,1.87938762,-0.26660584,0.34886683

>  <Name>
ligand

>  <RI>
-1

>  <Rbt.Current_Directory>
/home/itssahil/PROJECTS/Mol_Feturizer/Test_systems_manuscript/rnas/4jf2

>  <Rbt.Executable>
rbdock ($Id: //depot/dev/client3/rdock/2013.1/src/exe/rbdock.cxx#4 $)

>  <Rbt.Library>
libRbt.so (2013.1, Build901 2013/11/27)

>  <Rbt.Parameter_File>
/export/apps/rDock/src/rDock_2013.1_src/data/scripts/dock_solv.prm

>  <Rbt.Receptor>
prm/pocket_docking_4.prm

>  <SCORE>
-14.7485

>  <SCORE.INTER>
-15.1095

>  <SCORE.INTER.CONST>
1

>  <SCORE.INTER.POLAR>
0

>  <SCORE.INTER.ROT>
1

>  <SCORE.INTER.SOLV>
15.2201

>  <SCORE.INTER.VDW>
-19.4131

>  <SCORE.INTER.norm>
-1.16227

>  <SCORE.INTRA>
0.361069

>  <SCORE.INTRA.DIHEDRAL>
-0.0226937

>  <SCORE.INTRA.DIHEDRAL.0>
1.75624

>  <SCORE.INTRA.POLAR>
0

>  <SCORE.INTRA.POLAR.0>
0

>  <SCORE.INTRA.REPUL>
0

>  <SCORE.INTRA.REPUL.0>
0

>  <SCORE.INTRA.SOLV>
0.702394

>  <SCORE.INTRA.SOLV.lig_0>
-46.5296

>  <SCORE.INTRA.VDW>
0.0212189

>  <SCORE.INTRA.VDW.0>
-0.381873

>  <SCORE.INTRA.norm>
0.0277745

>  <SCORE.RESTR>
0

>  <SCORE.RESTR.CAVITY>
0

>  <SCORE.RESTR.norm>
0

>  <SCORE.SYSTEM>
0

>  <SCORE.SYSTEM.CONST>
0

>  <SCORE.SYSTEM.DIHEDRAL>
0

>  <SCORE.SYSTEM.SOLV>
0

>  <SCORE.SYSTEM.norm>
0

>  <SCORE.heavy>
13

>  <SCORE.norm>
-1.1345

>  <RMSD>
3.646

$$$$
ligand
 OpenBabel02271912143D
libRbt.so/2013.1/901 2013/11/27
 13 14  0  0  0  0  0  0  0  0999 V2000
   -6.9843   31.7960   53.8499 N   0  0  0  0  0  0  0  0  0  0  0  0
   -6.1570   32.8315   54.3141 C   0  0  0  0  0  0  0  0  0  0  0  0
   -6.7145   34.1481   54.5216 N   0  0  0  0  0  0  0  0  0  0  0  0
   -4.8281   32.5912   54.5796 N   0  0  0  0  0  0  0  0  0  0  0  0
   -4.2471   31.3112   54.3879 C   0  0  0  0  0  0  0  0  0  0  0  0
   -5.0614   30.2348   53.8926 C   0  0  0  0  0  0  0  0  0  0  0  0
   -6.4500   30.5244   53.6172 C   0  0  0  0  0  0  0  0  0  0  0  0
   -7.2174   29.4912   53.1561 O   0  0  0  0  0  0  0  0  0  0  0  0
   -4.2403   29.0503   53.7916 C   0  0  0  0  0  0  0  0  0  0  0  0
   -2.9719   29.4604   54.2054 C   0  0  0  0  0  0  0  0  0  0  0  0
   -2.9876   30.7960   54.5646 N   0  0  0  0  0  0  0  0  0  0  0  0
   -4.6554   27.6792   53.2952 C   0  0  0  0  0  0  0  0  0  0  0  0
   -5.3481   27.7151   52.0091 N   0  0  0  0  0  0  0  0  0  0  0  0
  1  2  1  0  0  0  0
  1  7  1  0  0  0  0
  2  3  1  0  0  0  0
  2  4  2  0  0  0  0
  4  5  1  0  0  0  0
  5  6  2  0  0  0  0
  5 11  1  0  0  0  0
  6  7  1  0  0  0  0
  6  9  1  0  0  0  0
  7  8  2  0  0  0  0
  9 10  2  0  0  0  0
  9 12  1  0  0  0  0
 10 11  1  0  0  0  0
 12 13  1  0  0  0  0
M  END
>  <CHROM.1>
49.94060401,-5.26873415,30.57512261,53.84002209,1.88337706,-0.27550719,0.34467873

>  <Name>
ligand

>  <RI>
-1

>  <Rbt.Current_Directory>
/home/itssahil/PROJECTS/Mol_Feturizer/Test_systems_manuscript/rnas/4jf2

>  <Rbt.Executable>
rbdock ($Id: //depot/dev/client3/rdock/2013.1/src/exe/rbdock.cxx#4 $)

>  <Rbt.Library>
libRbt.so (2013.1, Build901 2013/11/27)

>  <Rbt.Parameter_File>
/export/apps/rDock/src/rDock_2013.1_src/data/scripts/dock_solv.prm

>  <Rbt.Receptor>
prm/pocket_docking_7.prm

>  <SCORE>
-14.739

>  <SCORE.INTER>
-15.0804

>  <SCORE.INTER.CONST>
1

>  <SCORE.INTER.POLAR>
0

>  <SCORE.INTER.ROT>
1

>  <SCORE.INTER.SOLV>
15.2762

>  <SCORE.INTER.VDW>
-19.4123

>  <SCORE.INTER.norm>
-1.16003

>  <SCORE.INTRA>
0.341411

>  <SCORE.INTRA.DIHEDRAL>
-0.0266772

>  <SCORE.INTRA.DIHEDRAL.0>
1.75624

>  <SCORE.INTRA.POLAR>
0

>  <SCORE.INTRA.POLAR.0>
0

>  <SCORE.INTRA.REPUL>
0

>  <SCORE.INTRA.REPUL.0>
0

>  <SCORE.INTRA.SOLV>
0.682557

>  <SCORE.INTRA.SOLV.lig_0>
-46.5296

>  <SCORE.INTRA.VDW>
0.0134713

>  <SCORE.INTRA.VDW.0>
-0.381873

>  <SCORE.INTRA.norm>
0.0262624

>  <SCORE.RESTR>
0

>  <SCORE.RESTR.CAVITY>
0

>  <SCORE.RESTR.norm>
0

>  <SCORE.SYSTEM>
0

>  <SCORE.SYSTEM.CONST>
0

>  <SCORE.SYSTEM.DIHEDRAL>
0

>  <SCORE.SYSTEM.SOLV>
0

>  <SCORE.SYSTEM.norm>
0

>  <SCORE.heavy>
13

>  <SCORE.norm>
-1.13377

>  <RMSD>
3.648

$$$$
ligand
 OpenBabel02271912143D
libRbt.so/2013.1/901 2013/11/27
 13 14  0  0  0  0  0  0  0  0999 V2000
   -7.0036   31.8472   53.7759 N   0  0  0  0  0  0  0  0  0  0  0  0
   -6.1747   32.8743   54.2557 C   0  0  0  0  0  0  0  0  0  0  0  0
   -6.7240   34.1952   54.4578 N   0  0  0  0  0  0  0  0  0  0  0  0
   -4.8522   32.6218   54.5414 N   0  0  0  0  0  0  0  0  0  0  0  0
   -4.2795   31.3372   54.3555 C   0  0  0  0  0  0  0  0  0  0  0  0
   -5.0952   30.2692   53.8448 C   0  0  0  0  0  0  0  0  0  0  0  0
   -6.4768   30.5715   53.5483 C   0  0  0  0  0  0  0  0  0  0  0  0
   -7.2458   29.5462   53.0727 O   0  0  0  0  0  0  0  0  0  0  0  0
   -4.2829   29.0778   53.7535 C   0  0  0  0  0  0  0  0  0  0  0  0
   -3.0177   29.4758   54.1882 C   0  0  0  0  0  0  0  0  0  0  0  0
   -3.0274   30.8106   54.5505 N   0  0  0  0  0  0  0  0  0  0  0  0
   -4.7021   27.7115   53.2472 C   0  0  0  0  0  0  0  0  0  0  0  0
   -5.3955   27.7590   51.9618 N   0  0  0  0  0  0  0  0  0  0  0  0
  1  2  1  0  0  0  0
  1  7  1  0  0  0  0
  2  3  1  0  0  0  0
  2  4  2  0  0  0  0
  4  5  1  0  0  0  0
  5  6  2  0  0  0  0
  5 11  1  0  0  0  0
  6  7  1  0  0  0  0
  6  9  1  0  0  0  0
  7  8  2  0  0  0  0
  9 10  2  0  0  0  0
  9 12  1  0  0  0  0
 10 11  1  0  0  0  0
 12 13  1  0  0  0  0
M  END
>  <CHROM.1>
48.90973090,-5.30047115,30.61158910,53.79070662,1.87891226,-0.29312807,0.34510020

>  <Name>
ligand

>  <RI>
-1

>  <Rbt.Current_Directory>
/home/itssahil/PROJECTS/Mol_Feturizer/Test_systems_manuscript/rnas/4jf2

>  <Rbt.Executable>
rbdock ($Id: //depot/dev/client3/rdock/2013.1/src/exe/rbdock.cxx#4 $)

>  <Rbt.Library>
libRbt.so (2013.1, Build901 2013/11/27)

>  <Rbt.Parameter_File>
/export/apps/rDock/src/rDock_2013.1_src/data/scripts/dock_solv.prm

>  <Rbt.Receptor>
prm/pocket_docking_5.prm

>  <SCORE>
-14.7224

>  <SCORE.INTER>
-15.0903

>  <SCORE.INTER.CONST>
1

>  <SCORE.INTER.POLAR>
0

>  <SCORE.INTER.ROT>
1

>  <SCORE.INTER.SOLV>
14.7019

>  <SCORE.INTER.VDW>
-19.2275

>  <SCORE.INTER.norm>
-1.1608

>  <SCORE.INTRA>
0.367951

>  <SCORE.INTRA.DIHEDRAL>
-0.0213555

>  <SCORE.INTRA.DIHEDRAL.0>
1.75624

>  <SCORE.INTRA.POLAR>
0

>  <SCORE.INTRA.POLAR.0>
0

>  <SCORE.INTRA.REPUL>
0

>  <SCORE.INTRA.REPUL.0>
0

>  <SCORE.INTRA.SOLV>
0.709121

>  <SCORE.INTRA.SOLV.lig_0>
-46.5296

>  <SCORE.INTRA.VDW>
0.0240682

>  <SCORE.INTRA.VDW.0>
-0.381873

>  <SCORE.INTRA.norm>
0.0283039

>  <SCORE.RESTR>
0

>  <SCORE.RESTR.CAVITY>
0

>  <SCORE.RESTR.norm>
0

>  <SCORE.SYSTEM>
0

>  <SCORE.SYSTEM.CONST>
0

>  <SCORE.SYSTEM.DIHEDRAL>
0

>  <SCORE.SYSTEM.SOLV>
0

>  <SCORE.SYSTEM.norm>
0

>  <SCORE.heavy>
13

>  <SCORE.norm>
-1.13249

>  <RMSD>
3.651

$$$$
ligand
 OpenBabel02271912143D
libRbt.so/2013.1/901 2013/11/27
 13 14  0  0  0  0  0  0  0  0999 V2000
   -6.8504   32.1708   53.3037 N   0  0  0  0  0  0  0  0  0  0  0  0
   -6.3079   33.2019   54.0877 C   0  0  0  0  0  0  0  0  0  0  0  0
   -7.0261   34.4487   54.2183 N   0  0  0  0  0  0  0  0  0  0  0  0
   -5.1068   33.0222   54.7353 N   0  0  0  0  0  0  0  0  0  0  0  0
   -4.3747   31.8114   54.6301 C   0  0  0  0  0  0  0  0  0  0  0  0
   -4.8915   30.7440   53.8174 C   0  0  0  0  0  0  0  0  0  0  0  0
   -6.1508   30.9697   53.1458 C   0  0  0  0  0  0  0  0  0  0  0  0
   -6.6378   29.9445   52.3838 O   0  0  0  0  0  0  0  0  0  0  0  0
   -3.9688   29.6340   53.8810 C   0  0  0  0  0  0  0  0  0  0  0  0
   -2.9329   30.0793   54.7038 C   0  0  0  0  0  0  0  0  0  0  0  0
   -3.1859   31.3640   55.1491 N   0  0  0  0  0  0  0  0  0  0  0  0
   -4.0786   28.3004   53.1680 C   0  0  0  0  0  0  0  0  0  0  0  0
   -5.4253   27.7344   53.2045 N   0  0  0  0  0  0  0  0  0  0  0  0
  1  2  1  0  0  0  0
  1  7  1  0  0  0  0
  2  3  1  0  0  0  0
  2  4  2  0  0  0  0
  4  5  1  0  0  0  0
  5  6  2  0  0  0  0
  5 11  1  0  0  0  0
  6  7  1  0  0  0  0
  6  9  1  0  0  0  0
  7  8  2  0  0  0  0
  9 10  2  0  0  0  0
  9 12  1  0  0  0  0
 10 11  1  0  0  0  0
 12 13  1  0  0  0  0
M  END
>  <CHROM.1>
-43.24535479,-5.19243986,31.01697768,53.85023070,2.01096532,-0.48167321,0.35335475

>  <Name>
ligand

>  <RI>
-1

>  <Rbt.Current_Directory>
/home/itssahil/PROJECTS/Mol_Feturizer/Test_systems_manuscript/rnas/4jf2

>  <Rbt.Executable>
rbdock ($Id: //depot/dev/client3/rdock/2013.1/src/exe/rbdock.cxx#4 $)

>  <Rbt.Library>
libRbt.so (2013.1, Build901 2013/11/27)

>  <Rbt.Parameter_File>
/export/apps/rDock/src/rDock_2013.1_src/data/scripts/dock_solv.prm

>  <Rbt.Receptor>
prm/pocket_docking_7.prm

>  <SCORE>
-14.0111

>  <SCORE.INTER>
-14.566

>  <SCORE.INTER.CONST>
1

>  <SCORE.INTER.POLAR>
0

>  <SCORE.INTER.ROT>
1

>  <SCORE.INTER.SOLV>
13.041

>  <SCORE.INTER.VDW>
-18.3243

>  <SCORE.INTER.norm>
-1.12046

>  <SCORE.INTRA>
0.554818

>  <SCORE.INTRA.DIHEDRAL>
-0.166604

>  <SCORE.INTRA.DIHEDRAL.0>
1.75624

>  <SCORE.INTRA.POLAR>
0

>  <SCORE.INTRA.POLAR.0>
0

>  <SCORE.INTRA.REPUL>
0

>  <SCORE.INTRA.REPUL.0>
0

>  <SCORE.INTRA.SOLV>
0.882287

>  <SCORE.INTRA.SOLV.lig_0>
-46.5296

>  <SCORE.INTRA.VDW>
0.196976

>  <SCORE.INTRA.VDW.0>
-0.381873

>  <SCORE.INTRA.norm>
0.0426783

>  <SCORE.RESTR>
0

>  <SCORE.RESTR.CAVITY>
0

>  <SCORE.RESTR.norm>
0

>  <SCORE.SYSTEM>
0

>  <SCORE.SYSTEM.CONST>
0

>  <SCORE.SYSTEM.DIHEDRAL>
0

>  <SCORE.SYSTEM.SOLV>
0

>  <SCORE.SYSTEM.norm>
0

>  <SCORE.heavy>
13

>  <SCORE.norm>
-1.07778

>  <RMSD>
3.891

$$$$
ligand
 OpenBabel02271912143D
libRbt.so/2013.1/901 2013/11/27
 13 14  0  0  0  0  0  0  0  0999 V2000
   -6.8626   32.1738   53.3133 N   0  0  0  0  0  0  0  0  0  0  0  0
   -6.3288   33.1988   54.1112 C   0  0  0  0  0  0  0  0  0  0  0  0
   -7.0515   34.4423   54.2485 N   0  0  0  0  0  0  0  0  0  0  0  0
   -5.1320   33.0161   54.7659 N   0  0  0  0  0  0  0  0  0  0  0  0
   -4.3958   31.8085   54.6544 C   0  0  0  0  0  0  0  0  0  0  0  0
   -4.9035   30.7476   53.8277 C   0  0  0  0  0  0  0  0  0  0  0  0
   -6.1585   30.9763   53.1489 C   0  0  0  0  0  0  0  0  0  0  0  0
   -6.6368   29.9572   52.3735 O   0  0  0  0  0  0  0  0  0  0  0  0
   -3.9781   29.6395   53.8874 C   0  0  0  0  0  0  0  0  0  0  0  0
   -2.9496   30.0798   54.7220 C   0  0  0  0  0  0  0  0  0  0  0  0
   -3.2095   31.3594   55.1779 N   0  0  0  0  0  0  0  0  0  0  0  0
   -4.0789   28.3127   53.1607 C   0  0  0  0  0  0  0  0  0  0  0  0
   -5.4204   27.7345   53.1961 N   0  0  0  0  0  0  0  0  0  0  0  0
  1  2  1  0  0  0  0
  1  7  1  0  0  0  0
  2  3  1  0  0  0  0
  2  4  2  0  0  0  0
  4  5  1  0  0  0  0
  5  6  2  0  0  0  0
  5 11  1  0  0  0  0
  6  7  1  0  0  0  0
  6  9  1  0  0  0  0
  7  8  2  0  0  0  0
  9 10  2  0  0  0  0
  9 12  1  0  0  0  0
 10 11  1  0  0  0  0
 12 13  1  0  0  0  0
M  END
>  <CHROM.1>
-43.96775100,-5.20513189,31.01873435,53.86203173,2.01697406,-0.48747665,0.36465361

>  <Name>
ligand

>  <RI>
-1

>  <Rbt.Current_Directory>
/home/itssahil/PROJECTS/Mol_Feturizer/Test_systems_manuscript/rnas/4jf2

>  <Rbt.Executable>
rbdock ($Id: //depot/dev/client3/rdock/2013.1/src/exe/rbdock.cxx#4 $)

>  <Rbt.Library>
libRbt.so (2013.1, Build901 2013/11/27)

>  <Rbt.Parameter_File>
/export/apps/rDock/src/rDock_2013.1_src/data/scripts/dock_solv.prm

>  <Rbt.Receptor>
prm/pocket_docking_6.prm

>  <SCORE>
-14.031

>  <SCORE.INTER>
-14.558

>  <SCORE.INTER.CONST>
1

>  <SCORE.INTER.POLAR>
0

>  <SCORE.INTER.ROT>
1

>  <SCORE.INTER.SOLV>
13.195

>  <SCORE.INTER.VDW>
-18.3703

>  <SCORE.INTER.norm>
-1.11984

>  <SCORE.INTRA>
0.527001

>  <SCORE.INTRA.DIHEDRAL>
-0.164063

>  <SCORE.INTRA.DIHEDRAL.0>
1.75624

>  <SCORE.INTRA.POLAR>
0

>  <SCORE.INTRA.POLAR.0>
0

>  <SCORE.INTRA.REPUL>
0

>  <SCORE.INTRA.REPUL.0>
0

>  <SCORE.INTRA.SOLV>
0.865101

>  <SCORE.INTRA.SOLV.lig_0>
-46.5296

>  <SCORE.INTRA.VDW>
0.176482

>  <SCORE.INTRA.VDW.0>
-0.381873

>  <SCORE.INTRA.norm>
0.0405385

>  <SCORE.RESTR>
0

>  <SCORE.RESTR.CAVITY>
0

>  <SCORE.RESTR.norm>
0

>  <SCORE.SYSTEM>
0

>  <SCORE.SYSTEM.CONST>
0

>  <SCORE.SYSTEM.DIHEDRAL>
0

>  <SCORE.SYSTEM.SOLV>
0

>  <SCORE.SYSTEM.norm>
0

>  <SCORE.heavy>
13

>  <SCORE.norm>
-1.07931

>  <RMSD>
3.895

$$$$
ligand
 OpenBabel02271912143D
libRbt.so/2013.1/901 2013/11/27
 13 14  0  0  0  0  0  0  0  0999 V2000
   -6.8253   32.1520   53.2719 N   0  0  0  0  0  0  0  0  0  0  0  0
   -6.2964   33.1907   54.0552 C   0  0  0  0  0  0  0  0  0  0  0  0
   -7.0195   34.4366   54.1659 N   0  0  0  0  0  0  0  0  0  0  0  0
   -5.1040   33.0192   54.7209 N   0  0  0  0  0  0  0  0  0  0  0  0
   -4.3675   31.8096   54.6353 C   0  0  0  0  0  0  0  0  0  0  0  0
   -4.8701   30.7345   53.8240 C   0  0  0  0  0  0  0  0  0  0  0  0
   -6.1205   30.9516   53.1331 C   0  0  0  0  0  0  0  0  0  0  0  0
   -6.5942   29.9192   52.3725 O   0  0  0  0  0  0  0  0  0  0  0  0
   -3.9456   29.6275   53.9092 C   0  0  0  0  0  0  0  0  0  0  0  0
   -2.9224   30.0820   54.7428 C   0  0  0  0  0  0  0  0  0  0  0  0
   -3.1849   31.3695   55.1744 N   0  0  0  0  0  0  0  0  0  0  0  0
   -4.0421   28.2881   53.2053 C   0  0  0  0  0  0  0  0  0  0  0  0
   -5.3936   27.7327   53.2019 N   0  0  0  0  0  0  0  0  0  0  0  0
  1  2  1  0  0  0  0
  1  7  1  0  0  0  0
  2  3  1  0  0  0  0
  2  4  2  0  0  0  0
  4  5  1  0  0  0  0
  5  6  2  0  0  0  0
  5 11  1  0  0  0  0
  6  7  1  0  0  0  0
  6  9  1  0  0  0  0
  7  8  2  0  0  0  0
  9 10  2  0  0  0  0
  9 12  1  0  0  0  0
 10 11  1  0  0  0  0
 12 13  1  0  0  0  0
M  END
>  <CHROM.1>
-41.97695995,-5.17268590,31.00807839,53.84839633,2.01906090,-0.49412278,0.35136141

>  <Name>
ligand

>  <RI>
0

>  <Rbt.Current_Directory>
/home/itssahil/PROJECTS/Mol_Feturizer/Test_systems_manuscript/rnas/4jf2

>  <Rbt.Executable>
rbdock ($Id: //depot/dev/client3/rdock/2013.1/src/exe/rbdock.cxx#4 $)

>  <Rbt.Library>
libRbt.so (2013.1, Build901 2013/11/27)

>  <Rbt.Parameter_File>
/export/apps/rDock/src/rDock_2013.1_src/data/scripts/dock_solv.prm

>  <Rbt.Receptor>
prm/pocket_docking_8.prm

>  <SCORE>
-14.0057

>  <SCORE.INTER>
-14.5972

>  <SCORE.INTER.CONST>
1

>  <SCORE.INTER.POLAR>
0

>  <SCORE.INTER.ROT>
1

>  <SCORE.INTER.SOLV>
12.7846

>  <SCORE.INTER.VDW>
-18.2597

>  <SCORE.INTER.norm>
-1.12286

>  <SCORE.INTRA>
0.591511

>  <SCORE.INTRA.DIHEDRAL>
-0.17075

>  <SCORE.INTRA.DIHEDRAL.0>
1.75624

>  <SCORE.INTRA.POLAR>
0

>  <SCORE.INTRA.POLAR.0>
0

>  <SCORE.INTRA.REPUL>
0

>  <SCORE.INTRA.REPUL.0>
0

>  <SCORE.INTRA.SOLV>
0.912028

>  <SCORE.INTRA.SOLV.lig_0>
-46.5296

>  <SCORE.INTRA.VDW>
0.220872

>  <SCORE.INTRA.VDW.0>
-0.381873

>  <SCORE.INTRA.norm>
0.0455008

>  <SCORE.RESTR>
0

>  <SCORE.RESTR.CAVITY>
0

>  <SCORE.RESTR.norm>
0

>  <SCORE.SYSTEM>
0

>  <SCORE.SYSTEM.CONST>
0

>  <SCORE.SYSTEM.DIHEDRAL>
0

>  <SCORE.SYSTEM.SOLV>
0

>  <SCORE.SYSTEM.norm>
0

>  <SCORE.heavy>
13

>  <SCORE.norm>
-1.07736

>  <RMSD>
3.899

$$$$
ligand
 OpenBabel02271912143D
libRbt.so/2013.1/901 2013/11/27
 13 14  0  0  0  0  0  0  0  0999 V2000
   -6.8503   32.1688   53.3101 N   0  0  0  0  0  0  0  0  0  0  0  0
   -6.3297   33.1903   54.1212 C   0  0  0  0  0  0  0  0  0  0  0  0
   -7.0615   34.4279   54.2632 N   0  0  0  0  0  0  0  0  0  0  0  0
   -5.1372   33.0095   54.7842 N   0  0  0  0  0  0  0  0  0  0  0  0
   -4.3923   31.8077   54.6683 C   0  0  0  0  0  0  0  0  0  0  0  0
   -4.8863   30.7507   53.8283 C   0  0  0  0  0  0  0  0  0  0  0  0
   -6.1372   30.9773   53.1413 C   0  0  0  0  0  0  0  0  0  0  0  0
   -6.6026   29.9619   52.3532 O   0  0  0  0  0  0  0  0  0  0  0  0
   -3.9544   29.6481   53.8861 C   0  0  0  0  0  0  0  0  0  0  0  0
   -2.9356   30.0876   54.7330 C   0  0  0  0  0  0  0  0  0  0  0  0
   -3.2075   31.3616   55.1977 N   0  0  0  0  0  0  0  0  0  0  0  0
   -4.0406   28.3270   53.1473 C   0  0  0  0  0  0  0  0  0  0  0  0
   -5.3780   27.7387   53.1688 N   0  0  0  0  0  0  0  0  0  0  0  0
  1  2  1  0  0  0  0
  1  7  1  0  0  0  0
  2  3  1  0  0  0  0
  2  4  2  0  0  0  0
  4  5  1  0  0  0  0
  5  6  2  0  0  0  0
  5 11  1  0  0  0  0
  6  7  1  0  0  0  0
  6  9  1  0  0  0  0
  7  8  2  0  0  0  0
  9 10  2  0  0  0  0
  9 12  1  0  0  0  0
 10 11  1  0  0  0  0
 12 13  1  0  0  0  0
M  END
>  <CHROM.1>
-44.07687128,-5.18996025,31.01952071,53.86274249,2.02714227,-0.49279336,0.37790568

>  <Name>
ligand

>  <RI>
0

>  <Rbt.Current_Directory>
/home/itssahil/PROJECTS/Mol_Feturizer/Test_systems_manuscript/rnas/4jf2

>  <Rbt.Executable>
rbdock ($Id: //depot/dev/client3/rdock/2013.1/src/exe/rbdock.cxx#4 $)

>  <Rbt.Library>
libRbt.so (2013.1, Build901 2013/11/27)

>  <Rbt.Parameter_File>
/export/apps/rDock/src/rDock_2013.1_src/data/scripts/dock_solv.prm

>  <Rbt.Receptor>
prm/pocket_docking_8.prm

>  <SCORE>
-14.0189

>  <SCORE.INTER>
-14.5418

>  <SCORE.INTER.CONST>
1

>  <SCORE.INTER.POLAR>
0

>  <SCORE.INTER.ROT>
1

>  <SCORE.INTER.SOLV>
13.2833

>  <SCORE.INTER.VDW>
-18.389

>  <SCORE.INTER.norm>
-1.1186

>  <SCORE.INTRA>
0.522931

>  <SCORE.INTRA.DIHEDRAL>
-0.163668

>  <SCORE.INTRA.DIHEDRAL.0>
1.75624

>  <SCORE.INTRA.POLAR>
0

>  <SCORE.INTRA.POLAR.0>
0

>  <SCORE.INTRA.REPUL>
0

>  <SCORE.INTRA.REPUL.0>
0

>  <SCORE.INTRA.SOLV>
0.86249

>  <SCORE.INTRA.SOLV.lig_0>
-46.5296

>  <SCORE.INTRA.VDW>
0.173521

>  <SCORE.INTRA.VDW.0>
-0.381873

>  <SCORE.INTRA.norm>
0.0402255

>  <SCORE.RESTR>
0

>  <SCORE.RESTR.CAVITY>
0

>  <SCORE.RESTR.norm>
0

>  <SCORE.SYSTEM>
0

>  <SCORE.SYSTEM.CONST>
0

>  <SCORE.SYSTEM.DIHEDRAL>
0

>  <SCORE.SYSTEM.SOLV>
0

>  <SCORE.SYSTEM.norm>
0

>  <SCORE.heavy>
13

>  <SCORE.norm>
-1.07837

>  <RMSD>
3.902

$$$$
ligand
 OpenBabel02271912143D
libRbt.so/2013.1/901 2013/11/27
 13 14  0  0  0  0  0  0  0  0999 V2000
   -6.8380   32.1672   53.2864 N   0  0  0  0  0  0  0  0  0  0  0  0
   -6.3275   33.2013   54.0878 C   0  0  0  0  0  0  0  0  0  0  0  0
   -7.0695   34.4345   54.2150 N   0  0  0  0  0  0  0  0  0  0  0  0
   -5.1352   33.0371   54.7554 N   0  0  0  0  0  0  0  0  0  0  0  0
   -4.3805   31.8400   54.6541 C   0  0  0  0  0  0  0  0  0  0  0  0
   -4.8641   30.7703   53.8242 C   0  0  0  0  0  0  0  0  0  0  0  0
   -6.1150   30.9797   53.1319 C   0  0  0  0  0  0  0  0  0  0  0  0
   -6.5705   29.9523   52.3535 O   0  0  0  0  0  0  0  0  0  0  0  0
   -3.9236   29.6759   53.8959 C   0  0  0  0  0  0  0  0  0  0  0  0
   -2.9103   30.1325   54.7404 C   0  0  0  0  0  0  0  0  0  0  0  0
   -3.1934   31.4091   55.1909 N   0  0  0  0  0  0  0  0  0  0  0  0
   -3.9975   28.3464   53.1709 C   0  0  0  0  0  0  0  0  0  0  0  0
   -5.3359   27.7599   53.1738 N   0  0  0  0  0  0  0  0  0  0  0  0
  1  2  1  0  0  0  0
  1  7  1  0  0  0  0
  2  3  1  0  0  0  0
  2  4  2  0  0  0  0
  4  5  1  0  0  0  0
  5  6  2  0  0  0  0
  5 11  1  0  0  0  0
  6  7  1  0  0  0  0
  6  9  1  0  0  0  0
  7  8  2  0  0  0  0
  9 10  2  0  0  0  0
  9 12  1  0  0  0  0
 10 11  1  0  0  0  0
 12 13  1  0  0  0  0
M  END
>  <CHROM.1>
-42.98672495,-5.17037695,31.03805979,53.85330624,2.03640542,-0.49225169,0.37344851

>  <Name>
ligand

>  <RI>
-1

>  <Rbt.Current_Directory>
/home/itssahil/PROJECTS/Mol_Feturizer/Test_systems_manuscript/rnas/4jf2

>  <Rbt.Executable>
rbdock ($Id: //depot/dev/client3/rdock/2013.1/src/exe/rbdock.cxx#4 $)

>  <Rbt.Library>
libRbt.so (2013.1, Build901 2013/11/27)

>  <Rbt.Parameter_File>
/export/apps/rDock/src/rDock_2013.1_src/data/scripts/dock_solv.prm

>  <Rbt.Receptor>
prm/pocket_docking_7.prm

>  <SCORE>
-14.0153

>  <SCORE.INTER>
-14.5804

>  <SCORE.INTER.CONST>
1

>  <SCORE.INTER.POLAR>
0

>  <SCORE.INTER.ROT>
1

>  <SCORE.INTER.SOLV>
12.953

>  <SCORE.INTER.VDW>
-18.3046

>  <SCORE.INTER.norm>
-1.12157

>  <SCORE.INTRA>
0.565158

>  <SCORE.INTRA.DIHEDRAL>
-0.167482

>  <SCORE.INTRA.DIHEDRAL.0>
1.75624

>  <SCORE.INTRA.POLAR>
0

>  <SCORE.INTRA.POLAR.0>
0

>  <SCORE.INTRA.REPUL>
0

>  <SCORE.INTRA.REPUL.0>
0

>  <SCORE.INTRA.SOLV>
0.888397

>  <SCORE.INTRA.SOLV.lig_0>
-46.5296

>  <SCORE.INTRA.VDW>
0.2047

>  <SCORE.INTRA.VDW.0>
-0.381873

>  <SCORE.INTRA.norm>
0.0434737

>  <SCORE.RESTR>
0

>  <SCORE.RESTR.CAVITY>
0

>  <SCORE.RESTR.norm>
0

>  <SCORE.SYSTEM>
0

>  <SCORE.SYSTEM.CONST>
0

>  <SCORE.SYSTEM.DIHEDRAL>
0

>  <SCORE.SYSTEM.SOLV>
0

>  <SCORE.SYSTEM.norm>
0

>  <SCORE.heavy>
13

>  <SCORE.norm>
-1.0781

>  <RMSD>
3.921

$$$$
ligand
 OpenBabel02271912143D
libRbt.so/2013.1/901 2013/11/27
 13 14  0  0  0  0  0  0  0  0999 V2000
   -6.8524   32.1537   53.3166 N   0  0  0  0  0  0  0  0  0  0  0  0
   -6.3391   33.1894   54.1141 C   0  0  0  0  0  0  0  0  0  0  0  0
   -7.0856   34.4190   54.2496 N   0  0  0  0  0  0  0  0  0  0  0  0
   -5.1398   33.0302   54.7702 N   0  0  0  0  0  0  0  0  0  0  0  0
   -4.3805   31.8368   54.6605 C   0  0  0  0  0  0  0  0  0  0  0  0
   -4.8669   30.7656   53.8342 C   0  0  0  0  0  0  0  0  0  0  0  0
   -6.1254   30.9697   53.1540 C   0  0  0  0  0  0  0  0  0  0  0  0
   -6.5834   29.9410   52.3790 O   0  0  0  0  0  0  0  0  0  0  0  0
   -3.9207   29.6755   53.8959 C   0  0  0  0  0  0  0  0  0  0  0  0
   -2.9016   30.1360   54.7312 C   0  0  0  0  0  0  0  0  0  0  0  0
   -3.1864   31.4109   55.1856 N   0  0  0  0  0  0  0  0  0  0  0  0
   -3.9953   28.3464   53.1703 C   0  0  0  0  0  0  0  0  0  0  0  0
   -5.3352   27.7634   53.1679 N   0  0  0  0  0  0  0  0  0  0  0  0
  1  2  1  0  0  0  0
  1  7  1  0  0  0  0
  2  3  1  0  0  0  0
  2  4  2  0  0  0  0
  4  5  1  0  0  0  0
  5  6  2  0  0  0  0
  5 11  1  0  0  0  0
  6  7  1  0  0  0  0
  6  9  1  0  0  0  0
  7  8  2  0  0  0  0
  9 10  2  0  0  0  0
  9 12  1  0  0  0  0
 10 11  1  0  0  0  0
 12 13  1  0  0  0  0
M  END
>  <CHROM.1>
-42.11251536,-5.17455007,31.03267373,53.86506988,2.03731396,-0.48182972,0.37627561

>  <Name>
ligand

>  <RI>
0

>  <Rbt.Current_Directory>
/home/itssahil/PROJECTS/Mol_Feturizer/Test_systems_manuscript/rnas/4jf2

>  <Rbt.Executable>
rbdock ($Id: //depot/dev/client3/rdock/2013.1/src/exe/rbdock.cxx#4 $)

>  <Rbt.Library>
libRbt.so (2013.1, Build901 2013/11/27)

>  <Rbt.Parameter_File>
/export/apps/rDock/src/rDock_2013.1_src/data/scripts/dock_solv.prm

>  <Rbt.Receptor>
prm/pocket_docking_8.prm

>  <SCORE>
-14.028

>  <SCORE.INTER>
-14.6137

>  <SCORE.INTER.CONST>
1

>  <SCORE.INTER.POLAR>
0

>  <SCORE.INTER.ROT>
1

>  <SCORE.INTER.SOLV>
13.142

>  <SCORE.INTER.VDW>
-18.3898

>  <SCORE.INTER.norm>
-1.12413

>  <SCORE.INTRA>
0.585661

>  <SCORE.INTRA.DIHEDRAL>
-0.170326

>  <SCORE.INTRA.DIHEDRAL.0>
1.75624

>  <SCORE.INTRA.POLAR>
0

>  <SCORE.INTRA.POLAR.0>
0

>  <SCORE.INTRA.REPUL>
0

>  <SCORE.INTRA.REPUL.0>
0

>  <SCORE.INTRA.SOLV>
0.908876

>  <SCORE.INTRA.SOLV.lig_0>
-46.5296

>  <SCORE.INTRA.VDW>
0.216386

>  <SCORE.INTRA.VDW.0>
-0.381873

>  <SCORE.INTRA.norm>
0.0450508

>  <SCORE.RESTR>
0

>  <SCORE.RESTR.CAVITY>
0

>  <SCORE.RESTR.norm>
0

>  <SCORE.SYSTEM>
0

>  <SCORE.SYSTEM.CONST>
0

>  <SCORE.SYSTEM.DIHEDRAL>
0

>  <SCORE.SYSTEM.SOLV>
0

>  <SCORE.SYSTEM.norm>
0

>  <SCORE.heavy>
13

>  <SCORE.norm>
-1.07908

>  <RMSD>
3.921

$$$$
ligand
 OpenBabel02271912143D
libRbt.so/2013.1/901 2013/11/27
 13 14  0  0  0  0  0  0  0  0999 V2000
   -6.8349   32.1486   53.2756 N   0  0  0  0  0  0  0  0  0  0  0  0
   -6.3210   33.1927   54.0618 C   0  0  0  0  0  0  0  0  0  0  0  0
   -7.0638   34.4264   54.1789 N   0  0  0  0  0  0  0  0  0  0  0  0
   -5.1245   33.0379   54.7242 N   0  0  0  0  0  0  0  0  0  0  0  0
   -4.3688   31.8406   54.6325 C   0  0  0  0  0  0  0  0  0  0  0  0
   -4.8559   30.7606   53.8181 C   0  0  0  0  0  0  0  0  0  0  0  0
   -6.1112   30.9603   53.1307 C   0  0  0  0  0  0  0  0  0  0  0  0
   -6.5699   29.9233   52.3672 O   0  0  0  0  0  0  0  0  0  0  0  0
   -3.9136   29.6683   53.8970 C   0  0  0  0  0  0  0  0  0  0  0  0
   -2.8960   30.1360   54.7301 C   0  0  0  0  0  0  0  0  0  0  0  0
   -3.1781   31.4175   55.1673 N   0  0  0  0  0  0  0  0  0  0  0  0
   -3.9901   28.3303   53.1881 C   0  0  0  0  0  0  0  0  0  0  0  0
   -5.3326   27.7534   53.1852 N   0  0  0  0  0  0  0  0  0  0  0  0
  1  2  1  0  0  0  0
  1  7  1  0  0  0  0
  2  3  1  0  0  0  0
  2  4  2  0  0  0  0
  4  5  1  0  0  0  0
  5  6  2  0  0  0  0
  5 11  1  0  0  0  0
  6  7  1  0  0  0  0
  6  9  1  0  0  0  0
  7  8  2  0  0  0  0
  9 10  2  0  0  0  0
  9 12  1  0  0  0  0
 10 11  1  0  0  0  0
 12 13  1  0  0  0  0
M  END
>  <CHROM.1>
-41.96299700,-5.16281199,31.02922835,53.84415002,2.03525911,-0.48644332,0.36285032

>  <Name>
ligand

>  <RI>
-1

>  <Rbt.Current_Directory>
/home/itssahil/PROJECTS/Mol_Feturizer/Test_systems_manuscript/rnas/4jf2

>  <Rbt.Executable>
rbdock ($Id: //depot/dev/client3/rdock/2013.1/src/exe/rbdock.cxx#4 $)

>  <Rbt.Library>
libRbt.so (2013.1, Build901 2013/11/27)

>  <Rbt.Parameter_File>
/export/apps/rDock/src/rDock_2013.1_src/data/scripts/dock_solv.prm

>  <Rbt.Receptor>
prm/pocket_docking_5.prm

>  <SCORE>
-14.0242

>  <SCORE.INTER>
-14.6163

>  <SCORE.INTER.CONST>
1

>  <SCORE.INTER.POLAR>
0

>  <SCORE.INTER.ROT>
1

>  <SCORE.INTER.SOLV>
12.7981

>  <SCORE.INTER.VDW>
-18.2769

>  <SCORE.INTER.norm>
-1.12433

>  <SCORE.INTRA>
0.592117

>  <SCORE.INTRA.DIHEDRAL>
-0.170793

>  <SCORE.INTRA.DIHEDRAL.0>
1.75624

>  <SCORE.INTRA.POLAR>
0

>  <SCORE.INTRA.POLAR.0>
0

>  <SCORE.INTRA.REPUL>
0

>  <SCORE.INTRA.REPUL.0>
0

>  <SCORE.INTRA.SOLV>
0.912352

>  <SCORE.INTRA.SOLV.lig_0>
-46.5296

>  <SCORE.INTRA.VDW>
0.221337

>  <SCORE.INTRA.VDW.0>
-0.381873

>  <SCORE.INTRA.norm>
0.0455474

>  <SCORE.RESTR>
0

>  <SCORE.RESTR.CAVITY>
0

>  <SCORE.RESTR.norm>
0

>  <SCORE.SYSTEM>
0

>  <SCORE.SYSTEM.CONST>
0

>  <SCORE.SYSTEM.DIHEDRAL>
0

>  <SCORE.SYSTEM.SOLV>
0

>  <SCORE.SYSTEM.norm>
0

>  <SCORE.heavy>
13

>  <SCORE.norm>
-1.07879

>  <RMSD>
3.923

$$$$
ligand
 OpenBabel02271912143D
libRbt.so/2013.1/901 2013/11/27
 13 14  0  0  0  0  0  0  0  0999 V2000
   -6.8363   32.1517   53.2732 N   0  0  0  0  0  0  0  0  0  0  0  0
   -6.3207   33.1982   54.0549 C   0  0  0  0  0  0  0  0  0  0  0  0
   -7.0632   34.4323   54.1696 N   0  0  0  0  0  0  0  0  0  0  0  0
   -5.1229   33.0453   54.7154 N   0  0  0  0  0  0  0  0  0  0  0  0
   -4.3676   31.8477   54.6259 C   0  0  0  0  0  0  0  0  0  0  0  0
   -4.8565   30.7652   53.8160 C   0  0  0  0  0  0  0  0  0  0  0  0
   -6.1131   30.9628   53.1306 C   0  0  0  0  0  0  0  0  0  0  0  0
   -6.5735   29.9234   52.3712 O   0  0  0  0  0  0  0  0  0  0  0  0
   -3.9141   29.6730   53.8964 C   0  0  0  0  0  0  0  0  0  0  0  0
   -2.8947   30.1432   54.7260 C   0  0  0  0  0  0  0  0  0  0  0  0
   -3.1758   31.4261   55.1596 N   0  0  0  0  0  0  0  0  0  0  0  0
   -3.9922   28.3327   53.1920 C   0  0  0  0  0  0  0  0  0  0  0  0
   -5.3371   27.7615   53.1834 N   0  0  0  0  0  0  0  0  0  0  0  0
  1  2  1  0  0  0  0
  1  7  1  0  0  0  0
  2  3  1  0  0  0  0
  2  4  2  0  0  0  0
  4  5  1  0  0  0  0
  5  6  2  0  0  0  0
  5 11  1  0  0  0  0
  6  7  1  0  0  0  0
  6  9  1  0  0  0  0
  7  8  2  0  0  0  0
  9 10  2  0  0  0  0
  9 12  1  0  0  0  0
 10 11  1  0  0  0  0
 12 13  1  0  0  0  0
M  END
>  <CHROM.1>
-41.45468545,-5.16345672,31.03433875,53.84097002,2.03428692,-0.48468373,0.36005923

>  <Name>
ligand

>  <RI>
-1

>  <Rbt.Current_Directory>
/home/itssahil/PROJECTS/Mol_Feturizer/Test_systems_manuscript/rnas/4jf2

>  <Rbt.Executable>
rbdock ($Id: //depot/dev/client3/rdock/2013.1/src/exe/rbdock.cxx#4 $)

>  <Rbt.Library>
libRbt.so (2013.1, Build901 2013/11/27)

>  <Rbt.Parameter_File>
/export/apps/rDock/src/rDock_2013.1_src/data/scripts/dock_solv.prm

>  <Rbt.Receptor>
prm/pocket_docking_5.prm

>  <SCORE>
-14.0244

>  <SCORE.INTER>
-14.639

>  <SCORE.INTER.CONST>
1

>  <SCORE.INTER.POLAR>
0

>  <SCORE.INTER.ROT>
1

>  <SCORE.INTER.SOLV>
12.7023

>  <SCORE.INTER.VDW>
-18.2601

>  <SCORE.INTER.norm>
-1.12608

>  <SCORE.INTRA>
0.614621

>  <SCORE.INTRA.DIHEDRAL>
-0.172337

>  <SCORE.INTRA.DIHEDRAL.0>
1.75624

>  <SCORE.INTRA.POLAR>
0

>  <SCORE.INTRA.POLAR.0>
0

>  <SCORE.INTRA.REPUL>
0

>  <SCORE.INTRA.REPUL.0>
0

>  <SCORE.INTRA.SOLV>
0.924107

>  <SCORE.INTRA.SOLV.lig_0>
-46.5296

>  <SCORE.INTRA.VDW>
0.238735

>  <SCORE.INTRA.VDW.0>
-0.381873

>  <SCORE.INTRA.norm>
0.0472785

>  <SCORE.RESTR>
0

>  <SCORE.RESTR.CAVITY>
0

>  <SCORE.RESTR.norm>
0

>  <SCORE.SYSTEM>
0

>  <SCORE.SYSTEM.CONST>
0

>  <SCORE.SYSTEM.DIHEDRAL>
0

>  <SCORE.SYSTEM.SOLV>
0

>  <SCORE.SYSTEM.norm>
0

>  <SCORE.heavy>
13

>  <SCORE.norm>
-1.0788

>  <RMSD>
3.924

$$$$
ligand
 OpenBabel02271912143D
libRbt.so/2013.1/901 2013/11/27
 13 14  0  0  0  0  0  0  0  0999 V2000
   -6.8428   32.1529   53.2772 N   0  0  0  0  0  0  0  0  0  0  0  0
   -6.3291   33.1992   54.0606 C   0  0  0  0  0  0  0  0  0  0  0  0
   -7.0738   34.4317   54.1773 N   0  0  0  0  0  0  0  0  0  0  0  0
   -5.1308   33.0476   54.7206 N   0  0  0  0  0  0  0  0  0  0  0  0
   -4.3732   31.8516   54.6290 C   0  0  0  0  0  0  0  0  0  0  0  0
   -4.8601   30.7694   53.8175 C   0  0  0  0  0  0  0  0  0  0  0  0
   -6.1173   30.9657   53.1326 C   0  0  0  0  0  0  0  0  0  0  0  0
   -6.5758   29.9266   52.3718 O   0  0  0  0  0  0  0  0  0  0  0  0
   -3.9156   29.6789   53.8961 C   0  0  0  0  0  0  0  0  0  0  0  0
   -2.8970   30.1498   54.7261 C   0  0  0  0  0  0  0  0  0  0  0  0
   -3.1805   31.4315   55.1619 N   0  0  0  0  0  0  0  0  0  0  0  0
   -3.9913   28.3396   53.1895 C   0  0  0  0  0  0  0  0  0  0  0  0
   -5.3331   27.7612   53.1889 N   0  0  0  0  0  0  0  0  0  0  0  0
  1  2  1  0  0  0  0
  1  7  1  0  0  0  0
  2  3  1  0  0  0  0
  2  4  2  0  0  0  0
  4  5  1  0  0  0  0
  5  6  2  0  0  0  0
  5 11  1  0  0  0  0
  6  7  1  0  0  0  0
  6  9  1  0  0  0  0
  7  8  2  0  0  0  0
  9 10  2  0  0  0  0
  9 12  1  0  0  0  0
 10 11  1  0  0  0  0
 12 13  1  0  0  0  0
M  END
>  <CHROM.1>
-41.88231267,-5.16749112,31.03756492,53.84367584,2.03627519,-0.48373051,0.36184665

>  <Name>
ligand

>  <RI>
0

>  <Rbt.Current_Directory>
/home/itssahil/PROJECTS/Mol_Feturizer/Test_systems_manuscript/rnas/4jf2

>  <Rbt.Executable>
rbdock ($Id: //depot/dev/client3/rdock/2013.1/src/exe/rbdock.cxx#4 $)

>  <Rbt.Library>
libRbt.so (2013.1, Build901 2013/11/27)

>  <Rbt.Parameter_File>
/export/apps/rDock/src/rDock_2013.1_src/data/scripts/dock_solv.prm

>  <Rbt.Receptor>
prm/pocket_docking_8.prm

>  <SCORE>
-14.0277

>  <SCORE.INTER>
-14.6233

>  <SCORE.INTER.CONST>
1

>  <SCORE.INTER.POLAR>
0

>  <SCORE.INTER.ROT>
1

>  <SCORE.INTER.SOLV>
12.7542

>  <SCORE.INTER.VDW>
-18.2669

>  <SCORE.INTER.norm>
-1.12487

>  <SCORE.INTRA>
0.595631

>  <SCORE.INTRA.DIHEDRAL>
-0.171043

>  <SCORE.INTRA.DIHEDRAL.0>
1.75624

>  <SCORE.INTRA.POLAR>
0

>  <SCORE.INTRA.POLAR.0>
0

>  <SCORE.INTRA.REPUL>
0

>  <SCORE.INTRA.REPUL.0>
0

>  <SCORE.INTRA.SOLV>
0.914224

>  <SCORE.INTRA.SOLV.lig_0>
-46.5296

>  <SCORE.INTRA.VDW>
0.22404

>  <SCORE.INTRA.VDW.0>
-0.381873

>  <SCORE.INTRA.norm>
0.0458178

>  <SCORE.RESTR>
0

>  <SCORE.RESTR.CAVITY>
0

>  <SCORE.RESTR.norm>
0

>  <SCORE.SYSTEM>
0

>  <SCORE.SYSTEM.CONST>
0

>  <SCORE.SYSTEM.DIHEDRAL>
0

>  <SCORE.SYSTEM.SOLV>
0

>  <SCORE.SYSTEM.norm>
0

>  <SCORE.heavy>
13

>  <SCORE.norm>
-1.07905

>  <RMSD>
3.927

$$$$
ligand
 OpenBabel02271912143D
libRbt.so/2013.1/901 2013/11/27
 13 14  0  0  0  0  0  0  0  0999 V2000
   -6.8769   32.1562   53.3315 N   0  0  0  0  0  0  0  0  0  0  0  0
   -6.3786   33.2082   54.1170 C   0  0  0  0  0  0  0  0  0  0  0  0
   -7.1425   34.4286   54.2382 N   0  0  0  0  0  0  0  0  0  0  0  0
   -5.1773   33.0736   54.7751 N   0  0  0  0  0  0  0  0  0  0  0  0
   -4.4011   31.8899   54.6792 C   0  0  0  0  0  0  0  0  0  0  0  0
   -4.8721   30.8024   53.8653 C   0  0  0  0  0  0  0  0  0  0  0  0
   -6.1331   30.9809   53.1826 C   0  0  0  0  0  0  0  0  0  0  0  0
   -6.5762   29.9368   52.4195 O   0  0  0  0  0  0  0  0  0  0  0  0
   -3.9104   29.7267   53.9397 C   0  0  0  0  0  0  0  0  0  0  0  0
   -2.8982   30.2112   54.7697 C   0  0  0  0  0  0  0  0  0  0  0  0
   -3.2012   31.4871   55.2094 N   0  0  0  0  0  0  0  0  0  0  0  0
   -3.9660   28.3883   53.2295 C   0  0  0  0  0  0  0  0  0  0  0  0
   -5.2975   27.7864   53.2335 N   0  0  0  0  0  0  0  0  0  0  0  0
  1  2  1  0  0  0  0
  1  7  1  0  0  0  0
  2  3  1  0  0  0  0
  2  4  2  0  0  0  0
  4  5  1  0  0  0  0
  5  6  2  0  0  0  0
  5 11  1  0  0  0  0
  6  7  1  0  0  0  0
  6  9  1  0  0  0  0
  7  8  2  0  0  0  0
  9 10  2  0  0  0  0
  9 12  1  0  0  0  0
 10 11  1  0  0  0  0
 12 13  1  0  0  0  0
M  END
>  <CHROM.1>
-42.10725390,-5.18344955,31.06547149,53.89301667,2.05228255,-0.47684352,0.37164165

>  <Name>
ligand

>  <RI>
-1

>  <Rbt.Current_Directory>
/home/itssahil/PROJECTS/Mol_Feturizer/Test_systems_manuscript/rnas/4jf2

>  <Rbt.Executable>
rbdock ($Id: //depot/dev/client3/rdock/2013.1/src/exe/rbdock.cxx#4 $)

>  <Rbt.Library>
libRbt.so (2013.1, Build901 2013/11/27)

>  <Rbt.Parameter_File>
/export/apps/rDock/src/rDock_2013.1_src/data/scripts/dock_solv.prm

>  <Rbt.Receptor>
prm/pocket_docking_7.prm

>  <SCORE>
-13.9988

>  <SCORE.INTER>
-14.5847

>  <SCORE.INTER.CONST>
1

>  <SCORE.INTER.POLAR>
0

>  <SCORE.INTER.ROT>
1

>  <SCORE.INTER.SOLV>
13.0676

>  <SCORE.INTER.VDW>
-18.3457

>  <SCORE.INTER.norm>
-1.1219

>  <SCORE.INTRA>
0.585887

>  <SCORE.INTRA.DIHEDRAL>
-0.170343

>  <SCORE.INTRA.DIHEDRAL.0>
1.75624

>  <SCORE.INTRA.POLAR>
0

>  <SCORE.INTRA.POLAR.0>
0

>  <SCORE.INTRA.REPUL>
0

>  <SCORE.INTRA.REPUL.0>
0

>  <SCORE.INTRA.SOLV>
0.908999

>  <SCORE.INTRA.SOLV.lig_0>
-46.5296

>  <SCORE.INTRA.VDW>
0.216559

>  <SCORE.INTRA.VDW.0>
-0.381873

>  <SCORE.INTRA.norm>
0.0450682

>  <SCORE.RESTR>
0

>  <SCORE.RESTR.CAVITY>
0

>  <SCORE.RESTR.norm>
0

>  <SCORE.SYSTEM>
0

>  <SCORE.SYSTEM.CONST>
0

>  <SCORE.SYSTEM.DIHEDRAL>
0

>  <SCORE.SYSTEM.SOLV>
0

>  <SCORE.SYSTEM.norm>
0

>  <SCORE.heavy>
13

>  <SCORE.norm>
-1.07683

>  <RMSD>
3.953

$$$$
ligand
 OpenBabel02271912143D
libRbt.so/2013.1/901 2013/11/27
 13 14  0  0  0  0  0  0  0  0999 V2000
   -6.8943   31.7360   53.9663 N   0  0  0  0  0  0  0  0  0  0  0  0
   -7.8026   30.7472   53.5546 C   0  0  0  0  0  0  0  0  0  0  0  0
   -9.1916   31.0942   53.3605 N   0  0  0  0  0  0  0  0  0  0  0  0
   -7.3708   29.4602   53.3273 N   0  0  0  0  0  0  0  0  0  0  0  0
   -6.0148   29.0840   53.5072 C   0  0  0  0  0  0  0  0  0  0  0  0
   -5.0635   30.0671   53.9494 C   0  0  0  0  0  0  0  0  0  0  0  0
   -5.5528   31.4061   54.1859 C   0  0  0  0  0  0  0  0  0  0  0  0
   -4.6379   32.3352   54.5964 O   0  0  0  0  0  0  0  0  0  0  0  0
   -3.7676   29.4362   54.0490 C   0  0  0  0  0  0  0  0  0  0  0  0
   -3.9907   28.1067   53.6871 C   0  0  0  0  0  0  0  0  0  0  0  0
   -5.3200   27.9100   53.3598 N   0  0  0  0  0  0  0  0  0  0  0  0
   -2.4651   30.0688   54.4983 C   0  0  0  0  0  0  0  0  0  0  0  0
   -2.6393   31.0620   55.5559 N   0  0  0  0  0  0  0  0  0  0  0  0
  1  2  1  0  0  0  0
  1  7  1  0  0  0  0
  2  3  1  0  0  0  0
  2  4  2  0  0  0  0
  4  5  1  0  0  0  0
  5  6  2  0  0  0  0
  5 11  1  0  0  0  0
  6  7  1  0  0  0  0
  6  9  1  0  0  0  0
  7  8  2  0  0  0  0
  9 10  2  0  0  0  0
  9 12  1  0  0  0  0
 10 11  1  0  0  0  0
 12 13  1  0  0  0  0
M  END
>  <CHROM.1>
35.28208773,-5.43483049,30.24496504,53.98658914,-3.08138141,0.24924679,-2.85123509

>  <Name>
ligand

>  <RI>
-1

>  <Rbt.Current_Directory>
/home/itssahil/PROJECTS/Mol_Feturizer/Test_systems_manuscript/rnas/4jf2

>  <Rbt.Executable>
rbdock ($Id: //depot/dev/client3/rdock/2013.1/src/exe/rbdock.cxx#4 $)

>  <Rbt.Library>
libRbt.so (2013.1, Build901 2013/11/27)

>  <Rbt.Parameter_File>
/export/apps/rDock/src/rDock_2013.1_src/data/scripts/dock_solv.prm

>  <Rbt.Receptor>
prm/pocket_docking_7.prm

>  <SCORE>
-12.1337

>  <SCORE.INTER>
-13.0594

>  <SCORE.INTER.CONST>
1

>  <SCORE.INTER.POLAR>
0

>  <SCORE.INTER.ROT>
1

>  <SCORE.INTER.SOLV>
15.3508

>  <SCORE.INTER.VDW>
-18.0899

>  <SCORE.INTER.norm>
-1.00457

>  <SCORE.INTRA>
0.925721

>  <SCORE.INTRA.DIHEDRAL>
0.0288479

>  <SCORE.INTRA.DIHEDRAL.0>
1.75624

>  <SCORE.INTRA.POLAR>
0

>  <SCORE.INTRA.POLAR.0>
0

>  <SCORE.INTRA.REPUL>
0

>  <SCORE.INTRA.REPUL.0>
0

>  <SCORE.INTRA.SOLV>
1.02977

>  <SCORE.INTRA.SOLV.lig_0>
-46.5296

>  <SCORE.INTRA.VDW>
0.396411

>  <SCORE.INTRA.VDW.0>
-0.381873

>  <SCORE.INTRA.norm>
0.0712093

>  <SCORE.RESTR>
0

>  <SCORE.RESTR.CAVITY>
0

>  <SCORE.RESTR.norm>
0

>  <SCORE.SYSTEM>
0

>  <SCORE.SYSTEM.CONST>
0

>  <SCORE.SYSTEM.DIHEDRAL>
0

>  <SCORE.SYSTEM.SOLV>
0

>  <SCORE.SYSTEM.norm>
0

>  <SCORE.heavy>
13

>  <SCORE.norm>
-0.933359

>  <RMSD>
4.048

$$$$
ligand
 OpenBabel02271912143D
libRbt.so/2013.1/901 2013/11/27
 13 14  0  0  0  0  0  0  0  0999 V2000
   -6.7259   31.8913   53.9122 N   0  0  0  0  0  0  0  0  0  0  0  0
   -7.5682   31.0281   53.1927 C   0  0  0  0  0  0  0  0  0  0  0  0
   -8.8800   31.4839   52.7940 N   0  0  0  0  0  0  0  0  0  0  0  0
   -7.1432   29.7619   52.8605 N   0  0  0  0  0  0  0  0  0  0  0  0
   -5.8619   29.2813   53.2348 C   0  0  0  0  0  0  0  0  0  0  0  0
   -4.9837   30.1319   53.9911 C   0  0  0  0  0  0  0  0  0  0  0  0
   -5.4650   31.4518   54.3292 C   0  0  0  0  0  0  0  0  0  0  0  0
   -4.6180   32.2557   55.0398 O   0  0  0  0  0  0  0  0  0  0  0  0
   -3.7540   29.4146   54.2378 C   0  0  0  0  0  0  0  0  0  0  0  0
   -3.9458   28.1656   53.6450 C   0  0  0  0  0  0  0  0  0  0  0  0
   -5.1911   28.0992   53.0468 N   0  0  0  0  0  0  0  0  0  0  0  0
   -2.5445   29.8962   55.0149 C   0  0  0  0  0  0  0  0  0  0  0  0
   -2.2377   31.3072   54.7910 N   0  0  0  0  0  0  0  0  0  0  0  0
  1  2  1  0  0  0  0
  1  7  1  0  0  0  0
  2  3  1  0  0  0  0
  2  4  2  0  0  0  0
  4  5  1  0  0  0  0
  5  6  2  0  0  0  0
  5 11  1  0  0  0  0
  6  7  1  0  0  0  0
  6  9  1  0  0  0  0
  7  8  2  0  0  0  0
  9 10  2  0  0  0  0
  9 12  1  0  0  0  0
 10 11  1  0  0  0  0
 12 13  1  0  0  0  0
M  END
>  <CHROM.1>
-38.80759594,-5.29590871,30.37144516,53.87259853,-3.07031361,0.34677398,-2.79624968

>  <Name>
ligand

>  <RI>
-1

>  <Rbt.Current_Directory>
/home/itssahil/PROJECTS/Mol_Feturizer/Test_systems_manuscript/rnas/4jf2

>  <Rbt.Executable>
rbdock ($Id: //depot/dev/client3/rdock/2013.1/src/exe/rbdock.cxx#4 $)

>  <Rbt.Library>
libRbt.so (2013.1, Build901 2013/11/27)

>  <Rbt.Parameter_File>
/export/apps/rDock/src/rDock_2013.1_src/data/scripts/dock_solv.prm

>  <Rbt.Receptor>
prm/pocket_docking_6.prm

>  <SCORE>
-12.6762

>  <SCORE.INTER>
-13.4229

>  <SCORE.INTER.CONST>
1

>  <SCORE.INTER.POLAR>
0

>  <SCORE.INTER.ROT>
1

>  <SCORE.INTER.SOLV>
13.6018

>  <SCORE.INTER.VDW>
-17.7492

>  <SCORE.INTER.norm>
-1.03253

>  <SCORE.INTRA>
0.746719

>  <SCORE.INTRA.DIHEDRAL>
-0.179253

>  <SCORE.INTRA.DIHEDRAL.0>
1.75624

>  <SCORE.INTRA.POLAR>
0

>  <SCORE.INTRA.POLAR.0>
0

>  <SCORE.INTRA.REPUL>
0

>  <SCORE.INTRA.REPUL.0>
0

>  <SCORE.INTRA.SOLV>
0.98377

>  <SCORE.INTRA.SOLV.lig_0>
-46.5296

>  <SCORE.INTRA.VDW>
0.344461

>  <SCORE.INTRA.VDW.0>
-0.381873

>  <SCORE.INTRA.norm>
0.0574399

>  <SCORE.RESTR>
0

>  <SCORE.RESTR.CAVITY>
0

>  <SCORE.RESTR.norm>
0

>  <SCORE.SYSTEM>
0

>  <SCORE.SYSTEM.CONST>
0

>  <SCORE.SYSTEM.DIHEDRAL>
0

>  <SCORE.SYSTEM.SOLV>
0

>  <SCORE.SYSTEM.norm>
0

>  <SCORE.heavy>
13

>  <SCORE.norm>
-0.975092

>  <RMSD>
4.060

$$$$
ligand
 OpenBabel02271912143D
libRbt.so/2013.1/901 2013/11/27
 13 14  0  0  0  0  0  0  0  0999 V2000
   -6.7634   31.8869   53.9461 N   0  0  0  0  0  0  0  0  0  0  0  0
   -7.6031   31.0401   53.2044 C   0  0  0  0  0  0  0  0  0  0  0  0
   -8.9162   31.5021   52.8174 N   0  0  0  0  0  0  0  0  0  0  0  0
   -7.1744   29.7841   52.8398 N   0  0  0  0  0  0  0  0  0  0  0  0
   -5.8917   29.2978   53.2019 C   0  0  0  0  0  0  0  0  0  0  0  0
   -5.0160   30.1312   53.9800 C   0  0  0  0  0  0  0  0  0  0  0  0
   -5.5013   31.4405   54.3518 C   0  0  0  0  0  0  0  0  0  0  0  0
   -4.6567   32.2283   55.0831 O   0  0  0  0  0  0  0  0  0  0  0  0
   -3.7843   29.4114   54.2084 C   0  0  0  0  0  0  0  0  0  0  0  0
   -3.9724   28.1774   53.5836 C   0  0  0  0  0  0  0  0  0  0  0  0
   -5.2174   28.1228   52.9836 N   0  0  0  0  0  0  0  0  0  0  0  0
   -2.5763   29.8764   54.9978 C   0  0  0  0  0  0  0  0  0  0  0  0
   -2.2897   31.2995   54.8315 N   0  0  0  0  0  0  0  0  0  0  0  0
  1  2  1  0  0  0  0
  1  7  1  0  0  0  0
  2  3  1  0  0  0  0
  2  4  2  0  0  0  0
  4  5  1  0  0  0  0
  5  6  2  0  0  0  0
  5 11  1  0  0  0  0
  6  7  1  0  0  0  0
  6  9  1  0  0  0  0
  7  8  2  0  0  0  0
  9 10  2  0  0  0  0
  9 12  1  0  0  0  0
 10 11  1  0  0  0  0
 12 13  1  0  0  0  0
M  END
>  <CHROM.1>
-37.64178721,-5.33027255,30.37325236,53.86935504,-3.07450010,0.34736882,-2.76845691

>  <Name>
ligand

>  <RI>
0

>  <Rbt.Current_Directory>
/home/itssahil/PROJECTS/Mol_Feturizer/Test_systems_manuscript/rnas/4jf2

>  <Rbt.Executable>
rbdock ($Id: //depot/dev/client3/rdock/2013.1/src/exe/rbdock.cxx#4 $)

>  <Rbt.Library>
libRbt.so (2013.1, Build901 2013/11/27)

>  <Rbt.Parameter_File>
/export/apps/rDock/src/rDock_2013.1_src/data/scripts/dock_solv.prm

>  <Rbt.Receptor>
prm/pocket_docking_8.prm

>  <SCORE>
-12.6807

>  <SCORE.INTER>
-13.4942

>  <SCORE.INTER.CONST>
1

>  <SCORE.INTER.POLAR>
0

>  <SCORE.INTER.ROT>
1

>  <SCORE.INTER.SOLV>
13.5

>  <SCORE.INTER.VDW>
-17.7628

>  <SCORE.INTER.norm>
-1.03801

>  <SCORE.INTRA>
0.813511

>  <SCORE.INTRA.DIHEDRAL>
-0.181679

>  <SCORE.INTRA.DIHEDRAL.0>
1.75624

>  <SCORE.INTRA.POLAR>
0

>  <SCORE.INTRA.POLAR.0>
0

>  <SCORE.INTRA.REPUL>
0

>  <SCORE.INTRA.REPUL.0>
0

>  <SCORE.INTRA.SOLV>
1.00918

>  <SCORE.INTRA.SOLV.lig_0>
-46.5296

>  <SCORE.INTRA.VDW>
0.39976

>  <SCORE.INTRA.VDW.0>
-0.381873

>  <SCORE.INTRA.norm>
0.0625777

>  <SCORE.RESTR>
0

>  <SCORE.RESTR.CAVITY>
0

>  <SCORE.RESTR.norm>
0

>  <SCORE.SYSTEM>
0

>  <SCORE.SYSTEM.CONST>
0

>  <SCORE.SYSTEM.DIHEDRAL>
0

>  <SCORE.SYSTEM.SOLV>
0

>  <SCORE.SYSTEM.norm>
0

>  <SCORE.heavy>
13

>  <SCORE.norm>
-0.975436

>  <RMSD>
4.061

$$$$
ligand
 OpenBabel02271912143D
libRbt.so/2013.1/901 2013/11/27
 13 14  0  0  0  0  0  0  0  0999 V2000
   -6.7535   31.8848   53.9372 N   0  0  0  0  0  0  0  0  0  0  0  0
   -7.5958   31.0356   53.2014 C   0  0  0  0  0  0  0  0  0  0  0  0
   -8.9105   31.4961   52.8181 N   0  0  0  0  0  0  0  0  0  0  0  0
   -7.1681   29.7786   52.8390 N   0  0  0  0  0  0  0  0  0  0  0  0
   -5.8839   29.2937   53.1975 C   0  0  0  0  0  0  0  0  0  0  0  0
   -5.0055   30.1297   53.9697 C   0  0  0  0  0  0  0  0  0  0  0  0
   -5.4897   31.4400   54.3395 C   0  0  0  0  0  0  0  0  0  0  0  0
   -4.6425   32.2303   55.0651 O   0  0  0  0  0  0  0  0  0  0  0  0
   -3.7727   29.4109   54.1956 C   0  0  0  0  0  0  0  0  0  0  0  0
   -3.9628   28.1751   53.5752 C   0  0  0  0  0  0  0  0  0  0  0  0
   -5.2101   28.1183   52.9802 N   0  0  0  0  0  0  0  0  0  0  0  0
   -2.5617   29.8786   54.9789 C   0  0  0  0  0  0  0  0  0  0  0  0
   -2.2601   31.2953   54.7858 N   0  0  0  0  0  0  0  0  0  0  0  0
  1  2  1  0  0  0  0
  1  7  1  0  0  0  0
  2  3  1  0  0  0  0
  2  4  2  0  0  0  0
  4  5  1  0  0  0  0
  5  6  2  0  0  0  0
  5 11  1  0  0  0  0
  6  7  1  0  0  0  0
  6  9  1  0  0  0  0
  7  8  2  0  0  0  0
  9 10  2  0  0  0  0
  9 12  1  0  0  0  0
 10 11  1  0  0  0  0
 12 13  1  0  0  0  0
M  END
>  <CHROM.1>
-38.81151111,-5.31889809,30.37086562,53.85783465,-3.07206142,0.34216620,-2.77294880

>  <Name>
ligand

>  <RI>
0

>  <Rbt.Current_Directory>
/home/itssahil/PROJECTS/Mol_Feturizer/Test_systems_manuscript/rnas/4jf2

>  <Rbt.Executable>
rbdock ($Id: //depot/dev/client3/rdock/2013.1/src/exe/rbdock.cxx#4 $)

>  <Rbt.Library>
libRbt.so (2013.1, Build901 2013/11/27)

>  <Rbt.Parameter_File>
/export/apps/rDock/src/rDock_2013.1_src/data/scripts/dock_solv.prm

>  <Rbt.Receptor>
prm/pocket_docking_8.prm

>  <SCORE>
-12.6709

>  <SCORE.INTER>
-13.4174

>  <SCORE.INTER.CONST>
1

>  <SCORE.INTER.POLAR>
0

>  <SCORE.INTER.ROT>
1

>  <SCORE.INTER.SOLV>
13.5688

>  <SCORE.INTER.VDW>
-17.7346

>  <SCORE.INTER.norm>
-1.03211

>  <SCORE.INTRA>
0.746504

>  <SCORE.INTRA.DIHEDRAL>
-0.179244

>  <SCORE.INTRA.DIHEDRAL.0>
1.75624

>  <SCORE.INTRA.POLAR>
0

>  <SCORE.INTRA.POLAR.0>
0

>  <SCORE.INTRA.REPUL>
0

>  <SCORE.INTRA.REPUL.0>
0

>  <SCORE.INTRA.SOLV>
0.983683

>  <SCORE.INTRA.SOLV.lig_0>
-46.5296

>  <SCORE.INTRA.VDW>
0.344285

>  <SCORE.INTRA.VDW.0>
-0.381873

>  <SCORE.INTRA.norm>
0.0574234

>  <SCORE.RESTR>
0

>  <SCORE.RESTR.CAVITY>
0

>  <SCORE.RESTR.norm>
0

>  <SCORE.SYSTEM>
0

>  <SCORE.SYSTEM.CONST>
0

>  <SCORE.SYSTEM.DIHEDRAL>
0

>  <SCORE.SYSTEM.SOLV>
0

>  <SCORE.SYSTEM.norm>
0

>  <SCORE.heavy>
13

>  <SCORE.norm>
-0.974688

>  <RMSD>
4.062

$$$$
ligand
 OpenBabel02271912143D
libRbt.so/2013.1/901 2013/11/27
 13 14  0  0  0  0  0  0  0  0999 V2000
   -6.7133   31.8884   53.9067 N   0  0  0  0  0  0  0  0  0  0  0  0
   -7.5148   31.0258   53.1413 C   0  0  0  0  0  0  0  0  0  0  0  0
   -8.8294   31.4582   52.7262 N   0  0  0  0  0  0  0  0  0  0  0  0
   -7.0473   29.7827   52.7804 N   0  0  0  0  0  0  0  0  0  0  0  0
   -5.7619   29.3255   53.1697 C   0  0  0  0  0  0  0  0  0  0  0  0
   -4.9250   30.1753   53.9723 C   0  0  0  0  0  0  0  0  0  0  0  0
   -5.4505   31.4704   54.3395 C   0  0  0  0  0  0  0  0  0  0  0  0
   -4.6425   32.2742   55.0943 O   0  0  0  0  0  0  0  0  0  0  0  0
   -3.6818   29.4842   54.2256 C   0  0  0  0  0  0  0  0  0  0  0  0
   -3.8253   28.2497   53.5902 C   0  0  0  0  0  0  0  0  0  0  0  0
   -5.0543   28.1684   52.9611 N   0  0  0  0  0  0  0  0  0  0  0  0
   -2.5040   29.9738   55.0453 C   0  0  0  0  0  0  0  0  0  0  0  0
   -2.1976   31.3864   54.8309 N   0  0  0  0  0  0  0  0  0  0  0  0
  1  2  1  0  0  0  0
  1  7  1  0  0  0  0
  2  3  1  0  0  0  0
  2  4  2  0  0  0  0
  4  5  1  0  0  0  0
  5  6  2  0  0  0  0
  5 11  1  0  0  0  0
  6  7  1  0  0  0  0
  6  9  1  0  0  0  0
  7  8  2  0  0  0  0
  9 10  2  0  0  0  0
  9 12  1  0  0  0  0
 10 11  1  0  0  0  0
 12 13  1  0  0  0  0
M  END
>  <CHROM.1>
-41.15846293,-5.23828188,30.40891502,53.85052649,-3.10392250,0.35554143,-2.75468067

>  <Name>
ligand

>  <RI>
-1

>  <Rbt.Current_Directory>
/home/itssahil/PROJECTS/Mol_Feturizer/Test_systems_manuscript/rnas/4jf2

>  <Rbt.Executable>
rbdock ($Id: //depot/dev/client3/rdock/2013.1/src/exe/rbdock.cxx#4 $)

>  <Rbt.Library>
libRbt.so (2013.1, Build901 2013/11/27)

>  <Rbt.Parameter_File>
/export/apps/rDock/src/rDock_2013.1_src/data/scripts/dock_solv.prm

>  <Rbt.Receptor>
prm/pocket_docking_4.prm

>  <SCORE>
-12.6349

>  <SCORE.INTER>
-13.263

>  <SCORE.INTER.CONST>
1

>  <SCORE.INTER.POLAR>
0

>  <SCORE.INTER.ROT>
1

>  <SCORE.INTER.SOLV>
13.6433

>  <SCORE.INTER.VDW>
-17.6564

>  <SCORE.INTER.norm>
-1.02023

>  <SCORE.INTRA>
0.62814

>  <SCORE.INTRA.DIHEDRAL>
-0.173205

>  <SCORE.INTRA.DIHEDRAL.0>
1.75624

>  <SCORE.INTRA.POLAR>
0

>  <SCORE.INTRA.POLAR.0>
0

>  <SCORE.INTRA.REPUL>
0

>  <SCORE.INTRA.REPUL.0>
0

>  <SCORE.INTRA.SOLV>
0.930915

>  <SCORE.INTRA.SOLV.lig_0>
-46.5296

>  <SCORE.INTRA.VDW>
0.249286

>  <SCORE.INTRA.VDW.0>
-0.381873

>  <SCORE.INTRA.norm>
0.0483185

>  <SCORE.RESTR>
0

>  <SCORE.RESTR.CAVITY>
0

>  <SCORE.RESTR.norm>
0

>  <SCORE.SYSTEM>
0

>  <SCORE.SYSTEM.CONST>
0

>  <SCORE.SYSTEM.DIHEDRAL>
0

>  <SCORE.SYSTEM.SOLV>
0

>  <SCORE.SYSTEM.norm>
0

>  <SCORE.heavy>
13

>  <SCORE.norm>
-0.971912

>  <RMSD>
4.065

$$$$
ligand
 OpenBabel02271912143D
libRbt.so/2013.1/901 2013/11/27
 13 14  0  0  0  0  0  0  0  0999 V2000
   -6.9355   31.7162   53.9144 N   0  0  0  0  0  0  0  0  0  0  0  0
   -7.5812   30.5730   53.4160 C   0  0  0  0  0  0  0  0  0  0  0  0
   -8.9770   30.6475   53.0503 N   0  0  0  0  0  0  0  0  0  0  0  0
   -6.8871   29.3939   53.2670 N   0  0  0  0  0  0  0  0  0  0  0  0
   -5.5161   29.2845   53.6152 C   0  0  0  0  0  0  0  0  0  0  0  0
   -4.8311   30.4303   54.1491 C   0  0  0  0  0  0  0  0  0  0  0  0
   -5.5923   31.6493   54.2993 C   0  0  0  0  0  0  0  0  0  0  0  0
   -4.9286   32.7352   54.7984 O   0  0  0  0  0  0  0  0  0  0  0  0
   -3.4603   30.0596   54.4153 C   0  0  0  0  0  0  0  0  0  0  0  0
   -3.3795   28.7135   54.0551 C   0  0  0  0  0  0  0  0  0  0  0  0
   -4.5970   28.2664   53.5748 N   0  0  0  0  0  0  0  0  0  0  0  0
   -2.3670   30.9289   55.0050 C   0  0  0  0  0  0  0  0  0  0  0  0
   -1.4999   30.2135   55.9386 N   0  0  0  0  0  0  0  0  0  0  0  0
  1  2  1  0  0  0  0
  1  7  1  0  0  0  0
  2  3  1  0  0  0  0
  2  4  2  0  0  0  0
  4  5  1  0  0  0  0
  5  6  2  0  0  0  0
  5 11  1  0  0  0  0
  6  7  1  0  0  0  0
  6  9  1  0  0  0  0
  7  8  2  0  0  0  0
  9 10  2  0  0  0  0
  9 12  1  0  0  0  0
 10 11  1  0  0  0  0
 12 13  1  0  0  0  0
M  END
>  <CHROM.1>
140.90457359,-5.12103490,30.39883366,54.13188316,3.13280032,0.32229603,-2.84094586

>  <Name>
ligand

>  <RI>
-1

>  <Rbt.Current_Directory>
/home/itssahil/PROJECTS/Mol_Feturizer/Test_systems_manuscript/rnas/4jf2

>  <Rbt.Executable>
rbdock ($Id: //depot/dev/client3/rdock/2013.1/src/exe/rbdock.cxx#4 $)

>  <Rbt.Library>
libRbt.so (2013.1, Build901 2013/11/27)

>  <Rbt.Parameter_File>
/export/apps/rDock/src/rDock_2013.1_src/data/scripts/dock_solv.prm

>  <Rbt.Receptor>
prm/pocket_docking_6.prm

>  <SCORE>
-13.7677

>  <SCORE.INTER>
-13.4196

>  <SCORE.INTER.CONST>
1

>  <SCORE.INTER.POLAR>
0

>  <SCORE.INTER.ROT>
1

>  <SCORE.INTER.SOLV>
16.7092

>  <SCORE.INTER.VDW>
-18.7828

>  <SCORE.INTER.norm>
-1.03228

>  <SCORE.INTRA>
-0.348108

>  <SCORE.INTRA.DIHEDRAL>
0.0261116

>  <SCORE.INTRA.DIHEDRAL.0>
1.75624

>  <SCORE.INTRA.POLAR>
0

>  <SCORE.INTRA.POLAR.0>
0

>  <SCORE.INTRA.REPUL>
0

>  <SCORE.INTRA.REPUL.0>
0

>  <SCORE.INTRA.SOLV>
-1.01999

>  <SCORE.INTRA.SOLV.lig_0>
-46.5296

>  <SCORE.INTRA.VDW>
0.148831

>  <SCORE.INTRA.VDW.0>
-0.381873

>  <SCORE.INTRA.norm>
-0.0267775

>  <SCORE.RESTR>
0

>  <SCORE.RESTR.CAVITY>
0

>  <SCORE.RESTR.norm>
0

>  <SCORE.SYSTEM>
0

>  <SCORE.SYSTEM.CONST>
0

>  <SCORE.SYSTEM.DIHEDRAL>
0

>  <SCORE.SYSTEM.SOLV>
0

>  <SCORE.SYSTEM.norm>
0

>  <SCORE.heavy>
13

>  <SCORE.norm>
-1.05906

>  <RMSD>
4.208

$$$$
ligand
 OpenBabel02271912143D
libRbt.so/2013.1/901 2013/11/27
 13 14  0  0  0  0  0  0  0  0999 V2000
   -6.9414   31.7097   53.9151 N   0  0  0  0  0  0  0  0  0  0  0  0
   -7.5838   30.5655   53.4147 C   0  0  0  0  0  0  0  0  0  0  0  0
   -8.9803   30.6361   53.0508 N   0  0  0  0  0  0  0  0  0  0  0  0
   -6.8858   29.3892   53.2621 N   0  0  0  0  0  0  0  0  0  0  0  0
   -5.5141   29.2837   53.6085 C   0  0  0  0  0  0  0  0  0  0  0  0
   -4.8324   30.4305   54.1443 C   0  0  0  0  0  0  0  0  0  0  0  0
   -5.5976   31.6466   54.2984 C   0  0  0  0  0  0  0  0  0  0  0  0
   -4.9370   32.7335   54.7993 O   0  0  0  0  0  0  0  0  0  0  0  0
   -3.4600   30.0639   54.4081 C   0  0  0  0  0  0  0  0  0  0  0  0
   -3.3750   28.7189   54.0446 C   0  0  0  0  0  0  0  0  0  0  0  0
   -4.5916   28.2688   53.5646 N   0  0  0  0  0  0  0  0  0  0  0  0
   -2.3691   30.9355   54.9988 C   0  0  0  0  0  0  0  0  0  0  0  0
   -1.5035   30.2229   55.9359 N   0  0  0  0  0  0  0  0  0  0  0  0
  1  2  1  0  0  0  0
  1  7  1  0  0  0  0
  2  3  1  0  0  0  0
  2  4  2  0  0  0  0
  4  5  1  0  0  0  0
  5  6  2  0  0  0  0
  5 11  1  0  0  0  0
  6  7  1  0  0  0  0
  6  9  1  0  0  0  0
  7  8  2  0  0  0  0
  9 10  2  0  0  0  0
  9 12  1  0  0  0  0
 10 11  1  0  0  0  0
 12 13  1  0  0  0  0
M  END
>  <CHROM.1>
140.54995237,-5.12265337,30.39824509,54.12791867,3.12926662,0.32063921,-2.83735074

>  <Name>
ligand

>  <RI>
-1

>  <Rbt.Current_Directory>
/home/itssahil/PROJECTS/Mol_Feturizer/Test_systems_manuscript/rnas/4jf2

>  <Rbt.Executable>
rbdock ($Id: //depot/dev/client3/rdock/2013.1/src/exe/rbdock.cxx#4 $)

>  <Rbt.Library>
libRbt.so (2013.1, Build901 2013/11/27)

>  <Rbt.Parameter_File>
/export/apps/rDock/src/rDock_2013.1_src/data/scripts/dock_solv.prm

>  <Rbt.Receptor>
prm/pocket_docking_6.prm

>  <SCORE>
-13.7688

>  <SCORE.INTER>
-13.4195

>  <SCORE.INTER.CONST>
1

>  <SCORE.INTER.POLAR>
0

>  <SCORE.INTER.ROT>
1

>  <SCORE.INTER.SOLV>
16.7752

>  <SCORE.INTER.VDW>
-18.8047

>  <SCORE.INTER.norm>
-1.03227

>  <SCORE.INTRA>
-0.349336

>  <SCORE.INTRA.DIHEDRAL>
0.0252686

>  <SCORE.INTRA.DIHEDRAL.0>
1.75624

>  <SCORE.INTRA.POLAR>
0

>  <SCORE.INTRA.POLAR.0>
0

>  <SCORE.INTRA.REPUL>
0

>  <SCORE.INTRA.REPUL.0>
0

>  <SCORE.INTRA.SOLV>
-1.02008

>  <SCORE.INTRA.SOLV.lig_0>
-46.5296

>  <SCORE.INTRA.VDW>
0.148071

>  <SCORE.INTRA.VDW.0>
-0.381873

>  <SCORE.INTRA.norm>
-0.026872

>  <SCORE.RESTR>
0

>  <SCORE.RESTR.CAVITY>
0

>  <SCORE.RESTR.norm>
0

>  <SCORE.SYSTEM>
0

>  <SCORE.SYSTEM.CONST>
0

>  <SCORE.SYSTEM.DIHEDRAL>
0

>  <SCORE.SYSTEM.SOLV>
0

>  <SCORE.SYSTEM.norm>
0

>  <SCORE.heavy>
13

>  <SCORE.norm>
-1.05914

>  <RMSD>
4.208

$$$$
ligand
 OpenBabel02271912143D
libRbt.so/2013.1/901 2013/11/27
 13 14  0  0  0  0  0  0  0  0999 V2000
   -6.9463   31.7024   53.9175 N   0  0  0  0  0  0  0  0  0  0  0  0
   -7.5820   30.5582   53.4088 C   0  0  0  0  0  0  0  0  0  0  0  0
   -8.9774   30.6248   53.0402 N   0  0  0  0  0  0  0  0  0  0  0  0
   -6.8785   29.3856   53.2525 N   0  0  0  0  0  0  0  0  0  0  0  0
   -5.5076   29.2840   53.6033 C   0  0  0  0  0  0  0  0  0  0  0  0
   -4.8327   30.4308   54.1476 C   0  0  0  0  0  0  0  0  0  0  0  0
   -5.6036   31.6428   54.3053 C   0  0  0  0  0  0  0  0  0  0  0  0
   -4.9494   32.7299   54.8143 O   0  0  0  0  0  0  0  0  0  0  0  0
   -3.4597   30.0686   54.4144 C   0  0  0  0  0  0  0  0  0  0  0  0
   -3.3678   28.7259   54.0441 C   0  0  0  0  0  0  0  0  0  0  0  0
   -4.5807   28.2732   53.5574 N   0  0  0  0  0  0  0  0  0  0  0  0
   -2.3746   30.9416   55.0135 C   0  0  0  0  0  0  0  0  0  0  0  0
   -1.4986   30.2234   55.9366 N   0  0  0  0  0  0  0  0  0  0  0  0
  1  2  1  0  0  0  0
  1  7  1  0  0  0  0
  2  3  1  0  0  0  0
  2  4  2  0  0  0  0
  4  5  1  0  0  0  0
  5  6  2  0  0  0  0
  5 11  1  0  0  0  0
  6  7  1  0  0  0  0
  6  9  1  0  0  0  0
  7  8  2  0  0  0  0
  9 10  2  0  0  0  0
  9 12  1  0  0  0  0
 10 11  1  0  0  0  0
 12 13  1  0  0  0  0
M  END
>  <CHROM.1>
141.30851681,-5.12186747,30.39710236,54.12888694,3.12486456,0.32186581,-2.83088396

>  <Name>
ligand

>  <RI>
-1

>  <Rbt.Current_Directory>
/home/itssahil/PROJECTS/Mol_Feturizer/Test_systems_manuscript/rnas/4jf2

>  <Rbt.Executable>
rbdock ($Id: //depot/dev/client3/rdock/2013.1/src/exe/rbdock.cxx#4 $)

>  <Rbt.Library>
libRbt.so (2013.1, Build901 2013/11/27)

>  <Rbt.Parameter_File>
/export/apps/rDock/src/rDock_2013.1_src/data/scripts/dock_solv.prm

>  <Rbt.Receptor>
prm/blind_docking_80.prm

>  <SCORE>
-13.7641

>  <SCORE.INTER>
-13.4174

>  <SCORE.INTER.CONST>
1

>  <SCORE.INTER.POLAR>
0

>  <SCORE.INTER.ROT>
1

>  <SCORE.INTER.SOLV>
16.8223

>  <SCORE.INTER.VDW>
-18.819

>  <SCORE.INTER.norm>
-1.03211

>  <SCORE.INTRA>
-0.346731

>  <SCORE.INTRA.DIHEDRAL>
0.027029

>  <SCORE.INTRA.DIHEDRAL.0>
1.75624

>  <SCORE.INTRA.POLAR>
0

>  <SCORE.INTRA.POLAR.0>
0

>  <SCORE.INTRA.REPUL>
0

>  <SCORE.INTRA.REPUL.0>
0

>  <SCORE.INTRA.SOLV>
-1.01989

>  <SCORE.INTRA.SOLV.lig_0>
-46.5296

>  <SCORE.INTRA.VDW>
0.149698

>  <SCORE.INTRA.VDW.0>
-0.381873

>  <SCORE.INTRA.norm>
-0.0266716

>  <SCORE.RESTR>
0

>  <SCORE.RESTR.CAVITY>
0

>  <SCORE.RESTR.norm>
0

>  <SCORE.SYSTEM>
0

>  <SCORE.SYSTEM.CONST>
0

>  <SCORE.SYSTEM.DIHEDRAL>
0

>  <SCORE.SYSTEM.SOLV>
0

>  <SCORE.SYSTEM.norm>
0

>  <SCORE.heavy>
13

>  <SCORE.norm>
-1.05878

>  <RMSD>
4.209

$$$$
ligand
 OpenBabel02271912143D
libRbt.so/2013.1/901 2013/11/27
 13 14  0  0  0  0  0  0  0  0999 V2000
   -6.9419   31.7116   53.9008 N   0  0  0  0  0  0  0  0  0  0  0  0
   -7.5815   30.5645   53.4035 C   0  0  0  0  0  0  0  0  0  0  0  0
   -8.9771   30.6319   53.0355 N   0  0  0  0  0  0  0  0  0  0  0  0
   -6.8816   29.3885   53.2575 N   0  0  0  0  0  0  0  0  0  0  0  0
   -5.5107   29.2861   53.6081 C   0  0  0  0  0  0  0  0  0  0  0  0
   -4.8319   30.4360   54.1410 C   0  0  0  0  0  0  0  0  0  0  0  0
   -5.5990   31.6517   54.2880 C   0  0  0  0  0  0  0  0  0  0  0  0
   -4.9412   32.7415   54.7862 O   0  0  0  0  0  0  0  0  0  0  0  0
   -3.4598   30.0722   54.4099 C   0  0  0  0  0  0  0  0  0  0  0  0
   -3.3721   28.7259   54.0522 C   0  0  0  0  0  0  0  0  0  0  0  0
   -4.5868   28.2722   53.5708 N   0  0  0  0  0  0  0  0  0  0  0  0
   -2.3715   30.9476   54.9999 C   0  0  0  0  0  0  0  0  0  0  0  0
   -1.5001   30.2369   55.9330 N   0  0  0  0  0  0  0  0  0  0  0  0
  1  2  1  0  0  0  0
  1  7  1  0  0  0  0
  2  3  1  0  0  0  0
  2  4  2  0  0  0  0
  4  5  1  0  0  0  0
  5  6  2  0  0  0  0
  5 11  1  0  0  0  0
  6  7  1  0  0  0  0
  6  9  1  0  0  0  0
  7  8  2  0  0  0  0
  9 10  2  0  0  0  0
  9 12  1  0  0  0  0
 10 11  1  0  0  0  0
 12 13  1  0  0  0  0
M  END
>  <CHROM.1>
141.07173982,-5.12144943,30.40305564,54.12316960,3.12782802,0.32218155,-2.84114418

>  <Name>
ligand

>  <RI>
-1

>  <Rbt.Current_Directory>
/home/itssahil/PROJECTS/Mol_Feturizer/Test_systems_manuscript/rnas/4jf2

>  <Rbt.Executable>
rbdock ($Id: //depot/dev/client3/rdock/2013.1/src/exe/rbdock.cxx#4 $)

>  <Rbt.Library>
libRbt.so (2013.1, Build901 2013/11/27)

>  <Rbt.Parameter_File>
/export/apps/rDock/src/rDock_2013.1_src/data/scripts/dock_solv.prm

>  <Rbt.Receptor>
prm/pocket_docking_4.prm

>  <SCORE>
-13.7723

>  <SCORE.INTER>
-13.4248

>  <SCORE.INTER.CONST>
1

>  <SCORE.INTER.POLAR>
0

>  <SCORE.INTER.ROT>
1

>  <SCORE.INTER.SOLV>
16.7717

>  <SCORE.INTER.VDW>
-18.8071

>  <SCORE.INTER.norm>
-1.03267

>  <SCORE.INTRA>
-0.347535

>  <SCORE.INTRA.DIHEDRAL>
0.0264968

>  <SCORE.INTRA.DIHEDRAL.0>
1.75624

>  <SCORE.INTRA.POLAR>
0

>  <SCORE.INTRA.POLAR.0>
0

>  <SCORE.INTRA.REPUL>
0

>  <SCORE.INTRA.REPUL.0>
0

>  <SCORE.INTRA.SOLV>
-1.01995

>  <SCORE.INTRA.SOLV.lig_0>
-46.5296

>  <SCORE.INTRA.VDW>
0.14919

>  <SCORE.INTRA.VDW.0>
-0.381873

>  <SCORE.INTRA.norm>
-0.0267335

>  <SCORE.RESTR>
0

>  <SCORE.RESTR.CAVITY>
0

>  <SCORE.RESTR.norm>
0

>  <SCORE.SYSTEM>
0

>  <SCORE.SYSTEM.CONST>
0

>  <SCORE.SYSTEM.DIHEDRAL>
0

>  <SCORE.SYSTEM.SOLV>
0

>  <SCORE.SYSTEM.norm>
0

>  <SCORE.heavy>
13

>  <SCORE.norm>
-1.05941

>  <RMSD>
4.209

$$$$
ligand
 OpenBabel02271912143D
libRbt.so/2013.1/901 2013/11/27
 13 14  0  0  0  0  0  0  0  0999 V2000
   -6.9485   31.7113   53.9060 N   0  0  0  0  0  0  0  0  0  0  0  0
   -7.5881   30.5639   53.4096 C   0  0  0  0  0  0  0  0  0  0  0  0
   -8.9842   30.6302   53.0437 N   0  0  0  0  0  0  0  0  0  0  0  0
   -6.8876   29.3883   53.2624 N   0  0  0  0  0  0  0  0  0  0  0  0
   -5.5160   29.2869   53.6109 C   0  0  0  0  0  0  0  0  0  0  0  0
   -4.8373   30.4372   54.1428 C   0  0  0  0  0  0  0  0  0  0  0  0
   -5.6050   31.6523   54.2911 C   0  0  0  0  0  0  0  0  0  0  0  0
   -4.9471   32.7426   54.7884 O   0  0  0  0  0  0  0  0  0  0  0  0
   -3.4644   30.0743   54.4097 C   0  0  0  0  0  0  0  0  0  0  0  0
   -3.3764   28.7281   54.0517 C   0  0  0  0  0  0  0  0  0  0  0  0
   -4.5915   28.2736   53.5722 N   0  0  0  0  0  0  0  0  0  0  0  0
   -2.3759   30.9504   54.9980 C   0  0  0  0  0  0  0  0  0  0  0  0
   -1.5045   30.2410   55.9321 N   0  0  0  0  0  0  0  0  0  0  0  0
  1  2  1  0  0  0  0
  1  7  1  0  0  0  0
  2  3  1  0  0  0  0
  2  4  2  0  0  0  0
  4  5  1  0  0  0  0
  5  6  2  0  0  0  0
  5 11  1  0  0  0  0
  6  7  1  0  0  0  0
  6  9  1  0  0  0  0
  7  8  2  0  0  0  0
  9 10  2  0  0  0  0
  9 12  1  0  0  0  0
 10 11  1  0  0  0  0
 12 13  1  0  0  0  0
M  END
>  <CHROM.1>
140.94016466,-5.12695182,30.40410989,54.12567020,3.12742670,0.32067589,-2.84090645

>  <Name>
ligand

>  <RI>
-1

>  <Rbt.Current_Directory>
/home/itssahil/PROJECTS/Mol_Feturizer/Test_systems_manuscript/rnas/4jf2

>  <Rbt.Executable>
rbdock ($Id: //depot/dev/client3/rdock/2013.1/src/exe/rbdock.cxx#4 $)

>  <Rbt.Library>
libRbt.so (2013.1, Build901 2013/11/27)

>  <Rbt.Parameter_File>
/export/apps/rDock/src/rDock_2013.1_src/data/scripts/dock_solv.prm

>  <Rbt.Receptor>
prm/pocket_docking_7.prm

>  <SCORE>
-13.7739

>  <SCORE.INTER>
-13.4259

>  <SCORE.INTER.CONST>
1

>  <SCORE.INTER.POLAR>
0

>  <SCORE.INTER.ROT>
1

>  <SCORE.INTER.SOLV>
16.8055

>  <SCORE.INTER.VDW>
-18.8191

>  <SCORE.INTER.norm>
-1.03276

>  <SCORE.INTRA>
-0.347986

>  <SCORE.INTRA.DIHEDRAL>
0.0261943

>  <SCORE.INTRA.DIHEDRAL.0>
1.75624

>  <SCORE.INTRA.POLAR>
0

>  <SCORE.INTRA.POLAR.0>
0

>  <SCORE.INTRA.REPUL>
0

>  <SCORE.INTRA.REPUL.0>
0

>  <SCORE.INTRA.SOLV>
-1.01998

>  <SCORE.INTRA.SOLV.lig_0>
-46.5296

>  <SCORE.INTRA.VDW>
0.148908

>  <SCORE.INTRA.VDW.0>
-0.381873

>  <SCORE.INTRA.norm>
-0.0267681

>  <SCORE.RESTR>
0

>  <SCORE.RESTR.CAVITY>
0

>  <SCORE.RESTR.norm>
0

>  <SCORE.SYSTEM>
0

>  <SCORE.SYSTEM.CONST>
0

>  <SCORE.SYSTEM.DIHEDRAL>
0

>  <SCORE.SYSTEM.SOLV>
0

>  <SCORE.SYSTEM.norm>
0

>  <SCORE.heavy>
13

>  <SCORE.norm>
-1.05953

>  <RMSD>
4.209

$$$$
ligand
 OpenBabel02271912143D
libRbt.so/2013.1/901 2013/11/27
 13 14  0  0  0  0  0  0  0  0999 V2000
   -6.9445   31.7115   53.9026 N   0  0  0  0  0  0  0  0  0  0  0  0
   -7.5833   30.5641   53.4051 C   0  0  0  0  0  0  0  0  0  0  0  0
   -8.9788   30.6305   53.0371 N   0  0  0  0  0  0  0  0  0  0  0  0
   -6.8825   29.3885   53.2589 N   0  0  0  0  0  0  0  0  0  0  0  0
   -5.5115   29.2871   53.6095 C   0  0  0  0  0  0  0  0  0  0  0  0
   -4.8336   30.4373   54.1426 C   0  0  0  0  0  0  0  0  0  0  0  0
   -5.6016   31.6525   54.2898 C   0  0  0  0  0  0  0  0  0  0  0  0
   -4.9445   32.7427   54.7882 O   0  0  0  0  0  0  0  0  0  0  0  0
   -3.4612   30.0745   54.4115 C   0  0  0  0  0  0  0  0  0  0  0  0
   -3.3725   28.7283   54.0535 C   0  0  0  0  0  0  0  0  0  0  0  0
   -4.5869   28.2739   53.5720 N   0  0  0  0  0  0  0  0  0  0  0  0
   -2.3735   30.9506   55.0016 C   0  0  0  0  0  0  0  0  0  0  0  0
   -1.5012   30.2401   55.9341 N   0  0  0  0  0  0  0  0  0  0  0  0
  1  2  1  0  0  0  0
  1  7  1  0  0  0  0
  2  3  1  0  0  0  0
  2  4  2  0  0  0  0
  4  5  1  0  0  0  0
  5  6  2  0  0  0  0
  5 11  1  0  0  0  0
  6  7  1  0  0  0  0
  6  9  1  0  0  0  0
  7  8  2  0  0  0  0
  9 10  2  0  0  0  0
  9 12  1  0  0  0  0
 10 11  1  0  0  0  0
 12 13  1  0  0  0  0
M  END
>  <CHROM.1>
141.10089312,-5.12304378,30.40420547,54.12471075,3.12713463,0.32194254,-2.84074441

>  <Name>
ligand

>  <RI>
-1

>  <Rbt.Current_Directory>
/home/itssahil/PROJECTS/Mol_Feturizer/Test_systems_manuscript/rnas/4jf2

>  <Rbt.Executable>
rbdock ($Id: //depot/dev/client3/rdock/2013.1/src/exe/rbdock.cxx#4 $)

>  <Rbt.Library>
libRbt.so (2013.1, Build901 2013/11/27)

>  <Rbt.Parameter_File>
/export/apps/rDock/src/rDock_2013.1_src/data/scripts/dock_solv.prm

>  <Rbt.Receptor>
prm/pocket_docking_7.prm

>  <SCORE>
-13.7741

>  <SCORE.INTER>
-13.4266

>  <SCORE.INTER.CONST>
1

>  <SCORE.INTER.POLAR>
0

>  <SCORE.INTER.ROT>
1

>  <SCORE.INTER.SOLV>
16.7855

>  <SCORE.INTER.VDW>
-18.8129

>  <SCORE.INTER.norm>
-1.03282

>  <SCORE.INTRA>
-0.347436

>  <SCORE.INTRA.DIHEDRAL>
0.0265632

>  <SCORE.INTRA.DIHEDRAL.0>
1.75624

>  <SCORE.INTRA.POLAR>
0

>  <SCORE.INTRA.POLAR.0>
0

>  <SCORE.INTRA.REPUL>
0

>  <SCORE.INTRA.REPUL.0>
0

>  <SCORE.INTRA.SOLV>
-1.01994

>  <SCORE.INTRA.SOLV.lig_0>
-46.5296

>  <SCORE.INTRA.VDW>
0.149252

>  <SCORE.INTRA.VDW.0>
-0.381873

>  <SCORE.INTRA.norm>
-0.0267258

>  <SCORE.RESTR>
0

>  <SCORE.RESTR.CAVITY>
0

>  <SCORE.RESTR.norm>
0

>  <SCORE.SYSTEM>
0

>  <SCORE.SYSTEM.CONST>
0

>  <SCORE.SYSTEM.DIHEDRAL>
0

>  <SCORE.SYSTEM.SOLV>
0

>  <SCORE.SYSTEM.norm>
0

>  <SCORE.heavy>
13

>  <SCORE.norm>
-1.05954

>  <RMSD>
4.209

$$$$
ligand
 OpenBabel02271912143D
libRbt.so/2013.1/901 2013/11/27
 13 14  0  0  0  0  0  0  0  0999 V2000
   -6.9457   31.7096   53.9003 N   0  0  0  0  0  0  0  0  0  0  0  0
   -7.5836   30.5609   53.4044 C   0  0  0  0  0  0  0  0  0  0  0  0
   -8.9792   30.6258   53.0361 N   0  0  0  0  0  0  0  0  0  0  0  0
   -6.8821   29.3856   53.2602 N   0  0  0  0  0  0  0  0  0  0  0  0
   -5.5110   29.2857   53.6112 C   0  0  0  0  0  0  0  0  0  0  0  0
   -4.8340   30.4372   54.1426 C   0  0  0  0  0  0  0  0  0  0  0  0
   -5.6028   31.6520   54.2878 C   0  0  0  0  0  0  0  0  0  0  0  0
   -4.9465   32.7435   54.7847 O   0  0  0  0  0  0  0  0  0  0  0  0
   -3.4614   30.0757   54.4123 C   0  0  0  0  0  0  0  0  0  0  0  0
   -3.3718   28.7290   54.0564 C   0  0  0  0  0  0  0  0  0  0  0  0
   -4.5857   28.2730   53.5754 N   0  0  0  0  0  0  0  0  0  0  0  0
   -2.3744   30.9534   55.0013 C   0  0  0  0  0  0  0  0  0  0  0  0
   -1.4989   30.2438   55.9314 N   0  0  0  0  0  0  0  0  0  0  0  0
  1  2  1  0  0  0  0
  1  7  1  0  0  0  0
  2  3  1  0  0  0  0
  2  4  2  0  0  0  0
  4  5  1  0  0  0  0
  5  6  2  0  0  0  0
  5 11  1  0  0  0  0
  6  7  1  0  0  0  0
  6  9  1  0  0  0  0
  7  8  2  0  0  0  0
  9 10  2  0  0  0  0
  9 12  1  0  0  0  0
 10 11  1  0  0  0  0
 12 13  1  0  0  0  0
M  END
>  <CHROM.1>
141.30639873,-5.12317620,30.40372867,54.12444983,3.12666473,0.32167730,-2.84219543

>  <Name>
ligand

>  <RI>
-1

>  <Rbt.Current_Directory>
/home/itssahil/PROJECTS/Mol_Feturizer/Test_systems_manuscript/rnas/4jf2

>  <Rbt.Executable>
rbdock ($Id: //depot/dev/client3/rdock/2013.1/src/exe/rbdock.cxx#4 $)

>  <Rbt.Library>
libRbt.so (2013.1, Build901 2013/11/27)

>  <Rbt.Parameter_File>
/export/apps/rDock/src/rDock_2013.1_src/data/scripts/dock_solv.prm

>  <Rbt.Receptor>
prm/pocket_docking_2.prm

>  <SCORE>
-13.7725

>  <SCORE.INTER>
-13.4257

>  <SCORE.INTER.CONST>
1

>  <SCORE.INTER.POLAR>
0

>  <SCORE.INTER.ROT>
1

>  <SCORE.INTER.SOLV>
16.8081

>  <SCORE.INTER.VDW>
-18.8199

>  <SCORE.INTER.norm>
-1.03275

>  <SCORE.INTRA>
-0.346738

>  <SCORE.INTRA.DIHEDRAL>
0.0270243

>  <SCORE.INTRA.DIHEDRAL.0>
1.75624

>  <SCORE.INTRA.POLAR>
0

>  <SCORE.INTRA.POLAR.0>
0

>  <SCORE.INTRA.REPUL>
0

>  <SCORE.INTRA.REPUL.0>
0

>  <SCORE.INTRA.SOLV>
-1.01989

>  <SCORE.INTRA.SOLV.lig_0>
-46.5296

>  <SCORE.INTRA.VDW>
0.149693

>  <SCORE.INTRA.VDW.0>
-0.381873

>  <SCORE.INTRA.norm>
-0.0266722

>  <SCORE.RESTR>
0

>  <SCORE.RESTR.CAVITY>
0

>  <SCORE.RESTR.norm>
0

>  <SCORE.SYSTEM>
0

>  <SCORE.SYSTEM.CONST>
0

>  <SCORE.SYSTEM.DIHEDRAL>
0

>  <SCORE.SYSTEM.SOLV>
0

>  <SCORE.SYSTEM.norm>
0

>  <SCORE.heavy>
13

>  <SCORE.norm>
-1.05942

>  <RMSD>
4.210

$$$$
ligand
 OpenBabel02271912143D
libRbt.so/2013.1/901 2013/11/27
 13 14  0  0  0  0  0  0  0  0999 V2000
   -6.9486   31.7086   53.9027 N   0  0  0  0  0  0  0  0  0  0  0  0
   -7.5856   30.5607   53.4039 C   0  0  0  0  0  0  0  0  0  0  0  0
   -8.9811   30.6256   53.0352 N   0  0  0  0  0  0  0  0  0  0  0  0
   -6.8833   29.3862   53.2572 N   0  0  0  0  0  0  0  0  0  0  0  0
   -5.5123   29.2862   53.6085 C   0  0  0  0  0  0  0  0  0  0  0  0
   -4.8362   30.4369   54.1428 C   0  0  0  0  0  0  0  0  0  0  0  0
   -5.6058   31.6510   54.2905 C   0  0  0  0  0  0  0  0  0  0  0  0
   -4.9504   32.7417   54.7901 O   0  0  0  0  0  0  0  0  0  0  0  0
   -3.4634   30.0757   54.4122 C   0  0  0  0  0  0  0  0  0  0  0  0
   -3.3729   28.7299   54.0533 C   0  0  0  0  0  0  0  0  0  0  0  0
   -4.5864   28.2742   53.5708 N   0  0  0  0  0  0  0  0  0  0  0  0
   -2.3773   30.9527   55.0036 C   0  0  0  0  0  0  0  0  0  0  0  0
   -1.5028   30.2420   55.9338 N   0  0  0  0  0  0  0  0  0  0  0  0
  1  2  1  0  0  0  0
  1  7  1  0  0  0  0
  2  3  1  0  0  0  0
  2  4  2  0  0  0  0
  4  5  1  0  0  0  0
  5  6  2  0  0  0  0
  5 11  1  0  0  0  0
  6  7  1  0  0  0  0
  6  9  1  0  0  0  0
  7  8  2  0  0  0  0
  9 10  2  0  0  0  0
  9 12  1  0  0  0  0
 10 11  1  0  0  0  0
 12 13  1  0  0  0  0
M  END
>  <CHROM.1>
141.22788924,-5.12544987,30.40341022,54.12459720,3.12583157,0.32193642,-2.83961851

>  <Name>
ligand

>  <RI>
-1

>  <Rbt.Current_Directory>
/home/itssahil/PROJECTS/Mol_Feturizer/Test_systems_manuscript/rnas/4jf2

>  <Rbt.Executable>
rbdock ($Id: //depot/dev/client3/rdock/2013.1/src/exe/rbdock.cxx#4 $)

>  <Rbt.Library>
libRbt.so (2013.1, Build901 2013/11/27)

>  <Rbt.Parameter_File>
/export/apps/rDock/src/rDock_2013.1_src/data/scripts/dock_solv.prm

>  <Rbt.Receptor>
prm/pocket_docking_4.prm

>  <SCORE>
-13.774

>  <SCORE.INTER>
-13.427

>  <SCORE.INTER.CONST>
1

>  <SCORE.INTER.POLAR>
0

>  <SCORE.INTER.ROT>
1

>  <SCORE.INTER.SOLV>
16.8128

>  <SCORE.INTER.VDW>
-18.8222

>  <SCORE.INTER.norm>
-1.03284

>  <SCORE.INTRA>
-0.347004

>  <SCORE.INTRA.DIHEDRAL>
0.0268495

>  <SCORE.INTRA.DIHEDRAL.0>
1.75624

>  <SCORE.INTRA.POLAR>
0

>  <SCORE.INTRA.POLAR.0>
0

>  <SCORE.INTRA.REPUL>
0

>  <SCORE.INTRA.REPUL.0>
0

>  <SCORE.INTRA.SOLV>
-1.01991

>  <SCORE.INTRA.SOLV.lig_0>
-46.5296

>  <SCORE.INTRA.VDW>
0.149525

>  <SCORE.INTRA.VDW.0>
-0.381873

>  <SCORE.INTRA.norm>
-0.0266926

>  <SCORE.RESTR>
0

>  <SCORE.RESTR.CAVITY>
0

>  <SCORE.RESTR.norm>
0

>  <SCORE.SYSTEM>
0

>  <SCORE.SYSTEM.CONST>
0

>  <SCORE.SYSTEM.DIHEDRAL>
0

>  <SCORE.SYSTEM.SOLV>
0

>  <SCORE.SYSTEM.norm>
0

>  <SCORE.heavy>
13

>  <SCORE.norm>
-1.05954

>  <RMSD>
4.210

$$$$
ligand
 OpenBabel02271912143D
libRbt.so/2013.1/901 2013/11/27
 13 14  0  0  0  0  0  0  0  0999 V2000
   -6.9448   31.7068   53.8959 N   0  0  0  0  0  0  0  0  0  0  0  0
   -7.5788   30.5576   53.3964 C   0  0  0  0  0  0  0  0  0  0  0  0
   -8.9736   30.6199   53.0247 N   0  0  0  0  0  0  0  0  0  0  0  0
   -6.8742   29.3842   53.2518 N   0  0  0  0  0  0  0  0  0  0  0  0
   -5.5038   29.2868   53.6059 C   0  0  0  0  0  0  0  0  0  0  0  0
   -4.8307   30.4390   54.1411 C   0  0  0  0  0  0  0  0  0  0  0  0
   -5.6028   31.6518   54.2866 C   0  0  0  0  0  0  0  0  0  0  0  0
   -4.9503   32.7438   54.7871 O   0  0  0  0  0  0  0  0  0  0  0  0
   -3.4579   30.0802   54.4136 C   0  0  0  0  0  0  0  0  0  0  0  0
   -3.3643   28.7344   54.0555 C   0  0  0  0  0  0  0  0  0  0  0  0
   -4.5760   28.2764   53.5707 N   0  0  0  0  0  0  0  0  0  0  0  0
   -2.3745   30.9594   55.0068 C   0  0  0  0  0  0  0  0  0  0  0  0
   -1.4972   30.2492   55.9348 N   0  0  0  0  0  0  0  0  0  0  0  0
  1  2  1  0  0  0  0
  1  7  1  0  0  0  0
  2  3  1  0  0  0  0
  2  4  2  0  0  0  0
  4  5  1  0  0  0  0
  5  6  2  0  0  0  0
  5 11  1  0  0  0  0
  6  7  1  0  0  0  0
  6  9  1  0  0  0  0
  7  8  2  0  0  0  0
  9 10  2  0  0  0  0
  9 12  1  0  0  0  0
 10 11  1  0  0  0  0
 12 13  1  0  0  0  0
M  END
>  <CHROM.1>
141.47407960,-5.11961941,30.40480848,54.12196548,3.12374791,0.32312541,-2.83950418

>  <Name>
ligand

>  <RI>
-1

>  <Rbt.Current_Directory>
/home/itssahil/PROJECTS/Mol_Feturizer/Test_systems_manuscript/rnas/4jf2

>  <Rbt.Executable>
rbdock ($Id: //depot/dev/client3/rdock/2013.1/src/exe/rbdock.cxx#4 $)

>  <Rbt.Library>
libRbt.so (2013.1, Build901 2013/11/27)

>  <Rbt.Parameter_File>
/export/apps/rDock/src/rDock_2013.1_src/data/scripts/dock_solv.prm

>  <Rbt.Receptor>
prm/pocket_docking_5.prm

>  <SCORE>
-13.7734

>  <SCORE.INTER>
-13.4272

>  <SCORE.INTER.CONST>
1

>  <SCORE.INTER.POLAR>
0

>  <SCORE.INTER.ROT>
1

>  <SCORE.INTER.SOLV>
16.8143

>  <SCORE.INTER.VDW>
-18.8229

>  <SCORE.INTER.norm>
-1.03286

>  <SCORE.INTRA>
-0.346174

>  <SCORE.INTRA.DIHEDRAL>
0.0273916

>  <SCORE.INTRA.DIHEDRAL.0>
1.75624

>  <SCORE.INTRA.POLAR>
0

>  <SCORE.INTRA.POLAR.0>
0

>  <SCORE.INTRA.REPUL>
0

>  <SCORE.INTRA.REPUL.0>
0

>  <SCORE.INTRA.SOLV>
-1.01985

>  <SCORE.INTRA.SOLV.lig_0>
-46.5296

>  <SCORE.INTRA.VDW>
0.150053

>  <SCORE.INTRA.VDW.0>
-0.381873

>  <SCORE.INTRA.norm>
-0.0266288

>  <SCORE.RESTR>
0

>  <SCORE.RESTR.CAVITY>
0

>  <SCORE.RESTR.norm>
0

>  <SCORE.SYSTEM>
0

>  <SCORE.SYSTEM.CONST>
0

>  <SCORE.SYSTEM.DIHEDRAL>
0

>  <SCORE.SYSTEM.SOLV>
0

>  <SCORE.SYSTEM.norm>
0

>  <SCORE.heavy>
13

>  <SCORE.norm>
-1.05949

>  <RMSD>
4.210

$$$$
ligand
 OpenBabel02271912143D
libRbt.so/2013.1/901 2013/11/27
 13 14  0  0  0  0  0  0  0  0999 V2000
   -6.9457   31.7109   53.8980 N   0  0  0  0  0  0  0  0  0  0  0  0
   -7.5839   30.5631   53.4006 C   0  0  0  0  0  0  0  0  0  0  0  0
   -8.9786   30.6297   53.0293 N   0  0  0  0  0  0  0  0  0  0  0  0
   -6.8834   29.3870   53.2578 N   0  0  0  0  0  0  0  0  0  0  0  0
   -5.5133   29.2853   53.6117 C   0  0  0  0  0  0  0  0  0  0  0  0
   -4.8360   30.4360   54.1447 C   0  0  0  0  0  0  0  0  0  0  0  0
   -5.6037   31.6518   54.2883 C   0  0  0  0  0  0  0  0  0  0  0  0
   -4.9472   32.7424   54.7867 O   0  0  0  0  0  0  0  0  0  0  0  0
   -3.4644   30.0728   54.4173 C   0  0  0  0  0  0  0  0  0  0  0  0
   -3.3757   28.7260   54.0615 C   0  0  0  0  0  0  0  0  0  0  0  0
   -4.5891   28.2716   53.5779 N   0  0  0  0  0  0  0  0  0  0  0  0
   -2.3777   30.9492   55.0087 C   0  0  0  0  0  0  0  0  0  0  0  0
   -1.4988   30.2360   55.9329 N   0  0  0  0  0  0  0  0  0  0  0  0
  1  2  1  0  0  0  0
  1  7  1  0  0  0  0
  2  3  1  0  0  0  0
  2  4  2  0  0  0  0
  4  5  1  0  0  0  0
  5  6  2  0  0  0  0
  5 11  1  0  0  0  0
  6  7  1  0  0  0  0
  6  9  1  0  0  0  0
  7  8  2  0  0  0  0
  9 10  2  0  0  0  0
  9 12  1  0  0  0  0
 10 11  1  0  0  0  0
 12 13  1  0  0  0  0
M  END
>  <CHROM.1>
141.74048116,-5.12470844,30.40268567,54.12528028,3.12774110,0.32354494,-2.84255837

>  <Name>
ligand

>  <RI>
-1

>  <Rbt.Current_Directory>
/home/itssahil/PROJECTS/Mol_Feturizer/Test_systems_manuscript/rnas/4jf2

>  <Rbt.Executable>
rbdock ($Id: //depot/dev/client3/rdock/2013.1/src/exe/rbdock.cxx#4 $)

>  <Rbt.Library>
libRbt.so (2013.1, Build901 2013/11/27)

>  <Rbt.Parameter_File>
/export/apps/rDock/src/rDock_2013.1_src/data/scripts/dock_solv.prm

>  <Rbt.Receptor>
prm/pocket_docking_7.prm

>  <SCORE>
-13.7732

>  <SCORE.INTER>
-13.4279

>  <SCORE.INTER.CONST>
1

>  <SCORE.INTER.POLAR>
0

>  <SCORE.INTER.ROT>
1

>  <SCORE.INTER.SOLV>
16.778

>  <SCORE.INTER.VDW>
-18.8113

>  <SCORE.INTER.norm>
-1.03292

>  <SCORE.INTRA>
-0.345285

>  <SCORE.INTRA.DIHEDRAL>
0.0279588

>  <SCORE.INTRA.DIHEDRAL.0>
1.75624

>  <SCORE.INTRA.POLAR>
0

>  <SCORE.INTRA.POLAR.0>
0

>  <SCORE.INTRA.REPUL>
0

>  <SCORE.INTRA.REPUL.0>
0

>  <SCORE.INTRA.SOLV>
-1.01978

>  <SCORE.INTRA.SOLV.lig_0>
-46.5296

>  <SCORE.INTRA.VDW>
0.150625

>  <SCORE.INTRA.VDW.0>
-0.381873

>  <SCORE.INTRA.norm>
-0.0265604

>  <SCORE.RESTR>
0

>  <SCORE.RESTR.CAVITY>
0

>  <SCORE.RESTR.norm>
0

>  <SCORE.SYSTEM>
0

>  <SCORE.SYSTEM.CONST>
0

>  <SCORE.SYSTEM.DIHEDRAL>
0

>  <SCORE.SYSTEM.SOLV>
0

>  <SCORE.SYSTEM.norm>
0

>  <SCORE.heavy>
13

>  <SCORE.norm>
-1.05948

>  <RMSD>
4.210

$$$$
ligand
 OpenBabel02271912143D
libRbt.so/2013.1/901 2013/11/27
 13 14  0  0  0  0  0  0  0  0999 V2000
   -6.9427   31.7113   53.8952 N   0  0  0  0  0  0  0  0  0  0  0  0
   -7.5816   30.5624   53.4009 C   0  0  0  0  0  0  0  0  0  0  0  0
   -8.9770   30.6280   53.0321 N   0  0  0  0  0  0  0  0  0  0  0  0
   -6.8810   29.3863   53.2588 N   0  0  0  0  0  0  0  0  0  0  0  0
   -5.5102   29.2856   53.6103 C   0  0  0  0  0  0  0  0  0  0  0  0
   -4.8323   30.4374   54.1401 C   0  0  0  0  0  0  0  0  0  0  0  0
   -5.6000   31.6532   54.2832 C   0  0  0  0  0  0  0  0  0  0  0  0
   -4.9429   32.7448   54.7785 O   0  0  0  0  0  0  0  0  0  0  0  0
   -3.4601   30.0750   54.4108 C   0  0  0  0  0  0  0  0  0  0  0  0
   -3.3716   28.7277   54.0571 C   0  0  0  0  0  0  0  0  0  0  0  0
   -4.5858   28.2721   53.5765 N   0  0  0  0  0  0  0  0  0  0  0  0
   -2.3725   30.9527   54.9987 C   0  0  0  0  0  0  0  0  0  0  0  0
   -1.4934   30.2420   55.9247 N   0  0  0  0  0  0  0  0  0  0  0  0
  1  2  1  0  0  0  0
  1  7  1  0  0  0  0
  2  3  1  0  0  0  0
  2  4  2  0  0  0  0
  4  5  1  0  0  0  0
  5  6  2  0  0  0  0
  5 11  1  0  0  0  0
  6  7  1  0  0  0  0
  6  9  1  0  0  0  0
  7  8  2  0  0  0  0
  9 10  2  0  0  0  0
  9 12  1  0  0  0  0
 10 11  1  0  0  0  0
 12 13  1  0  0  0  0
M  END
>  <CHROM.1>
141.62090876,-5.12113107,30.40400879,54.12150218,3.12788490,0.32183733,-2.84426099

>  <Name>
ligand

>  <RI>
0

>  <Rbt.Current_Directory>
/home/itssahil/PROJECTS/Mol_Feturizer/Test_systems_manuscript/rnas/4jf2

>  <Rbt.Executable>
rbdock ($Id: //depot/dev/client3/rdock/2013.1/src/exe/rbdock.cxx#4 $)

>  <Rbt.Library>
libRbt.so (2013.1, Build901 2013/11/27)

>  <Rbt.Parameter_File>
/export/apps/rDock/src/rDock_2013.1_src/data/scripts/dock_solv.prm

>  <Rbt.Receptor>
prm/pocket_docking_8.prm

>  <SCORE>
-13.7689

>  <SCORE.INTER>
-13.4232

>  <SCORE.INTER.CONST>
1

>  <SCORE.INTER.POLAR>
0

>  <SCORE.INTER.ROT>
1

>  <SCORE.INTER.SOLV>
16.7869

>  <SCORE.INTER.VDW>
-18.8111

>  <SCORE.INTER.norm>
-1.03256

>  <SCORE.INTRA>
-0.345683

>  <SCORE.INTRA.DIHEDRAL>
0.0277067

>  <SCORE.INTRA.DIHEDRAL.0>
1.75624

>  <SCORE.INTRA.POLAR>
0

>  <SCORE.INTRA.POLAR.0>
0

>  <SCORE.INTRA.REPUL>
0

>  <SCORE.INTRA.REPUL.0>
0

>  <SCORE.INTRA.SOLV>
-1.01981

>  <SCORE.INTRA.SOLV.lig_0>
-46.5296

>  <SCORE.INTRA.VDW>
0.150368

>  <SCORE.INTRA.VDW.0>
-0.381873

>  <SCORE.INTRA.norm>
-0.026591

>  <SCORE.RESTR>
0

>  <SCORE.RESTR.CAVITY>
0

>  <SCORE.RESTR.norm>
0

>  <SCORE.SYSTEM>
0

>  <SCORE.SYSTEM.CONST>
0

>  <SCORE.SYSTEM.DIHEDRAL>
0

>  <SCORE.SYSTEM.SOLV>
0

>  <SCORE.SYSTEM.norm>
0

>  <SCORE.heavy>
13

>  <SCORE.norm>
-1.05915

>  <RMSD>
4.210

$$$$
ligand
 OpenBabel02271912143D
libRbt.so/2013.1/901 2013/11/27
 13 14  0  0  0  0  0  0  0  0999 V2000
   -6.9482   31.7018   53.8983 N   0  0  0  0  0  0  0  0  0  0  0  0
   -7.5811   30.5501   53.4032 C   0  0  0  0  0  0  0  0  0  0  0  0
   -8.9773   30.6083   53.0362 N   0  0  0  0  0  0  0  0  0  0  0  0
   -6.8741   29.3781   53.2585 N   0  0  0  0  0  0  0  0  0  0  0  0
   -5.5023   29.2848   53.6081 C   0  0  0  0  0  0  0  0  0  0  0  0
   -4.8302   30.4396   54.1388 C   0  0  0  0  0  0  0  0  0  0  0  0
   -5.6047   31.6508   54.2845 C   0  0  0  0  0  0  0  0  0  0  0  0
   -4.9531   32.7454   54.7807 O   0  0  0  0  0  0  0  0  0  0  0  0
   -3.4556   30.0846   54.4072 C   0  0  0  0  0  0  0  0  0  0  0  0
   -3.3600   28.7383   54.0514 C   0  0  0  0  0  0  0  0  0  0  0  0
   -4.5722   28.2765   53.5717 N   0  0  0  0  0  0  0  0  0  0  0  0
   -2.3723   30.9676   54.9950 C   0  0  0  0  0  0  0  0  0  0  0  0
   -1.4977   30.2644   55.9308 N   0  0  0  0  0  0  0  0  0  0  0  0
  1  2  1  0  0  0  0
  1  7  1  0  0  0  0
  2  3  1  0  0  0  0
  2  4  2  0  0  0  0
  4  5  1  0  0  0  0
  5  6  2  0  0  0  0
  5 11  1  0  0  0  0
  6  7  1  0  0  0  0
  6  9  1  0  0  0  0
  7  8  2  0  0  0  0
  9 10  2  0  0  0  0
  9 12  1  0  0  0  0
 10 11  1  0  0  0  0
 12 13  1  0  0  0  0
M  END
>  <CHROM.1>
140.94581095,-5.11967876,30.40490248,54.12143046,3.12170736,0.31978232,-2.84067104

>  <Name>
ligand

>  <RI>
0

>  <Rbt.Current_Directory>
/home/itssahil/PROJECTS/Mol_Feturizer/Test_systems_manuscript/rnas/4jf2

>  <Rbt.Executable>
rbdock ($Id: //depot/dev/client3/rdock/2013.1/src/exe/rbdock.cxx#4 $)

>  <Rbt.Library>
libRbt.so (2013.1, Build901 2013/11/27)

>  <Rbt.Parameter_File>
/export/apps/rDock/src/rDock_2013.1_src/data/scripts/dock_solv.prm

>  <Rbt.Receptor>
prm/pocket_docking_8.prm

>  <SCORE>
-13.7664

>  <SCORE.INTER>
-13.4184

>  <SCORE.INTER.CONST>
1

>  <SCORE.INTER.POLAR>
0

>  <SCORE.INTER.ROT>
1

>  <SCORE.INTER.SOLV>
16.8951

>  <SCORE.INTER.VDW>
-18.844

>  <SCORE.INTER.norm>
-1.03218

>  <SCORE.INTRA>
-0.347966

>  <SCORE.INTRA.DIHEDRAL>
0.0262074

>  <SCORE.INTRA.DIHEDRAL.0>
1.75624

>  <SCORE.INTRA.POLAR>
0

>  <SCORE.INTRA.POLAR.0>
0

>  <SCORE.INTRA.REPUL>
0

>  <SCORE.INTRA.REPUL.0>
0

>  <SCORE.INTRA.SOLV>
-1.01998

>  <SCORE.INTRA.SOLV.lig_0>
-46.5296

>  <SCORE.INTRA.VDW>
0.14892

>  <SCORE.INTRA.VDW.0>
-0.381873

>  <SCORE.INTRA.norm>
-0.0267666

>  <SCORE.RESTR>
0

>  <SCORE.RESTR.CAVITY>
0

>  <SCORE.RESTR.norm>
0

>  <SCORE.SYSTEM>
0

>  <SCORE.SYSTEM.CONST>
0

>  <SCORE.SYSTEM.DIHEDRAL>
0

>  <SCORE.SYSTEM.SOLV>
0

>  <SCORE.SYSTEM.norm>
0

>  <SCORE.heavy>
13

>  <SCORE.norm>
-1.05895

>  <RMSD>
4.210

$$$$
ligand
 OpenBabel02271912143D
libRbt.so/2013.1/901 2013/11/27
 13 14  0  0  0  0  0  0  0  0999 V2000
   -6.9488   31.7051   53.9023 N   0  0  0  0  0  0  0  0  0  0  0  0
   -7.5819   30.5560   53.4012 C   0  0  0  0  0  0  0  0  0  0  0  0
   -8.9774   30.6170   53.0320 N   0  0  0  0  0  0  0  0  0  0  0  0
   -6.8757   29.3841   53.2528 N   0  0  0  0  0  0  0  0  0  0  0  0
   -5.5046   29.2880   53.6045 C   0  0  0  0  0  0  0  0  0  0  0  0
   -4.8324   30.4399   54.1412 C   0  0  0  0  0  0  0  0  0  0  0  0
   -5.6061   31.6512   54.2907 C   0  0  0  0  0  0  0  0  0  0  0  0
   -4.9545   32.7432   54.7925 O   0  0  0  0  0  0  0  0  0  0  0  0
   -3.4586   30.0827   54.4106 C   0  0  0  0  0  0  0  0  0  0  0  0
   -3.3635   28.7378   54.0493 C   0  0  0  0  0  0  0  0  0  0  0  0
   -4.5753   28.2791   53.5655 N   0  0  0  0  0  0  0  0  0  0  0  0
   -2.3756   30.9622   55.0041 C   0  0  0  0  0  0  0  0  0  0  0  0
   -1.4942   30.2507   55.9271 N   0  0  0  0  0  0  0  0  0  0  0  0
  1  2  1  0  0  0  0
  1  7  1  0  0  0  0
  2  3  1  0  0  0  0
  2  4  2  0  0  0  0
  4  5  1  0  0  0  0
  5  6  2  0  0  0  0
  5 11  1  0  0  0  0
  6  7  1  0  0  0  0
  6  9  1  0  0  0  0
  7  8  2  0  0  0  0
  9 10  2  0  0  0  0
  9 12  1  0  0  0  0
 10 11  1  0  0  0  0
 12 13  1  0  0  0  0
M  END
>  <CHROM.1>
141.58140782,-5.12116128,30.40531177,54.12227227,3.12284471,0.32098404,-2.83700238

>  <Name>
ligand

>  <RI>
-1

>  <Rbt.Current_Directory>
/home/itssahil/PROJECTS/Mol_Feturizer/Test_systems_manuscript/rnas/4jf2

>  <Rbt.Executable>
rbdock ($Id: //depot/dev/client3/rdock/2013.1/src/exe/rbdock.cxx#4 $)

>  <Rbt.Library>
libRbt.so (2013.1, Build901 2013/11/27)

>  <Rbt.Parameter_File>
/export/apps/rDock/src/rDock_2013.1_src/data/scripts/dock_solv.prm

>  <Rbt.Receptor>
prm/pocket_docking_6.prm

>  <SCORE>
-13.7706

>  <SCORE.INTER>
-13.4247

>  <SCORE.INTER.CONST>
1

>  <SCORE.INTER.POLAR>
0

>  <SCORE.INTER.ROT>
1

>  <SCORE.INTER.SOLV>
16.8501

>  <SCORE.INTER.VDW>
-18.8332

>  <SCORE.INTER.norm>
-1.03267

>  <SCORE.INTRA>
-0.345815

>  <SCORE.INTRA.DIHEDRAL>
0.0276225

>  <SCORE.INTRA.DIHEDRAL.0>
1.75624

>  <SCORE.INTRA.POLAR>
0

>  <SCORE.INTRA.POLAR.0>
0

>  <SCORE.INTRA.REPUL>
0

>  <SCORE.INTRA.REPUL.0>
0

>  <SCORE.INTRA.SOLV>
-1.01982

>  <SCORE.INTRA.SOLV.lig_0>
-46.5296

>  <SCORE.INTRA.VDW>
0.150283

>  <SCORE.INTRA.VDW.0>
-0.381873

>  <SCORE.INTRA.norm>
-0.0266011

>  <SCORE.RESTR>
0

>  <SCORE.RESTR.CAVITY>
0

>  <SCORE.RESTR.norm>
0

>  <SCORE.SYSTEM>
0

>  <SCORE.SYSTEM.CONST>
0

>  <SCORE.SYSTEM.DIHEDRAL>
0

>  <SCORE.SYSTEM.SOLV>
0

>  <SCORE.SYSTEM.norm>
0

>  <SCORE.heavy>
13

>  <SCORE.norm>
-1.05927

>  <RMSD>
4.211

$$$$
ligand
 OpenBabel02271912143D
libRbt.so/2013.1/901 2013/11/27
 13 14  0  0  0  0  0  0  0  0999 V2000
   -6.9442   31.7014   53.8787 N   0  0  0  0  0  0  0  0  0  0  0  0
   -7.5730   30.5477   53.3831 C   0  0  0  0  0  0  0  0  0  0  0  0
   -8.9675   30.6029   53.0093 N   0  0  0  0  0  0  0  0  0  0  0  0
   -6.8634   29.3765   53.2441 N   0  0  0  0  0  0  0  0  0  0  0  0
   -5.4932   29.2860   53.6005 C   0  0  0  0  0  0  0  0  0  0  0  0
   -4.8254   30.4430   54.1319 C   0  0  0  0  0  0  0  0  0  0  0  0
   -5.6024   31.6533   54.2714 C   0  0  0  0  0  0  0  0  0  0  0  0
   -4.9550   32.7500   54.7683 O   0  0  0  0  0  0  0  0  0  0  0  0
   -3.4516   30.0908   54.4076 C   0  0  0  0  0  0  0  0  0  0  0  0
   -3.3521   28.7439   54.0551 C   0  0  0  0  0  0  0  0  0  0  0  0
   -4.5613   28.2792   53.5706 N   0  0  0  0  0  0  0  0  0  0  0  0
   -2.3724   30.9767   54.9987 C   0  0  0  0  0  0  0  0  0  0  0  0
   -1.4915   30.2730   55.9282 N   0  0  0  0  0  0  0  0  0  0  0  0
  1  2  1  0  0  0  0
  1  7  1  0  0  0  0
  2  3  1  0  0  0  0
  2  4  2  0  0  0  0
  4  5  1  0  0  0  0
  5  6  2  0  0  0  0
  5 11  1  0  0  0  0
  6  7  1  0  0  0  0
  6  9  1  0  0  0  0
  7  8  2  0  0  0  0
  9 10  2  0  0  0  0
  9 12  1  0  0  0  0
 10 11  1  0  0  0  0
 12 13  1  0  0  0  0
M  END
>  <CHROM.1>
141.61594014,-5.11396405,30.40755647,54.11227388,3.11949956,0.32303634,-2.84225567

>  <Name>
ligand

>  <RI>
0

>  <Rbt.Current_Directory>
/home/itssahil/PROJECTS/Mol_Feturizer/Test_systems_manuscript/rnas/4jf2

>  <Rbt.Executable>
rbdock ($Id: //depot/dev/client3/rdock/2013.1/src/exe/rbdock.cxx#4 $)

>  <Rbt.Library>
libRbt.so (2013.1, Build901 2013/11/27)

>  <Rbt.Parameter_File>
/export/apps/rDock/src/rDock_2013.1_src/data/scripts/dock_solv.prm

>  <Rbt.Receptor>
prm/pocket_docking_8.prm

>  <SCORE>
-13.7631

>  <SCORE.INTER>
-13.4174

>  <SCORE.INTER.CONST>
1

>  <SCORE.INTER.POLAR>
0

>  <SCORE.INTER.ROT>
1

>  <SCORE.INTER.SOLV>
16.867

>  <SCORE.INTER.VDW>
-18.834

>  <SCORE.INTER.norm>
-1.03211

>  <SCORE.INTRA>
-0.345699

>  <SCORE.INTRA.DIHEDRAL>
0.0276962

>  <SCORE.INTRA.DIHEDRAL.0>
1.75624

>  <SCORE.INTRA.POLAR>
0

>  <SCORE.INTRA.POLAR.0>
0

>  <SCORE.INTRA.REPUL>
0

>  <SCORE.INTRA.REPUL.0>
0

>  <SCORE.INTRA.SOLV>
-1.01981

>  <SCORE.INTRA.SOLV.lig_0>
-46.5296

>  <SCORE.INTRA.VDW>
0.150357

>  <SCORE.INTRA.VDW.0>
-0.381873

>  <SCORE.INTRA.norm>
-0.0265923

>  <SCORE.RESTR>
0

>  <SCORE.RESTR.CAVITY>
0

>  <SCORE.RESTR.norm>
0

>  <SCORE.SYSTEM>
0

>  <SCORE.SYSTEM.CONST>
0

>  <SCORE.SYSTEM.DIHEDRAL>
0

>  <SCORE.SYSTEM.SOLV>
0

>  <SCORE.SYSTEM.norm>
0

>  <SCORE.heavy>
13

>  <SCORE.norm>
-1.0587

>  <RMSD>
4.211

$$$$
ligand
 OpenBabel02271912143D
libRbt.so/2013.1/901 2013/11/27
 13 14  0  0  0  0  0  0  0  0999 V2000
   -6.9733   31.6856   53.9204 N   0  0  0  0  0  0  0  0  0  0  0  0
   -7.6022   30.5306   53.4279 C   0  0  0  0  0  0  0  0  0  0  0  0
   -8.9999   30.5818   53.0655 N   0  0  0  0  0  0  0  0  0  0  0  0
   -6.8900   29.3620   53.2813 N   0  0  0  0  0  0  0  0  0  0  0  0
   -5.5166   29.2755   53.6265 C   0  0  0  0  0  0  0  0  0  0  0  0
   -4.8484   30.4338   54.1544 C   0  0  0  0  0  0  0  0  0  0  0  0
   -5.6282   31.6413   54.3022 C   0  0  0  0  0  0  0  0  0  0  0  0
   -4.9804   32.7393   54.7957 O   0  0  0  0  0  0  0  0  0  0  0  0
   -3.4712   30.0857   54.4185 C   0  0  0  0  0  0  0  0  0  0  0  0
   -3.3702   28.7397   54.0630 C   0  0  0  0  0  0  0  0  0  0  0  0
   -4.5817   28.2718   53.5874 N   0  0  0  0  0  0  0  0  0  0  0  0
   -2.3903   30.9742   55.0023 C   0  0  0  0  0  0  0  0  0  0  0  0
   -1.5006   30.2723   55.9249 N   0  0  0  0  0  0  0  0  0  0  0  0
  1  2  1  0  0  0  0
  1  7  1  0  0  0  0
  2  3  1  0  0  0  0
  2  4  2  0  0  0  0
  4  5  1  0  0  0  0
  5  6  2  0  0  0  0
  5 11  1  0  0  0  0
  6  7  1  0  0  0  0
  6  9  1  0  0  0  0
  7  8  2  0  0  0  0
  9 10  2  0  0  0  0
  9 12  1  0  0  0  0
 10 11  1  0  0  0  0
 12 13  1  0  0  0  0
M  END
>  <CHROM.1>
141.54286723,-5.13704267,30.39743368,54.13718882,3.11859420,0.31445977,-2.84030496

>  <Name>
ligand

>  <RI>
-1

>  <Rbt.Current_Directory>
/home/itssahil/PROJECTS/Mol_Feturizer/Test_systems_manuscript/rnas/4jf2

>  <Rbt.Executable>
rbdock ($Id: //depot/dev/client3/rdock/2013.1/src/exe/rbdock.cxx#4 $)

>  <Rbt.Library>
libRbt.so (2013.1, Build901 2013/11/27)

>  <Rbt.Parameter_File>
/export/apps/rDock/src/rDock_2013.1_src/data/scripts/dock_solv.prm

>  <Rbt.Receptor>
prm/pocket_docking_6.prm

>  <SCORE>
-13.7186

>  <SCORE.INTER>
-13.3726

>  <SCORE.INTER.CONST>
1

>  <SCORE.INTER.POLAR>
0

>  <SCORE.INTER.ROT>
1

>  <SCORE.INTER.SOLV>
17.1157

>  <SCORE.INTER.VDW>
-18.887

>  <SCORE.INTER.norm>
-1.02866

>  <SCORE.INTRA>
-0.345943

>  <SCORE.INTRA.DIHEDRAL>
0.02754

>  <SCORE.INTRA.DIHEDRAL.0>
1.75624

>  <SCORE.INTRA.POLAR>
0

>  <SCORE.INTRA.POLAR.0>
0

>  <SCORE.INTRA.REPUL>
0

>  <SCORE.INTRA.REPUL.0>
0

>  <SCORE.INTRA.SOLV>
-1.01983

>  <SCORE.INTRA.SOLV.lig_0>
-46.5296

>  <SCORE.INTRA.VDW>
0.150201

>  <SCORE.INTRA.VDW.0>
-0.381873

>  <SCORE.INTRA.norm>
-0.026611

>  <SCORE.RESTR>
0

>  <SCORE.RESTR.CAVITY>
0

>  <SCORE.RESTR.norm>
0

>  <SCORE.SYSTEM>
0

>  <SCORE.SYSTEM.CONST>
0

>  <SCORE.SYSTEM.DIHEDRAL>
0

>  <SCORE.SYSTEM.SOLV>
0

>  <SCORE.SYSTEM.norm>
0

>  <SCORE.heavy>
13

>  <SCORE.norm>
-1.05527

>  <RMSD>
4.212

$$$$
ligand
 OpenBabel02271912143D
libRbt.so/2013.1/901 2013/11/27
 13 14  0  0  0  0  0  0  0  0999 V2000
   -6.7839   31.8362   53.5437 N   0  0  0  0  0  0  0  0  0  0  0  0
   -7.3692   30.7152   52.9330 C   0  0  0  0  0  0  0  0  0  0  0  0
   -8.7155   30.8086   52.4172 N   0  0  0  0  0  0  0  0  0  0  0  0
   -6.6619   29.5402   52.8171 N   0  0  0  0  0  0  0  0  0  0  0  0
   -5.3382   29.4127   53.3116 C   0  0  0  0  0  0  0  0  0  0  0  0
   -4.7179   30.5347   53.9620 C   0  0  0  0  0  0  0  0  0  0  0  0
   -5.4919   31.7499   54.0732 C   0  0  0  0  0  0  0  0  0  0  0  0
   -4.8888   32.8135   54.6845 O   0  0  0  0  0  0  0  0  0  0  0  0
   -3.3850   30.1493   54.3649 C   0  0  0  0  0  0  0  0  0  0  0  0
   -3.2636   28.8176   53.9646 C   0  0  0  0  0  0  0  0  0  0  0  0
   -4.4196   28.3936   53.3348 N   0  0  0  0  0  0  0  0  0  0  0  0
   -2.3650   30.9914   55.1058 C   0  0  0  0  0  0  0  0  0  0  0  0
   -1.4903   30.2079   55.9754 N   0  0  0  0  0  0  0  0  0  0  0  0
  1  2  1  0  0  0  0
  1  7  1  0  0  0  0
  2  3  1  0  0  0  0
  2  4  2  0  0  0  0
  4  5  1  0  0  0  0
  5  6  2  0  0  0  0
  5 11  1  0  0  0  0
  6  7  1  0  0  0  0
  6  9  1  0  0  0  0
  7  8  2  0  0  0  0
  9 10  2  0  0  0  0
  9 12  1  0  0  0  0
 10 11  1  0  0  0  0
 12 13  1  0  0  0  0
M  END
>  <CHROM.1>
148.36827169,-4.99454635,30.50257214,53.90112366,3.10498181,0.41917727,-2.79382160

>  <Name>
ligand

>  <RI>
-1

>  <Rbt.Current_Directory>
/home/itssahil/PROJECTS/Mol_Feturizer/Test_systems_manuscript/rnas/4jf2

>  <Rbt.Executable>
rbdock ($Id: //depot/dev/client3/rdock/2013.1/src/exe/rbdock.cxx#4 $)

>  <Rbt.Library>
libRbt.so (2013.1, Build901 2013/11/27)

>  <Rbt.Parameter_File>
/export/apps/rDock/src/rDock_2013.1_src/data/scripts/dock_solv.prm

>  <Rbt.Receptor>
prm/pocket_docking_6.prm

>  <SCORE>
-13.3017

>  <SCORE.INTER>
-12.9749

>  <SCORE.INTER.CONST>
1

>  <SCORE.INTER.POLAR>
0

>  <SCORE.INTER.ROT>
1

>  <SCORE.INTER.SOLV>
14.2208

>  <SCORE.INTER.VDW>
-17.6569

>  <SCORE.INTER.norm>
-0.998071

>  <SCORE.INTRA>
-0.326777

>  <SCORE.INTRA.DIHEDRAL>
0.0353296

>  <SCORE.INTRA.DIHEDRAL.0>
1.75624

>  <SCORE.INTRA.POLAR>
0

>  <SCORE.INTRA.POLAR.0>
0

>  <SCORE.INTRA.REPUL>
0

>  <SCORE.INTRA.REPUL.0>
0

>  <SCORE.INTRA.SOLV>
-1.01827

>  <SCORE.INTRA.SOLV.lig_0>
-46.5296

>  <SCORE.INTRA.VDW>
0.164692

>  <SCORE.INTRA.VDW.0>
-0.381873

>  <SCORE.INTRA.norm>
-0.0251367

>  <SCORE.RESTR>
0

>  <SCORE.RESTR.CAVITY>
0

>  <SCORE.RESTR.norm>
0

>  <SCORE.SYSTEM>
0

>  <SCORE.SYSTEM.CONST>
0

>  <SCORE.SYSTEM.DIHEDRAL>
0

>  <SCORE.SYSTEM.SOLV>
0

>  <SCORE.SYSTEM.norm>
0

>  <SCORE.heavy>
13

>  <SCORE.norm>
-1.02321

>  <RMSD>
4.213

$$$$
ligand
 OpenBabel02271912143D
libRbt.so/2013.1/901 2013/11/27
 13 14  0  0  0  0  0  0  0  0999 V2000
   -6.9519   31.7066   53.8578 N   0  0  0  0  0  0  0  0  0  0  0  0
   -7.5822   30.5492   53.3728 C   0  0  0  0  0  0  0  0  0  0  0  0
   -8.9754   30.6040   52.9940 N   0  0  0  0  0  0  0  0  0  0  0  0
   -6.8755   29.3747   53.2490 N   0  0  0  0  0  0  0  0  0  0  0  0
   -5.5066   29.2844   53.6108 C   0  0  0  0  0  0  0  0  0  0  0  0
   -4.8374   30.4453   54.1316 C   0  0  0  0  0  0  0  0  0  0  0  0
   -5.6115   31.6592   54.2554 C   0  0  0  0  0  0  0  0  0  0  0  0
   -4.9627   32.7595   54.7423 O   0  0  0  0  0  0  0  0  0  0  0  0
   -3.4654   30.0925   54.4156 C   0  0  0  0  0  0  0  0  0  0  0  0
   -3.3685   28.7415   54.0782 C   0  0  0  0  0  0  0  0  0  0  0  0
   -4.5774   28.2748   53.5949 N   0  0  0  0  0  0  0  0  0  0  0  0
   -2.3857   30.9819   55.0004 C   0  0  0  0  0  0  0  0  0  0  0  0
   -1.4944   30.2800   55.9213 N   0  0  0  0  0  0  0  0  0  0  0  0
  1  2  1  0  0  0  0
  1  7  1  0  0  0  0
  2  3  1  0  0  0  0
  2  4  2  0  0  0  0
  4  5  1  0  0  0  0
  5  6  2  0  0  0  0
  5 11  1  0  0  0  0
  6  7  1  0  0  0  0
  6  9  1  0  0  0  0
  7  8  2  0  0  0  0
  9 10  2  0  0  0  0
  9 12  1  0  0  0  0
 10 11  1  0  0  0  0
 12 13  1  0  0  0  0
M  END
>  <CHROM.1>
142.69100650,-5.12470480,30.40993083,54.10988207,3.12259006,0.32556658,-2.85447908

>  <Name>
ligand

>  <RI>
-1

>  <Rbt.Current_Directory>
/home/itssahil/PROJECTS/Mol_Feturizer/Test_systems_manuscript/rnas/4jf2

>  <Rbt.Executable>
rbdock ($Id: //depot/dev/client3/rdock/2013.1/src/exe/rbdock.cxx#4 $)

>  <Rbt.Library>
libRbt.so (2013.1, Build901 2013/11/27)

>  <Rbt.Parameter_File>
/export/apps/rDock/src/rDock_2013.1_src/data/scripts/dock_solv.prm

>  <Rbt.Receptor>
prm/pocket_docking_7.prm

>  <SCORE>
-13.7599

>  <SCORE.INTER>
-13.4177

>  <SCORE.INTER.CONST>
1

>  <SCORE.INTER.POLAR>
0

>  <SCORE.INTER.ROT>
1

>  <SCORE.INTER.SOLV>
16.8497

>  <SCORE.INTER.VDW>
-18.8284

>  <SCORE.INTER.norm>
-1.03213

>  <SCORE.INTRA>
-0.3422

>  <SCORE.INTRA.DIHEDRAL>
0.0298165

>  <SCORE.INTRA.DIHEDRAL.0>
1.75624

>  <SCORE.INTRA.POLAR>
0

>  <SCORE.INTRA.POLAR.0>
0

>  <SCORE.INTRA.REPUL>
0

>  <SCORE.INTRA.REPUL.0>
0

>  <SCORE.INTRA.SOLV>
-1.01954

>  <SCORE.INTRA.SOLV.lig_0>
-46.5296

>  <SCORE.INTRA.VDW>
0.152663

>  <SCORE.INTRA.VDW.0>
-0.381873

>  <SCORE.INTRA.norm>
-0.0263231

>  <SCORE.RESTR>
0

>  <SCORE.RESTR.CAVITY>
0

>  <SCORE.RESTR.norm>
0

>  <SCORE.SYSTEM>
0

>  <SCORE.SYSTEM.CONST>
0

>  <SCORE.SYSTEM.DIHEDRAL>
0

>  <SCORE.SYSTEM.SOLV>
0

>  <SCORE.SYSTEM.norm>
0

>  <SCORE.heavy>
13

>  <SCORE.norm>
-1.05846

>  <RMSD>
4.213

$$$$
ligand
 OpenBabel02271912143D
libRbt.so/2013.1/901 2013/11/27
 13 14  0  0  0  0  0  0  0  0999 V2000
   -6.7876   31.8431   53.5518 N   0  0  0  0  0  0  0  0  0  0  0  0
   -7.3680   30.7204   52.9395 C   0  0  0  0  0  0  0  0  0  0  0  0
   -8.7107   30.8119   52.4139 N   0  0  0  0  0  0  0  0  0  0  0  0
   -6.6592   29.5456   52.8313 N   0  0  0  0  0  0  0  0  0  0  0  0
   -5.3390   29.4199   53.3354 C   0  0  0  0  0  0  0  0  0  0  0  0
   -4.7239   30.5438   53.9876 C   0  0  0  0  0  0  0  0  0  0  0  0
   -5.4994   31.7587   54.0906 C   0  0  0  0  0  0  0  0  0  0  0  0
   -4.9012   32.8241   54.7037 O   0  0  0  0  0  0  0  0  0  0  0  0
   -3.3937   30.1600   54.4008 C   0  0  0  0  0  0  0  0  0  0  0  0
   -3.2687   28.8275   54.0044 C   0  0  0  0  0  0  0  0  0  0  0  0
   -4.4201   28.4014   53.3674 N   0  0  0  0  0  0  0  0  0  0  0  0
   -2.3794   31.0044   55.1470 C   0  0  0  0  0  0  0  0  0  0  0  0
   -1.4542   30.2153   55.9573 N   0  0  0  0  0  0  0  0  0  0  0  0
  1  2  1  0  0  0  0
  1  7  1  0  0  0  0
  2  3  1  0  0  0  0
  2  4  2  0  0  0  0
  4  5  1  0  0  0  0
  5  6  2  0  0  0  0
  5 11  1  0  0  0  0
  6  7  1  0  0  0  0
  6  9  1  0  0  0  0
  7  8  2  0  0  0  0
  9 10  2  0  0  0  0
  9 12  1  0  0  0  0
 10 11  1  0  0  0  0
 12 13  1  0  0  0  0
M  END
>  <CHROM.1>
152.12572925,-4.99554732,30.51067223,53.91938697,3.10571845,0.42050225,-2.79691158

>  <Name>
ligand

>  <RI>
0

>  <Rbt.Current_Directory>
/home/itssahil/PROJECTS/Mol_Feturizer/Test_systems_manuscript/rnas/4jf2

>  <Rbt.Executable>
rbdock ($Id: //depot/dev/client3/rdock/2013.1/src/exe/rbdock.cxx#4 $)

>  <Rbt.Library>
libRbt.so (2013.1, Build901 2013/11/27)

>  <Rbt.Parameter_File>
/export/apps/rDock/src/rDock_2013.1_src/data/scripts/dock_solv.prm

>  <Rbt.Receptor>
prm/pocket_docking_8.prm

>  <SCORE>
-13.3104

>  <SCORE.INTER>
-12.9908

>  <SCORE.INTER.CONST>
1

>  <SCORE.INTER.POLAR>
0

>  <SCORE.INTER.ROT>
1

>  <SCORE.INTER.SOLV>
14.2018

>  <SCORE.INTER.VDW>
-17.6611

>  <SCORE.INTER.norm>
-0.999291

>  <SCORE.INTRA>
-0.319664

>  <SCORE.INTRA.DIHEDRAL>
0.033591

>  <SCORE.INTRA.DIHEDRAL.0>
1.75624

>  <SCORE.INTRA.POLAR>
0

>  <SCORE.INTRA.POLAR.0>
0

>  <SCORE.INTRA.REPUL>
0

>  <SCORE.INTRA.REPUL.0>
0

>  <SCORE.INTRA.SOLV>
-1.01758

>  <SCORE.INTRA.SOLV.lig_0>
-46.5296

>  <SCORE.INTRA.VDW>
0.172331

>  <SCORE.INTRA.VDW.0>
-0.381873

>  <SCORE.INTRA.norm>
-0.0245895

>  <SCORE.RESTR>
0

>  <SCORE.RESTR.CAVITY>
0

>  <SCORE.RESTR.norm>
0

>  <SCORE.SYSTEM>
0

>  <SCORE.SYSTEM.CONST>
0

>  <SCORE.SYSTEM.DIHEDRAL>
0

>  <SCORE.SYSTEM.SOLV>
0

>  <SCORE.SYSTEM.norm>
0

>  <SCORE.heavy>
13

>  <SCORE.norm>
-1.02388

>  <RMSD>
4.218

$$$$
ligand
 OpenBabel02271912143D
libRbt.so/2013.1/901 2013/11/27
 13 14  0  0  0  0  0  0  0  0999 V2000
   -6.9216   31.7852   53.9766 N   0  0  0  0  0  0  0  0  0  0  0  0
   -7.5511   30.6363   53.4706 C   0  0  0  0  0  0  0  0  0  0  0  0
   -8.9452   30.6961   53.0961 N   0  0  0  0  0  0  0  0  0  0  0  0
   -6.8426   29.4657   53.3224 N   0  0  0  0  0  0  0  0  0  0  0  0
   -5.4727   29.3708   53.6792 C   0  0  0  0  0  0  0  0  0  0  0  0
   -4.8043   30.5225   54.2210 C   0  0  0  0  0  0  0  0  0  0  0  0
   -5.5803   31.7324   54.3701 C   0  0  0  0  0  0  0  0  0  0  0  0
   -4.9322   32.8242   54.8768 O   0  0  0  0  0  0  0  0  0  0  0  0
   -3.4311   30.1667   54.4950 C   0  0  0  0  0  0  0  0  0  0  0  0
   -3.3326   28.8227   54.1312 C   0  0  0  0  0  0  0  0  0  0  0  0
   -4.5418   28.3633   53.6416 N   0  0  0  0  0  0  0  0  0  0  0  0
   -2.3516   31.0465   55.0945 C   0  0  0  0  0  0  0  0  0  0  0  0
   -1.4388   30.3221   55.9761 N   0  0  0  0  0  0  0  0  0  0  0  0
  1  2  1  0  0  0  0
  1  7  1  0  0  0  0
  2  3  1  0  0  0  0
  2  4  2  0  0  0  0
  4  5  1  0  0  0  0
  5  6  2  0  0  0  0
  5 11  1  0  0  0  0
  6  7  1  0  0  0  0
  6  9  1  0  0  0  0
  7  8  2  0  0  0  0
  9 10  2  0  0  0  0
  9 12  1  0  0  0  0
 10 11  1  0  0  0  0
 12 13  1  0  0  0  0
M  END
>  <CHROM.1>
143.98753095,-5.09014465,30.48657866,54.19736676,3.12309161,0.32125107,-2.83552317

>  <Name>
ligand

>  <RI>
-1

>  <Rbt.Current_Directory>
/home/itssahil/PROJECTS/Mol_Feturizer/Test_systems_manuscript/rnas/4jf2

>  <Rbt.Executable>
rbdock ($Id: //depot/dev/client3/rdock/2013.1/src/exe/rbdock.cxx#4 $)

>  <Rbt.Library>
libRbt.so (2013.1, Build901 2013/11/27)

>  <Rbt.Parameter_File>
/export/apps/rDock/src/rDock_2013.1_src/data/scripts/dock_solv.prm

>  <Rbt.Receptor>
prm/pocket_docking_4.prm

>  <SCORE>
-13.5886

>  <SCORE.INTER>
-13.2504

>  <SCORE.INTER.CONST>
1

>  <SCORE.INTER.POLAR>
0

>  <SCORE.INTER.ROT>
1

>  <SCORE.INTER.SOLV>
16.5861

>  <SCORE.INTER.VDW>
-18.629

>  <SCORE.INTER.norm>
-1.01926

>  <SCORE.INTRA>
-0.338215

>  <SCORE.INTRA.DIHEDRAL>
0.0319263

>  <SCORE.INTRA.DIHEDRAL.0>
1.75624

>  <SCORE.INTRA.POLAR>
0

>  <SCORE.INTRA.POLAR.0>
0

>  <SCORE.INTRA.REPUL>
0

>  <SCORE.INTRA.REPUL.0>
0

>  <SCORE.INTRA.SOLV>
-1.01923

>  <SCORE.INTRA.SOLV.lig_0>
-46.5296

>  <SCORE.INTRA.VDW>
0.155437

>  <SCORE.INTRA.VDW.0>
-0.381873

>  <SCORE.INTRA.norm>
-0.0260165

>  <SCORE.RESTR>
0

>  <SCORE.RESTR.CAVITY>
0

>  <SCORE.RESTR.norm>
0

>  <SCORE.SYSTEM>
0

>  <SCORE.SYSTEM.CONST>
0

>  <SCORE.SYSTEM.DIHEDRAL>
0

>  <SCORE.SYSTEM.SOLV>
0

>  <SCORE.SYSTEM.norm>
0

>  <SCORE.heavy>
13

>  <SCORE.norm>
-1.04528

>  <RMSD>
4.222

$$$$
ligand
 OpenBabel02271912143D
libRbt.so/2013.1/901 2013/11/27
 13 14  0  0  0  0  0  0  0  0999 V2000
   -7.0431   31.0786   53.8556 N   0  0  0  0  0  0  0  0  0  0  0  0
   -7.4559   29.8177   53.3953 C   0  0  0  0  0  0  0  0  0  0  0  0
   -8.8341   29.6175   53.0109 N   0  0  0  0  0  0  0  0  0  0  0  0
   -6.5522   28.7839   53.3009 N   0  0  0  0  0  0  0  0  0  0  0  0
   -5.1915   28.9446   53.6691 C   0  0  0  0  0  0  0  0  0  0  0  0
   -4.7413   30.2166   54.1652 C   0  0  0  0  0  0  0  0  0  0  0  0
   -5.7183   31.2772   54.2585 C   0  0  0  0  0  0  0  0  0  0  0  0
   -5.2771   32.4853   54.7220 O   0  0  0  0  0  0  0  0  0  0  0  0
   -3.3307   30.1177   54.4616 C   0  0  0  0  0  0  0  0  0  0  0  0
   -2.9947   28.7980   54.1557 C   0  0  0  0  0  0  0  0  0  0  0  0
   -4.0988   28.1147   53.6794 N   0  0  0  0  0  0  0  0  0  0  0  0
   -2.4291   31.1964   55.0293 C   0  0  0  0  0  0  0  0  0  0  0  0
   -1.3340   30.6674   55.8394 N   0  0  0  0  0  0  0  0  0  0  0  0
  1  2  1  0  0  0  0
  1  7  1  0  0  0  0
  2  3  1  0  0  0  0
  2  4  2  0  0  0  0
  4  5  1  0  0  0  0
  5  6  2  0  0  0  0
  5 11  1  0  0  0  0
  6  7  1  0  0  0  0
  6  9  1  0  0  0  0
  7  8  2  0  0  0  0
  9 10  2  0  0  0  0
  9 12  1  0  0  0  0
 10 11  1  0  0  0  0
 12 13  1  0  0  0  0
M  END
>  <CHROM.1>
149.73639291,-5.00955613,30.12930402,54.13281830,2.95169480,0.26926000,-2.82954228

>  <Name>
ligand

>  <RI>
0

>  <Rbt.Current_Directory>
/home/itssahil/PROJECTS/Mol_Feturizer/Test_systems_manuscript/rnas/4jf2

>  <Rbt.Executable>
rbdock ($Id: //depot/dev/client3/rdock/2013.1/src/exe/rbdock.cxx#4 $)

>  <Rbt.Library>
libRbt.so (2013.1, Build901 2013/11/27)

>  <Rbt.Parameter_File>
/export/apps/rDock/src/rDock_2013.1_src/data/scripts/dock_solv.prm

>  <Rbt.Receptor>
prm/blind_docking_100.prm

>  <SCORE>
-11.9015

>  <SCORE.INTER>
-11.5951

>  <SCORE.INTER.CONST>
1

>  <SCORE.INTER.POLAR>
0

>  <SCORE.INTER.ROT>
1

>  <SCORE.INTER.SOLV>
21.2811

>  <SCORE.INTER.VDW>
-19.0904

>  <SCORE.INTER.norm>
-0.891931

>  <SCORE.INTRA>
-0.323887

>  <SCORE.INTRA.DIHEDRAL>
0.0351949

>  <SCORE.INTRA.DIHEDRAL.0>
1.75624

>  <SCORE.INTRA.POLAR>
0

>  <SCORE.INTRA.POLAR.0>
0

>  <SCORE.INTRA.REPUL>
0

>  <SCORE.INTRA.REPUL.0>
0

>  <SCORE.INTRA.SOLV>
-1.018

>  <SCORE.INTRA.SOLV.lig_0>
-46.5296

>  <SCORE.INTRA.VDW>
0.167516

>  <SCORE.INTRA.VDW.0>
-0.381873

>  <SCORE.INTRA.norm>
-0.0249144

>  <SCORE.RESTR>
0.017521

>  <SCORE.RESTR.CAVITY>
0.017521

>  <SCORE.RESTR.norm>
0.00134777

>  <SCORE.SYSTEM>
0

>  <SCORE.SYSTEM.CONST>
0

>  <SCORE.SYSTEM.DIHEDRAL>
0

>  <SCORE.SYSTEM.SOLV>
0

>  <SCORE.SYSTEM.norm>
0

>  <SCORE.heavy>
13

>  <SCORE.norm>
-0.915498

>  <RMSD>
4.223

$$$$
ligand
 OpenBabel02271912143D
libRbt.so/2013.1/901 2013/11/27
 13 14  0  0  0  0  0  0  0  0999 V2000
   -7.4893   31.5272   53.8386 N   0  0  0  0  0  0  0  0  0  0  0  0
   -8.6261   30.7903   53.4686 C   0  0  0  0  0  0  0  0  0  0  0  0
   -9.9153   31.4415   53.4342 N   0  0  0  0  0  0  0  0  0  0  0  0
   -8.5111   29.4610   53.1308 N   0  0  0  0  0  0  0  0  0  0  0  0
   -7.2616   28.7895   53.1528 C   0  0  0  0  0  0  0  0  0  0  0  0
   -6.0817   29.5094   53.5485 C   0  0  0  0  0  0  0  0  0  0  0  0
   -6.2401   30.9010   53.9040 C   0  0  0  0  0  0  0  0  0  0  0  0
   -5.1103   31.5785   54.2690 O   0  0  0  0  0  0  0  0  0  0  0  0
   -4.9539   28.6087   53.4832 C   0  0  0  0  0  0  0  0  0  0  0  0
   -5.4961   27.3888   53.0755 C   0  0  0  0  0  0  0  0  0  0  0  0
   -6.8593   27.5076   52.8739 N   0  0  0  0  0  0  0  0  0  0  0  0
   -3.5097   28.9112   53.8320 C   0  0  0  0  0  0  0  0  0  0  0  0
   -3.3568   29.6106   55.1058 N   0  0  0  0  0  0  0  0  0  0  0  0
  1  2  1  0  0  0  0
  1  7  1  0  0  0  0
  2  3  1  0  0  0  0
  2  4  2  0  0  0  0
  4  5  1  0  0  0  0
  5  6  2  0  0  0  0
  5 11  1  0  0  0  0
  6  7  1  0  0  0  0
  6  9  1  0  0  0  0
  7  8  2  0  0  0  0
  9 10  2  0  0  0  0
  9 12  1  0  0  0  0
 10 11  1  0  0  0  0
 12 13  1  0  0  0  0
M  END
>  <CHROM.1>
46.98906603,-6.39891842,29.74123487,53.64478177,-2.82654714,0.23792965,-2.84017593

>  <Name>
ligand

>  <RI>
-1

>  <Rbt.Current_Directory>
/home/itssahil/PROJECTS/Mol_Feturizer/Test_systems_manuscript/rnas/4jf2

>  <Rbt.Executable>
rbdock ($Id: //depot/dev/client3/rdock/2013.1/src/exe/rbdock.cxx#4 $)

>  <Rbt.Library>
libRbt.so (2013.1, Build901 2013/11/27)

>  <Rbt.Parameter_File>
/export/apps/rDock/src/rDock_2013.1_src/data/scripts/dock_solv.prm

>  <Rbt.Receptor>
prm/blind_docking_80.prm

>  <SCORE>
-13.1225

>  <SCORE.INTER>
-13.5599

>  <SCORE.INTER.CONST>
1

>  <SCORE.INTER.POLAR>
0

>  <SCORE.INTER.ROT>
1

>  <SCORE.INTER.SOLV>
14.3111

>  <SCORE.INTER.VDW>
-18.0769

>  <SCORE.INTER.norm>
-1.04307

>  <SCORE.INTRA>
0.437337

>  <SCORE.INTRA.DIHEDRAL>
-0.0118782

>  <SCORE.INTRA.DIHEDRAL.0>
1.75624

>  <SCORE.INTRA.POLAR>
0

>  <SCORE.INTRA.POLAR.0>
0

>  <SCORE.INTRA.REPUL>
0

>  <SCORE.INTRA.REPUL.0>
0

>  <SCORE.INTRA.SOLV>
0.757874

>  <SCORE.INTRA.SOLV.lig_0>
-46.5296

>  <SCORE.INTRA.VDW>
0.0643387

>  <SCORE.INTRA.VDW.0>
-0.381873

>  <SCORE.INTRA.norm>
0.0336413

>  <SCORE.RESTR>
0

>  <SCORE.RESTR.CAVITY>
0

>  <SCORE.RESTR.norm>
0

>  <SCORE.SYSTEM>
0

>  <SCORE.SYSTEM.CONST>
0

>  <SCORE.SYSTEM.DIHEDRAL>
0

>  <SCORE.SYSTEM.SOLV>
0

>  <SCORE.SYSTEM.norm>
0

>  <SCORE.heavy>
13

>  <SCORE.norm>
-1.00943

>  <RMSD>
4.257

$$$$
ligand
 OpenBabel02271912143D
libRbt.so/2013.1/901 2013/11/27
 13 14  0  0  0  0  0  0  0  0999 V2000
   -7.4881   31.5436   53.7818 N   0  0  0  0  0  0  0  0  0  0  0  0
   -8.6267   30.7947   53.4425 C   0  0  0  0  0  0  0  0  0  0  0  0
   -9.9192   31.4396   53.4137 N   0  0  0  0  0  0  0  0  0  0  0  0
   -8.5105   29.4595   53.1294 N   0  0  0  0  0  0  0  0  0  0  0  0
   -7.2577   28.7938   53.1470 C   0  0  0  0  0  0  0  0  0  0  0  0
   -6.0757   29.5264   53.5116 C   0  0  0  0  0  0  0  0  0  0  0  0
   -6.2353   30.9241   53.8417 C   0  0  0  0  0  0  0  0  0  0  0  0
   -5.1035   31.6134   54.1773 O   0  0  0  0  0  0  0  0  0  0  0  0
   -4.9449   28.6293   53.4481 C   0  0  0  0  0  0  0  0  0  0  0  0
   -5.4873   27.3994   53.0722 C   0  0  0  0  0  0  0  0  0  0  0  0
   -6.8537   27.5084   52.8877 N   0  0  0  0  0  0  0  0  0  0  0  0
   -3.4973   28.9448   53.7703 C   0  0  0  0  0  0  0  0  0  0  0  0
   -3.3243   29.6162   55.0565 N   0  0  0  0  0  0  0  0  0  0  0  0
  1  2  1  0  0  0  0
  1  7  1  0  0  0  0
  2  3  1  0  0  0  0
  2  4  2  0  0  0  0
  4  5  1  0  0  0  0
  5  6  2  0  0  0  0
  5 11  1  0  0  0  0
  6  7  1  0  0  0  0
  6  9  1  0  0  0  0
  7  8  2  0  0  0  0
  9 10  2  0  0  0  0
  9 12  1  0  0  0  0
 10 11  1  0  0  0  0
 12 13  1  0  0  0  0
M  END
>  <CHROM.1>
49.60402847,-6.39211255,29.75436754,53.61009729,-2.82398814,0.22620623,-2.85961104

>  <Name>
ligand

>  <RI>
-1

>  <Rbt.Current_Directory>
/home/itssahil/PROJECTS/Mol_Feturizer/Test_systems_manuscript/rnas/4jf2

>  <Rbt.Executable>
rbdock ($Id: //depot/dev/client3/rdock/2013.1/src/exe/rbdock.cxx#4 $)

>  <Rbt.Library>
libRbt.so (2013.1, Build901 2013/11/27)

>  <Rbt.Parameter_File>
/export/apps/rDock/src/rDock_2013.1_src/data/scripts/dock_solv.prm

>  <Rbt.Receptor>
prm/pocket_docking_7.prm

>  <SCORE>
-13.1424

>  <SCORE.INTER>
-13.4923

>  <SCORE.INTER.CONST>
1

>  <SCORE.INTER.POLAR>
0

>  <SCORE.INTER.ROT>
1

>  <SCORE.INTER.SOLV>
14.1774

>  <SCORE.INTER.VDW>
-17.9873

>  <SCORE.INTER.norm>
-1.03787

>  <SCORE.INTRA>
0.349921

>  <SCORE.INTRA.DIHEDRAL>
-0.0249231

>  <SCORE.INTRA.DIHEDRAL.0>
1.75624

>  <SCORE.INTRA.POLAR>
0

>  <SCORE.INTRA.POLAR.0>
0

>  <SCORE.INTRA.REPUL>
0

>  <SCORE.INTRA.REPUL.0>
0

>  <SCORE.INTRA.SOLV>
0.691259

>  <SCORE.INTRA.SOLV.lig_0>
-46.5296

>  <SCORE.INTRA.VDW>
0.0167531

>  <SCORE.INTRA.VDW.0>
-0.381873

>  <SCORE.INTRA.norm>
0.026917

>  <SCORE.RESTR>
0

>  <SCORE.RESTR.CAVITY>
0

>  <SCORE.RESTR.norm>
0

>  <SCORE.SYSTEM>
0

>  <SCORE.SYSTEM.CONST>
0

>  <SCORE.SYSTEM.DIHEDRAL>
0

>  <SCORE.SYSTEM.SOLV>
0

>  <SCORE.SYSTEM.norm>
0

>  <SCORE.heavy>
13

>  <SCORE.norm>
-1.01095

>  <RMSD>
4.260

$$$$
ligand
 OpenBabel02271912143D
libRbt.so/2013.1/901 2013/11/27
 13 14  0  0  0  0  0  0  0  0999 V2000
   -7.4938   31.5538   53.7975 N   0  0  0  0  0  0  0  0  0  0  0  0
   -8.6330   30.8058   53.4584 C   0  0  0  0  0  0  0  0  0  0  0  0
   -9.9255   31.4510   53.4331 N   0  0  0  0  0  0  0  0  0  0  0  0
   -8.5175   29.4713   53.1421 N   0  0  0  0  0  0  0  0  0  0  0  0
   -7.2648   28.8055   53.1561 C   0  0  0  0  0  0  0  0  0  0  0  0
   -6.0820   29.5371   53.5204 C   0  0  0  0  0  0  0  0  0  0  0  0
   -6.2410   30.9340   53.8540 C   0  0  0  0  0  0  0  0  0  0  0  0
   -5.1085   31.6225   54.1892 O   0  0  0  0  0  0  0  0  0  0  0  0
   -4.9514   28.6400   53.4530 C   0  0  0  0  0  0  0  0  0  0  0  0
   -5.4946   27.4110   53.0753 C   0  0  0  0  0  0  0  0  0  0  0  0
   -6.8613   27.5205   52.8933 N   0  0  0  0  0  0  0  0  0  0  0  0
   -3.5033   28.9546   53.7735 C   0  0  0  0  0  0  0  0  0  0  0  0
   -3.3274   29.6160   55.0646 N   0  0  0  0  0  0  0  0  0  0  0  0
  1  2  1  0  0  0  0
  1  7  1  0  0  0  0
  2  3  1  0  0  0  0
  2  4  2  0  0  0  0
  4  5  1  0  0  0  0
  5  6  2  0  0  0  0
  5 11  1  0  0  0  0
  6  7  1  0  0  0  0
  6  9  1  0  0  0  0
  7  8  2  0  0  0  0
  9 10  2  0  0  0  0
  9 12  1  0  0  0  0
 10 11  1  0  0  0  0
 12 13  1  0  0  0  0
M  END
>  <CHROM.1>
49.94384820,-6.39822687,29.76428103,53.62024826,-2.82304005,0.22505074,-2.85747562

>  <Name>
ligand

>  <RI>
0

>  <Rbt.Current_Directory>
/home/itssahil/PROJECTS/Mol_Feturizer/Test_systems_manuscript/rnas/4jf2

>  <Rbt.Executable>
rbdock ($Id: //depot/dev/client3/rdock/2013.1/src/exe/rbdock.cxx#4 $)

>  <Rbt.Library>
libRbt.so (2013.1, Build901 2013/11/27)

>  <Rbt.Parameter_File>
/export/apps/rDock/src/rDock_2013.1_src/data/scripts/dock_solv.prm

>  <Rbt.Receptor>
prm/pocket_docking_8.prm

>  <SCORE>
-13.1166

>  <SCORE.INTER>
-13.4579

>  <SCORE.INTER.CONST>
1

>  <SCORE.INTER.POLAR>
0

>  <SCORE.INTER.ROT>
1

>  <SCORE.INTER.SOLV>
14.2076

>  <SCORE.INTER.VDW>
-17.9745

>  <SCORE.INTER.norm>
-1.03523

>  <SCORE.INTRA>
0.34133

>  <SCORE.INTRA.DIHEDRAL>
-0.0266942

>  <SCORE.INTRA.DIHEDRAL.0>
1.75624

>  <SCORE.INTRA.POLAR>
0

>  <SCORE.INTRA.POLAR.0>
0

>  <SCORE.INTRA.REPUL>
0

>  <SCORE.INTRA.REPUL.0>
0

>  <SCORE.INTRA.SOLV>
0.682473

>  <SCORE.INTRA.SOLV.lig_0>
-46.5296

>  <SCORE.INTRA.VDW>
0.0134405

>  <SCORE.INTRA.VDW.0>
-0.381873

>  <SCORE.INTRA.norm>
0.0262562

>  <SCORE.RESTR>
0

>  <SCORE.RESTR.CAVITY>
0

>  <SCORE.RESTR.norm>
0

>  <SCORE.SYSTEM>
0

>  <SCORE.SYSTEM.CONST>
0

>  <SCORE.SYSTEM.DIHEDRAL>
0

>  <SCORE.SYSTEM.SOLV>
0

>  <SCORE.SYSTEM.norm>
0

>  <SCORE.heavy>
13

>  <SCORE.norm>
-1.00897

>  <RMSD>
4.260

$$$$
ligand
 OpenBabel02271912143D
libRbt.so/2013.1/901 2013/11/27
 13 14  0  0  0  0  0  0  0  0999 V2000
   -6.5633   29.8889   50.3993 N   0  0  0  0  0  0  0  0  0  0  0  0
   -6.6082   28.5341   50.0325 C   0  0  0  0  0  0  0  0  0  0  0  0
   -7.3371   28.1419   48.8483 N   0  0  0  0  0  0  0  0  0  0  0  0
   -5.9538   27.5887   50.7891 N   0  0  0  0  0  0  0  0  0  0  0  0
   -5.2283   27.9377   51.9573 C   0  0  0  0  0  0  0  0  0  0  0  0
   -5.1810   29.3132   52.3728 C   0  0  0  0  0  0  0  0  0  0  0  0
   -5.8855   30.2777   51.5596 C   0  0  0  0  0  0  0  0  0  0  0  0
   -5.8256   31.5840   51.9583 O   0  0  0  0  0  0  0  0  0  0  0  0
   -4.3843   29.3998   53.5750 C   0  0  0  0  0  0  0  0  0  0  0  0
   -4.0045   28.0842   53.8456 C   0  0  0  0  0  0  0  0  0  0  0  0
   -4.5004   27.2281   52.8791 N   0  0  0  0  0  0  0  0  0  0  0  0
   -4.0749   30.6405   54.3897 C   0  0  0  0  0  0  0  0  0  0  0  0
   -2.6794   30.7192   54.8159 N   0  0  0  0  0  0  0  0  0  0  0  0
  1  2  1  0  0  0  0
  1  7  1  0  0  0  0
  2  3  1  0  0  0  0
  2  4  2  0  0  0  0
  4  5  1  0  0  0  0
  5  6  2  0  0  0  0
  5 11  1  0  0  0  0
  6  7  1  0  0  0  0
  6  9  1  0  0  0  0
  7  8  2  0  0  0  0
  9 10  2  0  0  0  0
  9 12  1  0  0  0  0
 10 11  1  0  0  0  0
 12 13  1  0  0  0  0
M  END
>  <CHROM.1>
-136.85619196,-5.25702600,29.22562916,52.09997423,2.73026821,0.92237232,-2.97196910

>  <Name>
ligand

>  <RI>
0

>  <Rbt.Current_Directory>
/home/itssahil/PROJECTS/Mol_Feturizer/Test_systems_manuscript/rnas/4jf2

>  <Rbt.Executable>
rbdock ($Id: //depot/dev/client3/rdock/2013.1/src/exe/rbdock.cxx#4 $)

>  <Rbt.Library>
libRbt.so (2013.1, Build901 2013/11/27)

>  <Rbt.Parameter_File>
/export/apps/rDock/src/rDock_2013.1_src/data/scripts/dock_solv.prm

>  <Rbt.Receptor>
prm/blind_docking_100.prm

>  <SCORE>
-10.6632

>  <SCORE.INTER>
-10.1994

>  <SCORE.INTER.CONST>
1

>  <SCORE.INTER.POLAR>
0

>  <SCORE.INTER.ROT>
1

>  <SCORE.INTER.SOLV>
19.0753

>  <SCORE.INTER.VDW>
-17.4247

>  <SCORE.INTER.norm>
-0.784569

>  <SCORE.INTRA>
-0.464512

>  <SCORE.INTRA.DIHEDRAL>
-0.157535

>  <SCORE.INTRA.DIHEDRAL.0>
1.75624

>  <SCORE.INTRA.POLAR>
0

>  <SCORE.INTRA.POLAR.0>
0

>  <SCORE.INTRA.REPUL>
0

>  <SCORE.INTRA.REPUL.0>
0

>  <SCORE.INTRA.SOLV>
-1.04049

>  <SCORE.INTRA.SOLV.lig_0>
-46.5296

>  <SCORE.INTRA.VDW>
0.134502

>  <SCORE.INTRA.VDW.0>
-0.381873

>  <SCORE.INTRA.norm>
-0.0357317

>  <SCORE.RESTR>
0.000686452

>  <SCORE.RESTR.CAVITY>
0.000686452

>  <SCORE.RESTR.norm>
5.2804e-05

>  <SCORE.SYSTEM>
0

>  <SCORE.SYSTEM.CONST>
0

>  <SCORE.SYSTEM.DIHEDRAL>
0

>  <SCORE.SYSTEM.SOLV>
0

>  <SCORE.SYSTEM.norm>
0

>  <SCORE.heavy>
13

>  <SCORE.norm>
-0.820248

>  <RMSD>
4.564

$$$$
ligand
 OpenBabel02271912143D
libRbt.so/2013.1/901 2013/11/27
 13 14  0  0  0  0  0  0  0  0999 V2000
   -8.1108   30.3967   53.5363 N   0  0  0  0  0  0  0  0  0  0  0  0
   -8.1249   31.7642   53.8558 C   0  0  0  0  0  0  0  0  0  0  0  0
   -9.3722   32.4920   53.8108 N   0  0  0  0  0  0  0  0  0  0  0  0
   -6.9615   32.4034   54.2195 N   0  0  0  0  0  0  0  0  0  0  0  0
   -5.7192   31.7204   54.2749 C   0  0  0  0  0  0  0  0  0  0  0  0
   -5.6664   30.3251   53.9324 C   0  0  0  0  0  0  0  0  0  0  0  0
   -6.9050   29.6878   53.5478 C   0  0  0  0  0  0  0  0  0  0  0  0
   -6.8450   28.3586   53.2339 O   0  0  0  0  0  0  0  0  0  0  0  0
   -4.3016   29.8721   54.0720 C   0  0  0  0  0  0  0  0  0  0  0  0
   -3.5895   31.0052   54.4685 C   0  0  0  0  0  0  0  0  0  0  0  0
   -4.4372   32.0908   54.5946 N   0  0  0  0  0  0  0  0  0  0  0  0
   -3.7572   28.4840   53.7970 C   0  0  0  0  0  0  0  0  0  0  0  0
   -4.3246   27.8671   52.6001 N   0  0  0  0  0  0  0  0  0  0  0  0
  1  2  1  0  0  0  0
  1  7  1  0  0  0  0
  2  3  1  0  0  0  0
  2  4  2  0  0  0  0
  4  5  1  0  0  0  0
  5  6  2  0  0  0  0
  5 11  1  0  0  0  0
  6  7  1  0  0  0  0
  6  9  1  0  0  0  0
  7  8  2  0  0  0  0
  9 10  2  0  0  0  0
  9 12  1  0  0  0  0
 10 11  1  0  0  0  0
 12 13  1  0  0  0  0
M  END
>  <CHROM.1>
40.44706976,-6.03852944,30.45637890,53.82200680,2.52509898,-0.15748297,0.32221232

>  <Name>
ligand

>  <RI>
-1

>  <Rbt.Current_Directory>
/home/itssahil/PROJECTS/Mol_Feturizer/Test_systems_manuscript/rnas/4jf2

>  <Rbt.Executable>
rbdock ($Id: //depot/dev/client3/rdock/2013.1/src/exe/rbdock.cxx#4 $)

>  <Rbt.Library>
libRbt.so (2013.1, Build901 2013/11/27)

>  <Rbt.Parameter_File>
/export/apps/rDock/src/rDock_2013.1_src/data/scripts/dock_solv.prm

>  <Rbt.Receptor>
prm/pocket_docking_7.prm

>  <SCORE>
-12.3371

>  <SCORE.INTER>
-12.9941

>  <SCORE.INTER.CONST>
1

>  <SCORE.INTER.POLAR>
0

>  <SCORE.INTER.ROT>
1

>  <SCORE.INTER.SOLV>
13.1176

>  <SCORE.INTER.VDW>
-17.302

>  <SCORE.INTER.norm>
-0.999548

>  <SCORE.INTRA>
0.656981

>  <SCORE.INTRA.DIHEDRAL>
0.015001

>  <SCORE.INTRA.DIHEDRAL.0>
1.75624

>  <SCORE.INTRA.POLAR>
0

>  <SCORE.INTRA.POLAR.0>
0

>  <SCORE.INTRA.REPUL>
0

>  <SCORE.INTRA.REPUL.0>
0

>  <SCORE.INTRA.SOLV>
0.915717

>  <SCORE.INTRA.SOLV.lig_0>
-46.5296

>  <SCORE.INTRA.VDW>
0.191622

>  <SCORE.INTRA.VDW.0>
-0.381873

>  <SCORE.INTRA.norm>
0.050537

>  <SCORE.RESTR>
0

>  <SCORE.RESTR.CAVITY>
0

>  <SCORE.RESTR.norm>
0

>  <SCORE.SYSTEM>
0

>  <SCORE.SYSTEM.CONST>
0

>  <SCORE.SYSTEM.DIHEDRAL>
0

>  <SCORE.SYSTEM.SOLV>
0

>  <SCORE.SYSTEM.norm>
0

>  <SCORE.heavy>
13

>  <SCORE.norm>
-0.949011

>  <RMSD>
4.585

$$$$
ligand
 OpenBabel02271912143D
libRbt.so/2013.1/901 2013/11/27
 13 14  0  0  0  0  0  0  0  0999 V2000
   -6.1496   29.2359   51.7202 N   0  0  0  0  0  0  0  0  0  0  0  0
   -6.9698   30.3745   51.6642 C   0  0  0  0  0  0  0  0  0  0  0  0
   -8.0841   30.4033   50.7450 N   0  0  0  0  0  0  0  0  0  0  0  0
   -6.7206   31.4499   52.4862 N   0  0  0  0  0  0  0  0  0  0  0  0
   -5.6361   31.4560   53.4008 C   0  0  0  0  0  0  0  0  0  0  0  0
   -4.7640   30.3150   53.4674 C   0  0  0  0  0  0  0  0  0  0  0  0
   -5.0504   29.2072   52.5849 C   0  0  0  0  0  0  0  0  0  0  0  0
   -4.2208   28.1235   52.6636 O   0  0  0  0  0  0  0  0  0  0  0  0
   -3.7545   30.5697   54.4691 C   0  0  0  0  0  0  0  0  0  0  0  0
   -4.0423   31.8493   54.9467 C   0  0  0  0  0  0  0  0  0  0  0  0
   -5.1615   32.3617   54.3160 N   0  0  0  0  0  0  0  0  0  0  0  0
   -2.6061   29.6659   54.8728 C   0  0  0  0  0  0  0  0  0  0  0  0
   -1.6143   30.3319   55.7142 N   0  0  0  0  0  0  0  0  0  0  0  0
  1  2  1  0  0  0  0
  1  7  1  0  0  0  0
  2  3  1  0  0  0  0
  2  4  2  0  0  0  0
  4  5  1  0  0  0  0
  5  6  2  0  0  0  0
  5 11  1  0  0  0  0
  6  7  1  0  0  0  0
  6  9  1  0  0  0  0
  7  8  2  0  0  0  0
  9 10  2  0  0  0  0
  9 12  1  0  0  0  0
 10 11  1  0  0  0  0
 12 13  1  0  0  0  0
M  END
>  <CHROM.1>
168.10522954,-4.96980427,30.36935339,53.29659704,-2.80379726,-0.60647440
0.51661990

>  <Name>
ligand

>  <RI>
-1

>  <Rbt.Current_Directory>
/home/itssahil/PROJECTS/Mol_Feturizer/Test_systems_manuscript/rnas/4jf2

>  <Rbt.Executable>
rbdock ($Id: //depot/dev/client3/rdock/2013.1/src/exe/rbdock.cxx#4 $)

>  <Rbt.Library>
libRbt.so (2013.1, Build901 2013/11/27)

>  <Rbt.Parameter_File>
/export/apps/rDock/src/rDock_2013.1_src/data/scripts/dock_solv.prm

>  <Rbt.Receptor>
prm/pocket_docking_7.prm

>  <SCORE>
-10.4459

>  <SCORE.INTER>
-10.126

>  <SCORE.INTER.CONST>
1

>  <SCORE.INTER.POLAR>
0

>  <SCORE.INTER.ROT>
1

>  <SCORE.INTER.SOLV>
14.5766

>  <SCORE.INTER.VDW>
-15.8762

>  <SCORE.INTER.norm>
-0.778922

>  <SCORE.INTRA>
-0.319878

>  <SCORE.INTRA.DIHEDRAL>
-0.0173126

>  <SCORE.INTRA.DIHEDRAL.0>
1.75624

>  <SCORE.INTRA.POLAR>
0

>  <SCORE.INTRA.POLAR.0>
0

>  <SCORE.INTRA.REPUL>
0

>  <SCORE.INTRA.REPUL.0>
0

>  <SCORE.INTRA.SOLV>
-1.01665

>  <SCORE.INTRA.SOLV.lig_0>
-46.5296

>  <SCORE.INTRA.VDW>
0.197101

>  <SCORE.INTRA.VDW.0>
-0.381873

>  <SCORE.INTRA.norm>
-0.024606

>  <SCORE.RESTR>
0

>  <SCORE.RESTR.CAVITY>
0

>  <SCORE.RESTR.norm>
0

>  <SCORE.SYSTEM>
0

>  <SCORE.SYSTEM.CONST>
0

>  <SCORE.SYSTEM.DIHEDRAL>
0

>  <SCORE.SYSTEM.SOLV>
0

>  <SCORE.SYSTEM.norm>
0

>  <SCORE.heavy>
13

>  <SCORE.norm>
-0.803528

>  <RMSD>
4.919

$$$$
ligand
 OpenBabel02271912143D
libRbt.so/2013.1/901 2013/11/27
 13 14  0  0  0  0  0  0  0  0999 V2000
   -8.2369   29.8536   53.3137 N   0  0  0  0  0  0  0  0  0  0  0  0
   -8.7152   31.1603   53.5040 C   0  0  0  0  0  0  0  0  0  0  0  0
  -10.1098   31.4492   53.2612 N   0  0  0  0  0  0  0  0  0  0  0  0
   -7.8644   32.1552   53.9289 N   0  0  0  0  0  0  0  0  0  0  0  0
   -6.4897   31.9075   54.1773 C   0  0  0  0  0  0  0  0  0  0  0  0
   -5.9633   30.5857   53.9709 C   0  0  0  0  0  0  0  0  0  0  0  0
   -6.8828   29.5675   53.5172 C   0  0  0  0  0  0  0  0  0  0  0  0
   -6.3739   28.3120   53.3338 O   0  0  0  0  0  0  0  0  0  0  0  0
   -4.5553   30.5992   54.2947 C   0  0  0  0  0  0  0  0  0  0  0  0
   -4.2869   31.9195   54.6593 C   0  0  0  0  0  0  0  0  0  0  0  0
   -5.4381   32.6835   54.5957 N   0  0  0  0  0  0  0  0  0  0  0  0
   -3.5769   29.4444   54.2063 C   0  0  0  0  0  0  0  0  0  0  0  0
   -2.3996   29.6179   55.0543 N   0  0  0  0  0  0  0  0  0  0  0  0
  1  2  1  0  0  0  0
  1  7  1  0  0  0  0
  2  3  1  0  0  0  0
  2  4  2  0  0  0  0
  4  5  1  0  0  0  0
  5  6  2  0  0  0  0
  5 11  1  0  0  0  0
  6  7  1  0  0  0  0
  6  9  1  0  0  0  0
  7  8  2  0  0  0  0
  9 10  2  0  0  0  0
  9 12  1  0  0  0  0
 10 11  1  0  0  0  0
 12 13  1  0  0  0  0
M  END
>  <CHROM.1>
-157.97553472,-6.22908982,30.66699999,53.97601686,3.01241211,-0.24378928
0.22541945

>  <Name>
ligand

>  <RI>
0

>  <Rbt.Current_Directory>
/home/itssahil/PROJECTS/Mol_Feturizer/Test_systems_manuscript/rnas/4jf2

>  <Rbt.Executable>
rbdock ($Id: //depot/dev/client3/rdock/2013.1/src/exe/rbdock.cxx#4 $)

>  <Rbt.Library>
libRbt.so (2013.1, Build901 2013/11/27)

>  <Rbt.Parameter_File>
/export/apps/rDock/src/rDock_2013.1_src/data/scripts/dock_solv.prm

>  <Rbt.Receptor>
prm/pocket_docking_8.prm

>  <SCORE>
-11.878

>  <SCORE.INTER>
-11.45

>  <SCORE.INTER.CONST>
1

>  <SCORE.INTER.POLAR>
0

>  <SCORE.INTER.ROT>
1

>  <SCORE.INTER.SOLV>
14.8669

>  <SCORE.INTER.VDW>
-16.8556

>  <SCORE.INTER.norm>
-0.880766

>  <SCORE.INTRA>
-0.428018

>  <SCORE.INTRA.DIHEDRAL>
-0.181024

>  <SCORE.INTRA.DIHEDRAL.0>
1.75624

>  <SCORE.INTRA.POLAR>
0

>  <SCORE.INTRA.POLAR.0>
0

>  <SCORE.INTRA.REPUL>
0

>  <SCORE.INTRA.REPUL.0>
0

>  <SCORE.INTRA.SOLV>
-1.02772

>  <SCORE.INTRA.SOLV.lig_0>
-46.5296

>  <SCORE.INTRA.VDW>
0.176353

>  <SCORE.INTRA.VDW.0>
-0.381873

>  <SCORE.INTRA.norm>
-0.0329245

>  <SCORE.RESTR>
0

>  <SCORE.RESTR.CAVITY>
0

>  <SCORE.RESTR.norm>
0

>  <SCORE.SYSTEM>
0

>  <SCORE.SYSTEM.CONST>
0

>  <SCORE.SYSTEM.DIHEDRAL>
0

>  <SCORE.SYSTEM.SOLV>
0

>  <SCORE.SYSTEM.norm>
0

>  <SCORE.heavy>
13

>  <SCORE.norm>
-0.91369

>  <RMSD>
5.044

$$$$
ligand
 OpenBabel02271912143D
libRbt.so/2013.1/901 2013/11/27
 13 14  0  0  0  0  0  0  0  0999 V2000
   -8.3096   29.9607   53.2723 N   0  0  0  0  0  0  0  0  0  0  0  0
   -8.7787   31.2647   53.4998 C   0  0  0  0  0  0  0  0  0  0  0  0
  -10.1699   31.5717   53.2596 N   0  0  0  0  0  0  0  0  0  0  0  0
   -7.9223   32.2396   53.9584 N   0  0  0  0  0  0  0  0  0  0  0  0
   -6.5507   31.9738   54.2055 C   0  0  0  0  0  0  0  0  0  0  0  0
   -6.0336   30.6547   53.9616 C   0  0  0  0  0  0  0  0  0  0  0  0
   -6.9588   29.6579   53.4732 C   0  0  0  0  0  0  0  0  0  0  0  0
   -6.4586   28.4046   53.2543 O   0  0  0  0  0  0  0  0  0  0  0  0
   -4.6271   30.6474   54.2920 C   0  0  0  0  0  0  0  0  0  0  0  0
   -4.3503   31.9540   54.6975 C   0  0  0  0  0  0  0  0  0  0  0  0
   -5.4952   32.7286   54.6517 N   0  0  0  0  0  0  0  0  0  0  0  0
   -3.6571   29.4882   54.1732 C   0  0  0  0  0  0  0  0  0  0  0  0
   -2.4786   29.6309   55.0252 N   0  0  0  0  0  0  0  0  0  0  0  0
  1  2  1  0  0  0  0
  1  7  1  0  0  0  0
  2  3  1  0  0  0  0
  2  4  2  0  0  0  0
  4  5  1  0  0  0  0
  5  6  2  0  0  0  0
  5 11  1  0  0  0  0
  6  7  1  0  0  0  0
  6  9  1  0  0  0  0
  7  8  2  0  0  0  0
  9 10  2  0  0  0  0
  9 12  1  0  0  0  0
 10 11  1  0  0  0  0
 12 13  1  0  0  0  0
M  END
>  <CHROM.1>
-158.33326152,-6.29842899,30.73827085,53.96744519,3.00607917,-0.24963168
0.25418411

>  <Name>
ligand

>  <RI>
-1

>  <Rbt.Current_Directory>
/home/itssahil/PROJECTS/Mol_Feturizer/Test_systems_manuscript/rnas/4jf2

>  <Rbt.Executable>
rbdock ($Id: //depot/dev/client3/rdock/2013.1/src/exe/rbdock.cxx#4 $)

>  <Rbt.Library>
libRbt.so (2013.1, Build901 2013/11/27)

>  <Rbt.Parameter_File>
/export/apps/rDock/src/rDock_2013.1_src/data/scripts/dock_solv.prm

>  <Rbt.Receptor>
prm/pocket_docking_6.prm

>  <SCORE>
-11.8493

>  <SCORE.INTER>
-11.4224

>  <SCORE.INTER.CONST>
1

>  <SCORE.INTER.POLAR>
0

>  <SCORE.INTER.ROT>
1

>  <SCORE.INTER.SOLV>
14.2416

>  <SCORE.INTER.VDW>
-16.6288

>  <SCORE.INTER.norm>
-0.878644

>  <SCORE.INTRA>
-0.426894

>  <SCORE.INTRA.DIHEDRAL>
-0.180287

>  <SCORE.INTRA.DIHEDRAL.0>
1.75624

>  <SCORE.INTRA.POLAR>
0

>  <SCORE.INTRA.POLAR.0>
0

>  <SCORE.INTRA.REPUL>
0

>  <SCORE.INTRA.REPUL.0>
0

>  <SCORE.INTRA.SOLV>
-1.02752

>  <SCORE.INTRA.SOLV.lig_0>
-46.5296

>  <SCORE.INTRA.VDW>
0.17701

>  <SCORE.INTRA.VDW.0>
-0.381873

>  <SCORE.INTRA.norm>
-0.032838

>  <SCORE.RESTR>
0

>  <SCORE.RESTR.CAVITY>
0

>  <SCORE.RESTR.norm>
0

>  <SCORE.SYSTEM>
0

>  <SCORE.SYSTEM.CONST>
0

>  <SCORE.SYSTEM.DIHEDRAL>
0

>  <SCORE.SYSTEM.SOLV>
0

>  <SCORE.SYSTEM.norm>
0

>  <SCORE.heavy>
13

>  <SCORE.norm>
-0.911482

>  <RMSD>
5.067

$$$$
ligand
 OpenBabel02271912143D
libRbt.so/2013.1/901 2013/11/27
 13 14  0  0  0  0  0  0  0  0999 V2000
    4.6134   29.1336   54.7592 N   0  0  0  0  0  0  0  0  0  0  0  0
    4.2335   30.4845   54.8111 C   0  0  0  0  0  0  0  0  0  0  0  0
    4.5206   31.2587   55.9967 N   0  0  0  0  0  0  0  0  0  0  0  0
    3.6025   31.0693   53.7368 N   0  0  0  0  0  0  0  0  0  0  0  0
    3.3053   30.3398   52.5567 C   0  0  0  0  0  0  0  0  0  0  0  0
    3.6610   28.9490   52.4797 C   0  0  0  0  0  0  0  0  0  0  0  0
    4.3152   28.3657   53.6286 C   0  0  0  0  0  0  0  0  0  0  0  0
    4.6579   27.0452   53.5408 O   0  0  0  0  0  0  0  0  0  0  0  0
    3.2570   28.4452   51.1873 C   0  0  0  0  0  0  0  0  0  0  0  0
    2.6610   29.5354   50.5511 C   0  0  0  0  0  0  0  0  0  0  0  0
    2.7023   30.6532   51.3646 N   0  0  0  0  0  0  0  0  0  0  0  0
    3.4025   27.0307   50.6614 C   0  0  0  0  0  0  0  0  0  0  0  0
    4.3238   26.9255   49.5321 N   0  0  0  0  0  0  0  0  0  0  0  0
  1  2  1  0  0  0  0
  1  7  1  0  0  0  0
  2  3  1  0  0  0  0
  2  4  2  0  0  0  0
  4  5  1  0  0  0  0
  5  6  2  0  0  0  0
  5 11  1  0  0  0  0
  6  7  1  0  0  0  0
  6  9  1  0  0  0  0
  7  8  2  0  0  0  0
  9 10  2  0  0  0  0
  9 12  1  0  0  0  0
 10 11  1  0  0  0  0
 12 13  1  0  0  0  0
M  END
>  <CHROM.1>
-114.24831339,3.81402658,29.13449155,52.69701062,-1.30854489,1.08965136,-2.37246026

>  <Name>
ligand

>  <RI>
0

>  <Rbt.Current_Directory>
/home/itssahil/PROJECTS/Mol_Feturizer/Test_systems_manuscript/rnas/4jf2

>  <Rbt.Executable>
rbdock ($Id: //depot/dev/client3/rdock/2013.1/src/exe/rbdock.cxx#4 $)

>  <Rbt.Library>
libRbt.so (2013.1, Build901 2013/11/27)

>  <Rbt.Parameter_File>
/export/apps/rDock/src/rDock_2013.1_src/data/scripts/dock_solv.prm

>  <Rbt.Receptor>
prm/blind_docking_100.prm

>  <SCORE>
-6.22735

>  <SCORE.INTER>
-5.90095

>  <SCORE.INTER.CONST>
1

>  <SCORE.INTER.POLAR>
0

>  <SCORE.INTER.ROT>
1

>  <SCORE.INTER.SOLV>
5.84836

>  <SCORE.INTER.VDW>
-10.1501

>  <SCORE.INTER.norm>
-0.45392

>  <SCORE.INTRA>
-0.326396

>  <SCORE.INTRA.DIHEDRAL>
-0.0361352

>  <SCORE.INTRA.DIHEDRAL.0>
1.75624

>  <SCORE.INTRA.POLAR>
0

>  <SCORE.INTRA.POLAR.0>
0

>  <SCORE.INTRA.REPUL>
0

>  <SCORE.INTRA.REPUL.0>
0

>  <SCORE.INTRA.SOLV>
-0.802843

>  <SCORE.INTRA.SOLV.lig_0>
-46.5296

>  <SCORE.INTRA.VDW>
0.0930932

>  <SCORE.INTRA.VDW.0>
-0.381873

>  <SCORE.INTRA.norm>
-0.0251074

>  <SCORE.RESTR>
0

>  <SCORE.RESTR.CAVITY>
0

>  <SCORE.RESTR.norm>
0

>  <SCORE.SYSTEM>
0

>  <SCORE.SYSTEM.CONST>
0

>  <SCORE.SYSTEM.DIHEDRAL>
0

>  <SCORE.SYSTEM.SOLV>
0

>  <SCORE.SYSTEM.norm>
0

>  <SCORE.heavy>
13

>  <SCORE.norm>
-0.479027

>  <RMSD>
9.417

$$$$
ligand
 OpenBabel02271912143D
libRbt.so/2013.1/901 2013/11/27
 13 14  0  0  0  0  0  0  0  0999 V2000
    4.7886   30.6121   50.2024 N   0  0  0  0  0  0  0  0  0  0  0  0
    3.8950   30.3077   51.2421 C   0  0  0  0  0  0  0  0  0  0  0  0
    4.3605   30.3322   52.6096 N   0  0  0  0  0  0  0  0  0  0  0  0
    2.5835   29.9992   50.9613 N   0  0  0  0  0  0  0  0  0  0  0  0
    2.0918   29.9661   49.6308 C   0  0  0  0  0  0  0  0  0  0  0  0
    2.9861   30.2510   48.5419 C   0  0  0  0  0  0  0  0  0  0  0  0
    4.3577   30.5634   48.8725 C   0  0  0  0  0  0  0  0  0  0  0  0
    5.1969   30.8424   47.8301 O   0  0  0  0  0  0  0  0  0  0  0  0
    2.2449   30.1554   47.3053 C   0  0  0  0  0  0  0  0  0  0  0  0
    0.9519   29.7996   47.6924 C   0  0  0  0  0  0  0  0  0  0  0  0
    0.8686   29.6988   49.0693 N   0  0  0  0  0  0  0  0  0  0  0  0
    2.7711   30.3481   45.8966 C   0  0  0  0  0  0  0  0  0  0  0  0
    2.6270   29.1602   45.0580 N   0  0  0  0  0  0  0  0  0  0  0  0
  1  2  1  0  0  0  0
  1  7  1  0  0  0  0
  2  3  1  0  0  0  0
  2  4  2  0  0  0  0
  4  5  1  0  0  0  0
  5  6  2  0  0  0  0
  5 11  1  0  0  0  0
  6  7  1  0  0  0  0
  6  9  1  0  0  0  0
  7  8  2  0  0  0  0
  9 10  2  0  0  0  0
  9 12  1  0  0  0  0
 10 11  1  0  0  0  0
 12 13  1  0  0  0  0
M  END
>  <CHROM.1>
119.12851887,3.10137133,30.16339620,48.82448966,-1.26552907,-0.23929920,-1.59607634

>  <Name>
ligand

>  <RI>
-1

>  <Rbt.Current_Directory>
/home/itssahil/PROJECTS/Mol_Feturizer/Test_systems_manuscript/rnas/4jf2

>  <Rbt.Executable>
rbdock ($Id: //depot/dev/client3/rdock/2013.1/src/exe/rbdock.cxx#4 $)

>  <Rbt.Library>
libRbt.so (2013.1, Build901 2013/11/27)

>  <Rbt.Parameter_File>
/export/apps/rDock/src/rDock_2013.1_src/data/scripts/dock_solv.prm

>  <Rbt.Receptor>
prm/blind_docking_80.prm

>  <SCORE>
-7.79279

>  <SCORE.INTER>
-7.42047

>  <SCORE.INTER.CONST>
1

>  <SCORE.INTER.POLAR>
0

>  <SCORE.INTER.ROT>
1

>  <SCORE.INTER.SOLV>
3.81095

>  <SCORE.INTER.VDW>
-10.484

>  <SCORE.INTER.norm>
-0.570805

>  <SCORE.INTRA>
-0.372324

>  <SCORE.INTRA.DIHEDRAL>
-0.073916

>  <SCORE.INTRA.DIHEDRAL.0>
1.75624

>  <SCORE.INTRA.POLAR>
0

>  <SCORE.INTRA.POLAR.0>
0

>  <SCORE.INTRA.REPUL>
0

>  <SCORE.INTRA.REPUL.0>
0

>  <SCORE.INTRA.SOLV>
-0.879077

>  <SCORE.INTRA.SOLV.lig_0>
-46.5296

>  <SCORE.INTRA.VDW>
0.104173

>  <SCORE.INTRA.VDW.0>
-0.381873

>  <SCORE.INTRA.norm>
-0.0286403

>  <SCORE.RESTR>
0

>  <SCORE.RESTR.CAVITY>
0

>  <SCORE.RESTR.norm>
0

>  <SCORE.SYSTEM>
0

>  <SCORE.SYSTEM.CONST>
0

>  <SCORE.SYSTEM.DIHEDRAL>
0

>  <SCORE.SYSTEM.SOLV>
0

>  <SCORE.SYSTEM.norm>
0

>  <SCORE.heavy>
13

>  <SCORE.norm>
-0.599445

>  <RMSD>
9.880

$$$$
ligand
 OpenBabel02271912143D
libRbt.so/2013.1/901 2013/11/27
 13 14  0  0  0  0  0  0  0  0999 V2000
    4.8171   30.1853   50.2798 N   0  0  0  0  0  0  0  0  0  0  0  0
    3.8932   29.6956   51.2172 C   0  0  0  0  0  0  0  0  0  0  0  0
    4.3352   29.3907   52.5586 N   0  0  0  0  0  0  0  0  0  0  0  0
    2.5748   29.5180   50.8641 N   0  0  0  0  0  0  0  0  0  0  0  0
    2.1057   29.8073   49.5568 C   0  0  0  0  0  0  0  0  0  0  0  0
    3.0303   30.2891   48.5670 C   0  0  0  0  0  0  0  0  0  0  0  0
    4.4079   30.4565   48.9699 C   0  0  0  0  0  0  0  0  0  0  0  0
    5.2764   30.9246   48.0236 O   0  0  0  0  0  0  0  0  0  0  0  0
    2.3076   30.5078   47.3352 C   0  0  0  0  0  0  0  0  0  0  0  0
    0.9940   30.1330   47.6222 C   0  0  0  0  0  0  0  0  0  0  0  0
    0.8823   29.7290   48.9402 N   0  0  0  0  0  0  0  0  0  0  0  0
    2.8662   30.9884   46.0102 C   0  0  0  0  0  0  0  0  0  0  0  0
    3.1216   29.9052   45.0633 N   0  0  0  0  0  0  0  0  0  0  0  0
  1  2  1  0  0  0  0
  1  7  1  0  0  0  0
  2  3  1  0  0  0  0
  2  4  2  0  0  0  0
  4  5  1  0  0  0  0
  5  6  2  0  0  0  0
  5 11  1  0  0  0  0
  6  7  1  0  0  0  0
  6  9  1  0  0  0  0
  7  8  2  0  0  0  0
  9 10  2  0  0  0  0
  9 12  1  0  0  0  0
 10 11  1  0  0  0  0
 12 13  1  0  0  0  0
M  END
>  <CHROM.1>
98.83792303,3.17217833,30.12506619,48.83473261,-1.31726624,-0.17887095,-1.38548872

>  <Name>
ligand

>  <RI>
0

>  <Rbt.Current_Directory>
/home/itssahil/PROJECTS/Mol_Feturizer/Test_systems_manuscript/rnas/4jf2

>  <Rbt.Executable>
rbdock ($Id: //depot/dev/client3/rdock/2013.1/src/exe/rbdock.cxx#4 $)

>  <Rbt.Library>
libRbt.so (2013.1, Build901 2013/11/27)

>  <Rbt.Parameter_File>
/export/apps/rDock/src/rDock_2013.1_src/data/scripts/dock_solv.prm

>  <Rbt.Receptor>
prm/blind_docking_100.prm

>  <SCORE>
-7.78163

>  <SCORE.INTER>
-7.46917

>  <SCORE.INTER.CONST>
1

>  <SCORE.INTER.POLAR>
0

>  <SCORE.INTER.ROT>
1

>  <SCORE.INTER.SOLV>
2.60873

>  <SCORE.INTER.VDW>
-10.1157

>  <SCORE.INTER.norm>
-0.574552

>  <SCORE.INTRA>
-0.312455

>  <SCORE.INTRA.DIHEDRAL>
-0.172567

>  <SCORE.INTRA.DIHEDRAL.0>
1.75624

>  <SCORE.INTRA.POLAR>
0

>  <SCORE.INTRA.POLAR.0>
0

>  <SCORE.INTRA.REPUL>
0

>  <SCORE.INTRA.REPUL.0>
0

>  <SCORE.INTRA.SOLV>
-0.578419

>  <SCORE.INTRA.SOLV.lig_0>
-46.5296

>  <SCORE.INTRA.VDW>
0.0630382

>  <SCORE.INTRA.VDW.0>
-0.381873

>  <SCORE.INTRA.norm>
-0.024035

>  <SCORE.RESTR>
0

>  <SCORE.RESTR.CAVITY>
0

>  <SCORE.RESTR.norm>
0

>  <SCORE.SYSTEM>
0

>  <SCORE.SYSTEM.CONST>
0

>  <SCORE.SYSTEM.DIHEDRAL>
0

>  <SCORE.SYSTEM.SOLV>
0

>  <SCORE.SYSTEM.norm>
0

>  <SCORE.heavy>
13

>  <SCORE.norm>
-0.598587

>  <RMSD>
9.958

$$$$
ligand
 OpenBabel02271912143D
libRbt.so/2013.1/901 2013/11/27
 13 14  0  0  0  0  0  0  0  0999 V2000
    3.9628   31.5678   45.8701 N   0  0  0  0  0  0  0  0  0  0  0  0
    2.7352   31.7431   45.2111 C   0  0  0  0  0  0  0  0  0  0  0  0
    2.7063   32.4011   43.9252 N   0  0  0  0  0  0  0  0  0  0  0  0
    1.5702   31.2821   45.7808 N   0  0  0  0  0  0  0  0  0  0  0  0
    1.5611   30.6312   47.0414 C   0  0  0  0  0  0  0  0  0  0  0  0
    2.7982   30.4555   47.7525 C   0  0  0  0  0  0  0  0  0  0  0  0
    4.0007   30.9584   47.1287 C   0  0  0  0  0  0  0  0  0  0  0  0
    5.1725   30.7771   47.8091 O   0  0  0  0  0  0  0  0  0  0  0  0
    2.5183   29.7694   48.9929 C   0  0  0  0  0  0  0  0  0  0  0  0
    1.1355   29.5796   48.9901 C   0  0  0  0  0  0  0  0  0  0  0  0
    0.5793   30.0841   47.8286 N   0  0  0  0  0  0  0  0  0  0  0  0
    3.5044   29.3882   50.0796 C   0  0  0  0  0  0  0  0  0  0  0  0
    3.8151   27.9606   50.1035 N   0  0  0  0  0  0  0  0  0  0  0  0
  1  2  1  0  0  0  0
  1  7  1  0  0  0  0
  2  3  1  0  0  0  0
  2  4  2  0  0  0  0
  4  5  1  0  0  0  0
  5  6  2  0  0  0  0
  5 11  1  0  0  0  0
  6  7  1  0  0  0  0
  6  9  1  0  0  0  0
  7  8  2  0  0  0  0
  9 10  2  0  0  0  0
  9 12  1  0  0  0  0
 10 11  1  0  0  0  0
 12 13  1  0  0  0  0
M  END
>  <CHROM.1>
-105.59474087,2.82363159,30.50948870,47.42224540,-1.63930927,0.08418382,2.12421645

>  <Name>
ligand

>  <RI>
-1

>  <Rbt.Current_Directory>
/home/itssahil/PROJECTS/Mol_Feturizer/Test_systems_manuscript/rnas/4jf2

>  <Rbt.Executable>
rbdock ($Id: //depot/dev/client3/rdock/2013.1/src/exe/rbdock.cxx#4 $)

>  <Rbt.Library>
libRbt.so (2013.1, Build901 2013/11/27)

>  <Rbt.Parameter_File>
/export/apps/rDock/src/rDock_2013.1_src/data/scripts/dock_solv.prm

>  <Rbt.Receptor>
prm/blind_docking_80.prm

>  <SCORE>
-8.26928

>  <SCORE.INTER>
-8.01198

>  <SCORE.INTER.CONST>
1

>  <SCORE.INTER.POLAR>
0

>  <SCORE.INTER.ROT>
1

>  <SCORE.INTER.SOLV>
4.71166

>  <SCORE.INTER.VDW>
-11.1785

>  <SCORE.INTER.norm>
-0.616306

>  <SCORE.INTRA>
-0.257301

>  <SCORE.INTRA.DIHEDRAL>
0.00540346

>  <SCORE.INTRA.DIHEDRAL.0>
1.75624

>  <SCORE.INTRA.POLAR>
0

>  <SCORE.INTRA.POLAR.0>
0

>  <SCORE.INTRA.REPUL>
0

>  <SCORE.INTRA.REPUL.0>
0

>  <SCORE.INTRA.SOLV>
-0.673248

>  <SCORE.INTRA.SOLV.lig_0>
-46.5296

>  <SCORE.INTRA.VDW>
0.0766213

>  <SCORE.INTRA.VDW.0>
-0.381873

>  <SCORE.INTRA.norm>
-0.0197924

>  <SCORE.RESTR>
0

>  <SCORE.RESTR.CAVITY>
0

>  <SCORE.RESTR.norm>
0

>  <SCORE.SYSTEM>
0

>  <SCORE.SYSTEM.CONST>
0

>  <SCORE.SYSTEM.DIHEDRAL>
0

>  <SCORE.SYSTEM.SOLV>
0

>  <SCORE.SYSTEM.norm>
0

>  <SCORE.heavy>
13

>  <SCORE.norm>
-0.636099

>  <RMSD>
10.830

$$$$
ligand
 OpenBabel02271912143D
libRbt.so/2013.1/901 2013/11/27
 13 14  0  0  0  0  0  0  0  0999 V2000
    3.9343   31.5291   45.7995 N   0  0  0  0  0  0  0  0  0  0  0  0
    2.7115   31.7358   45.1405 C   0  0  0  0  0  0  0  0  0  0  0  0
    2.7004   32.3846   43.8496 N   0  0  0  0  0  0  0  0  0  0  0  0
    1.5341   31.3139   45.7149 N   0  0  0  0  0  0  0  0  0  0  0  0
    1.5075   30.6732   46.9805 C   0  0  0  0  0  0  0  0  0  0  0  0
    2.7397   30.4663   47.6916 C   0  0  0  0  0  0  0  0  0  0  0  0
    3.9557   30.9286   47.0627 C   0  0  0  0  0  0  0  0  0  0  0  0
    5.1225   30.7178   47.7431 O   0  0  0  0  0  0  0  0  0  0  0  0
    2.4412   29.7983   48.9375 C   0  0  0  0  0  0  0  0  0  0  0  0
    1.0533   29.6495   48.9376 C   0  0  0  0  0  0  0  0  0  0  0  0
    0.5109   30.1614   47.7729 N   0  0  0  0  0  0  0  0  0  0  0  0
    3.4170   29.3962   50.0260 C   0  0  0  0  0  0  0  0  0  0  0  0
    3.7768   27.9806   49.9859 N   0  0  0  0  0  0  0  0  0  0  0  0
  1  2  1  0  0  0  0
  1  7  1  0  0  0  0
  2  3  1  0  0  0  0
  2  4  2  0  0  0  0
  4  5  1  0  0  0  0
  5  6  2  0  0  0  0
  5 11  1  0  0  0  0
  6  7  1  0  0  0  0
  6  9  1  0  0  0  0
  7  8  2  0  0  0  0
  9 10  2  0  0  0  0
  9 12  1  0  0  0  0
 10 11  1  0  0  0  0
 12 13  1  0  0  0  0
M  END
>  <CHROM.1>
-100.47850526,2.77373051,30.51860898,47.35481939,-1.63340121,0.05321825,2.11595418

>  <Name>
ligand

>  <RI>
-1

>  <Rbt.Current_Directory>
/home/itssahil/PROJECTS/Mol_Feturizer/Test_systems_manuscript/rnas/4jf2

>  <Rbt.Executable>
rbdock ($Id: //depot/dev/client3/rdock/2013.1/src/exe/rbdock.cxx#4 $)

>  <Rbt.Library>
libRbt.so (2013.1, Build901 2013/11/27)

>  <Rbt.Parameter_File>
/export/apps/rDock/src/rDock_2013.1_src/data/scripts/dock_solv.prm

>  <Rbt.Receptor>
prm/blind_docking_80.prm

>  <SCORE>
-8.21982

>  <SCORE.INTER>
-8.00162

>  <SCORE.INTER.CONST>
1

>  <SCORE.INTER.POLAR>
0

>  <SCORE.INTER.ROT>
1

>  <SCORE.INTER.SOLV>
4.69089

>  <SCORE.INTER.VDW>
-11.1647

>  <SCORE.INTER.norm>
-0.615509

>  <SCORE.INTRA>
-0.218199

>  <SCORE.INTRA.DIHEDRAL>
0.0226267

>  <SCORE.INTRA.DIHEDRAL.0>
1.75624

>  <SCORE.INTRA.POLAR>
0

>  <SCORE.INTRA.POLAR.0>
0

>  <SCORE.INTRA.REPUL>
0

>  <SCORE.INTRA.REPUL.0>
0

>  <SCORE.INTRA.SOLV>
-0.590839

>  <SCORE.INTRA.SOLV.lig_0>
-46.5296

>  <SCORE.INTRA.VDW>
0.0659072

>  <SCORE.INTRA.VDW.0>
-0.381873

>  <SCORE.INTRA.norm>
-0.0167845

>  <SCORE.RESTR>
0

>  <SCORE.RESTR.CAVITY>
0

>  <SCORE.RESTR.norm>
0

>  <SCORE.SYSTEM>
0

>  <SCORE.SYSTEM.CONST>
0

>  <SCORE.SYSTEM.DIHEDRAL>
0

>  <SCORE.SYSTEM.SOLV>
0

>  <SCORE.SYSTEM.norm>
0

>  <SCORE.heavy>
13

>  <SCORE.norm>
-0.632294

>  <RMSD>
10.836

$$$$
ligand
 OpenBabel02271912143D
libRbt.so/2013.1/901 2013/11/27
 13 14  0  0  0  0  0  0  0  0999 V2000
   -2.0257   27.8393   65.5330 N   0  0  0  0  0  0  0  0  0  0  0  0
   -2.0536   28.6131   64.3615 C   0  0  0  0  0  0  0  0  0  0  0  0
   -1.4726   29.9359   64.3692 N   0  0  0  0  0  0  0  0  0  0  0  0
   -2.6203   28.1110   63.2120 N   0  0  0  0  0  0  0  0  0  0  0  0
   -3.1994   26.8166   63.1679 C   0  0  0  0  0  0  0  0  0  0  0  0
   -3.2072   26.0073   64.3561 C   0  0  0  0  0  0  0  0  0  0  0  0
   -2.6108   26.5687   65.5466 C   0  0  0  0  0  0  0  0  0  0  0  0
   -2.6147   25.7867   66.6679 O   0  0  0  0  0  0  0  0  0  0  0  0
   -3.8444   24.7481   64.0467 C   0  0  0  0  0  0  0  0  0  0  0  0
   -4.2106   24.8553   62.7041 C   0  0  0  0  0  0  0  0  0  0  0  0
   -3.8173   26.0778   62.1905 N   0  0  0  0  0  0  0  0  0  0  0  0
   -4.1035   23.5887   64.9887 C   0  0  0  0  0  0  0  0  0  0  0  0
   -5.5236   23.2939   65.1659 N   0  0  0  0  0  0  0  0  0  0  0  0
  1  2  1  0  0  0  0
  1  7  1  0  0  0  0
  2  3  1  0  0  0  0
  2  4  2  0  0  0  0
  4  5  1  0  0  0  0
  5  6  2  0  0  0  0
  5 11  1  0  0  0  0
  6  7  1  0  0  0  0
  6  9  1  0  0  0  0
  7  8  2  0  0  0  0
  9 10  2  0  0  0  0
  9 12  1  0  0  0  0
 10 11  1  0  0  0  0
 12 13  1  0  0  0  0
M  END
>  <CHROM.1>
117.60458938,-3.17008167,26.32381482,64.37962341,-0.43256059,1.02346984,2.03382831

>  <Name>
ligand

>  <RI>
-1

>  <Rbt.Current_Directory>
/home/itssahil/PROJECTS/Mol_Feturizer/Test_systems_manuscript/rnas/4jf2

>  <Rbt.Executable>
rbdock ($Id: //depot/dev/client3/rdock/2013.1/src/exe/rbdock.cxx#4 $)

>  <Rbt.Library>
libRbt.so (2013.1, Build901 2013/11/27)

>  <Rbt.Parameter_File>
/export/apps/rDock/src/rDock_2013.1_src/data/scripts/dock_solv.prm

>  <Rbt.Receptor>
prm/blind_docking_80.prm

>  <SCORE>
-10.1178

>  <SCORE.INTER>
-9.7481

>  <SCORE.INTER.CONST>
1

>  <SCORE.INTER.POLAR>
0

>  <SCORE.INTER.ROT>
1

>  <SCORE.INTER.SOLV>
7.02307

>  <SCORE.INTER.VDW>
-13.1064

>  <SCORE.INTER.norm>
-0.749854

>  <SCORE.INTRA>
-0.369691

>  <SCORE.INTRA.DIHEDRAL>
-0.0828162

>  <SCORE.INTRA.DIHEDRAL.0>
1.75624

>  <SCORE.INTRA.POLAR>
0

>  <SCORE.INTRA.POLAR.0>
0

>  <SCORE.INTRA.REPUL>
0

>  <SCORE.INTRA.REPUL.0>
0

>  <SCORE.INTRA.SOLV>
-0.858985

>  <SCORE.INTRA.SOLV.lig_0>
-46.5296

>  <SCORE.INTRA.VDW>
0.10121

>  <SCORE.INTRA.VDW.0>
-0.381873

>  <SCORE.INTRA.norm>
-0.0284378

>  <SCORE.RESTR>
0

>  <SCORE.RESTR.CAVITY>
0

>  <SCORE.RESTR.norm>
0

>  <SCORE.SYSTEM>
0

>  <SCORE.SYSTEM.CONST>
0

>  <SCORE.SYSTEM.DIHEDRAL>
0

>  <SCORE.SYSTEM.SOLV>
0

>  <SCORE.SYSTEM.norm>
0

>  <SCORE.heavy>
13

>  <SCORE.norm>
-0.778292

>  <RMSD>
11.405

$$$$
ligand
 OpenBabel02271912143D
libRbt.so/2013.1/901 2013/11/27
 13 14  0  0  0  0  0  0  0  0999 V2000
   -3.3834   30.8635   63.2035 N   0  0  0  0  0  0  0  0  0  0  0  0
   -2.6644   30.2977   64.2690 C   0  0  0  0  0  0  0  0  0  0  0  0
   -1.7721   29.1900   64.0157 N   0  0  0  0  0  0  0  0  0  0  0  0
   -2.8006   30.8015   65.5425 N   0  0  0  0  0  0  0  0  0  0  0  0
   -3.6669   31.8883   65.8277 C   0  0  0  0  0  0  0  0  0  0  0  0
   -4.4341   32.4759   64.7633 C   0  0  0  0  0  0  0  0  0  0  0  0
   -4.2725   31.9171   63.4406 C   0  0  0  0  0  0  0  0  0  0  0  0
   -4.9992   32.4899   62.4343 O   0  0  0  0  0  0  0  0  0  0  0  0
   -5.2242   33.5542   65.3115 C   0  0  0  0  0  0  0  0  0  0  0  0
   -4.9213   33.5601   66.6740 C   0  0  0  0  0  0  0  0  0  0  0  0
   -3.9931   32.5779   66.9683 N   0  0  0  0  0  0  0  0  0  0  0  0
   -6.2048   34.4464   64.5757 C   0  0  0  0  0  0  0  0  0  0  0  0
   -5.9749   35.8710   64.8055 N   0  0  0  0  0  0  0  0  0  0  0  0
  1  2  1  0  0  0  0
  1  7  1  0  0  0  0
  2  3  1  0  0  0  0
  2  4  2  0  0  0  0
  4  5  1  0  0  0  0
  5  6  2  0  0  0  0
  5 11  1  0  0  0  0
  6  7  1  0  0  0  0
  6  9  1  0  0  0  0
  7  8  2  0  0  0  0
  9 10  2  0  0  0  0
  9 12  1  0  0  0  0
 10 11  1  0  0  0  0
 12 13  1  0  0  0  0
M  END
>  <CHROM.1>
-129.19010652,-4.18619972,32.30641869,64.70909406,0.38510036,0.91153681,-1.84702558

>  <Name>
ligand

>  <RI>
0

>  <Rbt.Current_Directory>
/home/itssahil/PROJECTS/Mol_Feturizer/Test_systems_manuscript/rnas/4jf2

>  <Rbt.Executable>
rbdock ($Id: //depot/dev/client3/rdock/2013.1/src/exe/rbdock.cxx#4 $)

>  <Rbt.Library>
libRbt.so (2013.1, Build901 2013/11/27)

>  <Rbt.Parameter_File>
/export/apps/rDock/src/rDock_2013.1_src/data/scripts/dock_solv.prm

>  <Rbt.Receptor>
prm/blind_docking_100.prm

>  <SCORE>
-8.88608

>  <SCORE.INTER>
-8.44857

>  <SCORE.INTER.CONST>
1

>  <SCORE.INTER.POLAR>
0

>  <SCORE.INTER.ROT>
1

>  <SCORE.INTER.SOLV>
8.3476

>  <SCORE.INTER.VDW>
-12.6816

>  <SCORE.INTER.norm>
-0.64989

>  <SCORE.INTRA>
-0.437512

>  <SCORE.INTRA.DIHEDRAL>
-0.121206

>  <SCORE.INTRA.DIHEDRAL.0>
1.75624

>  <SCORE.INTRA.POLAR>
0

>  <SCORE.INTRA.POLAR.0>
0

>  <SCORE.INTRA.REPUL>
0

>  <SCORE.INTRA.REPUL.0>
0

>  <SCORE.INTRA.SOLV>
-0.993839

>  <SCORE.INTRA.SOLV.lig_0>
-46.5296

>  <SCORE.INTRA.VDW>
0.12001

>  <SCORE.INTRA.VDW.0>
-0.381873

>  <SCORE.INTRA.norm>
-0.0336548

>  <SCORE.RESTR>
0

>  <SCORE.RESTR.CAVITY>
0

>  <SCORE.RESTR.norm>
0

>  <SCORE.SYSTEM>
0

>  <SCORE.SYSTEM.CONST>
0

>  <SCORE.SYSTEM.DIHEDRAL>
0

>  <SCORE.SYSTEM.SOLV>
0

>  <SCORE.SYSTEM.norm>
0

>  <SCORE.heavy>
13

>  <SCORE.norm>
-0.683544

>  <RMSD>
11.451

$$$$
ligand
 OpenBabel02271912143D
libRbt.so/2013.1/901 2013/11/27
 13 14  0  0  0  0  0  0  0  0999 V2000
   -2.0134   27.8185   65.5436 N   0  0  0  0  0  0  0  0  0  0  0  0
   -2.0175   28.5558   64.3484 C   0  0  0  0  0  0  0  0  0  0  0  0
   -1.4379   29.8791   64.3274 N   0  0  0  0  0  0  0  0  0  0  0  0
   -2.5597   28.0178   63.2035 N   0  0  0  0  0  0  0  0  0  0  0  0
   -3.1367   26.7218   63.1873 C   0  0  0  0  0  0  0  0  0  0  0  0
   -3.1686   25.9494   64.3994 C   0  0  0  0  0  0  0  0  0  0  0  0
   -2.5976   26.5481   65.5842 C   0  0  0  0  0  0  0  0  0  0  0  0
   -2.6242   25.8010   66.7287 O   0  0  0  0  0  0  0  0  0  0  0  0
   -3.7982   24.6803   64.1158 C   0  0  0  0  0  0  0  0  0  0  0  0
   -4.1365   24.7456   62.7632 C   0  0  0  0  0  0  0  0  0  0  0  0
   -3.7335   25.9523   62.2205 N   0  0  0  0  0  0  0  0  0  0  0  0
   -4.0759   23.5502   65.0875 C   0  0  0  0  0  0  0  0  0  0  0  0
   -5.4985   23.2511   65.2353 N   0  0  0  0  0  0  0  0  0  0  0  0
  1  2  1  0  0  0  0
  1  7  1  0  0  0  0
  2  3  1  0  0  0  0
  2  4  2  0  0  0  0
  4  5  1  0  0  0  0
  5  6  2  0  0  0  0
  5 11  1  0  0  0  0
  6  7  1  0  0  0  0
  6  9  1  0  0  0  0
  7  8  2  0  0  0  0
  9 10  2  0  0  0  0
  9 12  1  0  0  0  0
 10 11  1  0  0  0  0
 12 13  1  0  0  0  0
M  END
>  <CHROM.1>
118.11209517,-3.13217724,26.26592715,64.41321881,-0.39704095,1.03334165,1.97353217

>  <Name>
ligand

>  <RI>
-1

>  <Rbt.Current_Directory>
/home/itssahil/PROJECTS/Mol_Feturizer/Test_systems_manuscript/rnas/4jf2

>  <Rbt.Executable>
rbdock ($Id: //depot/dev/client3/rdock/2013.1/src/exe/rbdock.cxx#4 $)

>  <Rbt.Library>
libRbt.so (2013.1, Build901 2013/11/27)

>  <Rbt.Parameter_File>
/export/apps/rDock/src/rDock_2013.1_src/data/scripts/dock_solv.prm

>  <Rbt.Receptor>
prm/blind_docking_80.prm

>  <SCORE>
-10.0967

>  <SCORE.INTER>
-9.72606

>  <SCORE.INTER.CONST>
1

>  <SCORE.INTER.POLAR>
0

>  <SCORE.INTER.ROT>
1

>  <SCORE.INTER.SOLV>
7.03464

>  <SCORE.INTER.VDW>
-13.0956

>  <SCORE.INTER.norm>
-0.748159

>  <SCORE.INTRA>
-0.370593

>  <SCORE.INTRA.DIHEDRAL>
-0.0798541

>  <SCORE.INTRA.DIHEDRAL.0>
1.75624

>  <SCORE.INTRA.POLAR>
0

>  <SCORE.INTRA.POLAR.0>
0

>  <SCORE.INTRA.REPUL>
0

>  <SCORE.INTRA.REPUL.0>
0

>  <SCORE.INTRA.SOLV>
-0.865724

>  <SCORE.INTRA.SOLV.lig_0>
-46.5296

>  <SCORE.INTRA.VDW>
0.102196

>  <SCORE.INTRA.VDW.0>
-0.381873

>  <SCORE.INTRA.norm>
-0.0285072

>  <SCORE.RESTR>
0

>  <SCORE.RESTR.CAVITY>
0

>  <SCORE.RESTR.norm>
0

>  <SCORE.SYSTEM>
0

>  <SCORE.SYSTEM.CONST>
0

>  <SCORE.SYSTEM.DIHEDRAL>
0

>  <SCORE.SYSTEM.SOLV>
0

>  <SCORE.SYSTEM.norm>
0

>  <SCORE.heavy>
13

>  <SCORE.norm>
-0.776666

>  <RMSD>
11.458

$$$$
ligand
 OpenBabel02271912143D
libRbt.so/2013.1/901 2013/11/27
 13 14  0  0  0  0  0  0  0  0999 V2000
   -2.5202   27.7914   63.0198 N   0  0  0  0  0  0  0  0  0  0  0  0
   -1.8587   28.4642   64.0600 C   0  0  0  0  0  0  0  0  0  0  0  0
   -1.1907   29.7156   63.7856 N   0  0  0  0  0  0  0  0  0  0  0  0
   -1.8560   27.9410   65.3330 N   0  0  0  0  0  0  0  0  0  0  0  0
   -2.5017   26.7152   65.6387 C   0  0  0  0  0  0  0  0  0  0  0  0
   -3.1692   25.9903   64.5920 C   0  0  0  0  0  0  0  0  0  0  0  0
   -3.1456   26.5646   63.2662 C   0  0  0  0  0  0  0  0  0  0  0  0
   -3.7919   25.8720   62.2807 O   0  0  0  0  0  0  0  0  0  0  0  0
   -3.7420   24.7917   65.1603 C   0  0  0  0  0  0  0  0  0  0  0  0
   -3.3828   24.8306   66.5085 C   0  0  0  0  0  0  0  0  0  0  0  0
   -2.6577   25.9757   66.7840 N   0  0  0  0  0  0  0  0  0  0  0  0
   -4.5167   23.7069   64.4380 C   0  0  0  0  0  0  0  0  0  0  0  0
   -5.7393   23.3095   65.1326 N   0  0  0  0  0  0  0  0  0  0  0  0
  1  2  1  0  0  0  0
  1  7  1  0  0  0  0
  2  3  1  0  0  0  0
  2  4  2  0  0  0  0
  4  5  1  0  0  0  0
  5  6  2  0  0  0  0
  5 11  1  0  0  0  0
  6  7  1  0  0  0  0
  6  9  1  0  0  0  0
  7  8  2  0  0  0  0
  9 10  2  0  0  0  0
  9 12  1  0  0  0  0
 10 11  1  0  0  0  0
 12 13  1  0  0  0  0
M  END
>  <CHROM.1>
-133.70348351,-3.09894685,26.28105615,64.57052132,0.50980761,-0.94381505
-1.20884150

>  <Name>
ligand

>  <RI>
-1

>  <Rbt.Current_Directory>
/home/itssahil/PROJECTS/Mol_Feturizer/Test_systems_manuscript/rnas/4jf2

>  <Rbt.Executable>
rbdock ($Id: //depot/dev/client3/rdock/2013.1/src/exe/rbdock.cxx#4 $)

>  <Rbt.Library>
libRbt.so (2013.1, Build901 2013/11/27)

>  <Rbt.Parameter_File>
/export/apps/rDock/src/rDock_2013.1_src/data/scripts/dock_solv.prm

>  <Rbt.Receptor>
prm/blind_docking_80.prm

>  <SCORE>
-8.27156

>  <SCORE.INTER>
-7.80687

>  <SCORE.INTER.CONST>
1

>  <SCORE.INTER.POLAR>
0

>  <SCORE.INTER.ROT>
1

>  <SCORE.INTER.SOLV>
7.29761

>  <SCORE.INTER.VDW>
-11.9038

>  <SCORE.INTER.norm>
-0.600529

>  <SCORE.INTRA>
-0.464682

>  <SCORE.INTRA.DIHEDRAL>
-0.143868

>  <SCORE.INTRA.DIHEDRAL.0>
1.75624

>  <SCORE.INTRA.POLAR>
0

>  <SCORE.INTRA.POLAR.0>
0

>  <SCORE.INTRA.REPUL>
0

>  <SCORE.INTRA.REPUL.0>
0

>  <SCORE.INTRA.SOLV>
-1.04239

>  <SCORE.INTRA.SOLV.lig_0>
-46.5296

>  <SCORE.INTRA.VDW>
0.128445

>  <SCORE.INTRA.VDW.0>
-0.381873

>  <SCORE.INTRA.norm>
-0.0357448

>  <SCORE.RESTR>
0

>  <SCORE.RESTR.CAVITY>
0

>  <SCORE.RESTR.norm>
0

>  <SCORE.SYSTEM>
0

>  <SCORE.SYSTEM.CONST>
0

>  <SCORE.SYSTEM.DIHEDRAL>
0

>  <SCORE.SYSTEM.SOLV>
0

>  <SCORE.SYSTEM.norm>
0

>  <SCORE.heavy>
13

>  <SCORE.norm>
-0.636273

>  <RMSD>
11.746

$$$$
ligand
 OpenBabel02271912143D
libRbt.so/2013.1/901 2013/11/27
 13 14  0  0  0  0  0  0  0  0999 V2000
   -6.3127   34.2573   63.6361 N   0  0  0  0  0  0  0  0  0  0  0  0
   -6.5414   34.9945   64.8093 C   0  0  0  0  0  0  0  0  0  0  0  0
   -7.4712   36.1000   64.7843 N   0  0  0  0  0  0  0  0  0  0  0  0
   -5.8932   34.6595   65.9763 N   0  0  0  0  0  0  0  0  0  0  0  0
   -4.9743   33.5803   66.0376 C   0  0  0  0  0  0  0  0  0  0  0  0
   -4.7009   32.8193   64.8489 C   0  0  0  0  0  0  0  0  0  0  0  0
   -5.3931   33.2032   63.6400 C   0  0  0  0  0  0  0  0  0  0  0  0
   -5.1331   32.4666   62.5181 O   0  0  0  0  0  0  0  0  0  0  0  0
   -3.7447   31.7871   65.1774 C   0  0  0  0  0  0  0  0  0  0  0  0
   -3.4665   31.9781   66.5319 C   0  0  0  0  0  0  0  0  0  0  0  0
   -4.2047   33.0345   67.0340 N   0  0  0  0  0  0  0  0  0  0  0  0
   -3.1394   30.7584   64.2426 C   0  0  0  0  0  0  0  0  0  0  0  0
   -1.6962   30.9108   64.0716 N   0  0  0  0  0  0  0  0  0  0  0  0
  1  2  1  0  0  0  0
  1  7  1  0  0  0  0
  2  3  1  0  0  0  0
  2  4  2  0  0  0  0
  4  5  1  0  0  0  0
  5  6  2  0  0  0  0
  5 11  1  0  0  0  0
  6  7  1  0  0  0  0
  6  9  1  0  0  0  0
  7  8  2  0  0  0  0
  9 10  2  0  0  0  0
  9 12  1  0  0  0  0
 10 11  1  0  0  0  0
 12 13  1  0  0  0  0
M  END
>  <CHROM.1>
115.32032726,-4.82551415,33.11545804,64.82137314,2.92439347,-0.76752662,1.28848412

>  <Name>
ligand

>  <RI>
-1

>  <Rbt.Current_Directory>
/home/itssahil/PROJECTS/Mol_Feturizer/Test_systems_manuscript/rnas/4jf2

>  <Rbt.Executable>
rbdock ($Id: //depot/dev/client3/rdock/2013.1/src/exe/rbdock.cxx#4 $)

>  <Rbt.Library>
libRbt.so (2013.1, Build901 2013/11/27)

>  <Rbt.Parameter_File>
/export/apps/rDock/src/rDock_2013.1_src/data/scripts/dock_solv.prm

>  <Rbt.Receptor>
prm/blind_docking_80.prm

>  <SCORE>
-9.6842

>  <SCORE.INTER>
-9.31895

>  <SCORE.INTER.CONST>
1

>  <SCORE.INTER.POLAR>
0

>  <SCORE.INTER.ROT>
1

>  <SCORE.INTER.SOLV>
7.46678

>  <SCORE.INTER.VDW>
-12.9682

>  <SCORE.INTER.norm>
-0.716842

>  <SCORE.INTRA>
-0.365288

>  <SCORE.INTRA.DIHEDRAL>
-0.096061

>  <SCORE.INTRA.DIHEDRAL.0>
1.75624

>  <SCORE.INTRA.POLAR>
0

>  <SCORE.INTRA.POLAR.0>
0

>  <SCORE.INTRA.REPUL>
0

>  <SCORE.INTRA.REPUL.0>
0

>  <SCORE.INTRA.SOLV>
-0.828061

>  <SCORE.INTRA.SOLV.lig_0>
-46.5296

>  <SCORE.INTRA.VDW>
0.0967735

>  <SCORE.INTRA.VDW.0>
-0.381873

>  <SCORE.INTRA.norm>
-0.028099

>  <SCORE.RESTR>
3.46965e-05

>  <SCORE.RESTR.CAVITY>
3.46965e-05

>  <SCORE.RESTR.norm>
2.66896e-06

>  <SCORE.SYSTEM>
0

>  <SCORE.SYSTEM.CONST>
0

>  <SCORE.SYSTEM.DIHEDRAL>
0

>  <SCORE.SYSTEM.SOLV>
0

>  <SCORE.SYSTEM.norm>
0

>  <SCORE.heavy>
13

>  <SCORE.norm>
-0.744939

>  <RMSD>
12.065

$$$$
ligand
 OpenBabel02271912143D
libRbt.so/2013.1/901 2013/11/27
 13 14  0  0  0  0  0  0  0  0999 V2000
   -6.5605   34.7870   63.6594 N   0  0  0  0  0  0  0  0  0  0  0  0
   -6.7621   35.4416   64.8854 C   0  0  0  0  0  0  0  0  0  0  0  0
   -7.6240   36.5999   64.9395 N   0  0  0  0  0  0  0  0  0  0  0  0
   -6.1522   34.9767   66.0283 N   0  0  0  0  0  0  0  0  0  0  0  0
   -5.3003   33.8424   66.0124 C   0  0  0  0  0  0  0  0  0  0  0  0
   -5.0552   33.1626   64.7695 C   0  0  0  0  0  0  0  0  0  0  0  0
   -5.7054   33.6822   63.5883 C   0  0  0  0  0  0  0  0  0  0  0  0
   -5.4733   33.0222   62.4138 O   0  0  0  0  0  0  0  0  0  0  0  0
   -4.1671   32.0517   65.0241 C   0  0  0  0  0  0  0  0  0  0  0  0
   -3.8980   32.1178   66.3921 C   0  0  0  0  0  0  0  0  0  0  0  0
   -4.5793   33.1739   66.9696 N   0  0  0  0  0  0  0  0  0  0  0  0
   -3.6105   31.0653   64.0162 C   0  0  0  0  0  0  0  0  0  0  0  0
   -2.1767   31.2238   63.7832 N   0  0  0  0  0  0  0  0  0  0  0  0
  1  2  1  0  0  0  0
  1  7  1  0  0  0  0
  2  3  1  0  0  0  0
  2  4  2  0  0  0  0
  4  5  1  0  0  0  0
  5  6  2  0  0  0  0
  5 11  1  0  0  0  0
  6  7  1  0  0  0  0
  6  9  1  0  0  0  0
  7  8  2  0  0  0  0
  9 10  2  0  0  0  0
  9 12  1  0  0  0  0
 10 11  1  0  0  0  0
 12 13  1  0  0  0  0
M  END
>  <CHROM.1>
110.13440249,-5.16302410,33.47359447,64.75723933,2.91868214,-0.82750545,1.37376226

>  <Name>
ligand

>  <RI>
0

>  <Rbt.Current_Directory>
/home/itssahil/PROJECTS/Mol_Feturizer/Test_systems_manuscript/rnas/4jf2

>  <Rbt.Executable>
rbdock ($Id: //depot/dev/client3/rdock/2013.1/src/exe/rbdock.cxx#4 $)

>  <Rbt.Library>
libRbt.so (2013.1, Build901 2013/11/27)

>  <Rbt.Parameter_File>
/export/apps/rDock/src/rDock_2013.1_src/data/scripts/dock_solv.prm

>  <Rbt.Receptor>
prm/blind_docking_100.prm

>  <SCORE>
-10.8009

>  <SCORE.INTER>
-10.4479

>  <SCORE.INTER.CONST>
1

>  <SCORE.INTER.POLAR>
0

>  <SCORE.INTER.ROT>
1

>  <SCORE.INTER.SOLV>
6.49662

>  <SCORE.INTER.VDW>
-13.3975

>  <SCORE.INTER.norm>
-0.803688

>  <SCORE.INTRA>
-0.352954

>  <SCORE.INTRA.DIHEDRAL>
-0.124789

>  <SCORE.INTRA.DIHEDRAL.0>
1.75624

>  <SCORE.INTRA.POLAR>
0

>  <SCORE.INTRA.POLAR.0>
0

>  <SCORE.INTRA.REPUL>
0

>  <SCORE.INTRA.REPUL.0>
0

>  <SCORE.INTRA.SOLV>
-0.754372

>  <SCORE.INTRA.SOLV.lig_0>
-46.5296

>  <SCORE.INTRA.VDW>
0.0866266

>  <SCORE.INTRA.VDW.0>
-0.381873

>  <SCORE.INTRA.norm>
-0.0271503

>  <SCORE.RESTR>
0

>  <SCORE.RESTR.CAVITY>
0

>  <SCORE.RESTR.norm>
0

>  <SCORE.SYSTEM>
0

>  <SCORE.SYSTEM.CONST>
0

>  <SCORE.SYSTEM.DIHEDRAL>
0

>  <SCORE.SYSTEM.SOLV>
0

>  <SCORE.SYSTEM.norm>
0

>  <SCORE.heavy>
13

>  <SCORE.norm>
-0.830838

>  <RMSD>
12.071

$$$$
ligand
 OpenBabel02271912143D
libRbt.so/2013.1/901 2013/11/27
 13 14  0  0  0  0  0  0  0  0999 V2000
   -4.7404   35.9588   66.0094 N   0  0  0  0  0  0  0  0  0  0  0  0
   -5.9660   36.2272   65.3784 C   0  0  0  0  0  0  0  0  0  0  0  0
   -6.5704   37.5313   65.5248 N   0  0  0  0  0  0  0  0  0  0  0  0
   -6.5810   35.2590   64.6176 N   0  0  0  0  0  0  0  0  0  0  0  0
   -6.0163   33.9681   64.4517 C   0  0  0  0  0  0  0  0  0  0  0  0
   -4.7735   33.6537   65.1024 C   0  0  0  0  0  0  0  0  0  0  0  0
   -4.1595   34.6910   65.8994 C   0  0  0  0  0  0  0  0  0  0  0  0
   -2.9731   34.3845   66.5055 O   0  0  0  0  0  0  0  0  0  0  0  0
   -4.4174   32.2927   64.7735 C   0  0  0  0  0  0  0  0  0  0  0  0
   -5.4592   31.8384   63.9633 C   0  0  0  0  0  0  0  0  0  0  0  0
   -6.3951   32.8384   63.7711 N   0  0  0  0  0  0  0  0  0  0  0  0
   -3.2053   31.5153   65.2481 C   0  0  0  0  0  0  0  0  0  0  0  0
   -2.2286   31.2647   64.1905 N   0  0  0  0  0  0  0  0  0  0  0  0
  1  2  1  0  0  0  0
  1  7  1  0  0  0  0
  2  3  1  0  0  0  0
  2  4  2  0  0  0  0
  4  5  1  0  0  0  0
  5  6  2  0  0  0  0
  5 11  1  0  0  0  0
  6  7  1  0  0  0  0
  6  9  1  0  0  0  0
  7  8  2  0  0  0  0
  9 10  2  0  0  0  0
  9 12  1  0  0  0  0
 10 11  1  0  0  0  0
 12 13  1  0  0  0  0
M  END
>  <CHROM.1>
-110.08422781,-4.84392871,33.97264771,65.05793312,-2.13153466,0.44791456
-2.70857604

>  <Name>
ligand

>  <RI>
-1

>  <Rbt.Current_Directory>
/home/itssahil/PROJECTS/Mol_Feturizer/Test_systems_manuscript/rnas/4jf2

>  <Rbt.Executable>
rbdock ($Id: //depot/dev/client3/rdock/2013.1/src/exe/rbdock.cxx#4 $)

>  <Rbt.Library>
libRbt.so (2013.1, Build901 2013/11/27)

>  <Rbt.Parameter_File>
/export/apps/rDock/src/rDock_2013.1_src/data/scripts/dock_solv.prm

>  <Rbt.Receptor>
prm/blind_docking_80.prm

>  <SCORE>
-7.58052

>  <SCORE.INTER>
-7.28756

>  <SCORE.INTER.CONST>
1

>  <SCORE.INTER.POLAR>
0

>  <SCORE.INTER.ROT>
1

>  <SCORE.INTER.SOLV>
3.19097

>  <SCORE.INTER.VDW>
-10.1887

>  <SCORE.INTER.norm>
-0.560582

>  <SCORE.INTRA>
-0.292961

>  <SCORE.INTRA.DIHEDRAL>
-0.0145595

>  <SCORE.INTRA.DIHEDRAL.0>
1.75624

>  <SCORE.INTRA.POLAR>
0

>  <SCORE.INTRA.POLAR.0>
0

>  <SCORE.INTRA.REPUL>
0

>  <SCORE.INTRA.REPUL.0>
0

>  <SCORE.INTRA.SOLV>
-0.742096

>  <SCORE.INTRA.SOLV.lig_0>
-46.5296

>  <SCORE.INTRA.VDW>
0.0853663

>  <SCORE.INTRA.VDW.0>
-0.381873

>  <SCORE.INTRA.norm>
-0.0225355

>  <SCORE.RESTR>
0

>  <SCORE.RESTR.CAVITY>
0

>  <SCORE.RESTR.norm>
0

>  <SCORE.SYSTEM>
0

>  <SCORE.SYSTEM.CONST>
0

>  <SCORE.SYSTEM.DIHEDRAL>
0

>  <SCORE.SYSTEM.SOLV>
0

>  <SCORE.SYSTEM.norm>
0

>  <SCORE.heavy>
13

>  <SCORE.norm>
-0.583117

>  <RMSD>
12.281

$$$$
ligand
 OpenBabel02271912143D
libRbt.so/2013.1/901 2013/11/27
 13 14  0  0  0  0  0  0  0  0999 V2000
    3.8505   26.3220   46.3153 N   0  0  0  0  0  0  0  0  0  0  0  0
    3.6133   27.5807   45.7393 C   0  0  0  0  0  0  0  0  0  0  0  0
    4.2315   28.7533   46.3139 N   0  0  0  0  0  0  0  0  0  0  0  0
    2.8070   27.6948   44.6297 N   0  0  0  0  0  0  0  0  0  0  0  0
    2.1843   26.5652   44.0389 C   0  0  0  0  0  0  0  0  0  0  0  0
    2.3887   25.2650   44.6174 C   0  0  0  0  0  0  0  0  0  0  0  0
    3.2345   25.1830   45.7861 C   0  0  0  0  0  0  0  0  0  0  0  0
    3.4301   23.9406   46.3220 O   0  0  0  0  0  0  0  0  0  0  0  0
    1.6565   24.2965   43.8341 C   0  0  0  0  0  0  0  0  0  0  0  0
    1.0292   25.0461   42.8377 C   0  0  0  0  0  0  0  0  0  0  0  0
    1.3543   26.3848   42.9612 N   0  0  0  0  0  0  0  0  0  0  0  0
    1.5522   22.8034   44.0754 C   0  0  0  0  0  0  0  0  0  0  0  0
    0.8199   22.0979   43.0259 N   0  0  0  0  0  0  0  0  0  0  0  0
  1  2  1  0  0  0  0
  1  7  1  0  0  0  0
  2  3  1  0  0  0  0
  2  4  2  0  0  0  0
  4  5  1  0  0  0  0
  5  6  2  0  0  0  0
  5 11  1  0  0  0  0
  6  7  1  0  0  0  0
  6  9  1  0  0  0  0
  7  8  2  0  0  0  0
  9 10  2  0  0  0  0
  9 12  1  0  0  0  0
 10 11  1  0  0  0  0
 12 13  1  0  0  0  0
M  END
>  <CHROM.1>
-175.17613441,2.49269685,25.50602909,44.68524754,-0.75010287,0.92505739,2.92706724

>  <Name>
ligand

>  <RI>
0

>  <Rbt.Current_Directory>
/home/itssahil/PROJECTS/Mol_Feturizer/Test_systems_manuscript/rnas/4jf2

>  <Rbt.Executable>
rbdock ($Id: //depot/dev/client3/rdock/2013.1/src/exe/rbdock.cxx#4 $)

>  <Rbt.Library>
libRbt.so (2013.1, Build901 2013/11/27)

>  <Rbt.Parameter_File>
/export/apps/rDock/src/rDock_2013.1_src/data/scripts/dock_solv.prm

>  <Rbt.Receptor>
prm/blind_docking_100.prm

>  <SCORE>
-5.59633

>  <SCORE.INTER>
-5.23032

>  <SCORE.INTER.CONST>
1

>  <SCORE.INTER.POLAR>
0

>  <SCORE.INTER.ROT>
1

>  <SCORE.INTER.SOLV>
5.89002

>  <SCORE.INTER.VDW>
-9.71688

>  <SCORE.INTER.norm>
-0.402332

>  <SCORE.INTRA>
-0.366011

>  <SCORE.INTRA.DIHEDRAL>
-0.111244

>  <SCORE.INTRA.DIHEDRAL.0>
1.75624

>  <SCORE.INTRA.POLAR>
0

>  <SCORE.INTRA.POLAR.0>
0

>  <SCORE.INTRA.REPUL>
0

>  <SCORE.INTRA.REPUL.0>
0

>  <SCORE.INTRA.SOLV>
-1.01993

>  <SCORE.INTRA.SOLV.lig_0>
-46.5296

>  <SCORE.INTRA.VDW>
0.199577

>  <SCORE.INTRA.VDW.0>
-0.381873

>  <SCORE.INTRA.norm>
-0.0281547

>  <SCORE.RESTR>
0

>  <SCORE.RESTR.CAVITY>
0

>  <SCORE.RESTR.norm>
0

>  <SCORE.SYSTEM>
0

>  <SCORE.SYSTEM.CONST>
0

>  <SCORE.SYSTEM.DIHEDRAL>
0

>  <SCORE.SYSTEM.SOLV>
0

>  <SCORE.SYSTEM.norm>
0

>  <SCORE.heavy>
13

>  <SCORE.norm>
-0.430487

>  <RMSD>
13.033

$$$$
ligand
 OpenBabel02271912143D
libRbt.so/2013.1/901 2013/11/27
 13 14  0  0  0  0  0  0  0  0999 V2000
    1.8085   25.2354   43.9459 N   0  0  0  0  0  0  0  0  0  0  0  0
    1.4387   23.8844   44.0461 C   0  0  0  0  0  0  0  0  0  0  0  0
    0.5473   23.3164   43.0611 N   0  0  0  0  0  0  0  0  0  0  0  0
    1.9301   23.1048   45.0683 N   0  0  0  0  0  0  0  0  0  0  0  0
    2.8075   23.6288   46.0525 C   0  0  0  0  0  0  0  0  0  0  0  0
    3.1882   25.0137   45.9915 C   0  0  0  0  0  0  0  0  0  0  0  0
    2.6475   25.8046   44.9096 C   0  0  0  0  0  0  0  0  0  0  0  0
    3.0240   27.1177   44.8555 O   0  0  0  0  0  0  0  0  0  0  0  0
    4.0802   25.2911   47.0937 C   0  0  0  0  0  0  0  0  0  0  0  0
    4.1840   24.0803   47.7805 C   0  0  0  0  0  0  0  0  0  0  0  0
    3.4356   23.1013   47.1526 N   0  0  0  0  0  0  0  0  0  0  0  0
    4.7190   26.6184   47.4526 C   0  0  0  0  0  0  0  0  0  0  0  0
    6.1317   26.5030   47.8076 N   0  0  0  0  0  0  0  0  0  0  0  0
  1  2  1  0  0  0  0
  1  7  1  0  0  0  0
  2  3  1  0  0  0  0
  2  4  2  0  0  0  0
  4  5  1  0  0  0  0
  5  6  2  0  0  0  0
  5 11  1  0  0  0  0
  6  7  1  0  0  0  0
  6  9  1  0  0  0  0
  7  8  2  0  0  0  0
  9 10  2  0  0  0  0
  9 12  1  0  0  0  0
 10 11  1  0  0  0  0
 12 13  1  0  0  0  0
M  END
>  <CHROM.1>
-136.23612826,3.07313702,24.86417944,45.76193574,3.08319982,0.84531897,2.70098251

>  <Name>
ligand

>  <RI>
-1

>  <Rbt.Current_Directory>
/home/itssahil/PROJECTS/Mol_Feturizer/Test_systems_manuscript/rnas/4jf2

>  <Rbt.Executable>
rbdock ($Id: //depot/dev/client3/rdock/2013.1/src/exe/rbdock.cxx#4 $)

>  <Rbt.Library>
libRbt.so (2013.1, Build901 2013/11/27)

>  <Rbt.Parameter_File>
/export/apps/rDock/src/rDock_2013.1_src/data/scripts/dock_solv.prm

>  <Rbt.Receptor>
prm/blind_docking_80.prm

>  <SCORE>
-6.37038

>  <SCORE.INTER>
-5.90574

>  <SCORE.INTER.CONST>
1

>  <SCORE.INTER.POLAR>
0

>  <SCORE.INTER.ROT>
1

>  <SCORE.INTER.SOLV>
6.62719

>  <SCORE.INTER.VDW>
-10.4129

>  <SCORE.INTER.norm>
-0.454288

>  <SCORE.INTRA>
-0.46464

>  <SCORE.INTRA.DIHEDRAL>
-0.15501

>  <SCORE.INTRA.DIHEDRAL.0>
1.75624

>  <SCORE.INTRA.POLAR>
0

>  <SCORE.INTRA.POLAR.0>
0

>  <SCORE.INTRA.REPUL>
0

>  <SCORE.INTRA.REPUL.0>
0

>  <SCORE.INTRA.SOLV>
-1.04087

>  <SCORE.INTRA.SOLV.lig_0>
-46.5296

>  <SCORE.INTRA.VDW>
0.1333

>  <SCORE.INTRA.VDW.0>
-0.381873

>  <SCORE.INTRA.norm>
-0.0357416

>  <SCORE.RESTR>
0

>  <SCORE.RESTR.CAVITY>
0

>  <SCORE.RESTR.norm>
0

>  <SCORE.SYSTEM>
0

>  <SCORE.SYSTEM.CONST>
0

>  <SCORE.SYSTEM.DIHEDRAL>
0

>  <SCORE.SYSTEM.SOLV>
0

>  <SCORE.SYSTEM.norm>
0

>  <SCORE.heavy>
13

>  <SCORE.norm>
-0.490029

>  <RMSD>
13.268

$$$$
ligand
 OpenBabel02271912143D
libRbt.so/2013.1/901 2013/11/27
 13 14  0  0  0  0  0  0  0  0999 V2000
    5.2053   34.1104   56.4380 N   0  0  0  0  0  0  0  0  0  0  0  0
    5.5584   35.2847   57.1226 C   0  0  0  0  0  0  0  0  0  0  0  0
    4.5528   35.9983   57.8756 N   0  0  0  0  0  0  0  0  0  0  0  0
    6.8546   35.7460   57.0854 N   0  0  0  0  0  0  0  0  0  0  0  0
    7.8677   35.0708   56.3569 C   0  0  0  0  0  0  0  0  0  0  0  0
    7.5345   33.8779   55.6270 C   0  0  0  0  0  0  0  0  0  0  0  0
    6.1629   33.4265   55.6817 C   0  0  0  0  0  0  0  0  0  0  0  0
    5.8594   32.2857   54.9922 O   0  0  0  0  0  0  0  0  0  0  0  0
    8.7309   33.3883   54.9818 C   0  0  0  0  0  0  0  0  0  0  0  0
    9.7229   34.3074   55.3274 C   0  0  0  0  0  0  0  0  0  0  0  0
    9.2054   35.2934   56.1478 N   0  0  0  0  0  0  0  0  0  0  0  0
    8.8646   32.1731   54.0850 C   0  0  0  0  0  0  0  0  0  0  0  0
    9.8385   31.1989   54.5726 N   0  0  0  0  0  0  0  0  0  0  0  0
  1  2  1  0  0  0  0
  1  7  1  0  0  0  0
  2  3  1  0  0  0  0
  2  4  2  0  0  0  0
  4  5  1  0  0  0  0
  5  6  2  0  0  0  0
  5 11  1  0  0  0  0
  6  7  1  0  0  0  0
  6  9  1  0  0  0  0
  7  8  2  0  0  0  0
  9 10  2  0  0  0  0
  9 12  1  0  0  0  0
 10 11  1  0  0  0  0
 12 13  1  0  0  0  0
M  END
>  <CHROM.1>
-122.16764473,7.34898805,33.97735773,55.85974811,2.36558543,0.18552455,0.52542164

>  <Name>
ligand

>  <RI>
0

>  <Rbt.Current_Directory>
/home/itssahil/PROJECTS/Mol_Feturizer/Test_systems_manuscript/rnas/4jf2

>  <Rbt.Executable>
rbdock ($Id: //depot/dev/client3/rdock/2013.1/src/exe/rbdock.cxx#4 $)

>  <Rbt.Library>
libRbt.so (2013.1, Build901 2013/11/27)

>  <Rbt.Parameter_File>
/export/apps/rDock/src/rDock_2013.1_src/data/scripts/dock_solv.prm

>  <Rbt.Receptor>
prm/blind_docking_100.prm

>  <SCORE>
-6.29151

>  <SCORE.INTER>
-5.90331

>  <SCORE.INTER.CONST>
1

>  <SCORE.INTER.POLAR>
0

>  <SCORE.INTER.ROT>
1

>  <SCORE.INTER.SOLV>
4.26253

>  <SCORE.INTER.VDW>
-9.62305

>  <SCORE.INTER.norm>
-0.454101

>  <SCORE.INTRA>
-0.388198

>  <SCORE.INTRA.DIHEDRAL>
-0.0814873

>  <SCORE.INTRA.DIHEDRAL.0>
1.75624

>  <SCORE.INTRA.POLAR>
0

>  <SCORE.INTRA.POLAR.0>
0

>  <SCORE.INTRA.REPUL>
0

>  <SCORE.INTRA.REPUL.0>
0

>  <SCORE.INTRA.SOLV>
-0.90953

>  <SCORE.INTRA.SOLV.lig_0>
-46.5296

>  <SCORE.INTRA.VDW>
0.107311

>  <SCORE.INTRA.VDW.0>
-0.381873

>  <SCORE.INTRA.norm>
-0.0298614

>  <SCORE.RESTR>
0

>  <SCORE.RESTR.CAVITY>
0

>  <SCORE.RESTR.norm>
0

>  <SCORE.SYSTEM>
0

>  <SCORE.SYSTEM.CONST>
0

>  <SCORE.SYSTEM.DIHEDRAL>
0

>  <SCORE.SYSTEM.SOLV>
0

>  <SCORE.SYSTEM.norm>
0

>  <SCORE.heavy>
13

>  <SCORE.norm>
-0.483962

>  <RMSD>
13.709

$$$$
ligand
 OpenBabel02271912143D
libRbt.so/2013.1/901 2013/11/27
 13 14  0  0  0  0  0  0  0  0999 V2000
   -0.6998   14.9379   47.4826 N   0  0  0  0  0  0  0  0  0  0  0  0
   -1.0409   14.7125   48.8262 C   0  0  0  0  0  0  0  0  0  0  0  0
   -0.5110   13.5551   49.5096 N   0  0  0  0  0  0  0  0  0  0  0  0
   -1.8646   15.5931   49.4898 N   0  0  0  0  0  0  0  0  0  0  0  0
   -2.4026   16.7398   48.8506 C   0  0  0  0  0  0  0  0  0  0  0  0
   -2.0909   16.9878   47.4692 C   0  0  0  0  0  0  0  0  0  0  0  0
   -1.2296   16.0389   46.8014 C   0  0  0  0  0  0  0  0  0  0  0  0
   -0.9318   16.2897   45.4910 O   0  0  0  0  0  0  0  0  0  0  0  0
   -2.7525   18.2064   47.0635 C   0  0  0  0  0  0  0  0  0  0  0  0
   -3.4467   18.6290   48.1984 C   0  0  0  0  0  0  0  0  0  0  0  0
   -3.2266   17.7608   49.2523 N   0  0  0  0  0  0  0  0  0  0  0  0
   -2.7368   18.8526   45.6921 C   0  0  0  0  0  0  0  0  0  0  0  0
   -3.8421   19.7844   45.4792 N   0  0  0  0  0  0  0  0  0  0  0  0
  1  2  1  0  0  0  0
  1  7  1  0  0  0  0
  2  3  1  0  0  0  0
  2  4  2  0  0  0  0
  4  5  1  0  0  0  0
  5  6  2  0  0  0  0
  5 11  1  0  0  0  0
  6  7  1  0  0  0  0
  6  9  1  0  0  0  0
  7  8  2  0  0  0  0
  9 10  2  0  0  0  0
  9 12  1  0  0  0  0
 10 11  1  0  0  0  0
 12 13  1  0  0  0  0
M  END
>  <CHROM.1>
159.90876335,-2.03968074,16.76297654,47.62227091,-0.84133906,0.90722178,-1.13590045

>  <Name>
ligand

>  <RI>
0

>  <Rbt.Current_Directory>
/home/itssahil/PROJECTS/Mol_Feturizer/Test_systems_manuscript/rnas/4jf2

>  <Rbt.Executable>
rbdock ($Id: //depot/dev/client3/rdock/2013.1/src/exe/rbdock.cxx#4 $)

>  <Rbt.Library>
libRbt.so (2013.1, Build901 2013/11/27)

>  <Rbt.Parameter_File>
/export/apps/rDock/src/rDock_2013.1_src/data/scripts/dock_solv.prm

>  <Rbt.Receptor>
prm/blind_docking_60.prm

>  <SCORE>
-9.09602

>  <SCORE.INTER>
-8.78248

>  <SCORE.INTER.CONST>
1

>  <SCORE.INTER.POLAR>
0

>  <SCORE.INTER.ROT>
1

>  <SCORE.INTER.SOLV>
8.834

>  <SCORE.INTER.VDW>
-13.0663

>  <SCORE.INTER.norm>
-0.675576

>  <SCORE.INTRA>
-0.313532

>  <SCORE.INTRA.DIHEDRAL>
0.0167753

>  <SCORE.INTRA.DIHEDRAL.0>
1.75624

>  <SCORE.INTRA.POLAR>
0

>  <SCORE.INTRA.POLAR.0>
0

>  <SCORE.INTRA.REPUL>
0

>  <SCORE.INTRA.REPUL.0>
0

>  <SCORE.INTRA.SOLV>
-1.01668

>  <SCORE.INTRA.SOLV.lig_0>
-46.5296

>  <SCORE.INTRA.VDW>
0.18642

>  <SCORE.INTRA.VDW.0>
-0.381873

>  <SCORE.INTRA.norm>
-0.0241179

>  <SCORE.RESTR>
0

>  <SCORE.RESTR.CAVITY>
0

>  <SCORE.RESTR.norm>
0

>  <SCORE.SYSTEM>
0

>  <SCORE.SYSTEM.CONST>
0

>  <SCORE.SYSTEM.DIHEDRAL>
0

>  <SCORE.SYSTEM.SOLV>
0

>  <SCORE.SYSTEM.norm>
0

>  <SCORE.heavy>
13

>  <SCORE.norm>
-0.699694

>  <RMSD>
15.312

$$$$
ligand
 OpenBabel02271912143D
libRbt.so/2013.1/901 2013/11/27
 13 14  0  0  0  0  0  0  0  0999 V2000
   -2.1391   17.8581   45.3790 N   0  0  0  0  0  0  0  0  0  0  0  0
   -2.9019   18.9272   45.8764 C   0  0  0  0  0  0  0  0  0  0  0  0
   -3.3300   19.9739   44.9773 N   0  0  0  0  0  0  0  0  0  0  0  0
   -3.2480   18.9718   47.2078 N   0  0  0  0  0  0  0  0  0  0  0  0
   -2.8456   17.9615   48.1189 C   0  0  0  0  0  0  0  0  0  0  0  0
   -2.0452   16.8647   47.6465 C   0  0  0  0  0  0  0  0  0  0  0  0
   -1.6938   16.8537   46.2449 C   0  0  0  0  0  0  0  0  0  0  0  0
   -0.9409   15.8011   45.8044 O   0  0  0  0  0  0  0  0  0  0  0  0
   -1.7769   15.9827   48.7590 C   0  0  0  0  0  0  0  0  0  0  0  0
   -2.4018   16.5874   49.8509 C   0  0  0  0  0  0  0  0  0  0  0  0
   -3.0385   17.7517   49.4612 N   0  0  0  0  0  0  0  0  0  0  0  0
   -0.9537   14.7096   48.7498 C   0  0  0  0  0  0  0  0  0  0  0  0
   -1.6007   13.5977   49.4429 N   0  0  0  0  0  0  0  0  0  0  0  0
  1  2  1  0  0  0  0
  1  7  1  0  0  0  0
  2  3  1  0  0  0  0
  2  4  2  0  0  0  0
  4  5  1  0  0  0  0
  5  6  2  0  0  0  0
  5 11  1  0  0  0  0
  6  7  1  0  0  0  0
  6  9  1  0  0  0  0
  7  8  2  0  0  0  0
  9 10  2  0  0  0  0
  9 12  1  0  0  0  0
 10 11  1  0  0  0  0
 12 13  1  0  0  0  0
M  END
>  <CHROM.1>
-134.05058940,-2.20560120,17.04062951,47.46469265,-2.06307705,-1.03140227
2.02704068

>  <Name>
ligand

>  <RI>
0

>  <Rbt.Current_Directory>
/home/itssahil/PROJECTS/Mol_Feturizer/Test_systems_manuscript/rnas/4jf2

>  <Rbt.Executable>
rbdock ($Id: //depot/dev/client3/rdock/2013.1/src/exe/rbdock.cxx#4 $)

>  <Rbt.Library>
libRbt.so (2013.1, Build901 2013/11/27)

>  <Rbt.Parameter_File>
/export/apps/rDock/src/rDock_2013.1_src/data/scripts/dock_solv.prm

>  <Rbt.Receptor>
prm/blind_docking_60.prm

>  <SCORE>
-9.93324

>  <SCORE.INTER>
-9.46852

>  <SCORE.INTER.CONST>
1

>  <SCORE.INTER.POLAR>
0

>  <SCORE.INTER.ROT>
1

>  <SCORE.INTER.SOLV>
6.65315

>  <SCORE.INTER.VDW>
-12.7967

>  <SCORE.INTER.norm>
-0.728348

>  <SCORE.INTRA>
-0.46472

>  <SCORE.INTRA.DIHEDRAL>
-0.14547

>  <SCORE.INTRA.DIHEDRAL.0>
1.75624

>  <SCORE.INTRA.POLAR>
0

>  <SCORE.INTRA.POLAR.0>
0

>  <SCORE.INTRA.REPUL>
0

>  <SCORE.INTRA.REPUL.0>
0

>  <SCORE.INTRA.SOLV>
-1.04218

>  <SCORE.INTRA.SOLV.lig_0>
-46.5296

>  <SCORE.INTRA.VDW>
0.129105

>  <SCORE.INTRA.VDW.0>
-0.381873

>  <SCORE.INTRA.norm>
-0.0357477

>  <SCORE.RESTR>
0

>  <SCORE.RESTR.CAVITY>
0

>  <SCORE.RESTR.norm>
0

>  <SCORE.SYSTEM>
0

>  <SCORE.SYSTEM.CONST>
0

>  <SCORE.SYSTEM.DIHEDRAL>
0

>  <SCORE.SYSTEM.SOLV>
0

>  <SCORE.SYSTEM.norm>
0

>  <SCORE.heavy>
13

>  <SCORE.norm>
-0.764096

>  <RMSD>
15.313

$$$$
ligand
 OpenBabel02271912143D
libRbt.so/2013.1/901 2013/11/27
 13 14  0  0  0  0  0  0  0  0999 V2000
   -0.6868   14.9385   47.4711 N   0  0  0  0  0  0  0  0  0  0  0  0
   -1.0237   14.7056   48.8144 C   0  0  0  0  0  0  0  0  0  0  0  0
   -0.4880   13.5470   49.4911 N   0  0  0  0  0  0  0  0  0  0  0  0
   -1.8490   15.5802   49.4840 N   0  0  0  0  0  0  0  0  0  0  0  0
   -2.3926   16.7279   48.8515 C   0  0  0  0  0  0  0  0  0  0  0  0
   -2.0852   16.9834   47.4705 C   0  0  0  0  0  0  0  0  0  0  0  0
   -1.2221   16.0407   46.7963 C   0  0  0  0  0  0  0  0  0  0  0  0
   -0.9284   16.2987   45.4863 O   0  0  0  0  0  0  0  0  0  0  0  0
   -2.7521   18.2016   47.0721 C   0  0  0  0  0  0  0  0  0  0  0  0
   -3.4449   18.6164   48.2106 C   0  0  0  0  0  0  0  0  0  0  0  0
   -3.2192   17.7441   49.2600 N   0  0  0  0  0  0  0  0  0  0  0  0
   -2.7420   18.8542   45.7037 C   0  0  0  0  0  0  0  0  0  0  0  0
   -2.5790   20.3054   45.7563 N   0  0  0  0  0  0  0  0  0  0  0  0
  1  2  1  0  0  0  0
  1  7  1  0  0  0  0
  2  3  1  0  0  0  0
  2  4  2  0  0  0  0
  4  5  1  0  0  0  0
  5  6  2  0  0  0  0
  5 11  1  0  0  0  0
  6  7  1  0  0  0  0
  6  9  1  0  0  0  0
  7  8  2  0  0  0  0
  9 10  2  0  0  0  0
  9 12  1  0  0  0  0
 10 11  1  0  0  0  0
 12 13  1  0  0  0  0
M  END
>  <CHROM.1>
-137.24500700,-1.92923832,16.80062340,47.64348624,-0.97577086,0.94486017
-0.99113436

>  <Name>
ligand

>  <RI>
-1

>  <Rbt.Current_Directory>
/home/itssahil/PROJECTS/Mol_Feturizer/Test_systems_manuscript/rnas/4jf2

>  <Rbt.Executable>
rbdock ($Id: //depot/dev/client3/rdock/2013.1/src/exe/rbdock.cxx#4 $)

>  <Rbt.Library>
libRbt.so (2013.1, Build901 2013/11/27)

>  <Rbt.Parameter_File>
/export/apps/rDock/src/rDock_2013.1_src/data/scripts/dock_solv.prm

>  <Rbt.Receptor>
prm/blind_docking_80.prm

>  <SCORE>
-9.14547

>  <SCORE.INTER>
-8.68107

>  <SCORE.INTER.CONST>
1

>  <SCORE.INTER.POLAR>
0

>  <SCORE.INTER.ROT>
1

>  <SCORE.INTER.SOLV>
8.66414

>  <SCORE.INTER.VDW>
-12.9421

>  <SCORE.INTER.norm>
-0.667774

>  <SCORE.INTRA>
-0.464407

>  <SCORE.INTRA.DIHEDRAL>
-0.159074

>  <SCORE.INTRA.DIHEDRAL.0>
1.75624

>  <SCORE.INTRA.POLAR>
0

>  <SCORE.INTRA.POLAR.0>
0

>  <SCORE.INTRA.REPUL>
0

>  <SCORE.INTRA.REPUL.0>
0

>  <SCORE.INTRA.SOLV>
-1.04026

>  <SCORE.INTRA.SOLV.lig_0>
-46.5296

>  <SCORE.INTRA.VDW>
0.135258

>  <SCORE.INTRA.VDW.0>
-0.381873

>  <SCORE.INTRA.norm>
-0.0357236

>  <SCORE.RESTR>
0

>  <SCORE.RESTR.CAVITY>
0

>  <SCORE.RESTR.norm>
0

>  <SCORE.SYSTEM>
0

>  <SCORE.SYSTEM.CONST>
0

>  <SCORE.SYSTEM.DIHEDRAL>
0

>  <SCORE.SYSTEM.SOLV>
0

>  <SCORE.SYSTEM.norm>
0

>  <SCORE.heavy>
13

>  <SCORE.norm>
-0.703498

>  <RMSD>
15.313

$$$$
ligand
 OpenBabel02271912143D
libRbt.so/2013.1/901 2013/11/27
 13 14  0  0  0  0  0  0  0  0999 V2000
   -2.1289   17.8451   45.3807 N   0  0  0  0  0  0  0  0  0  0  0  0
   -2.8944   18.9136   45.8751 C   0  0  0  0  0  0  0  0  0  0  0  0
   -3.3210   19.9593   44.9740 N   0  0  0  0  0  0  0  0  0  0  0  0
   -3.2448   18.9586   47.2053 N   0  0  0  0  0  0  0  0  0  0  0  0
   -2.8440   17.9493   48.1184 C   0  0  0  0  0  0  0  0  0  0  0  0
   -2.0409   16.8531   47.6490 C   0  0  0  0  0  0  0  0  0  0  0  0
   -1.6851   16.8417   46.2485 C   0  0  0  0  0  0  0  0  0  0  0  0
   -0.9297   15.7897   45.8110 O   0  0  0  0  0  0  0  0  0  0  0  0
   -1.7751   15.9721   48.7629 C   0  0  0  0  0  0  0  0  0  0  0  0
   -2.4040   16.5767   49.8525 C   0  0  0  0  0  0  0  0  0  0  0  0
   -3.0409   17.7401   49.4602 N   0  0  0  0  0  0  0  0  0  0  0  0
   -0.9504   14.6999   48.7570 C   0  0  0  0  0  0  0  0  0  0  0  0
   -1.6029   13.5847   49.4393 N   0  0  0  0  0  0  0  0  0  0  0  0
  1  2  1  0  0  0  0
  1  7  1  0  0  0  0
  2  3  1  0  0  0  0
  2  4  2  0  0  0  0
  4  5  1  0  0  0  0
  5  6  2  0  0  0  0
  5 11  1  0  0  0  0
  6  7  1  0  0  0  0
  6  9  1  0  0  0  0
  7  8  2  0  0  0  0
  9 10  2  0  0  0  0
  9 12  1  0  0  0  0
 10 11  1  0  0  0  0
 12 13  1  0  0  0  0
M  END
>  <CHROM.1>
-133.58521331,-2.20133147,17.02854083,47.46588245,-2.05885157,-1.02952717
2.03073343

>  <Name>
ligand

>  <RI>
0

>  <Rbt.Current_Directory>
/home/itssahil/PROJECTS/Mol_Feturizer/Test_systems_manuscript/rnas/4jf2

>  <Rbt.Executable>
rbdock ($Id: //depot/dev/client3/rdock/2013.1/src/exe/rbdock.cxx#4 $)

>  <Rbt.Library>
libRbt.so (2013.1, Build901 2013/11/27)

>  <Rbt.Parameter_File>
/export/apps/rDock/src/rDock_2013.1_src/data/scripts/dock_solv.prm

>  <Rbt.Receptor>
prm/blind_docking_60.prm

>  <SCORE>
-9.94453

>  <SCORE.INTER>
-9.48037

>  <SCORE.INTER.CONST>
1

>  <SCORE.INTER.POLAR>
0

>  <SCORE.INTER.ROT>
1

>  <SCORE.INTER.SOLV>
6.65079

>  <SCORE.INTER.VDW>
-12.8038

>  <SCORE.INTER.norm>
-0.729259

>  <SCORE.INTRA>
-0.464161

>  <SCORE.INTRA.DIHEDRAL>
-0.143317

>  <SCORE.INTRA.DIHEDRAL.0>
1.75624

>  <SCORE.INTRA.POLAR>
0

>  <SCORE.INTRA.POLAR.0>
0

>  <SCORE.INTRA.REPUL>
0

>  <SCORE.INTRA.REPUL.0>
0

>  <SCORE.INTRA.SOLV>
-1.04145

>  <SCORE.INTRA.SOLV.lig_0>
-46.5296

>  <SCORE.INTRA.VDW>
0.12822

>  <SCORE.INTRA.VDW.0>
-0.381873

>  <SCORE.INTRA.norm>
-0.0357047

>  <SCORE.RESTR>
0

>  <SCORE.RESTR.CAVITY>
0

>  <SCORE.RESTR.norm>
0

>  <SCORE.SYSTEM>
0

>  <SCORE.SYSTEM.CONST>
0

>  <SCORE.SYSTEM.DIHEDRAL>
0

>  <SCORE.SYSTEM.SOLV>
0

>  <SCORE.SYSTEM.norm>
0

>  <SCORE.heavy>
13

>  <SCORE.norm>
-0.764964

>  <RMSD>
15.323

$$$$
ligand
 OpenBabel02271912143D
libRbt.so/2013.1/901 2013/11/27
 13 14  0  0  0  0  0  0  0  0999 V2000
   -0.6833   14.9172   47.4771 N   0  0  0  0  0  0  0  0  0  0  0  0
   -1.0152   14.6824   48.8213 C   0  0  0  0  0  0  0  0  0  0  0  0
   -0.4771   13.5227   49.4943 N   0  0  0  0  0  0  0  0  0  0  0  0
   -1.8379   15.5560   49.4954 N   0  0  0  0  0  0  0  0  0  0  0  0
   -2.3838   16.7047   48.8665 C   0  0  0  0  0  0  0  0  0  0  0  0
   -2.0816   16.9622   47.4848 C   0  0  0  0  0  0  0  0  0  0  0  0
   -1.2212   16.0204   46.8059 C   0  0  0  0  0  0  0  0  0  0  0  0
   -0.9323   16.2803   45.4953 O   0  0  0  0  0  0  0  0  0  0  0  0
   -2.7499   18.1810   47.0907 C   0  0  0  0  0  0  0  0  0  0  0  0
   -3.4384   18.5942   48.2324 C   0  0  0  0  0  0  0  0  0  0  0  0
   -3.2088   17.7204   49.2796 N   0  0  0  0  0  0  0  0  0  0  0  0
   -2.7450   18.8356   45.7232 C   0  0  0  0  0  0  0  0  0  0  0  0
   -2.5813   20.2866   45.7773 N   0  0  0  0  0  0  0  0  0  0  0  0
  1  2  1  0  0  0  0
  1  7  1  0  0  0  0
  2  3  1  0  0  0  0
  2  4  2  0  0  0  0
  4  5  1  0  0  0  0
  5  6  2  0  0  0  0
  5 11  1  0  0  0  0
  6  7  1  0  0  0  0
  6  9  1  0  0  0  0
  7  8  2  0  0  0  0
  9 10  2  0  0  0  0
  9 12  1  0  0  0  0
 10 11  1  0  0  0  0
 12 13  1  0  0  0  0
M  END
>  <CHROM.1>
-137.22992143,-1.92497653,16.77913756,47.65690657,-0.97049701,0.94696993
-0.99395651

>  <Name>
ligand

>  <RI>
-1

>  <Rbt.Current_Directory>
/home/itssahil/PROJECTS/Mol_Feturizer/Test_systems_manuscript/rnas/4jf2

>  <Rbt.Executable>
rbdock ($Id: //depot/dev/client3/rdock/2013.1/src/exe/rbdock.cxx#4 $)

>  <Rbt.Library>
libRbt.so (2013.1, Build901 2013/11/27)

>  <Rbt.Parameter_File>
/export/apps/rDock/src/rDock_2013.1_src/data/scripts/dock_solv.prm

>  <Rbt.Receptor>
prm/blind_docking_80.prm

>  <SCORE>
-9.14353

>  <SCORE.INTER>
-8.67912

>  <SCORE.INTER.CONST>
1

>  <SCORE.INTER.POLAR>
0

>  <SCORE.INTER.ROT>
1

>  <SCORE.INTER.SOLV>
8.66667

>  <SCORE.INTER.VDW>
-12.9416

>  <SCORE.INTER.norm>
-0.667625

>  <SCORE.INTRA>
-0.464411

>  <SCORE.INTRA.DIHEDRAL>
-0.159015

>  <SCORE.INTRA.DIHEDRAL.0>
1.75624

>  <SCORE.INTRA.POLAR>
0

>  <SCORE.INTRA.POLAR.0>
0

>  <SCORE.INTRA.REPUL>
0

>  <SCORE.INTRA.REPUL.0>
0

>  <SCORE.INTRA.SOLV>
-1.04026

>  <SCORE.INTRA.SOLV.lig_0>
-46.5296

>  <SCORE.INTRA.VDW>
0.135229

>  <SCORE.INTRA.VDW.0>
-0.381873

>  <SCORE.INTRA.norm>
-0.0357239

>  <SCORE.RESTR>
0

>  <SCORE.RESTR.CAVITY>
0

>  <SCORE.RESTR.norm>
0

>  <SCORE.SYSTEM>
0

>  <SCORE.SYSTEM.CONST>
0

>  <SCORE.SYSTEM.DIHEDRAL>
0

>  <SCORE.SYSTEM.SOLV>
0

>  <SCORE.SYSTEM.norm>
0

>  <SCORE.heavy>
13

>  <SCORE.norm>
-0.703348

>  <RMSD>
15.326

$$$$
ligand
 OpenBabel02271912143D
libRbt.so/2013.1/901 2013/11/27
 13 14  0  0  0  0  0  0  0  0999 V2000
   -0.6914   14.9162   47.4674 N   0  0  0  0  0  0  0  0  0  0  0  0
   -1.0191   14.6884   48.8139 C   0  0  0  0  0  0  0  0  0  0  0  0
   -0.4820   13.5300   49.4901 N   0  0  0  0  0  0  0  0  0  0  0  0
   -1.8365   15.5676   49.4871 N   0  0  0  0  0  0  0  0  0  0  0  0
   -2.3812   16.7151   48.8552 C   0  0  0  0  0  0  0  0  0  0  0  0
   -2.0833   16.9656   47.4712 C   0  0  0  0  0  0  0  0  0  0  0  0
   -1.2284   16.0181   46.7934 C   0  0  0  0  0  0  0  0  0  0  0  0
   -0.9436   16.2713   45.4805 O   0  0  0  0  0  0  0  0  0  0  0  0
   -2.7494   18.1846   47.0742 C   0  0  0  0  0  0  0  0  0  0  0  0
   -3.4323   18.6051   48.2166 C   0  0  0  0  0  0  0  0  0  0  0  0
   -3.2015   17.7352   49.2668 N   0  0  0  0  0  0  0  0  0  0  0  0
   -2.7475   18.8332   45.7037 C   0  0  0  0  0  0  0  0  0  0  0  0
   -3.8076   19.8239   45.5314 N   0  0  0  0  0  0  0  0  0  0  0  0
  1  2  1  0  0  0  0
  1  7  1  0  0  0  0
  2  3  1  0  0  0  0
  2  4  2  0  0  0  0
  4  5  1  0  0  0  0
  5  6  2  0  0  0  0
  5 11  1  0  0  0  0
  6  7  1  0  0  0  0
  6  9  1  0  0  0  0
  7  8  2  0  0  0  0
  9 10  2  0  0  0  0
  9 12  1  0  0  0  0
 10 11  1  0  0  0  0
 12 13  1  0  0  0  0
M  END
>  <CHROM.1>
163.35579823,-2.02662650,16.74534102,47.62568858,-0.83074740,0.91375483,-1.13837903

>  <Name>
ligand

>  <RI>
0

>  <Rbt.Current_Directory>
/home/itssahil/PROJECTS/Mol_Feturizer/Test_systems_manuscript/rnas/4jf2

>  <Rbt.Executable>
rbdock ($Id: //depot/dev/client3/rdock/2013.1/src/exe/rbdock.cxx#4 $)

>  <Rbt.Library>
libRbt.so (2013.1, Build901 2013/11/27)

>  <Rbt.Parameter_File>
/export/apps/rDock/src/rDock_2013.1_src/data/scripts/dock_solv.prm

>  <Rbt.Receptor>
prm/blind_docking_60.prm

>  <SCORE>
-9.04381

>  <SCORE.INTER>
-8.72918

>  <SCORE.INTER.CONST>
1

>  <SCORE.INTER.POLAR>
0

>  <SCORE.INTER.ROT>
1

>  <SCORE.INTER.SOLV>
8.79403

>  <SCORE.INTER.VDW>
-13.0175

>  <SCORE.INTER.norm>
-0.671475

>  <SCORE.INTRA>
-0.31463

>  <SCORE.INTRA.DIHEDRAL>
0.00419806

>  <SCORE.INTRA.DIHEDRAL.0>
1.75624

>  <SCORE.INTRA.POLAR>
0

>  <SCORE.INTRA.POLAR.0>
0

>  <SCORE.INTRA.REPUL>
0

>  <SCORE.INTRA.REPUL.0>
0

>  <SCORE.INTRA.SOLV>
-1.01654

>  <SCORE.INTRA.SOLV.lig_0>
-46.5296

>  <SCORE.INTRA.VDW>
0.191542

>  <SCORE.INTRA.VDW.0>
-0.381873

>  <SCORE.INTRA.norm>
-0.0242023

>  <SCORE.RESTR>
0

>  <SCORE.RESTR.CAVITY>
0

>  <SCORE.RESTR.norm>
0

>  <SCORE.SYSTEM>
0

>  <SCORE.SYSTEM.CONST>
0

>  <SCORE.SYSTEM.DIHEDRAL>
0

>  <SCORE.SYSTEM.SOLV>
0

>  <SCORE.SYSTEM.norm>
0

>  <SCORE.heavy>
13

>  <SCORE.norm>
-0.695678

>  <RMSD>
15.329

$$$$
ligand
 OpenBabel02271912143D
libRbt.so/2013.1/901 2013/11/27
 13 14  0  0  0  0  0  0  0  0999 V2000
   -0.6898   14.8983   47.4774 N   0  0  0  0  0  0  0  0  0  0  0  0
   -1.0024   14.6931   48.8311 C   0  0  0  0  0  0  0  0  0  0  0  0
   -0.4604   13.5444   49.5197 N   0  0  0  0  0  0  0  0  0  0  0  0
   -1.8100   15.5850   49.4993 N   0  0  0  0  0  0  0  0  0  0  0  0
   -2.3592   16.7237   48.8552 C   0  0  0  0  0  0  0  0  0  0  0  0
   -2.0766   16.9509   47.4640 C   0  0  0  0  0  0  0  0  0  0  0  0
   -1.2318   15.9905   46.7918 C   0  0  0  0  0  0  0  0  0  0  0  0
   -0.9615   16.2217   45.4718 O   0  0  0  0  0  0  0  0  0  0  0  0
   -2.7443   18.1652   47.0549 C   0  0  0  0  0  0  0  0  0  0  0  0
   -3.4131   18.6057   48.1982 C   0  0  0  0  0  0  0  0  0  0  0  0
   -3.1723   17.7523   49.2596 N   0  0  0  0  0  0  0  0  0  0  0  0
   -2.7567   18.7915   45.6743 C   0  0  0  0  0  0  0  0  0  0  0  0
   -3.5569   20.0118   45.6001 N   0  0  0  0  0  0  0  0  0  0  0  0
  1  2  1  0  0  0  0
  1  7  1  0  0  0  0
  2  3  1  0  0  0  0
  2  4  2  0  0  0  0
  4  5  1  0  0  0  0
  5  6  2  0  0  0  0
  5 11  1  0  0  0  0
  6  7  1  0  0  0  0
  6  9  1  0  0  0  0
  7  8  2  0  0  0  0
  9 10  2  0  0  0  0
  9 12  1  0  0  0  0
 10 11  1  0  0  0  0
 12 13  1  0  0  0  0
M  END
>  <CHROM.1>
178.83084716,-1.99759596,16.75180660,47.62966014,-0.83980075,0.93427928,-1.13207583

>  <Name>
ligand

>  <RI>
0

>  <Rbt.Current_Directory>
/home/itssahil/PROJECTS/Mol_Feturizer/Test_systems_manuscript/rnas/4jf2

>  <Rbt.Executable>
rbdock ($Id: //depot/dev/client3/rdock/2013.1/src/exe/rbdock.cxx#4 $)

>  <Rbt.Library>
libRbt.so (2013.1, Build901 2013/11/27)

>  <Rbt.Parameter_File>
/export/apps/rDock/src/rDock_2013.1_src/data/scripts/dock_solv.prm

>  <Rbt.Receptor>
prm/blind_docking_60.prm

>  <SCORE>
-8.98464

>  <SCORE.INTER>
-8.63903

>  <SCORE.INTER.CONST>
1

>  <SCORE.INTER.POLAR>
0

>  <SCORE.INTER.ROT>
1

>  <SCORE.INTER.SOLV>
8.71854

>  <SCORE.INTER.VDW>
-12.9322

>  <SCORE.INTER.norm>
-0.664541

>  <SCORE.INTRA>
-0.345608

>  <SCORE.INTRA.DIHEDRAL>
-0.0768281

>  <SCORE.INTRA.DIHEDRAL.0>
1.75624

>  <SCORE.INTRA.POLAR>
0

>  <SCORE.INTRA.POLAR.0>
0

>  <SCORE.INTRA.REPUL>
0

>  <SCORE.INTRA.REPUL.0>
0

>  <SCORE.INTRA.SOLV>
-1.01823

>  <SCORE.INTRA.SOLV.lig_0>
-46.5296

>  <SCORE.INTRA.VDW>
0.201919

>  <SCORE.INTRA.VDW.0>
-0.381873

>  <SCORE.INTRA.norm>
-0.0265852

>  <SCORE.RESTR>
0

>  <SCORE.RESTR.CAVITY>
0

>  <SCORE.RESTR.norm>
0

>  <SCORE.SYSTEM>
0

>  <SCORE.SYSTEM.CONST>
0

>  <SCORE.SYSTEM.DIHEDRAL>
0

>  <SCORE.SYSTEM.SOLV>
0

>  <SCORE.SYSTEM.norm>
0

>  <SCORE.heavy>
13

>  <SCORE.norm>
-0.691126

>  <RMSD>
15.331

$$$$
ligand
 OpenBabel02271912143D
libRbt.so/2013.1/901 2013/11/27
 13 14  0  0  0  0  0  0  0  0999 V2000
    6.1659   21.2617   47.6500 N   0  0  0  0  0  0  0  0  0  0  0  0
    4.9012   21.8684   47.5820 C   0  0  0  0  0  0  0  0  0  0  0  0
    4.6553   22.8903   46.5907 N   0  0  0  0  0  0  0  0  0  0  0  0
    3.9007   21.4849   48.4458 N   0  0  0  0  0  0  0  0  0  0  0  0
    4.1063   20.4849   49.4310 C   0  0  0  0  0  0  0  0  0  0  0  0
    5.3961   19.8596   49.5418 C   0  0  0  0  0  0  0  0  0  0  0  0
    6.4254   20.2919   48.6242 C   0  0  0  0  0  0  0  0  0  0  0  0
    7.6449   19.6837   48.7318 O   0  0  0  0  0  0  0  0  0  0  0  0
    5.3413   18.8855   50.6073 C   0  0  0  0  0  0  0  0  0  0  0  0
    4.0405   18.9761   51.1054 C   0  0  0  0  0  0  0  0  0  0  0  0
    3.3152   19.9177   50.3980 N   0  0  0  0  0  0  0  0  0  0  0  0
    6.4656   17.9993   51.1065 C   0  0  0  0  0  0  0  0  0  0  0  0
    6.5968   17.9961   52.5618 N   0  0  0  0  0  0  0  0  0  0  0  0
  1  2  1  0  0  0  0
  1  7  1  0  0  0  0
  2  3  1  0  0  0  0
  2  4  2  0  0  0  0
  4  5  1  0  0  0  0
  5  6  2  0  0  0  0
  5 11  1  0  0  0  0
  6  7  1  0  0  0  0
  6  9  1  0  0  0  0
  7  8  2  0  0  0  0
  9 10  2  0  0  0  0
  9 12  1  0  0  0  0
 10 11  1  0  0  0  0
 12 13  1  0  0  0  0
M  END
>  <CHROM.1>
132.44162826,5.35020165,20.12207041,49.40110218,-1.76121154,-0.26181513,2.24936137

>  <Name>
ligand

>  <RI>
0

>  <Rbt.Current_Directory>
/home/itssahil/PROJECTS/Mol_Feturizer/Test_systems_manuscript/rnas/4jf2

>  <Rbt.Executable>
rbdock ($Id: //depot/dev/client3/rdock/2013.1/src/exe/rbdock.cxx#4 $)

>  <Rbt.Library>
libRbt.so (2013.1, Build901 2013/11/27)

>  <Rbt.Parameter_File>
/export/apps/rDock/src/rDock_2013.1_src/data/scripts/dock_solv.prm

>  <Rbt.Receptor>
prm/blind_docking_60.prm

>  <SCORE>
-9.20694

>  <SCORE.INTER>
-8.87037

>  <SCORE.INTER.CONST>
1

>  <SCORE.INTER.POLAR>
0

>  <SCORE.INTER.ROT>
1

>  <SCORE.INTER.SOLV>
9.0522

>  <SCORE.INTER.VDW>
-13.1976

>  <SCORE.INTER.norm>
-0.682336

>  <SCORE.INTRA>
-0.381682

>  <SCORE.INTRA.DIHEDRAL>
-0.00283514

>  <SCORE.INTRA.DIHEDRAL.0>
1.75624

>  <SCORE.INTRA.POLAR>
0

>  <SCORE.INTRA.POLAR.0>
0

>  <SCORE.INTRA.REPUL>
0

>  <SCORE.INTRA.REPUL.0>
0

>  <SCORE.INTRA.SOLV>
-1.02228

>  <SCORE.INTRA.SOLV.lig_0>
-46.5296

>  <SCORE.INTRA.VDW>
0.130876

>  <SCORE.INTRA.VDW.0>
-0.381873

>  <SCORE.INTRA.norm>
-0.0293602

>  <SCORE.RESTR>
0.0451174

>  <SCORE.RESTR.CAVITY>
0.0451174

>  <SCORE.RESTR.norm>
0.00347057

>  <SCORE.SYSTEM>
0

>  <SCORE.SYSTEM.CONST>
0

>  <SCORE.SYSTEM.DIHEDRAL>
0

>  <SCORE.SYSTEM.SOLV>
0

>  <SCORE.SYSTEM.norm>
0

>  <SCORE.heavy>
13

>  <SCORE.norm>
-0.708226

>  <RMSD>
15.466

$$$$
ligand
 OpenBabel02271912143D
libRbt.so/2013.1/901 2013/11/27
 13 14  0  0  0  0  0  0  0  0999 V2000
   -3.1045   18.5155   46.9781 N   0  0  0  0  0  0  0  0  0  0  0  0
   -2.7487   18.6729   45.6287 C   0  0  0  0  0  0  0  0  0  0  0  0
   -3.3086   19.7667   44.8688 N   0  0  0  0  0  0  0  0  0  0  0  0
   -1.8651   17.7986   45.0380 N   0  0  0  0  0  0  0  0  0  0  0  0
   -1.2955   16.7140   45.7537 C   0  0  0  0  0  0  0  0  0  0  0  0
   -1.6560   16.5116   47.1306 C   0  0  0  0  0  0  0  0  0  0  0  0
   -2.5920   17.4436   47.7165 C   0  0  0  0  0  0  0  0  0  0  0  0
   -2.9201   17.2477   49.0291 O   0  0  0  0  0  0  0  0  0  0  0  0
   -0.9434   15.3557   47.6240 C   0  0  0  0  0  0  0  0  0  0  0  0
   -0.2056   14.8993   46.5305 C   0  0  0  0  0  0  0  0  0  0  0  0
   -0.4130   15.7137   45.4320 N   0  0  0  0  0  0  0  0  0  0  0  0
   -1.0222   14.7447   49.0093 C   0  0  0  0  0  0  0  0  0  0  0  0
   -0.9811   13.2841   49.0004 N   0  0  0  0  0  0  0  0  0  0  0  0
  1  2  1  0  0  0  0
  1  7  1  0  0  0  0
  2  3  1  0  0  0  0
  2  4  2  0  0  0  0
  4  5  1  0  0  0  0
  5  6  2  0  0  0  0
  5 11  1  0  0  0  0
  6  7  1  0  0  0  0
  6  9  1  0  0  0  0
  7  8  2  0  0  0  0
  9 10  2  0  0  0  0
  9 12  1  0  0  0  0
 10 11  1  0  0  0  0
 12 13  1  0  0  0  0
M  END
>  <CHROM.1>
141.55087445,-1.80061449,16.67796070,46.93989681,2.16011832,0.89008783,-1.03328547

>  <Name>
ligand

>  <RI>
0

>  <Rbt.Current_Directory>
/home/itssahil/PROJECTS/Mol_Feturizer/Test_systems_manuscript/rnas/4jf2

>  <Rbt.Executable>
rbdock ($Id: //depot/dev/client3/rdock/2013.1/src/exe/rbdock.cxx#4 $)

>  <Rbt.Library>
libRbt.so (2013.1, Build901 2013/11/27)

>  <Rbt.Parameter_File>
/export/apps/rDock/src/rDock_2013.1_src/data/scripts/dock_solv.prm

>  <Rbt.Receptor>
prm/blind_docking_60.prm

>  <SCORE>
-9.73952

>  <SCORE.INTER>
-9.3936

>  <SCORE.INTER.CONST>
1

>  <SCORE.INTER.POLAR>
0

>  <SCORE.INTER.ROT>
1

>  <SCORE.INTER.SOLV>
6.11997

>  <SCORE.INTER.VDW>
-12.5691

>  <SCORE.INTER.norm>
-0.722585

>  <SCORE.INTRA>
-0.345917

>  <SCORE.INTRA.DIHEDRAL>
0.0275572

>  <SCORE.INTRA.DIHEDRAL.0>
1.75624

>  <SCORE.INTRA.POLAR>
0

>  <SCORE.INTRA.POLAR.0>
0

>  <SCORE.INTRA.REPUL>
0

>  <SCORE.INTRA.REPUL.0>
0

>  <SCORE.INTRA.SOLV>
-1.01983

>  <SCORE.INTRA.SOLV.lig_0>
-46.5296

>  <SCORE.INTRA.VDW>
0.150218

>  <SCORE.INTRA.VDW.0>
-0.381873

>  <SCORE.INTRA.norm>
-0.026609

>  <SCORE.RESTR>
0

>  <SCORE.RESTR.CAVITY>
0

>  <SCORE.RESTR.norm>
0

>  <SCORE.SYSTEM>
0

>  <SCORE.SYSTEM.CONST>
0

>  <SCORE.SYSTEM.DIHEDRAL>
0

>  <SCORE.SYSTEM.SOLV>
0

>  <SCORE.SYSTEM.norm>
0

>  <SCORE.heavy>
13

>  <SCORE.norm>
-0.749194

>  <RMSD>
15.874

$$$$
ligand
 OpenBabel02271912143D
libRbt.so/2013.1/901 2013/11/27
 13 14  0  0  0  0  0  0  0  0999 V2000
   -3.0949   18.5148   46.9797 N   0  0  0  0  0  0  0  0  0  0  0  0
   -2.7381   18.6715   45.6305 C   0  0  0  0  0  0  0  0  0  0  0  0
   -3.2932   19.7681   44.8711 N   0  0  0  0  0  0  0  0  0  0  0  0
   -1.8581   17.7937   45.0394 N   0  0  0  0  0  0  0  0  0  0  0  0
   -1.2934   16.7063   45.7545 C   0  0  0  0  0  0  0  0  0  0  0  0
   -1.6550   16.5046   47.1313 C   0  0  0  0  0  0  0  0  0  0  0  0
   -2.5871   17.4403   47.7176 C   0  0  0  0  0  0  0  0  0  0  0  0
   -2.9164   17.2450   49.0299 O   0  0  0  0  0  0  0  0  0  0  0  0
   -0.9474   15.3454   47.6241 C   0  0  0  0  0  0  0  0  0  0  0  0
   -0.2113   14.8865   46.5305 C   0  0  0  0  0  0  0  0  0  0  0  0
   -0.4150   15.7025   45.4325 N   0  0  0  0  0  0  0  0  0  0  0  0
   -1.0292   14.7340   49.0091 C   0  0  0  0  0  0  0  0  0  0  0  0
   -0.9876   13.2734   48.9997 N   0  0  0  0  0  0  0  0  0  0  0  0
  1  2  1  0  0  0  0
  1  7  1  0  0  0  0
  2  3  1  0  0  0  0
  2  4  2  0  0  0  0
  4  5  1  0  0  0  0
  5  6  2  0  0  0  0
  5 11  1  0  0  0  0
  6  7  1  0  0  0  0
  6  9  1  0  0  0  0
  7  8  2  0  0  0  0
  9 10  2  0  0  0  0
  9 12  1  0  0  0  0
 10 11  1  0  0  0  0
 12 13  1  0  0  0  0
M  END
>  <CHROM.1>
141.83760088,-1.79832117,16.67174908,46.94069162,2.15710917,0.89356701,-1.03034889

>  <Name>
ligand

>  <RI>
-1

>  <Rbt.Current_Directory>
/home/itssahil/PROJECTS/Mol_Feturizer/Test_systems_manuscript/rnas/4jf2

>  <Rbt.Executable>
rbdock ($Id: //depot/dev/client3/rdock/2013.1/src/exe/rbdock.cxx#4 $)

>  <Rbt.Library>
libRbt.so (2013.1, Build901 2013/11/27)

>  <Rbt.Parameter_File>
/export/apps/rDock/src/rDock_2013.1_src/data/scripts/dock_solv.prm

>  <Rbt.Receptor>
prm/blind_docking_80.prm

>  <SCORE>
-9.73913

>  <SCORE.INTER>
-9.39416

>  <SCORE.INTER.CONST>
1

>  <SCORE.INTER.POLAR>
0

>  <SCORE.INTER.ROT>
1

>  <SCORE.INTER.SOLV>
6.11366

>  <SCORE.INTER.VDW>
-12.5673

>  <SCORE.INTER.norm>
-0.722628

>  <SCORE.INTRA>
-0.344964

>  <SCORE.INTRA.DIHEDRAL>
0.0281605

>  <SCORE.INTRA.DIHEDRAL.0>
1.75624

>  <SCORE.INTRA.POLAR>
0

>  <SCORE.INTRA.POLAR.0>
0

>  <SCORE.INTRA.REPUL>
0

>  <SCORE.INTRA.REPUL.0>
0

>  <SCORE.INTRA.SOLV>
-1.01975

>  <SCORE.INTRA.SOLV.lig_0>
-46.5296

>  <SCORE.INTRA.VDW>
0.150833

>  <SCORE.INTRA.VDW.0>
-0.381873

>  <SCORE.INTRA.norm>
-0.0265357

>  <SCORE.RESTR>
0

>  <SCORE.RESTR.CAVITY>
0

>  <SCORE.RESTR.norm>
0

>  <SCORE.SYSTEM>
0

>  <SCORE.SYSTEM.CONST>
0

>  <SCORE.SYSTEM.DIHEDRAL>
0

>  <SCORE.SYSTEM.SOLV>
0

>  <SCORE.SYSTEM.norm>
0

>  <SCORE.heavy>
13

>  <SCORE.norm>
-0.749164

>  <RMSD>
15.878

$$$$
ligand
 OpenBabel02271912143D
libRbt.so/2013.1/901 2013/11/27
 13 14  0  0  0  0  0  0  0  0999 V2000
    7.7177   31.9000   44.6642 N   0  0  0  0  0  0  0  0  0  0  0  0
    7.8600   31.4418   43.3444 C   0  0  0  0  0  0  0  0  0  0  0  0
    7.6393   32.3553   42.2470 N   0  0  0  0  0  0  0  0  0  0  0  0
    8.2176   30.1357   43.0984 N   0  0  0  0  0  0  0  0  0  0  0  0
    8.4427   29.2114   44.1511 C   0  0  0  0  0  0  0  0  0  0  0  0
    8.2838   29.6426   45.5133 C   0  0  0  0  0  0  0  0  0  0  0  0
    7.9001   31.0181   45.7346 C   0  0  0  0  0  0  0  0  0  0  0  0
    7.7615   31.4200   47.0339 O   0  0  0  0  0  0  0  0  0  0  0  0
    8.5713   28.5249   46.3825 C   0  0  0  0  0  0  0  0  0  0  0  0
    8.8684   27.4697   45.5184 C   0  0  0  0  0  0  0  0  0  0  0  0
    8.7987   27.8872   44.2017 N   0  0  0  0  0  0  0  0  0  0  0  0
    8.5113   28.4942   47.8971 C   0  0  0  0  0  0  0  0  0  0  0  0
    9.2053   27.3481   48.4802 N   0  0  0  0  0  0  0  0  0  0  0  0
  1  2  1  0  0  0  0
  1  7  1  0  0  0  0
  2  3  1  0  0  0  0
  2  4  2  0  0  0  0
  4  5  1  0  0  0  0
  5  6  2  0  0  0  0
  5 11  1  0  0  0  0
  6  7  1  0  0  0  0
  6  9  1  0  0  0  0
  7  8  2  0  0  0  0
  9 10  2  0  0  0  0
  9 12  1  0  0  0  0
 10 11  1  0  0  0  0
 12 13  1  0  0  0  0
M  END
>  <CHROM.1>
-164.02651003,8.28238425,29.79104966,45.28225389,2.28993817,1.29334555,-1.54854926

>  <Name>
ligand

>  <RI>
0

>  <Rbt.Current_Directory>
/home/itssahil/PROJECTS/Mol_Feturizer/Test_systems_manuscript/rnas/4jf2

>  <Rbt.Executable>
rbdock ($Id: //depot/dev/client3/rdock/2013.1/src/exe/rbdock.cxx#4 $)

>  <Rbt.Library>
libRbt.so (2013.1, Build901 2013/11/27)

>  <Rbt.Parameter_File>
/export/apps/rDock/src/rDock_2013.1_src/data/scripts/dock_solv.prm

>  <Rbt.Receptor>
prm/blind_docking_100.prm

>  <SCORE>
-6.68349

>  <SCORE.INTER>
-6.276

>  <SCORE.INTER.CONST>
1

>  <SCORE.INTER.POLAR>
0

>  <SCORE.INTER.ROT>
1

>  <SCORE.INTER.SOLV>
6.34459

>  <SCORE.INTER.VDW>
-10.5655

>  <SCORE.INTER.norm>
-0.48277

>  <SCORE.INTRA>
-0.407487

>  <SCORE.INTRA.DIHEDRAL>
-0.163851

>  <SCORE.INTRA.DIHEDRAL.0>
1.75624

>  <SCORE.INTRA.POLAR>
0

>  <SCORE.INTRA.POLAR.0>
0

>  <SCORE.INTRA.REPUL>
0

>  <SCORE.INTRA.REPUL.0>
0

>  <SCORE.INTRA.SOLV>
-1.02455

>  <SCORE.INTRA.SOLV.lig_0>
-46.5296

>  <SCORE.INTRA.VDW>
0.186716

>  <SCORE.INTRA.VDW.0>
-0.381873

>  <SCORE.INTRA.norm>
-0.0313451

>  <SCORE.RESTR>
0

>  <SCORE.RESTR.CAVITY>
0

>  <SCORE.RESTR.norm>
0

>  <SCORE.SYSTEM>
0

>  <SCORE.SYSTEM.CONST>
0

>  <SCORE.SYSTEM.DIHEDRAL>
0

>  <SCORE.SYSTEM.SOLV>
0

>  <SCORE.SYSTEM.norm>
0

>  <SCORE.heavy>
13

>  <SCORE.norm>
-0.514115

>  <RMSD>
16.214

$$$$
ligand
 OpenBabel02271912143D
libRbt.so/2013.1/901 2013/11/27
 13 14  0  0  0  0  0  0  0  0999 V2000
   -2.8727   17.8911   46.8142 N   0  0  0  0  0  0  0  0  0  0  0  0
   -2.4707   17.1841   47.9591 C   0  0  0  0  0  0  0  0  0  0  0  0
   -3.1430   17.4240   49.2153 N   0  0  0  0  0  0  0  0  0  0  0  0
   -1.4518   16.2620   47.8827 N   0  0  0  0  0  0  0  0  0  0  0  0
   -0.7700   16.0006   46.6663 C   0  0  0  0  0  0  0  0  0  0  0  0
   -1.1421   16.7233   45.4806 C   0  0  0  0  0  0  0  0  0  0  0  0
   -2.2105   17.6891   45.5987 C   0  0  0  0  0  0  0  0  0  0  0  0
   -2.5628   18.3634   44.4629 O   0  0  0  0  0  0  0  0  0  0  0  0
   -0.3074   16.2731   44.3906 C   0  0  0  0  0  0  0  0  0  0  0  0
    0.5402   15.3221   44.9611 C   0  0  0  0  0  0  0  0  0  0  0  0
    0.2534   15.1611   46.3045 N   0  0  0  0  0  0  0  0  0  0  0  0
   -0.3171   16.7651   42.9565 C   0  0  0  0  0  0  0  0  0  0  0  0
    0.5340   17.9330   42.7401 N   0  0  0  0  0  0  0  0  0  0  0  0
  1  2  1  0  0  0  0
  1  7  1  0  0  0  0
  2  3  1  0  0  0  0
  2  4  2  0  0  0  0
  4  5  1  0  0  0  0
  5  6  2  0  0  0  0
  5 11  1  0  0  0  0
  6  7  1  0  0  0  0
  6  9  1  0  0  0  0
  7  8  2  0  0  0  0
  9 10  2  0  0  0  0
  9 12  1  0  0  0  0
 10 11  1  0  0  0  0
 12 13  1  0  0  0  0
M  END
>  <CHROM.1>
86.72120458,-1.25150057,16.88492497,45.78387427,2.27352757,-0.71630628,2.01297229

>  <Name>
ligand

>  <RI>
0

>  <Rbt.Current_Directory>
/home/itssahil/PROJECTS/Mol_Feturizer/Test_systems_manuscript/rnas/4jf2

>  <Rbt.Executable>
rbdock ($Id: //depot/dev/client3/rdock/2013.1/src/exe/rbdock.cxx#4 $)

>  <Rbt.Library>
libRbt.so (2013.1, Build901 2013/11/27)

>  <Rbt.Parameter_File>
/export/apps/rDock/src/rDock_2013.1_src/data/scripts/dock_solv.prm

>  <Rbt.Receptor>
prm/blind_docking_60.prm

>  <SCORE>
-10.5022

>  <SCORE.INTER>
-10.2714

>  <SCORE.INTER.CONST>
1

>  <SCORE.INTER.POLAR>
0

>  <SCORE.INTER.ROT>
1

>  <SCORE.INTER.SOLV>
12.9973

>  <SCORE.INTER.VDW>
-15.4467

>  <SCORE.INTER.norm>
-0.790107

>  <SCORE.INTRA>
-0.235353

>  <SCORE.INTRA.DIHEDRAL>
-0.187216

>  <SCORE.INTRA.DIHEDRAL.0>
1.75624

>  <SCORE.INTRA.POLAR>
0

>  <SCORE.INTRA.POLAR.0>
0

>  <SCORE.INTRA.REPUL>
0

>  <SCORE.INTRA.REPUL.0>
0

>  <SCORE.INTRA.SOLV>
-0.34989

>  <SCORE.INTRA.SOLV.lig_0>
-46.5296

>  <SCORE.INTRA.VDW>
0.0331998

>  <SCORE.INTRA.VDW.0>
-0.381873

>  <SCORE.INTRA.norm>
-0.0181041

>  <SCORE.RESTR>
0.00458556

>  <SCORE.RESTR.CAVITY>
0.00458556

>  <SCORE.RESTR.norm>
0.000352735

>  <SCORE.SYSTEM>
0

>  <SCORE.SYSTEM.CONST>
0

>  <SCORE.SYSTEM.DIHEDRAL>
0

>  <SCORE.SYSTEM.SOLV>
0

>  <SCORE.SYSTEM.norm>
0

>  <SCORE.heavy>
13

>  <SCORE.norm>
-0.807859

>  <RMSD>
16.294

$$$$
ligand
 OpenBabel02271912143D
libRbt.so/2013.1/901 2013/11/27
 13 14  0  0  0  0  0  0  0  0999 V2000
   -2.8750   17.8127   46.8095 N   0  0  0  0  0  0  0  0  0  0  0  0
   -2.4385   17.1083   47.9433 C   0  0  0  0  0  0  0  0  0  0  0  0
   -3.1126   17.3057   49.2059 N   0  0  0  0  0  0  0  0  0  0  0  0
   -1.3841   16.2287   47.8500 N   0  0  0  0  0  0  0  0  0  0  0  0
   -0.6995   16.0096   46.6268 C   0  0  0  0  0  0  0  0  0  0  0  0
   -1.1070   16.7315   45.4522 C   0  0  0  0  0  0  0  0  0  0  0  0
   -2.2123   17.6523   45.5880 C   0  0  0  0  0  0  0  0  0  0  0  0
   -2.5978   18.3259   44.4626 O   0  0  0  0  0  0  0  0  0  0  0  0
   -0.2613   16.3284   44.3522 C   0  0  0  0  0  0  0  0  0  0  0  0
    0.6268   15.4051   44.9063 C   0  0  0  0  0  0  0  0  0  0  0  0
    0.3545   15.2162   46.2491 N   0  0  0  0  0  0  0  0  0  0  0  0
   -0.2989   16.8372   42.9245 C   0  0  0  0  0  0  0  0  0  0  0  0
    0.4477   18.0787   42.7332 N   0  0  0  0  0  0  0  0  0  0  0  0
  1  2  1  0  0  0  0
  1  7  1  0  0  0  0
  2  3  1  0  0  0  0
  2  4  2  0  0  0  0
  4  5  1  0  0  0  0
  5  6  2  0  0  0  0
  5 11  1  0  0  0  0
  6  7  1  0  0  0  0
  6  9  1  0  0  0  0
  7  8  2  0  0  0  0
  9 10  2  0  0  0  0
  9 12  1  0  0  0  0
 10 11  1  0  0  0  0
 12 13  1  0  0  0  0
M  END
>  <CHROM.1>
83.76316844,-1.22550682,16.88792376,45.75925236,2.24057141,-0.68494783,2.00779124

>  <Name>
ligand

>  <RI>
0

>  <Rbt.Current_Directory>
/home/itssahil/PROJECTS/Mol_Feturizer/Test_systems_manuscript/rnas/4jf2

>  <Rbt.Executable>
rbdock ($Id: //depot/dev/client3/rdock/2013.1/src/exe/rbdock.cxx#4 $)

>  <Rbt.Library>
libRbt.so (2013.1, Build901 2013/11/27)

>  <Rbt.Parameter_File>
/export/apps/rDock/src/rDock_2013.1_src/data/scripts/dock_solv.prm

>  <Rbt.Receptor>
prm/blind_docking_100.prm

>  <SCORE>
-10.4488

>  <SCORE.INTER>
-10.2489

>  <SCORE.INTER.CONST>
1

>  <SCORE.INTER.POLAR>
0

>  <SCORE.INTER.ROT>
1

>  <SCORE.INTER.SOLV>
12.845

>  <SCORE.INTER.VDW>
-15.3809

>  <SCORE.INTER.norm>
-0.788376

>  <SCORE.INTRA>
-0.200123

>  <SCORE.INTRA.DIHEDRAL>
-0.18408

>  <SCORE.INTRA.DIHEDRAL.0>
1.75624

>  <SCORE.INTRA.POLAR>
0

>  <SCORE.INTRA.POLAR.0>
0

>  <SCORE.INTRA.REPUL>
0

>  <SCORE.INTRA.REPUL.0>
0

>  <SCORE.INTRA.SOLV>
-0.266311

>  <SCORE.INTRA.SOLV.lig_0>
-46.5296

>  <SCORE.INTRA.VDW>
0.0250731

>  <SCORE.INTRA.VDW.0>
-0.381873

>  <SCORE.INTRA.norm>
-0.015394

>  <SCORE.RESTR>
0.000211162

>  <SCORE.RESTR.CAVITY>
0.000211162

>  <SCORE.RESTR.norm>
1.62432e-05

>  <SCORE.SYSTEM>
0

>  <SCORE.SYSTEM.CONST>
0

>  <SCORE.SYSTEM.DIHEDRAL>
0

>  <SCORE.SYSTEM.SOLV>
0

>  <SCORE.SYSTEM.norm>
0

>  <SCORE.heavy>
13

>  <SCORE.norm>
-0.803754

>  <RMSD>
16.309

$$$$
ligand
 OpenBabel02271912143D
libRbt.so/2013.1/901 2013/11/27
 13 14  0  0  0  0  0  0  0  0999 V2000
   -1.6802   15.7094   48.2589 N   0  0  0  0  0  0  0  0  0  0  0  0
   -0.8015   14.6146   48.3001 C   0  0  0  0  0  0  0  0  0  0  0  0
   -0.7760   13.7672   49.4700 N   0  0  0  0  0  0  0  0  0  0  0  0
    0.0210   14.3448   47.2301 N   0  0  0  0  0  0  0  0  0  0  0  0
    0.0222   15.1550   46.0654 C   0  0  0  0  0  0  0  0  0  0  0  0
   -0.8495   16.2963   46.0000 C   0  0  0  0  0  0  0  0  0  0  0  0
   -1.6936   16.5544   47.1442 C   0  0  0  0  0  0  0  0  0  0  0  0
   -2.5257   17.6363   47.0673 O   0  0  0  0  0  0  0  0  0  0  0  0
   -0.6602   16.9429   44.7219 C   0  0  0  0  0  0  0  0  0  0  0  0
    0.3231   16.1861   44.0827 C   0  0  0  0  0  0  0  0  0  0  0  0
    0.7139   15.1261   44.8806 N   0  0  0  0  0  0  0  0  0  0  0  0
   -1.3425   18.1971   44.2120 C   0  0  0  0  0  0  0  0  0  0  0  0
   -0.4477   19.0800   43.4671 N   0  0  0  0  0  0  0  0  0  0  0  0
  1  2  1  0  0  0  0
  1  7  1  0  0  0  0
  2  3  1  0  0  0  0
  2  4  2  0  0  0  0
  4  5  1  0  0  0  0
  5  6  2  0  0  0  0
  5 11  1  0  0  0  0
  6  7  1  0  0  0  0
  6  9  1  0  0  0  0
  7  8  2  0  0  0  0
  9 10  2  0  0  0  0
  9 12  1  0  0  0  0
 10 11  1  0  0  0  0
 12 13  1  0  0  0  0
M  END
>  <CHROM.1>
140.32273323,-0.77604819,16.15314207,46.24452272,1.62751091,-0.80822188,2.27037107

>  <Name>
ligand

>  <RI>
0

>  <Rbt.Current_Directory>
/home/itssahil/PROJECTS/Mol_Feturizer/Test_systems_manuscript/rnas/4jf2

>  <Rbt.Executable>
rbdock ($Id: //depot/dev/client3/rdock/2013.1/src/exe/rbdock.cxx#4 $)

>  <Rbt.Library>
libRbt.so (2013.1, Build901 2013/11/27)

>  <Rbt.Parameter_File>
/export/apps/rDock/src/rDock_2013.1_src/data/scripts/dock_solv.prm

>  <Rbt.Receptor>
prm/blind_docking_60.prm

>  <SCORE>
-9.91065

>  <SCORE.INTER>
-9.56052

>  <SCORE.INTER.CONST>
1

>  <SCORE.INTER.POLAR>
0

>  <SCORE.INTER.ROT>
1

>  <SCORE.INTER.SOLV>
8.9117

>  <SCORE.INTER.VDW>
-13.6109

>  <SCORE.INTER.norm>
-0.735424

>  <SCORE.INTRA>
-0.350132

>  <SCORE.INTRA.DIHEDRAL>
0.02471

>  <SCORE.INTRA.DIHEDRAL.0>
1.75624

>  <SCORE.INTRA.POLAR>
0

>  <SCORE.INTRA.POLAR.0>
0

>  <SCORE.INTRA.REPUL>
0

>  <SCORE.INTRA.REPUL.0>
0

>  <SCORE.INTRA.SOLV>
-1.02014

>  <SCORE.INTRA.SOLV.lig_0>
-46.5296

>  <SCORE.INTRA.VDW>
0.147583

>  <SCORE.INTRA.VDW.0>
-0.381873

>  <SCORE.INTRA.norm>
-0.0269332

>  <SCORE.RESTR>
0

>  <SCORE.RESTR.CAVITY>
0

>  <SCORE.RESTR.norm>
0

>  <SCORE.SYSTEM>
0

>  <SCORE.SYSTEM.CONST>
0

>  <SCORE.SYSTEM.DIHEDRAL>
0

>  <SCORE.SYSTEM.SOLV>
0

>  <SCORE.SYSTEM.norm>
0

>  <SCORE.heavy>
13

>  <SCORE.norm>
-0.762357

>  <RMSD>
16.719

$$$$
ligand
 OpenBabel02271912143D
libRbt.so/2013.1/901 2013/11/27
 13 14  0  0  0  0  0  0  0  0999 V2000
   -1.6692   15.7099   48.2192 N   0  0  0  0  0  0  0  0  0  0  0  0
   -0.7813   14.6235   48.2792 C   0  0  0  0  0  0  0  0  0  0  0  0
   -0.7717   13.7770   49.4500 N   0  0  0  0  0  0  0  0  0  0  0  0
    0.0653   14.3608   47.2264 N   0  0  0  0  0  0  0  0  0  0  0  0
    0.0827   15.1702   46.0613 C   0  0  0  0  0  0  0  0  0  0  0  0
   -0.7981   16.3033   45.9773 C   0  0  0  0  0  0  0  0  0  0  0  0
   -1.6677   16.5541   47.1038 C   0  0  0  0  0  0  0  0  0  0  0  0
   -2.5081   17.6282   47.0092 O   0  0  0  0  0  0  0  0  0  0  0  0
   -0.5887   16.9509   44.7029 C   0  0  0  0  0  0  0  0  0  0  0  0
    0.4144   16.2029   44.0844 C   0  0  0  0  0  0  0  0  0  0  0  0
    0.7987   15.1471   44.8909 N   0  0  0  0  0  0  0  0  0  0  0  0
   -1.2722   18.1984   44.1782 C   0  0  0  0  0  0  0  0  0  0  0  0
   -0.3779   19.0739   43.4239 N   0  0  0  0  0  0  0  0  0  0  0  0
  1  2  1  0  0  0  0
  1  7  1  0  0  0  0
  2  3  1  0  0  0  0
  2  4  2  0  0  0  0
  4  5  1  0  0  0  0
  5  6  2  0  0  0  0
  5 11  1  0  0  0  0
  6  7  1  0  0  0  0
  6  9  1  0  0  0  0
  7  8  2  0  0  0  0
  9 10  2  0  0  0  0
  9 12  1  0  0  0  0
 10 11  1  0  0  0  0
 12 13  1  0  0  0  0
M  END
>  <CHROM.1>
141.68389720,-0.72885602,16.15973074,46.22116576,1.64082883,-0.78718012,2.27701356

>  <Name>
ligand

>  <RI>
-1

>  <Rbt.Current_Directory>
/home/itssahil/PROJECTS/Mol_Feturizer/Test_systems_manuscript/rnas/4jf2

>  <Rbt.Executable>
rbdock ($Id: //depot/dev/client3/rdock/2013.1/src/exe/rbdock.cxx#4 $)

>  <Rbt.Library>
libRbt.so (2013.1, Build901 2013/11/27)

>  <Rbt.Parameter_File>
/export/apps/rDock/src/rDock_2013.1_src/data/scripts/dock_solv.prm

>  <Rbt.Receptor>
prm/blind_docking_80.prm

>  <SCORE>
-9.86885

>  <SCORE.INTER>
-9.52338

>  <SCORE.INTER.CONST>
1

>  <SCORE.INTER.POLAR>
0

>  <SCORE.INTER.ROT>
1

>  <SCORE.INTER.SOLV>
8.89235

>  <SCORE.INTER.VDW>
-13.5797

>  <SCORE.INTER.norm>
-0.732567

>  <SCORE.INTRA>
-0.345473

>  <SCORE.INTRA.DIHEDRAL>
0.02784

>  <SCORE.INTRA.DIHEDRAL.0>
1.75624

>  <SCORE.INTRA.POLAR>
0

>  <SCORE.INTRA.POLAR.0>
0

>  <SCORE.INTRA.REPUL>
0

>  <SCORE.INTRA.REPUL.0>
0

>  <SCORE.INTRA.SOLV>
-1.01979

>  <SCORE.INTRA.SOLV.lig_0>
-46.5296

>  <SCORE.INTRA.VDW>
0.150503

>  <SCORE.INTRA.VDW.0>
-0.381873

>  <SCORE.INTRA.norm>
-0.0265749

>  <SCORE.RESTR>
0

>  <SCORE.RESTR.CAVITY>
0

>  <SCORE.RESTR.norm>
0

>  <SCORE.SYSTEM>
0

>  <SCORE.SYSTEM.CONST>
0

>  <SCORE.SYSTEM.DIHEDRAL>
0

>  <SCORE.SYSTEM.SOLV>
0

>  <SCORE.SYSTEM.norm>
0

>  <SCORE.heavy>
13

>  <SCORE.norm>
-0.759142

>  <RMSD>
16.739

$$$$
ligand
 OpenBabel02271912143D
libRbt.so/2013.1/901 2013/11/27
 13 14  0  0  0  0  0  0  0  0999 V2000
   -1.6393   18.6524   43.6453 N   0  0  0  0  0  0  0  0  0  0  0  0
   -2.5486   18.5937   44.7139 C   0  0  0  0  0  0  0  0  0  0  0  0
   -3.6645   19.5108   44.7490 N   0  0  0  0  0  0  0  0  0  0  0  0
   -2.3842   17.6627   45.7141 N   0  0  0  0  0  0  0  0  0  0  0  0
   -1.3008   16.7467   45.7118 C   0  0  0  0  0  0  0  0  0  0  0  0
   -0.3396   16.7948   44.6439 C   0  0  0  0  0  0  0  0  0  0  0  0
   -0.5387   17.7896   43.6148 C   0  0  0  0  0  0  0  0  0  0  0  0
    0.3756   17.8200   42.5990 O   0  0  0  0  0  0  0  0  0  0  0  0
    0.6493   15.7667   44.8729 C   0  0  0  0  0  0  0  0  0  0  0  0
    0.2610   15.1598   46.0684 C   0  0  0  0  0  0  0  0  0  0  0  0
   -0.8977   15.7396   46.5522 N   0  0  0  0  0  0  0  0  0  0  0  0
    1.8680   15.4534   44.0271 C   0  0  0  0  0  0  0  0  0  0  0  0
    2.8959   16.4901   44.0878 N   0  0  0  0  0  0  0  0  0  0  0  0
  1  2  1  0  0  0  0
  1  7  1  0  0  0  0
  2  3  1  0  0  0  0
  2  4  2  0  0  0  0
  4  5  1  0  0  0  0
  5  6  2  0  0  0  0
  5 11  1  0  0  0  0
  6  7  1  0  0  0  0
  6  9  1  0  0  0  0
  7  8  2  0  0  0  0
  9 10  2  0  0  0  0
  9 12  1  0  0  0  0
 10 11  1  0  0  0  0
 12 13  1  0  0  0  0
M  END
>  <CHROM.1>
69.28781024,-0.54224615,17.11868610,44.65093421,-2.82705971,-0.48464808,2.28509896

>  <Name>
ligand

>  <RI>
-1

>  <Rbt.Current_Directory>
/home/itssahil/PROJECTS/Mol_Feturizer/Test_systems_manuscript/rnas/4jf2

>  <Rbt.Executable>
rbdock ($Id: //depot/dev/client3/rdock/2013.1/src/exe/rbdock.cxx#4 $)

>  <Rbt.Library>
libRbt.so (2013.1, Build901 2013/11/27)

>  <Rbt.Parameter_File>
/export/apps/rDock/src/rDock_2013.1_src/data/scripts/dock_solv.prm

>  <Rbt.Receptor>
prm/blind_docking_80.prm

>  <SCORE>
-9.77473

>  <SCORE.INTER>
-9.7664

>  <SCORE.INTER.CONST>
1

>  <SCORE.INTER.POLAR>
0

>  <SCORE.INTER.ROT>
1

>  <SCORE.INTER.SOLV>
7.67816

>  <SCORE.INTER.VDW>
-13.337

>  <SCORE.INTER.norm>
-0.751262

>  <SCORE.INTRA>
-0.00832957

>  <SCORE.INTRA.DIHEDRAL>
-0.134833

>  <SCORE.INTRA.DIHEDRAL.0>
1.75624

>  <SCORE.INTRA.POLAR>
0

>  <SCORE.INTRA.POLAR.0>
0

>  <SCORE.INTRA.REPUL>
0

>  <SCORE.INTRA.REPUL.0>
0

>  <SCORE.INTRA.SOLV>
0.148628

>  <SCORE.INTRA.SOLV.lig_0>
-46.5296

>  <SCORE.INTRA.VDW>
-0.0152269

>  <SCORE.INTRA.VDW.0>
-0.381873

>  <SCORE.INTRA.norm>
-0.000640736

>  <SCORE.RESTR>
0

>  <SCORE.RESTR.CAVITY>
0

>  <SCORE.RESTR.norm>
0

>  <SCORE.SYSTEM>
0

>  <SCORE.SYSTEM.CONST>
0

>  <SCORE.SYSTEM.DIHEDRAL>
0

>  <SCORE.SYSTEM.SOLV>
0

>  <SCORE.SYSTEM.norm>
0

>  <SCORE.heavy>
13

>  <SCORE.norm>
-0.751902

>  <RMSD>
17.024

$$$$
ligand
 OpenBabel02271912143D
libRbt.so/2013.1/901 2013/11/27
 13 14  0  0  0  0  0  0  0  0999 V2000
   -1.6371   18.6769   43.6360 N   0  0  0  0  0  0  0  0  0  0  0  0
   -2.5488   18.5984   44.7013 C   0  0  0  0  0  0  0  0  0  0  0  0
   -3.6685   19.5103   44.7475 N   0  0  0  0  0  0  0  0  0  0  0  0
   -2.3830   17.6529   45.6877 N   0  0  0  0  0  0  0  0  0  0  0  0
   -1.2960   16.7413   45.6742 C   0  0  0  0  0  0  0  0  0  0  0  0
   -0.3323   16.8096   44.6095 C   0  0  0  0  0  0  0  0  0  0  0  0
   -0.5329   17.8191   43.5952 C   0  0  0  0  0  0  0  0  0  0  0  0
    0.3838   17.8686   42.5823 O   0  0  0  0  0  0  0  0  0  0  0  0
    0.6602   15.7820   44.8254 C   0  0  0  0  0  0  0  0  0  0  0  0
    0.2714   15.1554   46.0105 C   0  0  0  0  0  0  0  0  0  0  0  0
   -0.8909   15.7232   46.5002 N   0  0  0  0  0  0  0  0  0  0  0  0
    1.8822   15.4866   43.9780 C   0  0  0  0  0  0  0  0  0  0  0  0
    2.9385   16.4864   44.1180 N   0  0  0  0  0  0  0  0  0  0  0  0
  1  2  1  0  0  0  0
  1  7  1  0  0  0  0
  2  3  1  0  0  0  0
  2  4  2  0  0  0  0
  4  5  1  0  0  0  0
  5  6  2  0  0  0  0
  5 11  1  0  0  0  0
  6  7  1  0  0  0  0
  6  9  1  0  0  0  0
  7  8  2  0  0  0  0
  9 10  2  0  0  0  0
  9 12  1  0  0  0  0
 10 11  1  0  0  0  0
 12 13  1  0  0  0  0
M  END
>  <CHROM.1>
72.70051367,-0.53363675,17.12922732,44.62595936,-2.82397962,-0.47815887,2.29768240

>  <Name>
ligand

>  <RI>
0

>  <Rbt.Current_Directory>
/home/itssahil/PROJECTS/Mol_Feturizer/Test_systems_manuscript/rnas/4jf2

>  <Rbt.Executable>
rbdock ($Id: //depot/dev/client3/rdock/2013.1/src/exe/rbdock.cxx#4 $)

>  <Rbt.Library>
libRbt.so (2013.1, Build901 2013/11/27)

>  <Rbt.Parameter_File>
/export/apps/rDock/src/rDock_2013.1_src/data/scripts/dock_solv.prm

>  <Rbt.Receptor>
prm/blind_docking_60.prm

>  <SCORE>
-9.79578

>  <SCORE.INTER>
-9.7393

>  <SCORE.INTER.CONST>
1

>  <SCORE.INTER.POLAR>
0

>  <SCORE.INTER.ROT>
1

>  <SCORE.INTER.SOLV>
7.78444

>  <SCORE.INTER.VDW>
-13.3544

>  <SCORE.INTER.norm>
-0.749177

>  <SCORE.INTRA>
-0.056477

>  <SCORE.INTRA.DIHEDRAL>
-0.150781

>  <SCORE.INTRA.DIHEDRAL.0>
1.75624

>  <SCORE.INTRA.POLAR>
0

>  <SCORE.INTRA.POLAR.0>
0

>  <SCORE.INTRA.REPUL>
0

>  <SCORE.INTRA.REPUL.0>
0

>  <SCORE.INTRA.SOLV>
0.0506502

>  <SCORE.INTRA.SOLV.lig_0>
-46.5296

>  <SCORE.INTRA.VDW>
-0.0064118

>  <SCORE.INTRA.VDW.0>
-0.381873

>  <SCORE.INTRA.norm>
-0.00434438

>  <SCORE.RESTR>
0

>  <SCORE.RESTR.CAVITY>
0

>  <SCORE.RESTR.norm>
0

>  <SCORE.SYSTEM>
0

>  <SCORE.SYSTEM.CONST>
0

>  <SCORE.SYSTEM.DIHEDRAL>
0

>  <SCORE.SYSTEM.SOLV>
0

>  <SCORE.SYSTEM.norm>
0

>  <SCORE.heavy>
13

>  <SCORE.norm>
-0.753522

>  <RMSD>
17.032

$$$$
ligand
 OpenBabel02271912143D
libRbt.so/2013.1/901 2013/11/27
 13 14  0  0  0  0  0  0  0  0999 V2000
    0.1048   15.1390   46.8107 N   0  0  0  0  0  0  0  0  0  0  0  0
   -0.9405   15.6652   47.5869 C   0  0  0  0  0  0  0  0  0  0  0  0
   -1.1066   15.2198   48.9513 N   0  0  0  0  0  0  0  0  0  0  0  0
   -1.7934   16.6057   47.0556 N   0  0  0  0  0  0  0  0  0  0  0  0
   -1.6598   17.0663   45.7204 C   0  0  0  0  0  0  0  0  0  0  0  0
   -0.6137   16.5315   44.8919 C   0  0  0  0  0  0  0  0  0  0  0  0
    0.2584   15.5403   45.4795 C   0  0  0  0  0  0  0  0  0  0  0  0
    1.2557   15.0459   44.6860 O   0  0  0  0  0  0  0  0  0  0  0  0
   -0.6921   17.1614   43.5940 C   0  0  0  0  0  0  0  0  0  0  0  0
   -1.7839   18.0263   43.6838 C   0  0  0  0  0  0  0  0  0  0  0  0
   -2.3441   17.9701   44.9471 N   0  0  0  0  0  0  0  0  0  0  0  0
    0.1867   16.8997   42.3865 C   0  0  0  0  0  0  0  0  0  0  0  0
    1.1046   17.9975   42.0906 N   0  0  0  0  0  0  0  0  0  0  0  0
  1  2  1  0  0  0  0
  1  7  1  0  0  0  0
  2  3  1  0  0  0  0
  2  4  2  0  0  0  0
  4  5  1  0  0  0  0
  5  6  2  0  0  0  0
  5 11  1  0  0  0  0
  6  7  1  0  0  0  0
  6  9  1  0  0  0  0
  7  8  2  0  0  0  0
  9 10  2  0  0  0  0
  9 12  1  0  0  0  0
 10 11  1  0  0  0  0
 12 13  1  0  0  0  0
M  END
>  <CHROM.1>
-108.77085302,-0.57539607,16.50171125,45.21967143,-1.80219924,0.60454674
-1.07935661

>  <Name>
ligand

>  <RI>
0

>  <Rbt.Current_Directory>
/home/itssahil/PROJECTS/Mol_Feturizer/Test_systems_manuscript/rnas/4jf2

>  <Rbt.Executable>
rbdock ($Id: //depot/dev/client3/rdock/2013.1/src/exe/rbdock.cxx#4 $)

>  <Rbt.Library>
libRbt.so (2013.1, Build901 2013/11/27)

>  <Rbt.Parameter_File>
/export/apps/rDock/src/rDock_2013.1_src/data/scripts/dock_solv.prm

>  <Rbt.Receptor>
prm/blind_docking_60.prm

>  <SCORE>
-9.69222

>  <SCORE.INTER>
-9.40977

>  <SCORE.INTER.CONST>
1

>  <SCORE.INTER.POLAR>
0

>  <SCORE.INTER.ROT>
1

>  <SCORE.INTER.SOLV>
13.4586

>  <SCORE.INTER.VDW>
-15.0261

>  <SCORE.INTER.norm>
-0.723828

>  <SCORE.INTRA>
-0.28245

>  <SCORE.INTRA.DIHEDRAL>
-0.00831527

>  <SCORE.INTRA.DIHEDRAL.0>
1.75624

>  <SCORE.INTRA.POLAR>
0

>  <SCORE.INTRA.POLAR.0>
0

>  <SCORE.INTRA.REPUL>
0

>  <SCORE.INTRA.REPUL.0>
0

>  <SCORE.INTRA.SOLV>
-0.722305

>  <SCORE.INTRA.SOLV.lig_0>
-46.5296

>  <SCORE.INTRA.VDW>
0.0828603

>  <SCORE.INTRA.VDW.0>
-0.381873

>  <SCORE.INTRA.norm>
-0.0217269

>  <SCORE.RESTR>
0

>  <SCORE.RESTR.CAVITY>
0

>  <SCORE.RESTR.norm>
0

>  <SCORE.SYSTEM>
0

>  <SCORE.SYSTEM.CONST>
0

>  <SCORE.SYSTEM.DIHEDRAL>
0

>  <SCORE.SYSTEM.SOLV>
0

>  <SCORE.SYSTEM.norm>
0

>  <SCORE.heavy>
13

>  <SCORE.norm>
-0.745555

>  <RMSD>
17.075

$$$$
ligand
 OpenBabel02271912143D
libRbt.so/2013.1/901 2013/11/27
 13 14  0  0  0  0  0  0  0  0999 V2000
    0.1070   15.1421   46.7959 N   0  0  0  0  0  0  0  0  0  0  0  0
   -0.9408   15.6606   47.5741 C   0  0  0  0  0  0  0  0  0  0  0  0
   -1.1032   15.2114   48.9376 N   0  0  0  0  0  0  0  0  0  0  0  0
   -1.7994   16.5973   47.0454 N   0  0  0  0  0  0  0  0  0  0  0  0
   -1.6695   17.0615   45.7110 C   0  0  0  0  0  0  0  0  0  0  0  0
   -0.6210   16.5344   44.8806 C   0  0  0  0  0  0  0  0  0  0  0  0
    0.2572   15.5471   45.4654 C   0  0  0  0  0  0  0  0  0  0  0  0
    1.2568   15.0601   44.6701 O   0  0  0  0  0  0  0  0  0  0  0  0
   -0.7041   17.1666   43.5841 C   0  0  0  0  0  0  0  0  0  0  0  0
   -1.8008   18.0250   43.6766 C   0  0  0  0  0  0  0  0  0  0  0  0
   -2.3596   17.9629   44.9402 N   0  0  0  0  0  0  0  0  0  0  0  0
    0.1752   16.9125   42.3754 C   0  0  0  0  0  0  0  0  0  0  0  0
    1.0926   18.0125   42.0863 N   0  0  0  0  0  0  0  0  0  0  0  0
  1  2  1  0  0  0  0
  1  7  1  0  0  0  0
  2  3  1  0  0  0  0
  2  4  2  0  0  0  0
  4  5  1  0  0  0  0
  5  6  2  0  0  0  0
  5 11  1  0  0  0  0
  6  7  1  0  0  0  0
  6  9  1  0  0  0  0
  7  8  2  0  0  0  0
  9 10  2  0  0  0  0
  9 12  1  0  0  0  0
 10 11  1  0  0  0  0
 12 13  1  0  0  0  0
M  END
>  <CHROM.1>
-108.39560172,-0.58182028,16.50388938,45.20871434,-1.79869197,0.59944408
-1.07956734

>  <Name>
ligand

>  <RI>
0

>  <Rbt.Current_Directory>
/home/itssahil/PROJECTS/Mol_Feturizer/Test_systems_manuscript/rnas/4jf2

>  <Rbt.Executable>
rbdock ($Id: //depot/dev/client3/rdock/2013.1/src/exe/rbdock.cxx#4 $)

>  <Rbt.Library>
libRbt.so (2013.1, Build901 2013/11/27)

>  <Rbt.Parameter_File>
/export/apps/rDock/src/rDock_2013.1_src/data/scripts/dock_solv.prm

>  <Rbt.Receptor>
prm/blind_docking_60.prm

>  <SCORE>
-9.67724

>  <SCORE.INTER>
-9.39778

>  <SCORE.INTER.CONST>
1

>  <SCORE.INTER.POLAR>
0

>  <SCORE.INTER.ROT>
1

>  <SCORE.INTER.SOLV>
13.3919

>  <SCORE.INTER.VDW>
-14.9958

>  <SCORE.INTER.norm>
-0.722906

>  <SCORE.INTRA>
-0.279456

>  <SCORE.INTRA.DIHEDRAL>
-0.00658892

>  <SCORE.INTRA.DIHEDRAL.0>
1.75624

>  <SCORE.INTRA.POLAR>
0

>  <SCORE.INTRA.POLAR.0>
0

>  <SCORE.INTRA.REPUL>
0

>  <SCORE.INTRA.REPUL.0>
0

>  <SCORE.INTRA.SOLV>
-0.716597

>  <SCORE.INTRA.SOLV.lig_0>
-46.5296

>  <SCORE.INTRA.VDW>
0.082137

>  <SCORE.INTRA.VDW.0>
-0.381873

>  <SCORE.INTRA.norm>
-0.0214966

>  <SCORE.RESTR>
0

>  <SCORE.RESTR.CAVITY>
0

>  <SCORE.RESTR.norm>
0

>  <SCORE.SYSTEM>
0

>  <SCORE.SYSTEM.CONST>
0

>  <SCORE.SYSTEM.DIHEDRAL>
0

>  <SCORE.SYSTEM.SOLV>
0

>  <SCORE.SYSTEM.norm>
0

>  <SCORE.heavy>
13

>  <SCORE.norm>
-0.744403

>  <RMSD>
17.077

$$$$
ligand
 OpenBabel02271912143D
libRbt.so/2013.1/901 2013/11/27
 13 14  0  0  0  0  0  0  0  0999 V2000
    0.0992   15.1337   46.8094 N   0  0  0  0  0  0  0  0  0  0  0  0
   -0.9460   15.6602   47.5856 C   0  0  0  0  0  0  0  0  0  0  0  0
   -1.1137   15.2134   48.9493 N   0  0  0  0  0  0  0  0  0  0  0  0
   -1.7973   16.6026   47.0549 N   0  0  0  0  0  0  0  0  0  0  0  0
   -1.6621   17.0647   45.7203 C   0  0  0  0  0  0  0  0  0  0  0  0
   -0.6161   16.5295   44.8919 C   0  0  0  0  0  0  0  0  0  0  0  0
    0.2543   15.5365   45.4788 C   0  0  0  0  0  0  0  0  0  0  0  0
    1.2515   15.0417   44.6854 O   0  0  0  0  0  0  0  0  0  0  0  0
   -0.6927   17.1611   43.5947 C   0  0  0  0  0  0  0  0  0  0  0  0
   -1.7835   18.0274   43.6848 C   0  0  0  0  0  0  0  0  0  0  0  0
   -2.3446   17.9703   44.9477 N   0  0  0  0  0  0  0  0  0  0  0  0
    0.1866   16.8999   42.3875 C   0  0  0  0  0  0  0  0  0  0  0  0
    1.1026   17.9990   42.0906 N   0  0  0  0  0  0  0  0  0  0  0  0
  1  2  1  0  0  0  0
  1  7  1  0  0  0  0
  2  3  1  0  0  0  0
  2  4  2  0  0  0  0
  4  5  1  0  0  0  0
  5  6  2  0  0  0  0
  5 11  1  0  0  0  0
  6  7  1  0  0  0  0
  6  9  1  0  0  0  0
  7  8  2  0  0  0  0
  9 10  2  0  0  0  0
  9 12  1  0  0  0  0
 10 11  1  0  0  0  0
 12 13  1  0  0  0  0
M  END
>  <CHROM.1>
-108.99402908,-0.57836266,16.49945762,45.21940613,-1.80335310,0.60559969
-1.07724592

>  <Name>
ligand

>  <RI>
-1

>  <Rbt.Current_Directory>
/home/itssahil/PROJECTS/Mol_Feturizer/Test_systems_manuscript/rnas/4jf2

>  <Rbt.Executable>
rbdock ($Id: //depot/dev/client3/rdock/2013.1/src/exe/rbdock.cxx#4 $)

>  <Rbt.Library>
libRbt.so (2013.1, Build901 2013/11/27)

>  <Rbt.Parameter_File>
/export/apps/rDock/src/rDock_2013.1_src/data/scripts/dock_solv.prm

>  <Rbt.Receptor>
prm/blind_docking_80.prm

>  <SCORE>
-9.69056

>  <SCORE.INTER>
-9.40632

>  <SCORE.INTER.CONST>
1

>  <SCORE.INTER.POLAR>
0

>  <SCORE.INTER.ROT>
1

>  <SCORE.INTER.SOLV>
13.4173

>  <SCORE.INTER.VDW>
-15.01

>  <SCORE.INTER.norm>
-0.723563

>  <SCORE.INTRA>
-0.284233

>  <SCORE.INTRA.DIHEDRAL>
-0.00935447

>  <SCORE.INTRA.DIHEDRAL.0>
1.75624

>  <SCORE.INTRA.POLAR>
0

>  <SCORE.INTRA.POLAR.0>
0

>  <SCORE.INTRA.REPUL>
0

>  <SCORE.INTRA.REPUL.0>
0

>  <SCORE.INTRA.SOLV>
-0.725689

>  <SCORE.INTRA.SOLV.lig_0>
-46.5296

>  <SCORE.INTRA.VDW>
0.0832889

>  <SCORE.INTRA.VDW.0>
-0.381873

>  <SCORE.INTRA.norm>
-0.0218641

>  <SCORE.RESTR>
0

>  <SCORE.RESTR.CAVITY>
0

>  <SCORE.RESTR.norm>
0

>  <SCORE.SYSTEM>
0

>  <SCORE.SYSTEM.CONST>
0

>  <SCORE.SYSTEM.DIHEDRAL>
0

>  <SCORE.SYSTEM.SOLV>
0

>  <SCORE.SYSTEM.norm>
0

>  <SCORE.heavy>
13

>  <SCORE.norm>
-0.745427

>  <RMSD>
17.077

$$$$
ligand
 OpenBabel02271912143D
libRbt.so/2013.1/901 2013/11/27
 13 14  0  0  0  0  0  0  0  0999 V2000
    0.1107   15.1297   46.8072 N   0  0  0  0  0  0  0  0  0  0  0  0
   -0.9341   15.6529   47.5862 C   0  0  0  0  0  0  0  0  0  0  0  0
   -1.0980   15.2037   48.9496 N   0  0  0  0  0  0  0  0  0  0  0  0
   -1.7884   16.5942   47.0585 N   0  0  0  0  0  0  0  0  0  0  0  0
   -1.6569   17.0585   45.7244 C   0  0  0  0  0  0  0  0  0  0  0  0
   -0.6115   16.5267   44.8930 C   0  0  0  0  0  0  0  0  0  0  0  0
    0.2621   15.5347   45.4768 C   0  0  0  0  0  0  0  0  0  0  0  0
    1.2588   15.0432   44.6807 O   0  0  0  0  0  0  0  0  0  0  0  0
   -0.6921   17.1600   43.5969 C   0  0  0  0  0  0  0  0  0  0  0  0
   -1.7845   18.0238   43.6905 C   0  0  0  0  0  0  0  0  0  0  0  0
   -2.3430   17.9637   44.9544 N   0  0  0  0  0  0  0  0  0  0  0  0
    0.1853   16.9023   42.3876 C   0  0  0  0  0  0  0  0  0  0  0  0
    1.0893   18.0091   42.0827 N   0  0  0  0  0  0  0  0  0  0  0  0
  1  2  1  0  0  0  0
  1  7  1  0  0  0  0
  2  3  1  0  0  0  0
  2  4  2  0  0  0  0
  4  5  1  0  0  0  0
  5  6  2  0  0  0  0
  5 11  1  0  0  0  0
  6  7  1  0  0  0  0
  6  9  1  0  0  0  0
  7  8  2  0  0  0  0
  9 10  2  0  0  0  0
  9 12  1  0  0  0  0
 10 11  1  0  0  0  0
 12 13  1  0  0  0  0
M  END
>  <CHROM.1>
-109.54625253,-0.57378206,16.49669866,45.21983515,-1.79899098,0.60526580
-1.07782457

>  <Name>
ligand

>  <RI>
0

>  <Rbt.Current_Directory>
/home/itssahil/PROJECTS/Mol_Feturizer/Test_systems_manuscript/rnas/4jf2

>  <Rbt.Executable>
rbdock ($Id: //depot/dev/client3/rdock/2013.1/src/exe/rbdock.cxx#4 $)

>  <Rbt.Library>
libRbt.so (2013.1, Build901 2013/11/27)

>  <Rbt.Parameter_File>
/export/apps/rDock/src/rDock_2013.1_src/data/scripts/dock_solv.prm

>  <Rbt.Receptor>
prm/blind_docking_100.prm

>  <SCORE>
-9.69101

>  <SCORE.INTER>
-9.40236

>  <SCORE.INTER.CONST>
1

>  <SCORE.INTER.POLAR>
0

>  <SCORE.INTER.ROT>
1

>  <SCORE.INTER.SOLV>
13.4405

>  <SCORE.INTER.VDW>
-15.0151

>  <SCORE.INTER.norm>
-0.723259

>  <SCORE.INTRA>
-0.28865

>  <SCORE.INTRA.DIHEDRAL>
-0.0119648

>  <SCORE.INTRA.DIHEDRAL.0>
1.75624

>  <SCORE.INTRA.POLAR>
0

>  <SCORE.INTRA.POLAR.0>
0

>  <SCORE.INTRA.REPUL>
0

>  <SCORE.INTRA.REPUL.0>
0

>  <SCORE.INTRA.SOLV>
-0.734025

>  <SCORE.INTRA.SOLV.lig_0>
-46.5296

>  <SCORE.INTRA.VDW>
0.0843445

>  <SCORE.INTRA.VDW.0>
-0.381873

>  <SCORE.INTRA.norm>
-0.0222039

>  <SCORE.RESTR>
0

>  <SCORE.RESTR.CAVITY>
0

>  <SCORE.RESTR.norm>
0

>  <SCORE.SYSTEM>
0

>  <SCORE.SYSTEM.CONST>
0

>  <SCORE.SYSTEM.DIHEDRAL>
0

>  <SCORE.SYSTEM.SOLV>
0

>  <SCORE.SYSTEM.norm>
0

>  <SCORE.heavy>
13

>  <SCORE.norm>
-0.745463

>  <RMSD>
17.079

$$$$
ligand
 OpenBabel02271912143D
libRbt.so/2013.1/901 2013/11/27
 13 14  0  0  0  0  0  0  0  0999 V2000
    0.0811   15.1085   46.7659 N   0  0  0  0  0  0  0  0  0  0  0  0
   -0.9595   15.6490   47.5388 C   0  0  0  0  0  0  0  0  0  0  0  0
   -1.1421   15.1989   48.8995 N   0  0  0  0  0  0  0  0  0  0  0  0
   -1.7918   16.6079   47.0077 N   0  0  0  0  0  0  0  0  0  0  0  0
   -1.6416   17.0736   45.6760 C   0  0  0  0  0  0  0  0  0  0  0  0
   -0.6001   16.5247   44.8509 C   0  0  0  0  0  0  0  0  0  0  0  0
    0.2502   15.5146   45.4380 C   0  0  0  0  0  0  0  0  0  0  0  0
    1.2434   15.0067   44.6478 O   0  0  0  0  0  0  0  0  0  0  0  0
   -0.6590   17.1633   43.5562 C   0  0  0  0  0  0  0  0  0  0  0  0
   -1.7356   18.0473   43.6444 C   0  0  0  0  0  0  0  0  0  0  0  0
   -2.3046   17.9940   44.9039 N   0  0  0  0  0  0  0  0  0  0  0  0
    0.2225   16.8927   42.3527 C   0  0  0  0  0  0  0  0  0  0  0  0
    1.1340   17.9925   42.0446 N   0  0  0  0  0  0  0  0  0  0  0  0
  1  2  1  0  0  0  0
  1  7  1  0  0  0  0
  2  3  1  0  0  0  0
  2  4  2  0  0  0  0
  4  5  1  0  0  0  0
  5  6  2  0  0  0  0
  5 11  1  0  0  0  0
  6  7  1  0  0  0  0
  6  9  1  0  0  0  0
  7  8  2  0  0  0  0
  9 10  2  0  0  0  0
  9 12  1  0  0  0  0
 10 11  1  0  0  0  0
 12 13  1  0  0  0  0
M  END
>  <CHROM.1>
-110.50948654,-0.56670003,16.49376339,45.17675503,-1.81646855,0.61927118
-1.06386218

>  <Name>
ligand

>  <RI>
0

>  <Rbt.Current_Directory>
/home/itssahil/PROJECTS/Mol_Feturizer/Test_systems_manuscript/rnas/4jf2

>  <Rbt.Executable>
rbdock ($Id: //depot/dev/client3/rdock/2013.1/src/exe/rbdock.cxx#4 $)

>  <Rbt.Library>
libRbt.so (2013.1, Build901 2013/11/27)

>  <Rbt.Parameter_File>
/export/apps/rDock/src/rDock_2013.1_src/data/scripts/dock_solv.prm

>  <Rbt.Receptor>
prm/blind_docking_60.prm

>  <SCORE>
-9.5251

>  <SCORE.INTER>
-9.22873

>  <SCORE.INTER.CONST>
1

>  <SCORE.INTER.POLAR>
0

>  <SCORE.INTER.ROT>
1

>  <SCORE.INTER.SOLV>
13.4414

>  <SCORE.INTER.VDW>
-14.8996

>  <SCORE.INTER.norm>
-0.709902

>  <SCORE.INTRA>
-0.296373

>  <SCORE.INTRA.DIHEDRAL>
-0.0166453

>  <SCORE.INTRA.DIHEDRAL.0>
1.75624

>  <SCORE.INTRA.POLAR>
0

>  <SCORE.INTRA.POLAR.0>
0

>  <SCORE.INTRA.REPUL>
0

>  <SCORE.INTRA.REPUL.0>
0

>  <SCORE.INTRA.SOLV>
-0.74844

>  <SCORE.INTRA.SOLV.lig_0>
-46.5296

>  <SCORE.INTRA.VDW>
0.0861696

>  <SCORE.INTRA.VDW.0>
-0.381873

>  <SCORE.INTRA.norm>
-0.0227979

>  <SCORE.RESTR>
0

>  <SCORE.RESTR.CAVITY>
0

>  <SCORE.RESTR.norm>
0

>  <SCORE.SYSTEM>
0

>  <SCORE.SYSTEM.CONST>
0

>  <SCORE.SYSTEM.DIHEDRAL>
0

>  <SCORE.SYSTEM.SOLV>
0

>  <SCORE.SYSTEM.norm>
0

>  <SCORE.heavy>
13

>  <SCORE.norm>
-0.7327

>  <RMSD>
17.109

$$$$
ligand
 OpenBabel02271912143D
libRbt.so/2013.1/901 2013/11/27
 13 14  0  0  0  0  0  0  0  0999 V2000
   -1.2510   19.0203   43.6681 N   0  0  0  0  0  0  0  0  0  0  0  0
   -2.3108   18.7520   44.5495 C   0  0  0  0  0  0  0  0  0  0  0  0
   -3.4633   19.6232   44.5616 N   0  0  0  0  0  0  0  0  0  0  0  0
   -2.2567   17.6616   45.3876 N   0  0  0  0  0  0  0  0  0  0  0  0
   -1.1414   16.7848   45.4022 C   0  0  0  0  0  0  0  0  0  0  0  0
   -0.0299   17.0438   44.5279 C   0  0  0  0  0  0  0  0  0  0  0  0
   -0.1169   18.2013   43.6673 C   0  0  0  0  0  0  0  0  0  0  0  0
    0.9410   18.4325   42.8330 O   0  0  0  0  0  0  0  0  0  0  0  0
    0.9619   16.0134   44.7328 C   0  0  0  0  0  0  0  0  0  0  0  0
    0.4241   15.1947   45.7272 C   0  0  0  0  0  0  0  0  0  0  0  0
   -0.8233   15.6532   46.1103 N   0  0  0  0  0  0  0  0  0  0  0  0
    2.3111   15.8830   44.0536 C   0  0  0  0  0  0  0  0  0  0  0  0
    2.6170   14.5175   43.6328 N   0  0  0  0  0  0  0  0  0  0  0  0
  1  2  1  0  0  0  0
  1  7  1  0  0  0  0
  2  3  1  0  0  0  0
  2  4  2  0  0  0  0
  4  5  1  0  0  0  0
  5  6  2  0  0  0  0
  5 11  1  0  0  0  0
  6  7  1  0  0  0  0
  6  9  1  0  0  0  0
  7  8  2  0  0  0  0
  9 10  2  0  0  0  0
  9 12  1  0  0  0  0
 10 11  1  0  0  0  0
 12 13  1  0  0  0  0
M  END
>  <CHROM.1>
-136.48933114,-0.29990713,17.16151829,44.49082039,-2.64141624,-0.50531532
2.48552977

>  <Name>
ligand

>  <RI>
-1

>  <Rbt.Current_Directory>
/home/itssahil/PROJECTS/Mol_Feturizer/Test_systems_manuscript/rnas/4jf2

>  <Rbt.Executable>
rbdock ($Id: //depot/dev/client3/rdock/2013.1/src/exe/rbdock.cxx#4 $)

>  <Rbt.Library>
libRbt.so (2013.1, Build901 2013/11/27)

>  <Rbt.Parameter_File>
/export/apps/rDock/src/rDock_2013.1_src/data/scripts/dock_solv.prm

>  <Rbt.Receptor>
prm/blind_docking_80.prm

>  <SCORE>
-9.36573

>  <SCORE.INTER>
-8.90113

>  <SCORE.INTER.CONST>
1

>  <SCORE.INTER.POLAR>
0

>  <SCORE.INTER.ROT>
1

>  <SCORE.INTER.SOLV>
8.22315

>  <SCORE.INTER.VDW>
-12.9418

>  <SCORE.INTER.norm>
-0.684703

>  <SCORE.INTRA>
-0.464594

>  <SCORE.INTRA.DIHEDRAL>
-0.156051

>  <SCORE.INTRA.DIHEDRAL.0>
1.75624

>  <SCORE.INTRA.POLAR>
0

>  <SCORE.INTRA.POLAR.0>
0

>  <SCORE.INTRA.REPUL>
0

>  <SCORE.INTRA.REPUL.0>
0

>  <SCORE.INTRA.SOLV>
-1.04072

>  <SCORE.INTRA.SOLV.lig_0>
-46.5296

>  <SCORE.INTRA.VDW>
0.13379

>  <SCORE.INTRA.VDW.0>
-0.381873

>  <SCORE.INTRA.norm>
-0.035738

>  <SCORE.RESTR>
0

>  <SCORE.RESTR.CAVITY>
0

>  <SCORE.RESTR.norm>
0

>  <SCORE.SYSTEM>
0

>  <SCORE.SYSTEM.CONST>
0

>  <SCORE.SYSTEM.DIHEDRAL>
0

>  <SCORE.SYSTEM.SOLV>
0

>  <SCORE.SYSTEM.norm>
0

>  <SCORE.heavy>
13

>  <SCORE.norm>
-0.720441

>  <RMSD>
17.137

$$$$
ligand
 OpenBabel02271912143D
libRbt.so/2013.1/901 2013/11/27
 13 14  0  0  0  0  0  0  0  0999 V2000
    0.0690   19.4749   42.9808 N   0  0  0  0  0  0  0  0  0  0  0  0
    1.3727   19.6792   42.5005 C   0  0  0  0  0  0  0  0  0  0  0  0
    1.6691   20.8659   41.7314 N   0  0  0  0  0  0  0  0  0  0  0  0
    2.3627   18.7617   42.7695 N   0  0  0  0  0  0  0  0  0  0  0  0
    2.1077   17.5860   43.5215 C   0  0  0  0  0  0  0  0  0  0  0  0
    0.7786   17.3357   44.0090 C   0  0  0  0  0  0  0  0  0  0  0  0
   -0.2376   18.3159   43.7016 C   0  0  0  0  0  0  0  0  0  0  0  0
   -1.4955   18.0729   44.1785 O   0  0  0  0  0  0  0  0  0  0  0  0
    0.7873   16.0889   44.7390 C   0  0  0  0  0  0  0  0  0  0  0  0
    2.1026   15.6312   44.6456 C   0  0  0  0  0  0  0  0  0  0  0  0
    2.8779   16.5270   43.9319 N   0  0  0  0  0  0  0  0  0  0  0  0
   -0.3868   15.4052   45.4119 C   0  0  0  0  0  0  0  0  0  0  0  0
   -0.9215   16.1568   46.5453 N   0  0  0  0  0  0  0  0  0  0  0  0
  1  2  1  0  0  0  0
  1  7  1  0  0  0  0
  2  3  1  0  0  0  0
  2  4  2  0  0  0  0
  4  5  1  0  0  0  0
  5  6  2  0  0  0  0
  5 11  1  0  0  0  0
  6  7  1  0  0  0  0
  6  9  1  0  0  0  0
  7  8  2  0  0  0  0
  9 10  2  0  0  0  0
  9 12  1  0  0  0  0
 10 11  1  0  0  0  0
 12 13  1  0  0  0  0
M  END
>  <CHROM.1>
-66.11023364,0.80463257,17.70600980,43.90394645,1.26812353,0.30419418,-0.57667331

>  <Name>
ligand

>  <RI>
0

>  <Rbt.Current_Directory>
/home/itssahil/PROJECTS/Mol_Feturizer/Test_systems_manuscript/rnas/4jf2

>  <Rbt.Executable>
rbdock ($Id: //depot/dev/client3/rdock/2013.1/src/exe/rbdock.cxx#4 $)

>  <Rbt.Library>
libRbt.so (2013.1, Build901 2013/11/27)

>  <Rbt.Parameter_File>
/export/apps/rDock/src/rDock_2013.1_src/data/scripts/dock_solv.prm

>  <Rbt.Receptor>
prm/blind_docking_60.prm

>  <SCORE>
-7.88793

>  <SCORE.INTER>
-7.9795

>  <SCORE.INTER.CONST>
1

>  <SCORE.INTER.POLAR>
0

>  <SCORE.INTER.ROT>
1

>  <SCORE.INTER.SOLV>
7.7476

>  <SCORE.INTER.VDW>
-12.1689

>  <SCORE.INTER.norm>
-0.613808

>  <SCORE.INTRA>
0.0915701

>  <SCORE.INTRA.DIHEDRAL>
-0.0482597

>  <SCORE.INTRA.DIHEDRAL.0>
1.75624

>  <SCORE.INTRA.POLAR>
0

>  <SCORE.INTRA.POLAR.0>
0

>  <SCORE.INTRA.REPUL>
0

>  <SCORE.INTRA.REPUL.0>
0

>  <SCORE.INTRA.SOLV>
0.274412

>  <SCORE.INTRA.SOLV.lig_0>
-46.5296

>  <SCORE.INTRA.VDW>
-0.0215059

>  <SCORE.INTRA.VDW.0>
-0.381873

>  <SCORE.INTRA.norm>
0.00704385

>  <SCORE.RESTR>
0

>  <SCORE.RESTR.CAVITY>
0

>  <SCORE.RESTR.norm>
0

>  <SCORE.SYSTEM>
0

>  <SCORE.SYSTEM.CONST>
0

>  <SCORE.SYSTEM.DIHEDRAL>
0

>  <SCORE.SYSTEM.SOLV>
0

>  <SCORE.SYSTEM.norm>
0

>  <SCORE.heavy>
13

>  <SCORE.norm>
-0.606764

>  <RMSD>
17.197

$$$$
ligand
 OpenBabel02271912143D
libRbt.so/2013.1/901 2013/11/27
 13 14  0  0  0  0  0  0  0  0999 V2000
   -1.7918   16.8610   46.3089 N   0  0  0  0  0  0  0  0  0  0  0  0
   -1.1090   16.0025   47.1858 C   0  0  0  0  0  0  0  0  0  0  0  0
   -1.6681   15.7264   48.4892 N   0  0  0  0  0  0  0  0  0  0  0  0
    0.0777   15.4202   46.8025 N   0  0  0  0  0  0  0  0  0  0  0  0
    0.6554   15.6682   45.5307 C   0  0  0  0  0  0  0  0  0  0  0  0
   -0.0068   16.5597   44.6177 C   0  0  0  0  0  0  0  0  0  0  0  0
   -1.2465   17.1593   45.0557 C   0  0  0  0  0  0  0  0  0  0  0  0
   -1.8728   17.9974   44.1759 O   0  0  0  0  0  0  0  0  0  0  0  0
    0.7765   16.6371   43.4061 C   0  0  0  0  0  0  0  0  0  0  0  0
    1.8792   15.8146   43.6424 C   0  0  0  0  0  0  0  0  0  0  0  0
    1.7944   15.2390   44.8972 N   0  0  0  0  0  0  0  0  0  0  0  0
    0.4885   17.4701   42.1725 C   0  0  0  0  0  0  0  0  0  0  0  0
    0.8991   18.8659   42.3085 N   0  0  0  0  0  0  0  0  0  0  0  0
  1  2  1  0  0  0  0
  1  7  1  0  0  0  0
  2  3  1  0  0  0  0
  2  4  2  0  0  0  0
  4  5  1  0  0  0  0
  5  6  2  0  0  0  0
  5 11  1  0  0  0  0
  6  7  1  0  0  0  0
  6  9  1  0  0  0  0
  7  8  2  0  0  0  0
  9 10  2  0  0  0  0
  9 12  1  0  0  0  0
 10 11  1  0  0  0  0
 12 13  1  0  0  0  0
M  END
>  <CHROM.1>
80.88866963,-0.12410230,16.60586579,44.96352429,2.02542798,-0.54754814,2.15310335

>  <Name>
ligand

>  <RI>
0

>  <Rbt.Current_Directory>
/home/itssahil/PROJECTS/Mol_Feturizer/Test_systems_manuscript/rnas/4jf2

>  <Rbt.Executable>
rbdock ($Id: //depot/dev/client3/rdock/2013.1/src/exe/rbdock.cxx#4 $)

>  <Rbt.Library>
libRbt.so (2013.1, Build901 2013/11/27)

>  <Rbt.Parameter_File>
/export/apps/rDock/src/rDock_2013.1_src/data/scripts/dock_solv.prm

>  <Rbt.Receptor>
prm/blind_docking_60.prm

>  <SCORE>
-10.1786

>  <SCORE.INTER>
-10.014

>  <SCORE.INTER.CONST>
1

>  <SCORE.INTER.POLAR>
0

>  <SCORE.INTER.ROT>
1

>  <SCORE.INTER.SOLV>
10.5308

>  <SCORE.INTER.VDW>
-14.453

>  <SCORE.INTER.norm>
-0.77031

>  <SCORE.INTRA>
-0.164564

>  <SCORE.INTRA.DIHEDRAL>
-0.178558

>  <SCORE.INTRA.DIHEDRAL.0>
1.75624

>  <SCORE.INTRA.POLAR>
0

>  <SCORE.INTRA.POLAR.0>
0

>  <SCORE.INTRA.REPUL>
0

>  <SCORE.INTRA.REPUL.0>
0

>  <SCORE.INTRA.SOLV>
-0.184435

>  <SCORE.INTRA.SOLV.lig_0>
-46.5296

>  <SCORE.INTRA.VDW>
0.0169322

>  <SCORE.INTRA.VDW.0>
-0.381873

>  <SCORE.INTRA.norm>
-0.0126588

>  <SCORE.RESTR>
0

>  <SCORE.RESTR.CAVITY>
0

>  <SCORE.RESTR.norm>
0

>  <SCORE.SYSTEM>
0

>  <SCORE.SYSTEM.CONST>
0

>  <SCORE.SYSTEM.DIHEDRAL>
0

>  <SCORE.SYSTEM.SOLV>
0

>  <SCORE.SYSTEM.norm>
0

>  <SCORE.heavy>
13

>  <SCORE.norm>
-0.782968

>  <RMSD>
17.213

$$$$
ligand
 OpenBabel02271912143D
libRbt.so/2013.1/901 2013/11/27
 13 14  0  0  0  0  0  0  0  0999 V2000
   -1.6547   16.7710   46.0545 N   0  0  0  0  0  0  0  0  0  0  0  0
   -1.0077   15.8081   46.8461 C   0  0  0  0  0  0  0  0  0  0  0  0
   -1.6613   15.3084   48.0337 N   0  0  0  0  0  0  0  0  0  0  0  0
    0.2345   15.3363   46.4873 N   0  0  0  0  0  0  0  0  0  0  0  0
    0.9054   15.8039   45.3279 C   0  0  0  0  0  0  0  0  0  0  0  0
    0.2802   16.8057   44.5079 C   0  0  0  0  0  0  0  0  0  0  0  0
   -1.0201   17.2841   44.9184 C   0  0  0  0  0  0  0  0  0  0  0  0
   -1.6097   18.2292   44.1260 O   0  0  0  0  0  0  0  0  0  0  0  0
    1.1590   17.1027   43.4002 C   0  0  0  0  0  0  0  0  0  0  0  0
    2.2766   16.2921   43.6057 C   0  0  0  0  0  0  0  0  0  0  0  0
    2.1139   15.5213   44.7425 N   0  0  0  0  0  0  0  0  0  0  0  0
    0.9364   18.1110   42.2901 C   0  0  0  0  0  0  0  0  0  0  0  0
    1.3780   19.4600   42.6371 N   0  0  0  0  0  0  0  0  0  0  0  0
  1  2  1  0  0  0  0
  1  7  1  0  0  0  0
  2  3  1  0  0  0  0
  2  4  2  0  0  0  0
  4  5  1  0  0  0  0
  5  6  2  0  0  0  0
  5 11  1  0  0  0  0
  6  7  1  0  0  0  0
  6  9  1  0  0  0  0
  7  8  2  0  0  0  0
  9 10  2  0  0  0  0
  9 12  1  0  0  0  0
 10 11  1  0  0  0  0
 12 13  1  0  0  0  0
M  END
>  <CHROM.1>
86.10654651,0.14105808,16.79039349,44.84115308,2.08284095,-0.45474082,2.33511692

>  <Name>
ligand

>  <RI>
-1

>  <Rbt.Current_Directory>
/home/itssahil/PROJECTS/Mol_Feturizer/Test_systems_manuscript/rnas/4jf2

>  <Rbt.Executable>
rbdock ($Id: //depot/dev/client3/rdock/2013.1/src/exe/rbdock.cxx#4 $)

>  <Rbt.Library>
libRbt.so (2013.1, Build901 2013/11/27)

>  <Rbt.Parameter_File>
/export/apps/rDock/src/rDock_2013.1_src/data/scripts/dock_solv.prm

>  <Rbt.Receptor>
prm/blind_docking_80.prm

>  <SCORE>
-9.94302

>  <SCORE.INTER>
-9.71487

>  <SCORE.INTER.CONST>
1

>  <SCORE.INTER.POLAR>
0

>  <SCORE.INTER.ROT>
1

>  <SCORE.INTER.SOLV>
8.56115

>  <SCORE.INTER.VDW>
-13.597

>  <SCORE.INTER.norm>
-0.747298

>  <SCORE.INTRA>
-0.22815

>  <SCORE.INTRA.DIHEDRAL>
-0.186781

>  <SCORE.INTRA.DIHEDRAL.0>
1.75624

>  <SCORE.INTRA.POLAR>
0

>  <SCORE.INTRA.POLAR.0>
0

>  <SCORE.INTRA.REPUL>
0

>  <SCORE.INTRA.REPUL.0>
0

>  <SCORE.INTRA.SOLV>
-0.332589

>  <SCORE.INTRA.SOLV.lig_0>
-46.5296

>  <SCORE.INTRA.VDW>
0.0315357

>  <SCORE.INTRA.VDW.0>
-0.381873

>  <SCORE.INTRA.norm>
-0.01755

>  <SCORE.RESTR>
0

>  <SCORE.RESTR.CAVITY>
0

>  <SCORE.RESTR.norm>
0

>  <SCORE.SYSTEM>
0

>  <SCORE.SYSTEM.CONST>
0

>  <SCORE.SYSTEM.DIHEDRAL>
0

>  <SCORE.SYSTEM.SOLV>
0

>  <SCORE.SYSTEM.norm>
0

>  <SCORE.heavy>
13

>  <SCORE.norm>
-0.764848

>  <RMSD>
17.240

$$$$
ligand
 OpenBabel02271912143D
libRbt.so/2013.1/901 2013/11/27
 13 14  0  0  0  0  0  0  0  0999 V2000
   -1.7032   16.8047   46.2306 N   0  0  0  0  0  0  0  0  0  0  0  0
   -1.0163   15.9304   47.0886 C   0  0  0  0  0  0  0  0  0  0  0  0
   -1.5739   15.6232   48.3856 N   0  0  0  0  0  0  0  0  0  0  0  0
    0.1730   15.3621   46.6925 N   0  0  0  0  0  0  0  0  0  0  0  0
    0.7494   15.6406   45.4264 C   0  0  0  0  0  0  0  0  0  0  0  0
    0.0829   16.5487   44.5331 C   0  0  0  0  0  0  0  0  0  0  0  0
   -1.1595   17.1328   44.9842 C   0  0  0  0  0  0  0  0  0  0  0  0
   -1.7898   17.9871   44.1230 O   0  0  0  0  0  0  0  0  0  0  0  0
    0.8656   16.6562   43.3235 C   0  0  0  0  0  0  0  0  0  0  0  0
    1.9721   15.8338   43.5417 C   0  0  0  0  0  0  0  0  0  0  0  0
    1.8903   15.2306   44.7836 N   0  0  0  0  0  0  0  0  0  0  0  0
    0.5736   17.5147   42.1084 C   0  0  0  0  0  0  0  0  0  0  0  0
    0.9559   18.9141   42.2837 N   0  0  0  0  0  0  0  0  0  0  0  0
  1  2  1  0  0  0  0
  1  7  1  0  0  0  0
  2  3  1  0  0  0  0
  2  4  2  0  0  0  0
  4  5  1  0  0  0  0
  5  6  2  0  0  0  0
  5 11  1  0  0  0  0
  6  7  1  0  0  0  0
  6  9  1  0  0  0  0
  7  8  2  0  0  0  0
  9 10  2  0  0  0  0
  9 12  1  0  0  0  0
 10 11  1  0  0  0  0
 12 13  1  0  0  0  0
M  END
>  <CHROM.1>
79.86237156,-0.03634456,16.58716426,44.88063650,2.02059633,-0.54458461,2.17320002

>  <Name>
ligand

>  <RI>
-1

>  <Rbt.Current_Directory>
/home/itssahil/PROJECTS/Mol_Feturizer/Test_systems_manuscript/rnas/4jf2

>  <Rbt.Executable>
rbdock ($Id: //depot/dev/client3/rdock/2013.1/src/exe/rbdock.cxx#4 $)

>  <Rbt.Library>
libRbt.so (2013.1, Build901 2013/11/27)

>  <Rbt.Parameter_File>
/export/apps/rDock/src/rDock_2013.1_src/data/scripts/dock_solv.prm

>  <Rbt.Receptor>
prm/blind_docking_80.prm

>  <SCORE>
-10.0469

>  <SCORE.INTER>
-9.89533

>  <SCORE.INTER.CONST>
1

>  <SCORE.INTER.POLAR>
0

>  <SCORE.INTER.ROT>
1

>  <SCORE.INTER.SOLV>
10.4092

>  <SCORE.INTER.VDW>
-14.3333

>  <SCORE.INTER.norm>
-0.761179

>  <SCORE.INTRA>
-0.151564

>  <SCORE.INTRA.DIHEDRAL>
-0.176018

>  <SCORE.INTRA.DIHEDRAL.0>
1.75624

>  <SCORE.INTRA.POLAR>
0

>  <SCORE.INTRA.POLAR.0>
0

>  <SCORE.INTRA.REPUL>
0

>  <SCORE.INTRA.REPUL.0>
0

>  <SCORE.INTRA.SOLV>
-0.155081

>  <SCORE.INTRA.SOLV.lig_0>
-46.5296

>  <SCORE.INTRA.VDW>
0.0139854

>  <SCORE.INTRA.VDW.0>
-0.381873

>  <SCORE.INTRA.norm>
-0.0116588

>  <SCORE.RESTR>
0

>  <SCORE.RESTR.CAVITY>
0

>  <SCORE.RESTR.norm>
0

>  <SCORE.SYSTEM>
0

>  <SCORE.SYSTEM.CONST>
0

>  <SCORE.SYSTEM.DIHEDRAL>
0

>  <SCORE.SYSTEM.SOLV>
0

>  <SCORE.SYSTEM.norm>
0

>  <SCORE.heavy>
13

>  <SCORE.norm>
-0.772838

>  <RMSD>
17.297

$$$$
ligand
 OpenBabel02271912143D
libRbt.so/2013.1/901 2013/11/27
 13 14  0  0  0  0  0  0  0  0999 V2000
   -1.6903   16.7435   46.1347 N   0  0  0  0  0  0  0  0  0  0  0  0
   -1.0643   15.7938   46.9583 C   0  0  0  0  0  0  0  0  0  0  0  0
   -1.7111   15.3766   48.1810 N   0  0  0  0  0  0  0  0  0  0  0  0
    0.1506   15.2568   46.5981 N   0  0  0  0  0  0  0  0  0  0  0  0
    0.8141   15.6426   45.4049 C   0  0  0  0  0  0  0  0  0  0  0  0
    0.2108   16.6289   44.5506 C   0  0  0  0  0  0  0  0  0  0  0  0
   -1.0609   17.1773   44.9632 C   0  0  0  0  0  0  0  0  0  0  0  0
   -1.6302   18.1070   44.1384 O   0  0  0  0  0  0  0  0  0  0  0  0
    1.0765   16.8385   43.4129 C   0  0  0  0  0  0  0  0  0  0  0  0
    2.1660   15.9947   43.6349 C   0  0  0  0  0  0  0  0  0  0  0  0
    1.9979   15.2851   44.8100 N   0  0  0  0  0  0  0  0  0  0  0  0
    0.8694   17.8019   42.2606 C   0  0  0  0  0  0  0  0  0  0  0  0
    1.1857   19.1872   42.6012 N   0  0  0  0  0  0  0  0  0  0  0  0
  1  2  1  0  0  0  0
  1  7  1  0  0  0  0
  2  3  1  0  0  0  0
  2  4  2  0  0  0  0
  4  5  1  0  0  0  0
  5  6  2  0  0  0  0
  5 11  1  0  0  0  0
  6  7  1  0  0  0  0
  6  9  1  0  0  0  0
  7  8  2  0  0  0  0
  9 10  2  0  0  0  0
  9 12  1  0  0  0  0
 10 11  1  0  0  0  0
 12 13  1  0  0  0  0
M  END
>  <CHROM.1>
77.54581310,0.06331968,16.63802300,44.89222637,2.08206572,-0.50459240,2.29367852

>  <Name>
ligand

>  <RI>
0

>  <Rbt.Current_Directory>
/home/itssahil/PROJECTS/Mol_Feturizer/Test_systems_manuscript/rnas/4jf2

>  <Rbt.Executable>
rbdock ($Id: //depot/dev/client3/rdock/2013.1/src/exe/rbdock.cxx#4 $)

>  <Rbt.Library>
libRbt.so (2013.1, Build901 2013/11/27)

>  <Rbt.Parameter_File>
/export/apps/rDock/src/rDock_2013.1_src/data/scripts/dock_solv.prm

>  <Rbt.Receptor>
prm/blind_docking_60.prm

>  <SCORE>
-10.0349

>  <SCORE.INTER>
-9.91329

>  <SCORE.INTER.CONST>
1

>  <SCORE.INTER.POLAR>
0

>  <SCORE.INTER.ROT>
1

>  <SCORE.INTER.SOLV>
8.83188

>  <SCORE.INTER.VDW>
-13.8195

>  <SCORE.INTER.norm>
-0.762561

>  <SCORE.INTRA>
-0.121644

>  <SCORE.INTRA.DIHEDRAL>
-0.169238

>  <SCORE.INTRA.DIHEDRAL.0>
1.75624

>  <SCORE.INTRA.POLAR>
0

>  <SCORE.INTRA.POLAR.0>
0

>  <SCORE.INTRA.REPUL>
0

>  <SCORE.INTRA.REPUL.0>
0

>  <SCORE.INTRA.SOLV>
-0.0886532

>  <SCORE.INTRA.SOLV.lig_0>
-46.5296

>  <SCORE.INTRA.VDW>
0.00730201

>  <SCORE.INTRA.VDW.0>
-0.381873

>  <SCORE.INTRA.norm>
-0.00935719

>  <SCORE.RESTR>
0

>  <SCORE.RESTR.CAVITY>
0

>  <SCORE.RESTR.norm>
0

>  <SCORE.SYSTEM>
0

>  <SCORE.SYSTEM.CONST>
0

>  <SCORE.SYSTEM.DIHEDRAL>
0

>  <SCORE.SYSTEM.SOLV>
0

>  <SCORE.SYSTEM.norm>
0

>  <SCORE.heavy>
13

>  <SCORE.norm>
-0.771918

>  <RMSD>
17.299

$$$$
ligand
 OpenBabel02271912143D
libRbt.so/2013.1/901 2013/11/27
 13 14  0  0  0  0  0  0  0  0999 V2000
   -1.6978   16.7731   46.1994 N   0  0  0  0  0  0  0  0  0  0  0  0
   -1.0163   15.8882   47.0507 C   0  0  0  0  0  0  0  0  0  0  0  0
   -1.5871   15.5568   48.3359 N   0  0  0  0  0  0  0  0  0  0  0  0
    0.1805   15.3327   46.6592 N   0  0  0  0  0  0  0  0  0  0  0  0
    0.7700   15.6350   45.4046 C   0  0  0  0  0  0  0  0  0  0  0  0
    0.1091   16.5544   44.5188 C   0  0  0  0  0  0  0  0  0  0  0  0
   -1.1414   17.1247   44.9650 C   0  0  0  0  0  0  0  0  0  0  0  0
   -1.7663   17.9899   44.1107 O   0  0  0  0  0  0  0  0  0  0  0  0
    0.9052   16.6860   43.3203 C   0  0  0  0  0  0  0  0  0  0  0  0
    2.0134   15.8658   43.5377 C   0  0  0  0  0  0  0  0  0  0  0  0
    1.9204   15.2416   44.7684 N   0  0  0  0  0  0  0  0  0  0  0  0
    0.6227   17.5630   42.1163 C   0  0  0  0  0  0  0  0  0  0  0  0
    0.8897   18.9793   42.3571 N   0  0  0  0  0  0  0  0  0  0  0  0
  1  2  1  0  0  0  0
  1  7  1  0  0  0  0
  2  3  1  0  0  0  0
  2  4  2  0  0  0  0
  4  5  1  0  0  0  0
  5  6  2  0  0  0  0
  5 11  1  0  0  0  0
  6  7  1  0  0  0  0
  6  9  1  0  0  0  0
  7  8  2  0  0  0  0
  9 10  2  0  0  0  0
  9 12  1  0  0  0  0
 10 11  1  0  0  0  0
 12 13  1  0  0  0  0
M  END
>  <CHROM.1>
74.99716107,-0.02295309,16.58802370,44.86855359,2.02001938,-0.53738224,2.19241424

>  <Name>
ligand

>  <RI>
-1

>  <Rbt.Current_Directory>
/home/itssahil/PROJECTS/Mol_Feturizer/Test_systems_manuscript/rnas/4jf2

>  <Rbt.Executable>
rbdock ($Id: //depot/dev/client3/rdock/2013.1/src/exe/rbdock.cxx#4 $)

>  <Rbt.Library>
libRbt.so (2013.1, Build901 2013/11/27)

>  <Rbt.Parameter_File>
/export/apps/rDock/src/rDock_2013.1_src/data/scripts/dock_solv.prm

>  <Rbt.Receptor>
prm/blind_docking_80.prm

>  <SCORE>
-10.1271

>  <SCORE.INTER>
-10.0393

>  <SCORE.INTER.CONST>
1

>  <SCORE.INTER.POLAR>
0

>  <SCORE.INTER.ROT>
1

>  <SCORE.INTER.SOLV>
9.83948

>  <SCORE.INTER.VDW>
-14.2394

>  <SCORE.INTER.norm>
-0.772256

>  <SCORE.INTRA>
-0.0878079

>  <SCORE.INTRA.DIHEDRAL>
-0.160205

>  <SCORE.INTRA.DIHEDRAL.0>
1.75624

>  <SCORE.INTRA.POLAR>
0

>  <SCORE.INTRA.POLAR.0>
0

>  <SCORE.INTRA.REPUL>
0

>  <SCORE.INTRA.REPUL.0>
0

>  <SCORE.INTRA.SOLV>
-0.0153995

>  <SCORE.INTRA.SOLV.lig_0>
-46.5296

>  <SCORE.INTRA.VDW>
-5.77725e-06

>  <SCORE.INTRA.VDW.0>
-0.381873

>  <SCORE.INTRA.norm>
-0.00675445

>  <SCORE.RESTR>
0

>  <SCORE.RESTR.CAVITY>
0

>  <SCORE.RESTR.norm>
0

>  <SCORE.SYSTEM>
0

>  <SCORE.SYSTEM.CONST>
0

>  <SCORE.SYSTEM.DIHEDRAL>
0

>  <SCORE.SYSTEM.SOLV>
0

>  <SCORE.SYSTEM.norm>
0

>  <SCORE.heavy>
13

>  <SCORE.norm>
-0.77901

>  <RMSD>
17.307

$$$$
ligand
 OpenBabel02271912143D
libRbt.so/2013.1/901 2013/11/27
 13 14  0  0  0  0  0  0  0  0999 V2000
   -0.5734   18.3248   43.9910 N   0  0  0  0  0  0  0  0  0  0  0  0
    0.0017   19.5968   44.1436 C   0  0  0  0  0  0  0  0  0  0  0  0
   -0.8530   20.7594   44.2162 N   0  0  0  0  0  0  0  0  0  0  0  0
    1.3682   19.7338   44.2341 N   0  0  0  0  0  0  0  0  0  0  0  0
    2.2377   18.6147   44.1672 C   0  0  0  0  0  0  0  0  0  0  0  0
    1.6823   17.3006   43.9891 C   0  0  0  0  0  0  0  0  0  0  0  0
    0.2446   17.1945   43.8901 C   0  0  0  0  0  0  0  0  0  0  0  0
   -0.2733   15.9394   43.7309 O   0  0  0  0  0  0  0  0  0  0  0  0
    2.7671   16.3469   43.9572 C   0  0  0  0  0  0  0  0  0  0  0  0
    3.9226   17.1179   44.0946 C   0  0  0  0  0  0  0  0  0  0  0  0
    3.5993   18.4561   44.2272 N   0  0  0  0  0  0  0  0  0  0  0  0
    2.6713   14.8462   43.7641 C   0  0  0  0  0  0  0  0  0  0  0  0
    3.9650   14.2102   43.5250 N   0  0  0  0  0  0  0  0  0  0  0  0
  1  2  1  0  0  0  0
  1  7  1  0  0  0  0
  2  3  1  0  0  0  0
  2  4  2  0  0  0  0
  4  5  1  0  0  0  0
  5  6  2  0  0  0  0
  5 11  1  0  0  0  0
  6  7  1  0  0  0  0
  6  9  1  0  0  0  0
  7  8  2  0  0  0  0
  9 10  2  0  0  0  0
  9 12  1  0  0  0  0
 10 11  1  0  0  0  0
 12 13  1  0  0  0  0
M  END
>  <CHROM.1>
168.81832684,1.56061882,17.54462137,43.98837980,2.24264045,-0.04729123,0.12438457

>  <Name>
ligand

>  <RI>
-1

>  <Rbt.Current_Directory>
/home/itssahil/PROJECTS/Mol_Feturizer/Test_systems_manuscript/rnas/4jf2

>  <Rbt.Executable>
rbdock ($Id: //depot/dev/client3/rdock/2013.1/src/exe/rbdock.cxx#4 $)

>  <Rbt.Library>
libRbt.so (2013.1, Build901 2013/11/27)

>  <Rbt.Parameter_File>
/export/apps/rDock/src/rDock_2013.1_src/data/scripts/dock_solv.prm

>  <Rbt.Receptor>
prm/blind_docking_80.prm

>  <SCORE>
-9.65311

>  <SCORE.INTER>
-9.33208

>  <SCORE.INTER.CONST>
1

>  <SCORE.INTER.POLAR>
0

>  <SCORE.INTER.ROT>
1

>  <SCORE.INTER.SOLV>
8.5311

>  <SCORE.INTER.VDW>
-13.3318

>  <SCORE.INTER.norm>
-0.717852

>  <SCORE.INTRA>
-0.321024

>  <SCORE.INTRA.DIHEDRAL>
-0.0208911

>  <SCORE.INTRA.DIHEDRAL.0>
1.75624

>  <SCORE.INTRA.POLAR>
0

>  <SCORE.INTRA.POLAR.0>
0

>  <SCORE.INTRA.REPUL>
0

>  <SCORE.INTRA.REPUL.0>
0

>  <SCORE.INTRA.SOLV>
-1.01669

>  <SCORE.INTRA.SOLV.lig_0>
-46.5296

>  <SCORE.INTRA.VDW>
0.197767

>  <SCORE.INTRA.VDW.0>
-0.381873

>  <SCORE.INTRA.norm>
-0.0246942

>  <SCORE.RESTR>
0

>  <SCORE.RESTR.CAVITY>
0

>  <SCORE.RESTR.norm>
0

>  <SCORE.SYSTEM>
0

>  <SCORE.SYSTEM.CONST>
0

>  <SCORE.SYSTEM.DIHEDRAL>
0

>  <SCORE.SYSTEM.SOLV>
0

>  <SCORE.SYSTEM.norm>
0

>  <SCORE.heavy>
13

>  <SCORE.norm>
-0.742547

>  <RMSD>
17.736

$$$$
ligand
 OpenBabel02271912143D
libRbt.so/2013.1/901 2013/11/27
 13 14  0  0  0  0  0  0  0  0999 V2000
    0.7711   18.4659   40.5760 N   0  0  0  0  0  0  0  0  0  0  0  0
    1.5932   19.6014   40.4924 C   0  0  0  0  0  0  0  0  0  0  0  0
    1.5237   20.4448   39.3214 N   0  0  0  0  0  0  0  0  0  0  0  0
    2.4504   19.9143   41.5228 N   0  0  0  0  0  0  0  0  0  0  0  0
    2.5446   19.1094   42.6873 C   0  0  0  0  0  0  0  0  0  0  0  0
    1.7328   17.9278   42.7947 C   0  0  0  0  0  0  0  0  0  0  0  0
    0.8501   17.6253   41.6913 C   0  0  0  0  0  0  0  0  0  0  0  0
    0.0755   16.5049   41.8083 O   0  0  0  0  0  0  0  0  0  0  0  0
    2.0121   17.2957   44.0635 C   0  0  0  0  0  0  0  0  0  0  0  0
    2.9863   18.1012   44.6553 C   0  0  0  0  0  0  0  0  0  0  0  0
    3.2882   19.1759   43.8386 N   0  0  0  0  0  0  0  0  0  0  0  0
    1.4153   16.0120   44.6063 C   0  0  0  0  0  0  0  0  0  0  0  0
    0.1605   16.2170   45.3265 N   0  0  0  0  0  0  0  0  0  0  0  0
  1  2  1  0  0  0  0
  1  7  1  0  0  0  0
  2  3  1  0  0  0  0
  2  4  2  0  0  0  0
  4  5  1  0  0  0  0
  5  6  2  0  0  0  0
  5 11  1  0  0  0  0
  6  7  1  0  0  0  0
  6  9  1  0  0  0  0
  7  8  2  0  0  0  0
  9 10  2  0  0  0  0
  9 12  1  0  0  0  0
 10 11  1  0  0  0  0
 12 13  1  0  0  0  0
M  END
>  <CHROM.1>
-87.21521774,1.60688481,18.15813598,42.54815618,1.49206609,-0.74747163,-1.00618604

>  <Name>
ligand

>  <RI>
0

>  <Rbt.Current_Directory>
/home/itssahil/PROJECTS/Mol_Feturizer/Test_systems_manuscript/rnas/4jf2

>  <Rbt.Executable>
rbdock ($Id: //depot/dev/client3/rdock/2013.1/src/exe/rbdock.cxx#4 $)

>  <Rbt.Library>
libRbt.so (2013.1, Build901 2013/11/27)

>  <Rbt.Parameter_File>
/export/apps/rDock/src/rDock_2013.1_src/data/scripts/dock_solv.prm

>  <Rbt.Receptor>
prm/blind_docking_100.prm

>  <SCORE>
-10.102

>  <SCORE.INTER>
-9.98517

>  <SCORE.INTER.CONST>
1

>  <SCORE.INTER.POLAR>
0

>  <SCORE.INTER.ROT>
1

>  <SCORE.INTER.SOLV>
10.9106

>  <SCORE.INTER.VDW>
-14.5603

>  <SCORE.INTER.norm>
-0.76809

>  <SCORE.INTRA>
-0.116851

>  <SCORE.INTRA.DIHEDRAL>
0.0328447

>  <SCORE.INTRA.DIHEDRAL.0>
1.75624

>  <SCORE.INTRA.POLAR>
0

>  <SCORE.INTRA.POLAR.0>
0

>  <SCORE.INTRA.REPUL>
0

>  <SCORE.INTRA.REPUL.0>
0

>  <SCORE.INTRA.SOLV>
-0.332863

>  <SCORE.INTRA.SOLV.lig_0>
-46.5296

>  <SCORE.INTRA.VDW>
0.0331583

>  <SCORE.INTRA.VDW.0>
-0.381873

>  <SCORE.INTRA.norm>
-0.00898851

>  <SCORE.RESTR>
0

>  <SCORE.RESTR.CAVITY>
0

>  <SCORE.RESTR.norm>
0

>  <SCORE.SYSTEM>
0

>  <SCORE.SYSTEM.CONST>
0

>  <SCORE.SYSTEM.DIHEDRAL>
0

>  <SCORE.SYSTEM.SOLV>
0

>  <SCORE.SYSTEM.norm>
0

>  <SCORE.heavy>
13

>  <SCORE.norm>
-0.777078

>  <RMSD>
18.116

$$$$
ligand
 OpenBabel02271912143D
libRbt.so/2013.1/901 2013/11/27
 13 14  0  0  0  0  0  0  0  0999 V2000
    2.9154   14.9878   43.8683 N   0  0  0  0  0  0  0  0  0  0  0  0
    4.2611   15.3893   43.8760 C   0  0  0  0  0  0  0  0  0  0  0  0
    5.3020   14.3879   43.8440 N   0  0  0  0  0  0  0  0  0  0  0  0
    4.5856   16.7266   43.9029 N   0  0  0  0  0  0  0  0  0  0  0  0
    3.5900   17.7369   43.9343 C   0  0  0  0  0  0  0  0  0  0  0  0
    2.2030   17.3590   43.9496 C   0  0  0  0  0  0  0  0  0  0  0  0
    1.8986   15.9466   43.9285 C   0  0  0  0  0  0  0  0  0  0  0  0
    0.5765   15.5988   43.9333 O   0  0  0  0  0  0  0  0  0  0  0  0
    1.4025   18.5615   43.9776 C   0  0  0  0  0  0  0  0  0  0  0  0
    2.3291   19.6051   43.9993 C   0  0  0  0  0  0  0  0  0  0  0  0
    3.6194   19.1084   43.9642 N   0  0  0  0  0  0  0  0  0  0  0  0
   -0.1095   18.6628   44.0260 C   0  0  0  0  0  0  0  0  0  0  0  0
   -0.6305   19.8570   43.3645 N   0  0  0  0  0  0  0  0  0  0  0  0
  1  2  1  0  0  0  0
  1  7  1  0  0  0  0
  2  3  1  0  0  0  0
  2  4  2  0  0  0  0
  4  5  1  0  0  0  0
  5  6  2  0  0  0  0
  5 11  1  0  0  0  0
  6  7  1  0  0  0  0
  6  9  1  0  0  0  0
  7  8  2  0  0  0  0
  9 10  2  0  0  0  0
  9 12  1  0  0  0  0
 10 11  1  0  0  0  0
 12 13  1  0  0  0  0
M  END
>  <CHROM.1>
-149.54479738,2.42418615,17.19208446,43.88662673,0.78836325,0.02503076,3.13810054

>  <Name>
ligand

>  <RI>
-1

>  <Rbt.Current_Directory>
/home/itssahil/PROJECTS/Mol_Feturizer/Test_systems_manuscript/rnas/4jf2

>  <Rbt.Executable>
rbdock ($Id: //depot/dev/client3/rdock/2013.1/src/exe/rbdock.cxx#4 $)

>  <Rbt.Library>
libRbt.so (2013.1, Build901 2013/11/27)

>  <Rbt.Parameter_File>
/export/apps/rDock/src/rDock_2013.1_src/data/scripts/dock_solv.prm

>  <Rbt.Receptor>
prm/blind_docking_80.prm

>  <SCORE>
-10.582

>  <SCORE.INTER>
-10.1319

>  <SCORE.INTER.CONST>
1

>  <SCORE.INTER.POLAR>
0

>  <SCORE.INTER.ROT>
1

>  <SCORE.INTER.SOLV>
8.0431

>  <SCORE.INTER.VDW>
-13.7023

>  <SCORE.INTER.norm>
-0.779375

>  <SCORE.INTRA>
-0.450108

>  <SCORE.INTRA.DIHEDRAL>
-0.187378

>  <SCORE.INTRA.DIHEDRAL.0>
1.75624

>  <SCORE.INTRA.POLAR>
0

>  <SCORE.INTRA.POLAR.0>
0

>  <SCORE.INTRA.REPUL>
0

>  <SCORE.INTRA.REPUL.0>
0

>  <SCORE.INTRA.SOLV>
-1.03265

>  <SCORE.INTRA.SOLV.lig_0>
-46.5296

>  <SCORE.INTRA.VDW>
0.159905

>  <SCORE.INTRA.VDW.0>
-0.381873

>  <SCORE.INTRA.norm>
-0.0346237

>  <SCORE.RESTR>
0

>  <SCORE.RESTR.CAVITY>
0

>  <SCORE.RESTR.norm>
0

>  <SCORE.SYSTEM>
0

>  <SCORE.SYSTEM.CONST>
0

>  <SCORE.SYSTEM.DIHEDRAL>
0

>  <SCORE.SYSTEM.SOLV>
0

>  <SCORE.SYSTEM.norm>
0

>  <SCORE.heavy>
13

>  <SCORE.norm>
-0.813998

>  <RMSD>
18.147

$$$$
ligand
 OpenBabel02271912143D
libRbt.so/2013.1/901 2013/11/27
 13 14  0  0  0  0  0  0  0  0999 V2000
    4.5892   16.8757   43.6317 N   0  0  0  0  0  0  0  0  0  0  0  0
    4.5783   15.4837   43.8176 C   0  0  0  0  0  0  0  0  0  0  0  0
    5.8094   14.7392   43.6853 N   0  0  0  0  0  0  0  0  0  0  0  0
    3.4062   14.8355   44.1341 N   0  0  0  0  0  0  0  0  0  0  0  0
    2.1793   15.5345   44.2725 C   0  0  0  0  0  0  0  0  0  0  0  0
    2.1518   16.9571   44.0669 C   0  0  0  0  0  0  0  0  0  0  0  0
    3.3988   17.6040   43.7283 C   0  0  0  0  0  0  0  0  0  0  0  0
    3.3631   18.9582   43.5449 O   0  0  0  0  0  0  0  0  0  0  0  0
    0.7986   17.4215   44.2685 C   0  0  0  0  0  0  0  0  0  0  0  0
    0.0676   16.2696   44.5637 C   0  0  0  0  0  0  0  0  0  0  0  0
    0.8937   15.1604   44.5727 N   0  0  0  0  0  0  0  0  0  0  0  0
    0.2803   18.8401   44.1361 C   0  0  0  0  0  0  0  0  0  0  0  0
   -1.1375   18.9077   43.7892 N   0  0  0  0  0  0  0  0  0  0  0  0
  1  2  1  0  0  0  0
  1  7  1  0  0  0  0
  2  3  1  0  0  0  0
  2  4  2  0  0  0  0
  4  5  1  0  0  0  0
  5  6  2  0  0  0  0
  5 11  1  0  0  0  0
  6  7  1  0  0  0  0
  6  9  1  0  0  0  0
  7  8  2  0  0  0  0
  9 10  2  0  0  0  0
  9 12  1  0  0  0  0
 10 11  1  0  0  0  0
 12 13  1  0  0  0  0
M  END
>  <CHROM.1>
153.07646065,2.35829364,16.77681719,44.00364338,-0.48682123,0.15353049,-0.17175284

>  <Name>
ligand

>  <RI>
0

>  <Rbt.Current_Directory>
/home/itssahil/PROJECTS/Mol_Feturizer/Test_systems_manuscript/rnas/4jf2

>  <Rbt.Executable>
rbdock ($Id: //depot/dev/client3/rdock/2013.1/src/exe/rbdock.cxx#4 $)

>  <Rbt.Library>
libRbt.so (2013.1, Build901 2013/11/27)

>  <Rbt.Parameter_File>
/export/apps/rDock/src/rDock_2013.1_src/data/scripts/dock_solv.prm

>  <Rbt.Receptor>
prm/blind_docking_60.prm

>  <SCORE>
-11.3361

>  <SCORE.INTER>
-11.0178

>  <SCORE.INTER.CONST>
1

>  <SCORE.INTER.POLAR>
0

>  <SCORE.INTER.ROT>
1

>  <SCORE.INTER.SOLV>
8.79117

>  <SCORE.INTER.VDW>
-14.5423

>  <SCORE.INTER.norm>
-0.847523

>  <SCORE.INTRA>
-0.318282

>  <SCORE.INTRA.DIHEDRAL>
0.032473

>  <SCORE.INTRA.DIHEDRAL.0>
1.75624

>  <SCORE.INTRA.POLAR>
0

>  <SCORE.INTRA.POLAR.0>
0

>  <SCORE.INTRA.REPUL>
0

>  <SCORE.INTRA.REPUL.0>
0

>  <SCORE.INTRA.SOLV>
-1.01743

>  <SCORE.INTRA.SOLV.lig_0>
-46.5296

>  <SCORE.INTRA.VDW>
0.174197

>  <SCORE.INTRA.VDW.0>
-0.381873

>  <SCORE.INTRA.norm>
-0.0244832

>  <SCORE.RESTR>
0

>  <SCORE.RESTR.CAVITY>
0

>  <SCORE.RESTR.norm>
0

>  <SCORE.SYSTEM>
0

>  <SCORE.SYSTEM.CONST>
0

>  <SCORE.SYSTEM.DIHEDRAL>
0

>  <SCORE.SYSTEM.SOLV>
0

>  <SCORE.SYSTEM.norm>
0

>  <SCORE.heavy>
13

>  <SCORE.norm>
-0.872006

>  <RMSD>
18.244

$$$$
ligand
 OpenBabel02271912143D
libRbt.so/2013.1/901 2013/11/27
 13 14  0  0  0  0  0  0  0  0999 V2000
    4.6215   16.6965   43.7278 N   0  0  0  0  0  0  0  0  0  0  0  0
    4.5077   15.3047   43.8765 C   0  0  0  0  0  0  0  0  0  0  0  0
    5.6870   14.4783   43.7585 N   0  0  0  0  0  0  0  0  0  0  0  0
    3.2843   14.7334   44.1434 N   0  0  0  0  0  0  0  0  0  0  0  0
    2.1058   15.5138   44.2664 C   0  0  0  0  0  0  0  0  0  0  0  0
    2.1840   16.9394   44.0977 C   0  0  0  0  0  0  0  0  0  0  0  0
    3.4826   17.5045   43.8108 C   0  0  0  0  0  0  0  0  0  0  0  0
    3.5471   18.8620   43.6623 O   0  0  0  0  0  0  0  0  0  0  0  0
    0.8613   17.4932   44.2742 C   0  0  0  0  0  0  0  0  0  0  0  0
    0.0431   16.3891   44.5186 C   0  0  0  0  0  0  0  0  0  0  0  0
    0.7889   15.2243   44.5211 N   0  0  0  0  0  0  0  0  0  0  0  0
    0.4476   18.9478   44.1651 C   0  0  0  0  0  0  0  0  0  0  0  0
   -0.8231   19.1369   43.4690 N   0  0  0  0  0  0  0  0  0  0  0  0
  1  2  1  0  0  0  0
  1  7  1  0  0  0  0
  2  3  1  0  0  0  0
  2  4  2  0  0  0  0
  4  5  1  0  0  0  0
  5  6  2  0  0  0  0
  5 11  1  0  0  0  0
  6  7  1  0  0  0  0
  6  9  1  0  0  0  0
  7  8  2  0  0  0  0
  9 10  2  0  0  0  0
  9 12  1  0  0  0  0
 10 11  1  0  0  0  0
 12 13  1  0  0  0  0
M  END
>  <CHROM.1>
138.61831244,2.38955430,16.74761853,44.01003556,-0.57286550,0.12438134,-0.15230206

>  <Name>
ligand

>  <RI>
0

>  <Rbt.Current_Directory>
/home/itssahil/PROJECTS/Mol_Feturizer/Test_systems_manuscript/rnas/4jf2

>  <Rbt.Executable>
rbdock ($Id: //depot/dev/client3/rdock/2013.1/src/exe/rbdock.cxx#4 $)

>  <Rbt.Library>
libRbt.so (2013.1, Build901 2013/11/27)

>  <Rbt.Parameter_File>
/export/apps/rDock/src/rDock_2013.1_src/data/scripts/dock_solv.prm

>  <Rbt.Receptor>
prm/blind_docking_60.prm

>  <SCORE>
-11.3743

>  <SCORE.INTER>
-11.018

>  <SCORE.INTER.CONST>
1

>  <SCORE.INTER.POLAR>
0

>  <SCORE.INTER.ROT>
1

>  <SCORE.INTER.SOLV>
8.33725

>  <SCORE.INTER.VDW>
-14.3911

>  <SCORE.INTER.norm>
-0.847538

>  <SCORE.INTRA>
-0.356326

>  <SCORE.INTRA.DIHEDRAL>
0.02007

>  <SCORE.INTRA.DIHEDRAL.0>
1.75624

>  <SCORE.INTRA.POLAR>
0

>  <SCORE.INTRA.POLAR.0>
0

>  <SCORE.INTRA.REPUL>
0

>  <SCORE.INTRA.REPUL.0>
0

>  <SCORE.INTRA.SOLV>
-1.02059

>  <SCORE.INTRA.SOLV.lig_0>
-46.5296

>  <SCORE.INTRA.VDW>
0.143932

>  <SCORE.INTRA.VDW.0>
-0.381873

>  <SCORE.INTRA.norm>
-0.0274097

>  <SCORE.RESTR>
0

>  <SCORE.RESTR.CAVITY>
0

>  <SCORE.RESTR.norm>
0

>  <SCORE.SYSTEM>
0

>  <SCORE.SYSTEM.CONST>
0

>  <SCORE.SYSTEM.DIHEDRAL>
0

>  <SCORE.SYSTEM.SOLV>
0

>  <SCORE.SYSTEM.norm>
0

>  <SCORE.heavy>
13

>  <SCORE.norm>
-0.874948

>  <RMSD>
18.286

$$$$
ligand
 OpenBabel02271912143D
libRbt.so/2013.1/901 2013/11/27
 13 14  0  0  0  0  0  0  0  0999 V2000
    4.5960   16.7736   43.6139 N   0  0  0  0  0  0  0  0  0  0  0  0
    4.6166   15.3894   43.8499 C   0  0  0  0  0  0  0  0  0  0  0  0
    5.8596   14.6645   43.7199 N   0  0  0  0  0  0  0  0  0  0  0  0
    3.4640   14.7305   44.2127 N   0  0  0  0  0  0  0  0  0  0  0  0
    2.2262   15.4101   44.3502 C   0  0  0  0  0  0  0  0  0  0  0  0
    2.1662   16.8235   44.0942 C   0  0  0  0  0  0  0  0  0  0  0  0
    3.3932   17.4817   43.7079 C   0  0  0  0  0  0  0  0  0  0  0  0
    3.3268   18.8274   43.4766 O   0  0  0  0  0  0  0  0  0  0  0  0
    0.8081   17.2686   44.3059 C   0  0  0  0  0  0  0  0  0  0  0  0
    0.1061   16.1142   44.6568 C   0  0  0  0  0  0  0  0  0  0  0  0
    0.9544   15.0223   44.6893 N   0  0  0  0  0  0  0  0  0  0  0  0
    0.2589   18.6712   44.1330 C   0  0  0  0  0  0  0  0  0  0  0  0
   -1.1700   18.6992   43.8285 N   0  0  0  0  0  0  0  0  0  0  0  0
  1  2  1  0  0  0  0
  1  7  1  0  0  0  0
  2  3  1  0  0  0  0
  2  4  2  0  0  0  0
  4  5  1  0  0  0  0
  5  6  2  0  0  0  0
  5 11  1  0  0  0  0
  6  7  1  0  0  0  0
  6  9  1  0  0  0  0
  7  8  2  0  0  0  0
  9 10  2  0  0  0  0
  9 12  1  0  0  0  0
 10 11  1  0  0  0  0
 12 13  1  0  0  0  0
M  END
>  <CHROM.1>
153.79367367,2.37472383,16.64514251,44.03475352,-0.46300224,0.16973835,-0.21093068

>  <Name>
ligand

>  <RI>
0

>  <Rbt.Current_Directory>
/home/itssahil/PROJECTS/Mol_Feturizer/Test_systems_manuscript/rnas/4jf2

>  <Rbt.Executable>
rbdock ($Id: //depot/dev/client3/rdock/2013.1/src/exe/rbdock.cxx#4 $)

>  <Rbt.Library>
libRbt.so (2013.1, Build901 2013/11/27)

>  <Rbt.Parameter_File>
/export/apps/rDock/src/rDock_2013.1_src/data/scripts/dock_solv.prm

>  <Rbt.Receptor>
prm/blind_docking_60.prm

>  <SCORE>
-11.4832

>  <SCORE.INTER>
-11.1659

>  <SCORE.INTER.CONST>
1

>  <SCORE.INTER.POLAR>
0

>  <SCORE.INTER.ROT>
1

>  <SCORE.INTER.SOLV>
8.78912

>  <SCORE.INTER.VDW>
-14.6403

>  <SCORE.INTER.norm>
-0.858915

>  <SCORE.INTRA>
-0.317354

>  <SCORE.INTRA.DIHEDRAL>
0.0314511

>  <SCORE.INTRA.DIHEDRAL.0>
1.75624

>  <SCORE.INTRA.POLAR>
0

>  <SCORE.INTRA.POLAR.0>
0

>  <SCORE.INTRA.REPUL>
0

>  <SCORE.INTRA.REPUL.0>
0

>  <SCORE.INTRA.SOLV>
-1.01733

>  <SCORE.INTRA.SOLV.lig_0>
-46.5296

>  <SCORE.INTRA.VDW>
0.175583

>  <SCORE.INTRA.VDW.0>
-0.381873

>  <SCORE.INTRA.norm>
-0.0244119

>  <SCORE.RESTR>
0

>  <SCORE.RESTR.CAVITY>
0

>  <SCORE.RESTR.norm>
0

>  <SCORE.SYSTEM>
0

>  <SCORE.SYSTEM.CONST>
0

>  <SCORE.SYSTEM.DIHEDRAL>
0

>  <SCORE.SYSTEM.SOLV>
0

>  <SCORE.SYSTEM.norm>
0

>  <SCORE.heavy>
13

>  <SCORE.norm>
-0.883327

>  <RMSD>
18.327

$$$$
ligand
 OpenBabel02271912143D
libRbt.so/2013.1/901 2013/11/27
 13 14  0  0  0  0  0  0  0  0999 V2000
    4.6103   16.7846   43.6178 N   0  0  0  0  0  0  0  0  0  0  0  0
    4.6449   15.3969   43.8306 C   0  0  0  0  0  0  0  0  0  0  0  0
    5.8965   14.6880   43.6951 N   0  0  0  0  0  0  0  0  0  0  0  0
    3.4978   14.7194   44.1761 N   0  0  0  0  0  0  0  0  0  0  0  0
    2.2519   15.3830   44.3184 C   0  0  0  0  0  0  0  0  0  0  0  0
    2.1776   16.7998   44.0859 C   0  0  0  0  0  0  0  0  0  0  0  0
    3.3993   17.4778   43.7173 C   0  0  0  0  0  0  0  0  0  0  0  0
    3.3192   18.8264   43.5083 O   0  0  0  0  0  0  0  0  0  0  0  0
    0.8136   17.2263   44.2977 C   0  0  0  0  0  0  0  0  0  0  0  0
    0.1226   16.0586   44.6254 C   0  0  0  0  0  0  0  0  0  0  0  0
    0.9827   14.9756   44.6440 N   0  0  0  0  0  0  0  0  0  0  0  0
    0.2499   18.6255   44.1455 C   0  0  0  0  0  0  0  0  0  0  0  0
   -1.1708   18.6425   43.8039 N   0  0  0  0  0  0  0  0  0  0  0  0
  1  2  1  0  0  0  0
  1  7  1  0  0  0  0
  2  3  1  0  0  0  0
  2  4  2  0  0  0  0
  4  5  1  0  0  0  0
  5  6  2  0  0  0  0
  5 11  1  0  0  0  0
  6  7  1  0  0  0  0
  6  9  1  0  0  0  0
  7  8  2  0  0  0  0
  9 10  2  0  0  0  0
  9 12  1  0  0  0  0
 10 11  1  0  0  0  0
 12 13  1  0  0  0  0
M  END
>  <CHROM.1>
152.48025026,2.38896743,16.62467740,44.02210467,-0.45391929,0.16092349,-0.19704018

>  <Name>
ligand

>  <RI>
-1

>  <Rbt.Current_Directory>
/home/itssahil/PROJECTS/Mol_Feturizer/Test_systems_manuscript/rnas/4jf2

>  <Rbt.Executable>
rbdock ($Id: //depot/dev/client3/rdock/2013.1/src/exe/rbdock.cxx#4 $)

>  <Rbt.Library>
libRbt.so (2013.1, Build901 2013/11/27)

>  <Rbt.Parameter_File>
/export/apps/rDock/src/rDock_2013.1_src/data/scripts/dock_solv.prm

>  <Rbt.Receptor>
prm/blind_docking_80.prm

>  <SCORE>
-11.441

>  <SCORE.INTER>
-11.1219

>  <SCORE.INTER.CONST>
1

>  <SCORE.INTER.POLAR>
0

>  <SCORE.INTER.ROT>
1

>  <SCORE.INTER.SOLV>
8.8313

>  <SCORE.INTER.VDW>
-14.625

>  <SCORE.INTER.norm>
-0.855528

>  <SCORE.INTRA>
-0.319129

>  <SCORE.INTRA.DIHEDRAL>
0.0332057

>  <SCORE.INTRA.DIHEDRAL.0>
1.75624

>  <SCORE.INTRA.POLAR>
0

>  <SCORE.INTRA.POLAR.0>
0

>  <SCORE.INTRA.REPUL>
0

>  <SCORE.INTRA.REPUL.0>
0

>  <SCORE.INTRA.SOLV>
-1.01752

>  <SCORE.INTRA.SOLV.lig_0>
-46.5296

>  <SCORE.INTRA.VDW>
0.173031

>  <SCORE.INTRA.VDW.0>
-0.381873

>  <SCORE.INTRA.norm>
-0.0245483

>  <SCORE.RESTR>
0

>  <SCORE.RESTR.CAVITY>
0

>  <SCORE.RESTR.norm>
0

>  <SCORE.SYSTEM>
0

>  <SCORE.SYSTEM.CONST>
0

>  <SCORE.SYSTEM.DIHEDRAL>
0

>  <SCORE.SYSTEM.SOLV>
0

>  <SCORE.SYSTEM.norm>
0

>  <SCORE.heavy>
13

>  <SCORE.norm>
-0.880076

>  <RMSD>
18.353

$$$$
ligand
 OpenBabel02271912143D
libRbt.so/2013.1/901 2013/11/27
 13 14  0  0  0  0  0  0  0  0999 V2000
    4.7162   16.6306   43.7751 N   0  0  0  0  0  0  0  0  0  0  0  0
    4.6713   15.2396   43.9634 C   0  0  0  0  0  0  0  0  0  0  0  0
    5.8928   14.4719   43.8858 N   0  0  0  0  0  0  0  0  0  0  0  0
    3.4748   14.6142   44.2307 N   0  0  0  0  0  0  0  0  0  0  0  0
    2.2564   15.3363   44.3147 C   0  0  0  0  0  0  0  0  0  0  0  0
    2.2643   16.7585   44.1049 C   0  0  0  0  0  0  0  0  0  0  0  0
    3.5365   17.3811   43.8188 C   0  0  0  0  0  0  0  0  0  0  0  0
    3.5340   18.7352   43.6310 O   0  0  0  0  0  0  0  0  0  0  0  0
    0.9126   17.2485   44.2472 C   0  0  0  0  0  0  0  0  0  0  0  0
    0.1482   16.1113   44.5133 C   0  0  0  0  0  0  0  0  0  0  0  0
    0.9523   14.9870   44.5603 N   0  0  0  0  0  0  0  0  0  0  0  0
    0.4270   18.6761   44.0895 C   0  0  0  0  0  0  0  0  0  0  0  0
    0.5162   19.1690   42.7168 N   0  0  0  0  0  0  0  0  0  0  0  0
  1  2  1  0  0  0  0
  1  7  1  0  0  0  0
  2  3  1  0  0  0  0
  2  4  2  0  0  0  0
  4  5  1  0  0  0  0
  5  6  2  0  0  0  0
  5 11  1  0  0  0  0
  6  7  1  0  0  0  0
  6  9  1  0  0  0  0
  7  8  2  0  0  0  0
  9 10  2  0  0  0  0
  9 12  1  0  0  0  0
 10 11  1  0  0  0  0
 12 13  1  0  0  0  0
M  END
>  <CHROM.1>
67.73193514,2.59108115,16.60678802,43.97250166,-0.62639375,0.12014628,-0.24297805

>  <Name>
ligand

>  <RI>
0

>  <Rbt.Current_Directory>
/home/itssahil/PROJECTS/Mol_Feturizer/Test_systems_manuscript/rnas/4jf2

>  <Rbt.Executable>
rbdock ($Id: //depot/dev/client3/rdock/2013.1/src/exe/rbdock.cxx#4 $)

>  <Rbt.Library>
libRbt.so (2013.1, Build901 2013/11/27)

>  <Rbt.Parameter_File>
/export/apps/rDock/src/rDock_2013.1_src/data/scripts/dock_solv.prm

>  <Rbt.Receptor>
prm/blind_docking_100.prm

>  <SCORE>
-11.4511

>  <SCORE.INTER>
-11.4654

>  <SCORE.INTER.CONST>
1

>  <SCORE.INTER.POLAR>
0

>  <SCORE.INTER.ROT>
1

>  <SCORE.INTER.SOLV>
7.43958

>  <SCORE.INTER.VDW>
-14.3901

>  <SCORE.INTER.norm>
-0.881954

>  <SCORE.INTRA>
0.0143314

>  <SCORE.INTRA.DIHEDRAL>
-0.126911

>  <SCORE.INTRA.DIHEDRAL.0>
1.75624

>  <SCORE.INTRA.POLAR>
0

>  <SCORE.INTRA.POLAR.0>
0

>  <SCORE.INTRA.REPUL>
0

>  <SCORE.INTRA.REPUL.0>
0

>  <SCORE.INTRA.SOLV>
0.193144

>  <SCORE.INTRA.SOLV.lig_0>
-46.5296

>  <SCORE.INTRA.VDW>
-0.0187853

>  <SCORE.INTRA.VDW.0>
-0.381873

>  <SCORE.INTRA.norm>
0.00110242

>  <SCORE.RESTR>
0

>  <SCORE.RESTR.CAVITY>
0

>  <SCORE.RESTR.norm>
0

>  <SCORE.SYSTEM>
0

>  <SCORE.SYSTEM.CONST>
0

>  <SCORE.SYSTEM.DIHEDRAL>
0

>  <SCORE.SYSTEM.SOLV>
0

>  <SCORE.SYSTEM.norm>
0

>  <SCORE.heavy>
13

>  <SCORE.norm>
-0.880852

>  <RMSD>
18.487

$$$$
ligand
 OpenBabel02271912143D
libRbt.so/2013.1/901 2013/11/27
 13 14  0  0  0  0  0  0  0  0999 V2000
    0.8569   20.6233   40.5798 N   0  0  0  0  0  0  0  0  0  0  0  0
    1.5704   21.1335   41.6766 C   0  0  0  0  0  0  0  0  0  0  0  0
    0.8593   21.4956   42.8810 N   0  0  0  0  0  0  0  0  0  0  0  0
    2.9375   21.2770   41.6084 N   0  0  0  0  0  0  0  0  0  0  0  0
    3.6682   20.9313   40.4425 C   0  0  0  0  0  0  0  0  0  0  0  0
    2.9654   20.4270   39.2942 C   0  0  0  0  0  0  0  0  0  0  0  0
    1.5300   20.2964   39.3979 C   0  0  0  0  0  0  0  0  0  0  0  0
    0.8730   19.8066   38.3037 O   0  0  0  0  0  0  0  0  0  0  0  0
    3.9292   20.1507   38.2540 C   0  0  0  0  0  0  0  0  0  0  0  0
    5.1595   20.5155   38.8031 C   0  0  0  0  0  0  0  0  0  0  0  0
    4.9965   20.9672   40.1002 N   0  0  0  0  0  0  0  0  0  0  0  0
    3.6555   19.6293   36.8569 C   0  0  0  0  0  0  0  0  0  0  0  0
    3.3630   20.6869   35.8919 N   0  0  0  0  0  0  0  0  0  0  0  0
  1  2  1  0  0  0  0
  1  7  1  0  0  0  0
  2  3  1  0  0  0  0
  2  4  2  0  0  0  0
  4  5  1  0  0  0  0
  5  6  2  0  0  0  0
  5 11  1  0  0  0  0
  6  7  1  0  0  0  0
  6  9  1  0  0  0  0
  7  8  2  0  0  0  0
  9 10  2  0  0  0  0
  9 12  1  0  0  0  0
 10 11  1  0  0  0  0
 12 13  1  0  0  0  0
M  END
>  <CHROM.1>
87.06191926,2.75143742,20.60380501,39.52380236,2.01293273,0.10234841,1.32275385

>  <Name>
ligand

>  <RI>
0

>  <Rbt.Current_Directory>
/home/itssahil/PROJECTS/Mol_Feturizer/Test_systems_manuscript/rnas/4jf2

>  <Rbt.Executable>
rbdock ($Id: //depot/dev/client3/rdock/2013.1/src/exe/rbdock.cxx#4 $)

>  <Rbt.Library>
libRbt.so (2013.1, Build901 2013/11/27)

>  <Rbt.Parameter_File>
/export/apps/rDock/src/rDock_2013.1_src/data/scripts/dock_solv.prm

>  <Rbt.Receptor>
prm/blind_docking_60.prm

>  <SCORE>
-6.68518

>  <SCORE.INTER>
-6.44586

>  <SCORE.INTER.CONST>
1

>  <SCORE.INTER.POLAR>
0

>  <SCORE.INTER.ROT>
1

>  <SCORE.INTER.SOLV>
3.20065

>  <SCORE.INTER.VDW>
-9.63079

>  <SCORE.INTER.norm>
-0.495835

>  <SCORE.INTRA>
-0.23932

>  <SCORE.INTRA.DIHEDRAL>
-0.187407

>  <SCORE.INTRA.DIHEDRAL.0>
1.75624

>  <SCORE.INTRA.POLAR>
0

>  <SCORE.INTRA.POLAR.0>
0

>  <SCORE.INTRA.REPUL>
0

>  <SCORE.INTRA.REPUL.0>
0

>  <SCORE.INTRA.SOLV>
-0.359464

>  <SCORE.INTRA.SOLV.lig_0>
-46.5296

>  <SCORE.INTRA.VDW>
0.0341163

>  <SCORE.INTRA.VDW.0>
-0.381873

>  <SCORE.INTRA.norm>
-0.0184092

>  <SCORE.RESTR>
0

>  <SCORE.RESTR.CAVITY>
0

>  <SCORE.RESTR.norm>
0

>  <SCORE.SYSTEM>
0

>  <SCORE.SYSTEM.CONST>
0

>  <SCORE.SYSTEM.DIHEDRAL>
0

>  <SCORE.SYSTEM.SOLV>
0

>  <SCORE.SYSTEM.norm>
0

>  <SCORE.heavy>
13

>  <SCORE.norm>
-0.514244

>  <RMSD>
19.236

$$$$
ligand
 OpenBabel02271912143D
libRbt.so/2013.1/901 2013/11/27
 13 14  0  0  0  0  0  0  0  0999 V2000
    1.6032   18.0787   44.0189 N   0  0  0  0  0  0  0  0  0  0  0  0
    0.5103   17.1977   43.9769 C   0  0  0  0  0  0  0  0  0  0  0  0
   -0.8315   17.7243   44.0756 N   0  0  0  0  0  0  0  0  0  0  0  0
    0.7155   15.8445   43.8320 N   0  0  0  0  0  0  0  0  0  0  0  0
    2.0187   15.2926   43.7317 C   0  0  0  0  0  0  0  0  0  0  0  0
    3.1599   16.1648   43.7935 C   0  0  0  0  0  0  0  0  0  0  0  0
    2.9080   17.5786   43.9538 C   0  0  0  0  0  0  0  0  0  0  0  0
    4.0000   18.3998   44.0013 O   0  0  0  0  0  0  0  0  0  0  0  0
    4.3549   15.3629   43.6654 C   0  0  0  0  0  0  0  0  0  0  0  0
    3.8923   14.0507   43.5540 C   0  0  0  0  0  0  0  0  0  0  0  0
    2.5099   14.0198   43.5850 N   0  0  0  0  0  0  0  0  0  0  0  0
    5.7939   15.8391   43.6980 C   0  0  0  0  0  0  0  0  0  0  0  0
    6.7593   14.7526   43.8484 N   0  0  0  0  0  0  0  0  0  0  0  0
  1  2  1  0  0  0  0
  1  7  1  0  0  0  0
  2  3  1  0  0  0  0
  2  4  2  0  0  0  0
  4  5  1  0  0  0  0
  5  6  2  0  0  0  0
  5 11  1  0  0  0  0
  6  7  1  0  0  0  0
  6  9  1  0  0  0  0
  7  8  2  0  0  0  0
  9 10  2  0  0  0  0
  9 12  1  0  0  0  0
 10 11  1  0  0  0  0
 12 13  1  0  0  0  0
M  END
>  <CHROM.1>
166.72999504,2.89466192,16.21952299,43.83098046,-2.72723079,-0.00749214,-3.04332552

>  <Name>
ligand

>  <RI>
0

>  <Rbt.Current_Directory>
/home/itssahil/PROJECTS/Mol_Feturizer/Test_systems_manuscript/rnas/4jf2

>  <Rbt.Executable>
rbdock ($Id: //depot/dev/client3/rdock/2013.1/src/exe/rbdock.cxx#4 $)

>  <Rbt.Library>
libRbt.so (2013.1, Build901 2013/11/27)

>  <Rbt.Parameter_File>
/export/apps/rDock/src/rDock_2013.1_src/data/scripts/dock_solv.prm

>  <Rbt.Receptor>
prm/blind_docking_100.prm

>  <SCORE>
-12.0023

>  <SCORE.INTER>
-11.6856

>  <SCORE.INTER.CONST>
1

>  <SCORE.INTER.POLAR>
0

>  <SCORE.INTER.ROT>
1

>  <SCORE.INTER.SOLV>
10.6357

>  <SCORE.INTER.VDW>
-15.6023

>  <SCORE.INTER.norm>
-0.89889

>  <SCORE.INTRA>
-0.317927

>  <SCORE.INTRA.DIHEDRAL>
-0.0106476

>  <SCORE.INTRA.DIHEDRAL.0>
1.75624

>  <SCORE.INTRA.POLAR>
0

>  <SCORE.INTRA.POLAR.0>
0

>  <SCORE.INTRA.REPUL>
0

>  <SCORE.INTRA.REPUL.0>
0

>  <SCORE.INTRA.SOLV>
-1.01658

>  <SCORE.INTRA.SOLV.lig_0>
-46.5296

>  <SCORE.INTRA.VDW>
0.195687

>  <SCORE.INTRA.VDW.0>
-0.381873

>  <SCORE.INTRA.norm>
-0.0244559

>  <SCORE.RESTR>
0.00123345

>  <SCORE.RESTR.CAVITY>
0.00123345

>  <SCORE.RESTR.norm>
9.48807e-05

>  <SCORE.SYSTEM>
0

>  <SCORE.SYSTEM.CONST>
0

>  <SCORE.SYSTEM.DIHEDRAL>
0

>  <SCORE.SYSTEM.SOLV>
0

>  <SCORE.SYSTEM.norm>
0

>  <SCORE.heavy>
13

>  <SCORE.norm>
-0.923251

>  <RMSD>
19.301

$$$$
ligand
 OpenBabel02271912143D
libRbt.so/2013.1/901 2013/11/27
 13 14  0  0  0  0  0  0  0  0999 V2000
    1.6067   18.0422   44.0017 N   0  0  0  0  0  0  0  0  0  0  0  0
    0.5276   17.1443   43.9619 C   0  0  0  0  0  0  0  0  0  0  0  0
   -0.8228   17.6517   44.0420 N   0  0  0  0  0  0  0  0  0  0  0  0
    0.7545   15.7926   43.8367 N   0  0  0  0  0  0  0  0  0  0  0  0
    2.0666   15.2593   43.7549 C   0  0  0  0  0  0  0  0  0  0  0  0
    3.1940   16.1494   43.8150 C   0  0  0  0  0  0  0  0  0  0  0  0
    2.9194   17.5613   43.9544 C   0  0  0  0  0  0  0  0  0  0  0  0
    3.9984   18.3994   44.0005 O   0  0  0  0  0  0  0  0  0  0  0  0
    4.4020   15.3642   43.7078 C   0  0  0  0  0  0  0  0  0  0  0  0
    3.9603   14.0437   43.6097 C   0  0  0  0  0  0  0  0  0  0  0  0
    2.5783   13.9923   43.6293 N   0  0  0  0  0  0  0  0  0  0  0  0
    5.8334   15.8626   43.7466 C   0  0  0  0  0  0  0  0  0  0  0  0
    6.8159   14.7894   43.8804 N   0  0  0  0  0  0  0  0  0  0  0  0
  1  2  1  0  0  0  0
  1  7  1  0  0  0  0
  2  3  1  0  0  0  0
  2  4  2  0  0  0  0
  4  5  1  0  0  0  0
  5  6  2  0  0  0  0
  5 11  1  0  0  0  0
  6  7  1  0  0  0  0
  6  9  1  0  0  0  0
  7  8  2  0  0  0  0
  9 10  2  0  0  0  0
  9 12  1  0  0  0  0
 10 11  1  0  0  0  0
 12 13  1  0  0  0  0
M  END
>  <CHROM.1>
168.41210960,2.92781503,16.20032347,43.84628726,-2.74257500,-0.00280730,-3.05593063

>  <Name>
ligand

>  <RI>
0

>  <Rbt.Current_Directory>
/home/itssahil/PROJECTS/Mol_Feturizer/Test_systems_manuscript/rnas/4jf2

>  <Rbt.Executable>
rbdock ($Id: //depot/dev/client3/rdock/2013.1/src/exe/rbdock.cxx#4 $)

>  <Rbt.Library>
libRbt.so (2013.1, Build901 2013/11/27)

>  <Rbt.Parameter_File>
/export/apps/rDock/src/rDock_2013.1_src/data/scripts/dock_solv.prm

>  <Rbt.Receptor>
prm/blind_docking_100.prm

>  <SCORE>
-11.9563

>  <SCORE.INTER>
-11.6366

>  <SCORE.INTER.CONST>
1

>  <SCORE.INTER.POLAR>
0

>  <SCORE.INTER.ROT>
1

>  <SCORE.INTER.SOLV>
10.8475

>  <SCORE.INTER.VDW>
-15.6403

>  <SCORE.INTER.norm>
-0.895124

>  <SCORE.INTRA>
-0.32036

>  <SCORE.INTRA.DIHEDRAL>
-0.0188428

>  <SCORE.INTRA.DIHEDRAL.0>
1.75624

>  <SCORE.INTRA.POLAR>
0

>  <SCORE.INTRA.POLAR.0>
0

>  <SCORE.INTRA.REPUL>
0

>  <SCORE.INTRA.REPUL.0>
0

>  <SCORE.INTRA.SOLV>
-1.01666

>  <SCORE.INTRA.SOLV.lig_0>
-46.5296

>  <SCORE.INTRA.VDW>
0.197393

>  <SCORE.INTRA.VDW.0>
-0.381873

>  <SCORE.INTRA.norm>
-0.0246431

>  <SCORE.RESTR>
0.000627213

>  <SCORE.RESTR.CAVITY>
0.000627213

>  <SCORE.RESTR.norm>
4.82471e-05

>  <SCORE.SYSTEM>
0

>  <SCORE.SYSTEM.CONST>
0

>  <SCORE.SYSTEM.DIHEDRAL>
0

>  <SCORE.SYSTEM.SOLV>
0

>  <SCORE.SYSTEM.norm>
0

>  <SCORE.heavy>
13

>  <SCORE.norm>
-0.919719

>  <RMSD>
19.323

$$$$
ligand
 OpenBabel02271912143D
libRbt.so/2013.1/901 2013/11/27
 13 14  0  0  0  0  0  0  0  0999 V2000
    1.6484   17.6949   44.5470 N   0  0  0  0  0  0  0  0  0  0  0  0
    0.5682   16.8098   44.3991 C   0  0  0  0  0  0  0  0  0  0  0  0
   -0.7768   17.2849   44.6290 N   0  0  0  0  0  0  0  0  0  0  0  0
    0.7882   15.5030   44.0274 N   0  0  0  0  0  0  0  0  0  0  0  0
    2.0948   15.0024   43.7930 C   0  0  0  0  0  0  0  0  0  0  0  0
    3.2243   15.8766   43.9573 C   0  0  0  0  0  0  0  0  0  0  0  0
    2.9573   17.2397   44.3557 C   0  0  0  0  0  0  0  0  0  0  0  0
    4.0377   18.0649   44.4993 O   0  0  0  0  0  0  0  0  0  0  0  0
    4.4256   15.1317   43.6583 C   0  0  0  0  0  0  0  0  0  0  0  0
    3.9790   13.8458   43.3494 C   0  0  0  0  0  0  0  0  0  0  0  0
    2.5994   13.7812   43.4228 N   0  0  0  0  0  0  0  0  0  0  0  0
    5.8575   15.6264   43.7187 C   0  0  0  0  0  0  0  0  0  0  0  0
    6.8288   14.5590   43.9471 N   0  0  0  0  0  0  0  0  0  0  0  0
  1  2  1  0  0  0  0
  1  7  1  0  0  0  0
  2  3  1  0  0  0  0
  2  4  2  0  0  0  0
  4  5  1  0  0  0  0
  5  6  2  0  0  0  0
  5 11  1  0  0  0  0
  6  7  1  0  0  0  0
  6  9  1  0  0  0  0
  7  8  2  0  0  0  0
  9 10  2  0  0  0  0
  9 12  1  0  0  0  0
 10 11  1  0  0  0  0
 12 13  1  0  0  0  0
M  END
>  <CHROM.1>
154.23082695,2.95858628,15.91958606,44.03616237,-2.74528335,-0.02727381,-2.88273392

>  <Name>
ligand

>  <RI>
0

>  <Rbt.Current_Directory>
/home/itssahil/PROJECTS/Mol_Feturizer/Test_systems_manuscript/rnas/4jf2

>  <Rbt.Executable>
rbdock ($Id: //depot/dev/client3/rdock/2013.1/src/exe/rbdock.cxx#4 $)

>  <Rbt.Library>
libRbt.so (2013.1, Build901 2013/11/27)

>  <Rbt.Parameter_File>
/export/apps/rDock/src/rDock_2013.1_src/data/scripts/dock_solv.prm

>  <Rbt.Receptor>
prm/blind_docking_60.prm

>  <SCORE>
-12.8152

>  <SCORE.INTER>
-12.4987

>  <SCORE.INTER.CONST>
1

>  <SCORE.INTER.POLAR>
0

>  <SCORE.INTER.ROT>
1

>  <SCORE.INTER.SOLV>
12.4258

>  <SCORE.INTER.VDW>
-16.741

>  <SCORE.INTER.norm>
-0.961436

>  <SCORE.INTRA>
-0.316838

>  <SCORE.INTRA.DIHEDRAL>
0.0307537

>  <SCORE.INTRA.DIHEDRAL.0>
1.75624

>  <SCORE.INTRA.POLAR>
0

>  <SCORE.INTRA.POLAR.0>
0

>  <SCORE.INTRA.REPUL>
0

>  <SCORE.INTRA.REPUL.0>
0

>  <SCORE.INTRA.SOLV>
-1.01726

>  <SCORE.INTRA.SOLV.lig_0>
-46.5296

>  <SCORE.INTRA.VDW>
0.176417

>  <SCORE.INTRA.VDW.0>
-0.381873

>  <SCORE.INTRA.norm>
-0.0243721

>  <SCORE.RESTR>
0.000285453

>  <SCORE.RESTR.CAVITY>
0.000285453

>  <SCORE.RESTR.norm>
2.1958e-05

>  <SCORE.SYSTEM>
0

>  <SCORE.SYSTEM.CONST>
0

>  <SCORE.SYSTEM.DIHEDRAL>
0

>  <SCORE.SYSTEM.SOLV>
0

>  <SCORE.SYSTEM.norm>
0

>  <SCORE.heavy>
13

>  <SCORE.norm>
-0.985786

>  <RMSD>
19.434

$$$$
ligand
 OpenBabel02271912143D
libRbt.so/2013.1/901 2013/11/27
 13 14  0  0  0  0  0  0  0  0999 V2000
    1.6452   17.6977   44.5461 N   0  0  0  0  0  0  0  0  0  0  0  0
    0.5643   16.8134   44.3987 C   0  0  0  0  0  0  0  0  0  0  0  0
   -0.7802   17.2894   44.6288 N   0  0  0  0  0  0  0  0  0  0  0  0
    0.7834   15.5063   44.0273 N   0  0  0  0  0  0  0  0  0  0  0  0
    2.0896   15.0048   43.7927 C   0  0  0  0  0  0  0  0  0  0  0  0
    3.2197   15.8783   43.9565 C   0  0  0  0  0  0  0  0  0  0  0  0
    2.9537   17.2417   44.3547 C   0  0  0  0  0  0  0  0  0  0  0  0
    4.0347   18.0662   44.4978 O   0  0  0  0  0  0  0  0  0  0  0  0
    4.4204   15.1325   43.6574 C   0  0  0  0  0  0  0  0  0  0  0  0
    3.9729   13.8468   43.3490 C   0  0  0  0  0  0  0  0  0  0  0  0
    2.5933   13.7832   43.4227 N   0  0  0  0  0  0  0  0  0  0  0  0
    5.8527   15.6262   43.7175 C   0  0  0  0  0  0  0  0  0  0  0  0
    6.8387   14.5502   43.6463 N   0  0  0  0  0  0  0  0  0  0  0  0
  1  2  1  0  0  0  0
  1  7  1  0  0  0  0
  2  3  1  0  0  0  0
  2  4  2  0  0  0  0
  4  5  1  0  0  0  0
  5  6  2  0  0  0  0
  5 11  1  0  0  0  0
  6  7  1  0  0  0  0
  6  9  1  0  0  0  0
  7  8  2  0  0  0  0
  9 10  2  0  0  0  0
  9 12  1  0  0  0  0
 10 11  1  0  0  0  0
 12 13  1  0  0  0  0
M  END
>  <CHROM.1>
167.07214954,2.95531174,15.92080513,44.01107013,-2.73775332,-0.04694676,-2.87939866

>  <Name>
ligand

>  <RI>
0

>  <Rbt.Current_Directory>
/home/itssahil/PROJECTS/Mol_Feturizer/Test_systems_manuscript/rnas/4jf2

>  <Rbt.Executable>
rbdock ($Id: //depot/dev/client3/rdock/2013.1/src/exe/rbdock.cxx#4 $)

>  <Rbt.Library>
libRbt.so (2013.1, Build901 2013/11/27)

>  <Rbt.Parameter_File>
/export/apps/rDock/src/rDock_2013.1_src/data/scripts/dock_solv.prm

>  <Rbt.Receptor>
prm/blind_docking_60.prm

>  <SCORE>
-12.8218

>  <SCORE.INTER>
-12.5034

>  <SCORE.INTER.CONST>
1

>  <SCORE.INTER.POLAR>
0

>  <SCORE.INTER.ROT>
1

>  <SCORE.INTER.SOLV>
12.5818

>  <SCORE.INTER.VDW>
-16.7962

>  <SCORE.INTER.norm>
-0.961798

>  <SCORE.INTRA>
-0.31838

>  <SCORE.INTRA.DIHEDRAL>
-0.0122754

>  <SCORE.INTRA.DIHEDRAL.0>
1.75624

>  <SCORE.INTRA.POLAR>
0

>  <SCORE.INTRA.POLAR.0>
0

>  <SCORE.INTRA.REPUL>
0

>  <SCORE.INTRA.REPUL.0>
0

>  <SCORE.INTRA.SOLV>
-1.01659

>  <SCORE.INTRA.SOLV.lig_0>
-46.5296

>  <SCORE.INTRA.VDW>
0.196054

>  <SCORE.INTRA.VDW.0>
-0.381873

>  <SCORE.INTRA.norm>
-0.0244908

>  <SCORE.RESTR>
0

>  <SCORE.RESTR.CAVITY>
0

>  <SCORE.RESTR.norm>
0

>  <SCORE.SYSTEM>
0

>  <SCORE.SYSTEM.CONST>
0

>  <SCORE.SYSTEM.DIHEDRAL>
0

>  <SCORE.SYSTEM.SOLV>
0

>  <SCORE.SYSTEM.norm>
0

>  <SCORE.heavy>
13

>  <SCORE.norm>
-0.986289

>  <RMSD>
19.444

$$$$
ligand
 OpenBabel02271912143D
libRbt.so/2013.1/901 2013/11/27
 13 14  0  0  0  0  0  0  0  0999 V2000
    1.6635   17.6623   44.5643 N   0  0  0  0  0  0  0  0  0  0  0  0
    0.5879   16.7721   44.4136 C   0  0  0  0  0  0  0  0  0  0  0  0
   -0.7577   17.2336   44.6661 N   0  0  0  0  0  0  0  0  0  0  0  0
    0.8129   15.4732   44.0179 N   0  0  0  0  0  0  0  0  0  0  0  0
    2.1203   14.9859   43.7610 C   0  0  0  0  0  0  0  0  0  0  0  0
    3.2454   15.8654   43.9273 C   0  0  0  0  0  0  0  0  0  0  0  0
    2.9733   17.2198   44.3512 C   0  0  0  0  0  0  0  0  0  0  0  0
    4.0495   18.0502   44.4966 O   0  0  0  0  0  0  0  0  0  0  0  0
    4.4485   15.1341   43.6029 C   0  0  0  0  0  0  0  0  0  0  0  0
    4.0075   13.8503   43.2776 C   0  0  0  0  0  0  0  0  0  0  0  0
    2.6293   13.7746   43.3651 N   0  0  0  0  0  0  0  0  0  0  0  0
    5.8774   15.6380   43.6558 C   0  0  0  0  0  0  0  0  0  0  0  0
    6.8472   14.5938   43.9789 N   0  0  0  0  0  0  0  0  0  0  0  0
  1  2  1  0  0  0  0
  1  7  1  0  0  0  0
  2  3  1  0  0  0  0
  2  4  2  0  0  0  0
  4  5  1  0  0  0  0
  5  6  2  0  0  0  0
  5 11  1  0  0  0  0
  6  7  1  0  0  0  0
  6  9  1  0  0  0  0
  7  8  2  0  0  0  0
  9 10  2  0  0  0  0
  9 12  1  0  0  0  0
 10 11  1  0  0  0  0
 12 13  1  0  0  0  0
M  END
>  <CHROM.1>
148.88164805,2.97935212,15.90675729,44.01982316,-2.75340958,-0.03191593,-2.86697872

>  <Name>
ligand

>  <RI>
0

>  <Rbt.Current_Directory>
/home/itssahil/PROJECTS/Mol_Feturizer/Test_systems_manuscript/rnas/4jf2

>  <Rbt.Executable>
rbdock ($Id: //depot/dev/client3/rdock/2013.1/src/exe/rbdock.cxx#4 $)

>  <Rbt.Library>
libRbt.so (2013.1, Build901 2013/11/27)

>  <Rbt.Parameter_File>
/export/apps/rDock/src/rDock_2013.1_src/data/scripts/dock_solv.prm

>  <Rbt.Receptor>
prm/blind_docking_60.prm

>  <SCORE>
-12.8195

>  <SCORE.INTER>
-12.4939

>  <SCORE.INTER.CONST>
1

>  <SCORE.INTER.POLAR>
0

>  <SCORE.INTER.ROT>
1

>  <SCORE.INTER.SOLV>
12.5521

>  <SCORE.INTER.VDW>
-16.78

>  <SCORE.INTER.norm>
-0.961068

>  <SCORE.INTRA>
-0.325653

>  <SCORE.INTRA.DIHEDRAL>
0.0353462

>  <SCORE.INTRA.DIHEDRAL.0>
1.75624

>  <SCORE.INTRA.POLAR>
0

>  <SCORE.INTRA.POLAR.0>
0

>  <SCORE.INTRA.REPUL>
0

>  <SCORE.INTRA.REPUL.0>
0

>  <SCORE.INTRA.SOLV>
-1.01817

>  <SCORE.INTRA.SOLV.lig_0>
-46.5296

>  <SCORE.INTRA.VDW>
0.165757

>  <SCORE.INTRA.VDW.0>
-0.381873

>  <SCORE.INTRA.norm>
-0.0250502

>  <SCORE.RESTR>
0

>  <SCORE.RESTR.CAVITY>
0

>  <SCORE.RESTR.norm>
0

>  <SCORE.SYSTEM>
0

>  <SCORE.SYSTEM.CONST>
0

>  <SCORE.SYSTEM.DIHEDRAL>
0

>  <SCORE.SYSTEM.SOLV>
0

>  <SCORE.SYSTEM.norm>
0

>  <SCORE.heavy>
13

>  <SCORE.norm>
-0.986118

>  <RMSD>
19.459

$$$$
ligand
 OpenBabel02271912143D
libRbt.so/2013.1/901 2013/11/27
 13 14  0  0  0  0  0  0  0  0999 V2000
    1.6664   17.6535   44.5592 N   0  0  0  0  0  0  0  0  0  0  0  0
    0.5925   16.7598   44.4171 C   0  0  0  0  0  0  0  0  0  0  0  0
   -0.7543   17.2221   44.6621 N   0  0  0  0  0  0  0  0  0  0  0  0
    0.8202   15.4567   44.0370 N   0  0  0  0  0  0  0  0  0  0  0  0
    2.1288   14.9686   43.7879 C   0  0  0  0  0  0  0  0  0  0  0  0
    3.2522   15.8518   43.9458 C   0  0  0  0  0  0  0  0  0  0  0  0
    2.9773   17.2106   44.3533 C   0  0  0  0  0  0  0  0  0  0  0  0
    4.0519   18.0444   44.4908 O   0  0  0  0  0  0  0  0  0  0  0  0
    4.4570   15.1187   43.6318 C   0  0  0  0  0  0  0  0  0  0  0  0
    4.0186   13.8305   43.3209 C   0  0  0  0  0  0  0  0  0  0  0  0
    2.6403   13.7536   43.4070 N   0  0  0  0  0  0  0  0  0  0  0  0
    5.8851   15.6255   43.6812 C   0  0  0  0  0  0  0  0  0  0  0  0
    6.8608   14.5774   43.9718 N   0  0  0  0  0  0  0  0  0  0  0  0
  1  2  1  0  0  0  0
  1  7  1  0  0  0  0
  2  3  1  0  0  0  0
  2  4  2  0  0  0  0
  4  5  1  0  0  0  0
  5  6  2  0  0  0  0
  5 11  1  0  0  0  0
  6  7  1  0  0  0  0
  6  9  1  0  0  0  0
  7  8  2  0  0  0  0
  9 10  2  0  0  0  0
  9 12  1  0  0  0  0
 10 11  1  0  0  0  0
 12 13  1  0  0  0  0
M  END
>  <CHROM.1>
150.90560342,2.98635926,15.89305016,44.03356865,-2.75371188,-0.03371941,-2.87855084

>  <Name>
ligand

>  <RI>
-1

>  <Rbt.Current_Directory>
/home/itssahil/PROJECTS/Mol_Feturizer/Test_systems_manuscript/rnas/4jf2

>  <Rbt.Executable>
rbdock ($Id: //depot/dev/client3/rdock/2013.1/src/exe/rbdock.cxx#4 $)

>  <Rbt.Library>
libRbt.so (2013.1, Build901 2013/11/27)

>  <Rbt.Parameter_File>
/export/apps/rDock/src/rDock_2013.1_src/data/scripts/dock_solv.prm

>  <Rbt.Receptor>
prm/blind_docking_80.prm

>  <SCORE>
-12.7939

>  <SCORE.INTER>
-12.4722

>  <SCORE.INTER.CONST>
1

>  <SCORE.INTER.POLAR>
0

>  <SCORE.INTER.ROT>
1

>  <SCORE.INTER.SOLV>
12.5742

>  <SCORE.INTER.VDW>
-16.7729

>  <SCORE.INTER.norm>
-0.959401

>  <SCORE.INTRA>
-0.321688

>  <SCORE.INTRA.DIHEDRAL>
0.0346268

>  <SCORE.INTRA.DIHEDRAL.0>
1.75624

>  <SCORE.INTRA.POLAR>
0

>  <SCORE.INTRA.POLAR.0>
0

>  <SCORE.INTRA.REPUL>
0

>  <SCORE.INTRA.REPUL.0>
0

>  <SCORE.INTRA.SOLV>
-1.01779

>  <SCORE.INTRA.SOLV.lig_0>
-46.5296

>  <SCORE.INTRA.VDW>
0.169893

>  <SCORE.INTRA.VDW.0>
-0.381873

>  <SCORE.INTRA.norm>
-0.0247452

>  <SCORE.RESTR>
0

>  <SCORE.RESTR.CAVITY>
0

>  <SCORE.RESTR.norm>
0

>  <SCORE.SYSTEM>
0

>  <SCORE.SYSTEM.CONST>
0

>  <SCORE.SYSTEM.DIHEDRAL>
0

>  <SCORE.SYSTEM.SOLV>
0

>  <SCORE.SYSTEM.norm>
0

>  <SCORE.heavy>
13

>  <SCORE.norm>
-0.984146

>  <RMSD>
19.465

$$$$
ligand
 OpenBabel02271912143D
libRbt.so/2013.1/901 2013/11/27
 13 14  0  0  0  0  0  0  0  0999 V2000
    1.6714   17.6495   44.5641 N   0  0  0  0  0  0  0  0  0  0  0  0
    0.5956   16.7580   44.4221 C   0  0  0  0  0  0  0  0  0  0  0  0
   -0.7493   17.2204   44.6773 N   0  0  0  0  0  0  0  0  0  0  0  0
    0.8196   15.4572   44.0324 N   0  0  0  0  0  0  0  0  0  0  0  0
    2.1262   14.9691   43.7731 C   0  0  0  0  0  0  0  0  0  0  0  0
    3.2515   15.8498   43.9305 C   0  0  0  0  0  0  0  0  0  0  0  0
    2.9805   17.2063   44.3483 C   0  0  0  0  0  0  0  0  0  0  0  0
    4.0569   18.0379   44.4852 O   0  0  0  0  0  0  0  0  0  0  0  0
    4.4537   15.1173   43.6053 C   0  0  0  0  0  0  0  0  0  0  0  0
    4.0120   13.8317   43.2886 C   0  0  0  0  0  0  0  0  0  0  0  0
    2.6341   13.7559   43.3816 N   0  0  0  0  0  0  0  0  0  0  0  0
    5.8826   15.6220   43.6502 C   0  0  0  0  0  0  0  0  0  0  0  0
    6.8580   14.5722   43.9363 N   0  0  0  0  0  0  0  0  0  0  0  0
  1  2  1  0  0  0  0
  1  7  1  0  0  0  0
  2  3  1  0  0  0  0
  2  4  2  0  0  0  0
  4  5  1  0  0  0  0
  5  6  2  0  0  0  0
  5 11  1  0  0  0  0
  6  7  1  0  0  0  0
  6  9  1  0  0  0  0
  7  8  2  0  0  0  0
  9 10  2  0  0  0  0
  9 12  1  0  0  0  0
 10 11  1  0  0  0  0
 12 13  1  0  0  0  0
M  END
>  <CHROM.1>
150.58175489,2.98617310,15.89096112,44.02064651,-2.75135255,-0.03815122,-2.87207404

>  <Name>
ligand

>  <RI>
-1

>  <Rbt.Current_Directory>
/home/itssahil/PROJECTS/Mol_Feturizer/Test_systems_manuscript/rnas/4jf2

>  <Rbt.Executable>
rbdock ($Id: //depot/dev/client3/rdock/2013.1/src/exe/rbdock.cxx#4 $)

>  <Rbt.Library>
libRbt.so (2013.1, Build901 2013/11/27)

>  <Rbt.Parameter_File>
/export/apps/rDock/src/rDock_2013.1_src/data/scripts/dock_solv.prm

>  <Rbt.Receptor>
prm/blind_docking_80.prm

>  <SCORE>
-12.8146

>  <SCORE.INTER>
-12.4956

>  <SCORE.INTER.CONST>
1

>  <SCORE.INTER.POLAR>
0

>  <SCORE.INTER.ROT>
1

>  <SCORE.INTER.SOLV>
12.5789

>  <SCORE.INTER.VDW>
-16.79

>  <SCORE.INTER.norm>
-0.961196

>  <SCORE.INTRA>
-0.322272

>  <SCORE.INTRA.DIHEDRAL>
0.0348258

>  <SCORE.INTRA.DIHEDRAL.0>
1.75624

>  <SCORE.INTRA.POLAR>
0

>  <SCORE.INTRA.POLAR.0>
0

>  <SCORE.INTRA.REPUL>
0

>  <SCORE.INTRA.REPUL.0>
0

>  <SCORE.INTRA.SOLV>
-1.01785

>  <SCORE.INTRA.SOLV.lig_0>
-46.5296

>  <SCORE.INTRA.VDW>
0.169238

>  <SCORE.INTRA.VDW.0>
-0.381873

>  <SCORE.INTRA.norm>
-0.0247901

>  <SCORE.RESTR>
0.0032266

>  <SCORE.RESTR.CAVITY>
0.0032266

>  <SCORE.RESTR.norm>
0.0002482

>  <SCORE.SYSTEM>
0

>  <SCORE.SYSTEM.CONST>
0

>  <SCORE.SYSTEM.DIHEDRAL>
0

>  <SCORE.SYSTEM.SOLV>
0

>  <SCORE.SYSTEM.norm>
0

>  <SCORE.heavy>
13

>  <SCORE.norm>
-0.985738

>  <RMSD>
19.473

$$$$
ligand
 OpenBabel02271912143D
libRbt.so/2013.1/901 2013/11/27
 13 14  0  0  0  0  0  0  0  0999 V2000
    1.7107   17.5234   44.7261 N   0  0  0  0  0  0  0  0  0  0  0  0
    0.6620   16.5914   44.6653 C   0  0  0  0  0  0  0  0  0  0  0  0
   -0.6762   17.0027   45.0222 N   0  0  0  0  0  0  0  0  0  0  0  0
    0.9053   15.2992   44.2586 N   0  0  0  0  0  0  0  0  0  0  0  0
    2.2062   14.8607   43.9004 C   0  0  0  0  0  0  0  0  0  0  0  0
    3.3058   15.7840   43.9728 C   0  0  0  0  0  0  0  0  0  0  0  0
    3.0157   17.1300   44.4112 C   0  0  0  0  0  0  0  0  0  0  0  0
    4.0668   18.0023   44.4668 O   0  0  0  0  0  0  0  0  0  0  0  0
    4.5068   15.0972   43.5567 C   0  0  0  0  0  0  0  0  0  0  0  0
    4.0918   13.7950   43.2732 C   0  0  0  0  0  0  0  0  0  0  0  0
    2.7288   13.6670   43.4704 N   0  0  0  0  0  0  0  0  0  0  0  0
    5.9148   15.6560   43.4935 C   0  0  0  0  0  0  0  0  0  0  0  0
    6.9339   14.7073   43.9368 N   0  0  0  0  0  0  0  0  0  0  0  0
  1  2  1  0  0  0  0
  1  7  1  0  0  0  0
  2  3  1  0  0  0  0
  2  4  2  0  0  0  0
  4  5  1  0  0  0  0
  5  6  2  0  0  0  0
  5 11  1  0  0  0  0
  6  7  1  0  0  0  0
  6  9  1  0  0  0  0
  7  8  2  0  0  0  0
  9 10  2  0  0  0  0
  9 12  1  0  0  0  0
 10 11  1  0  0  0  0
 12 13  1  0  0  0  0
M  END
>  <CHROM.1>
140.24976179,3.04544887,15.82027417,44.10180000,-2.77776067,-0.10695264,-2.87359211

>  <Name>
ligand

>  <RI>
-1

>  <Rbt.Current_Directory>
/home/itssahil/PROJECTS/Mol_Feturizer/Test_systems_manuscript/rnas/4jf2

>  <Rbt.Executable>
rbdock ($Id: //depot/dev/client3/rdock/2013.1/src/exe/rbdock.cxx#4 $)

>  <Rbt.Library>
libRbt.so (2013.1, Build901 2013/11/27)

>  <Rbt.Parameter_File>
/export/apps/rDock/src/rDock_2013.1_src/data/scripts/dock_solv.prm

>  <Rbt.Receptor>
prm/blind_docking_80.prm

>  <SCORE>
-12.7648

>  <SCORE.INTER>
-12.4144

>  <SCORE.INTER.CONST>
1

>  <SCORE.INTER.POLAR>
0

>  <SCORE.INTER.ROT>
1

>  <SCORE.INTER.SOLV>
13.8442

>  <SCORE.INTER.VDW>
-17.1576

>  <SCORE.INTER.norm>
-0.954951

>  <SCORE.INTRA>
-0.350389

>  <SCORE.INTRA.DIHEDRAL>
0.0245275

>  <SCORE.INTRA.DIHEDRAL.0>
1.75624

>  <SCORE.INTRA.POLAR>
0

>  <SCORE.INTRA.POLAR.0>
0

>  <SCORE.INTRA.REPUL>
0

>  <SCORE.INTRA.REPUL.0>
0

>  <SCORE.INTRA.SOLV>
-1.02016

>  <SCORE.INTRA.SOLV.lig_0>
-46.5296

>  <SCORE.INTRA.VDW>
0.147427

>  <SCORE.INTRA.VDW.0>
-0.381873

>  <SCORE.INTRA.norm>
-0.026953

>  <SCORE.RESTR>
0

>  <SCORE.RESTR.CAVITY>
0

>  <SCORE.RESTR.norm>
0

>  <SCORE.SYSTEM>
0

>  <SCORE.SYSTEM.CONST>
0

>  <SCORE.SYSTEM.DIHEDRAL>
0

>  <SCORE.SYSTEM.SOLV>
0

>  <SCORE.SYSTEM.norm>
0

>  <SCORE.heavy>
13

>  <SCORE.norm>
-0.981904

>  <RMSD>
19.502

$$$$
ligand
 OpenBabel02271912143D
libRbt.so/2013.1/901 2013/11/27
 13 14  0  0  0  0  0  0  0  0999 V2000
    1.7097   17.4972   44.7151 N   0  0  0  0  0  0  0  0  0  0  0  0
    0.6689   16.5565   44.6511 C   0  0  0  0  0  0  0  0  0  0  0  0
   -0.6740   16.9571   45.0024 N   0  0  0  0  0  0  0  0  0  0  0  0
    0.9244   15.2661   44.2464 N   0  0  0  0  0  0  0  0  0  0  0  0
    2.2302   14.8380   43.8937 C   0  0  0  0  0  0  0  0  0  0  0  0
    3.3219   15.7704   43.9696 C   0  0  0  0  0  0  0  0  0  0  0  0
    3.0191   17.1143   44.4057 C   0  0  0  0  0  0  0  0  0  0  0  0
    4.0628   17.9952   44.4646 O   0  0  0  0  0  0  0  0  0  0  0  0
    4.5302   15.0931   43.5588 C   0  0  0  0  0  0  0  0  0  0  0  0
    4.1270   13.7873   43.2748 C   0  0  0  0  0  0  0  0  0  0  0  0
    2.7644   13.6483   43.4669 N   0  0  0  0  0  0  0  0  0  0  0  0
    5.9338   15.6635   43.5006 C   0  0  0  0  0  0  0  0  0  0  0  0
    6.9550   14.7369   43.9840 N   0  0  0  0  0  0  0  0  0  0  0  0
  1  2  1  0  0  0  0
  1  7  1  0  0  0  0
  2  3  1  0  0  0  0
  2  4  2  0  0  0  0
  4  5  1  0  0  0  0
  5  6  2  0  0  0  0
  5 11  1  0  0  0  0
  6  7  1  0  0  0  0
  6  9  1  0  0  0  0
  7  8  2  0  0  0  0
  9 10  2  0  0  0  0
  9 12  1  0  0  0  0
 10 11  1  0  0  0  0
 12 13  1  0  0  0  0
M  END
>  <CHROM.1>
138.62696409,3.06049322,15.80567168,44.10043066,-2.78852616,-0.10320723,-2.87512214

>  <Name>
ligand

>  <RI>
-1

>  <Rbt.Current_Directory>
/home/itssahil/PROJECTS/Mol_Feturizer/Test_systems_manuscript/rnas/4jf2

>  <Rbt.Executable>
rbdock ($Id: //depot/dev/client3/rdock/2013.1/src/exe/rbdock.cxx#4 $)

>  <Rbt.Library>
libRbt.so (2013.1, Build901 2013/11/27)

>  <Rbt.Parameter_File>
/export/apps/rDock/src/rDock_2013.1_src/data/scripts/dock_solv.prm

>  <Rbt.Receptor>
prm/blind_docking_80.prm

>  <SCORE>
-12.8297

>  <SCORE.INTER>
-12.4734

>  <SCORE.INTER.CONST>
1

>  <SCORE.INTER.POLAR>
0

>  <SCORE.INTER.ROT>
1

>  <SCORE.INTER.SOLV>
13.9361

>  <SCORE.INTER.VDW>
-17.2276

>  <SCORE.INTER.norm>
-0.959492

>  <SCORE.INTRA>
-0.356293

>  <SCORE.INTRA.DIHEDRAL>
0.0200955

>  <SCORE.INTRA.DIHEDRAL.0>
1.75624

>  <SCORE.INTRA.POLAR>
0

>  <SCORE.INTRA.POLAR.0>
0

>  <SCORE.INTRA.REPUL>
0

>  <SCORE.INTRA.REPUL.0>
0

>  <SCORE.INTRA.SOLV>
-1.02058

>  <SCORE.INTRA.SOLV.lig_0>
-46.5296

>  <SCORE.INTRA.VDW>
0.143951

>  <SCORE.INTRA.VDW.0>
-0.381873

>  <SCORE.INTRA.norm>
-0.0274072

>  <SCORE.RESTR>
0

>  <SCORE.RESTR.CAVITY>
0

>  <SCORE.RESTR.norm>
0

>  <SCORE.SYSTEM>
0

>  <SCORE.SYSTEM.CONST>
0

>  <SCORE.SYSTEM.DIHEDRAL>
0

>  <SCORE.SYSTEM.SOLV>
0

>  <SCORE.SYSTEM.norm>
0

>  <SCORE.heavy>
13

>  <SCORE.norm>
-0.9869

>  <RMSD>
19.521

$$$$
ligand
 OpenBabel02271912143D
libRbt.so/2013.1/901 2013/11/27
 13 14  0  0  0  0  0  0  0  0999 V2000
    1.7088   17.4778   44.7278 N   0  0  0  0  0  0  0  0  0  0  0  0
    0.6762   16.5277   44.6704 C   0  0  0  0  0  0  0  0  0  0  0  0
   -0.6659   16.9131   45.0413 N   0  0  0  0  0  0  0  0  0  0  0  0
    0.9387   15.2425   44.2537 N   0  0  0  0  0  0  0  0  0  0  0  0
    2.2439   14.8292   43.8817 C   0  0  0  0  0  0  0  0  0  0  0  0
    3.3277   15.7714   43.9503 C   0  0  0  0  0  0  0  0  0  0  0  0
    3.0177   17.1094   44.3993 C   0  0  0  0  0  0  0  0  0  0  0  0
    4.0537   17.9998   44.4513 O   0  0  0  0  0  0  0  0  0  0  0  0
    4.5370   15.1084   43.5197 C   0  0  0  0  0  0  0  0  0  0  0  0
    4.1425   13.8008   43.2318 C   0  0  0  0  0  0  0  0  0  0  0  0
    2.7838   13.6476   43.4400 N   0  0  0  0  0  0  0  0  0  0  0  0
    5.9343   15.6925   43.4478 C   0  0  0  0  0  0  0  0  0  0  0  0
    6.9695   14.7748   43.9183 N   0  0  0  0  0  0  0  0  0  0  0  0
  1  2  1  0  0  0  0
  1  7  1  0  0  0  0
  2  3  1  0  0  0  0
  2  4  2  0  0  0  0
  4  5  1  0  0  0  0
  5  6  2  0  0  0  0
  5 11  1  0  0  0  0
  6  7  1  0  0  0  0
  6  9  1  0  0  0  0
  7  8  2  0  0  0  0
  9 10  2  0  0  0  0
  9 12  1  0  0  0  0
 10 11  1  0  0  0  0
 12 13  1  0  0  0  0
M  END
>  <CHROM.1>
138.33539853,3.06753293,15.80353546,44.08512960,-2.79464845,-0.11747018,-2.86887043

>  <Name>
ligand

>  <RI>
0

>  <Rbt.Current_Directory>
/home/itssahil/PROJECTS/Mol_Feturizer/Test_systems_manuscript/rnas/4jf2

>  <Rbt.Executable>
rbdock ($Id: //depot/dev/client3/rdock/2013.1/src/exe/rbdock.cxx#4 $)

>  <Rbt.Library>
libRbt.so (2013.1, Build901 2013/11/27)

>  <Rbt.Parameter_File>
/export/apps/rDock/src/rDock_2013.1_src/data/scripts/dock_solv.prm

>  <Rbt.Receptor>
prm/blind_docking_60.prm

>  <SCORE>
-12.8326

>  <SCORE.INTER>
-12.4752

>  <SCORE.INTER.CONST>
1

>  <SCORE.INTER.POLAR>
0

>  <SCORE.INTER.ROT>
1

>  <SCORE.INTER.SOLV>
14.1109

>  <SCORE.INTER.VDW>
-17.2871

>  <SCORE.INTER.norm>
-0.959634

>  <SCORE.INTRA>
-0.357391

>  <SCORE.INTRA.DIHEDRAL>
0.0192245

>  <SCORE.INTRA.DIHEDRAL.0>
1.75624

>  <SCORE.INTRA.POLAR>
0

>  <SCORE.INTRA.POLAR.0>
0

>  <SCORE.INTRA.REPUL>
0

>  <SCORE.INTRA.REPUL.0>
0

>  <SCORE.INTRA.SOLV>
-1.02066

>  <SCORE.INTRA.SOLV.lig_0>
-46.5296

>  <SCORE.INTRA.VDW>
0.143328

>  <SCORE.INTRA.VDW.0>
-0.381873

>  <SCORE.INTRA.norm>
-0.0274916

>  <SCORE.RESTR>
0

>  <SCORE.RESTR.CAVITY>
0

>  <SCORE.RESTR.norm>
0

>  <SCORE.SYSTEM>
0

>  <SCORE.SYSTEM.CONST>
0

>  <SCORE.SYSTEM.DIHEDRAL>
0

>  <SCORE.SYSTEM.SOLV>
0

>  <SCORE.SYSTEM.norm>
0

>  <SCORE.heavy>
13

>  <SCORE.norm>
-0.987125

>  <RMSD>
19.533

$$$$
ligand
 OpenBabel02271912143D
libRbt.so/2013.1/901 2013/11/27
 13 14  0  0  0  0  0  0  0  0999 V2000
    4.8815   13.9593   43.4207 N   0  0  0  0  0  0  0  0  0  0  0  0
    5.9711   14.8158   43.6472 C   0  0  0  0  0  0  0  0  0  0  0  0
    7.3162   14.3084   43.5032 N   0  0  0  0  0  0  0  0  0  0  0  0
    5.7592   16.1311   43.9929 N   0  0  0  0  0  0  0  0  0  0  0  0
    4.4526   16.6634   44.1426 C   0  0  0  0  0  0  0  0  0  0  0  0
    3.3155   15.8074   43.9396 C   0  0  0  0  0  0  0  0  0  0  0  0
    3.5748   14.4307   43.5853 C   0  0  0  0  0  0  0  0  0  0  0  0
    2.4863   13.6282   43.3849 O   0  0  0  0  0  0  0  0  0  0  0  0
    2.1157   16.5853   44.1466 C   0  0  0  0  0  0  0  0  0  0  0  0
    2.5724   17.8605   44.4834 C   0  0  0  0  0  0  0  0  0  0  0  0
    3.9548   17.8996   44.4696 N   0  0  0  0  0  0  0  0  0  0  0  0
    0.6796   16.1058   44.0664 C   0  0  0  0  0  0  0  0  0  0  0  0
   -0.2552   17.1476   43.6468 N   0  0  0  0  0  0  0  0  0  0  0  0
  1  2  1  0  0  0  0
  1  7  1  0  0  0  0
  2  3  1  0  0  0  0
  2  4  2  0  0  0  0
  4  5  1  0  0  0  0
  5  6  2  0  0  0  0
  5 11  1  0  0  0  0
  6  7  1  0  0  0  0
  6  9  1  0  0  0  0
  7  8  2  0  0  0  0
  9 10  2  0  0  0  0
  9 12  1  0  0  0  0
 10 11  1  0  0  0  0
 12 13  1  0  0  0  0
M  END
>  <CHROM.1>
-150.32680723,3.58409592,15.75444193,43.86573033,0.39637764,0.03232938,-2.89652946

>  <Name>
ligand

>  <RI>
-1

>  <Rbt.Current_Directory>
/home/itssahil/PROJECTS/Mol_Feturizer/Test_systems_manuscript/rnas/4jf2

>  <Rbt.Executable>
rbdock ($Id: //depot/dev/client3/rdock/2013.1/src/exe/rbdock.cxx#4 $)

>  <Rbt.Library>
libRbt.so (2013.1, Build901 2013/11/27)

>  <Rbt.Parameter_File>
/export/apps/rDock/src/rDock_2013.1_src/data/scripts/dock_solv.prm

>  <Rbt.Receptor>
prm/blind_docking_80.prm

>  <SCORE>
-14.0316

>  <SCORE.INTER>
-13.5966

>  <SCORE.INTER.CONST>
1

>  <SCORE.INTER.POLAR>
0

>  <SCORE.INTER.ROT>
1

>  <SCORE.INTER.SOLV>
11.1931

>  <SCORE.INTER.VDW>
-17.0621

>  <SCORE.INTER.norm>
-1.04589

>  <SCORE.INTRA>
-0.448455

>  <SCORE.INTRA.DIHEDRAL>
-0.187697

>  <SCORE.INTRA.DIHEDRAL.0>
1.75624

>  <SCORE.INTRA.POLAR>
0

>  <SCORE.INTRA.POLAR.0>
0

>  <SCORE.INTRA.REPUL>
0

>  <SCORE.INTRA.REPUL.0>
0

>  <SCORE.INTRA.SOLV>
-1.03217

>  <SCORE.INTRA.SOLV.lig_0>
-46.5296

>  <SCORE.INTRA.VDW>
0.161481

>  <SCORE.INTRA.VDW.0>
-0.381873

>  <SCORE.INTRA.norm>
-0.0344965

>  <SCORE.RESTR>
0.0134313

>  <SCORE.RESTR.CAVITY>
0.0134313

>  <SCORE.RESTR.norm>
0.00103318

>  <SCORE.SYSTEM>
0

>  <SCORE.SYSTEM.CONST>
0

>  <SCORE.SYSTEM.DIHEDRAL>
0

>  <SCORE.SYSTEM.SOLV>
0

>  <SCORE.SYSTEM.norm>
0

>  <SCORE.heavy>
13

>  <SCORE.norm>
-1.07935

>  <RMSD>
19.628

$$$$
ligand
 OpenBabel02271912143D
libRbt.so/2013.1/901 2013/11/27
 13 14  0  0  0  0  0  0  0  0999 V2000
    4.8816   13.9477   43.4259 N   0  0  0  0  0  0  0  0  0  0  0  0
    5.9700   14.8064   43.6500 C   0  0  0  0  0  0  0  0  0  0  0  0
    7.3158   14.3018   43.5024 N   0  0  0  0  0  0  0  0  0  0  0  0
    5.7563   16.1210   43.9970 N   0  0  0  0  0  0  0  0  0  0  0  0
    4.4490   16.6505   44.1503 C   0  0  0  0  0  0  0  0  0  0  0  0
    3.3132   15.7923   43.9497 C   0  0  0  0  0  0  0  0  0  0  0  0
    3.5743   14.4163   43.5941 C   0  0  0  0  0  0  0  0  0  0  0  0
    2.4870   13.6117   43.3960 O   0  0  0  0  0  0  0  0  0  0  0  0
    2.1123   16.5676   44.1602 C   0  0  0  0  0  0  0  0  0  0  0  0
    2.5672   17.8436   44.4965 C   0  0  0  0  0  0  0  0  0  0  0  0
    3.9495   17.8855   44.4792 N   0  0  0  0  0  0  0  0  0  0  0  0
    0.6770   16.0852   44.0834 C   0  0  0  0  0  0  0  0  0  0  0  0
   -0.2543   17.1123   43.6220 N   0  0  0  0  0  0  0  0  0  0  0  0
  1  2  1  0  0  0  0
  1  7  1  0  0  0  0
  2  3  1  0  0  0  0
  2  4  2  0  0  0  0
  4  5  1  0  0  0  0
  5  6  2  0  0  0  0
  5 11  1  0  0  0  0
  6  7  1  0  0  0  0
  6  9  1  0  0  0  0
  7  8  2  0  0  0  0
  9 10  2  0  0  0  0
  9 12  1  0  0  0  0
 10 11  1  0  0  0  0
 12 13  1  0  0  0  0
M  END
>  <CHROM.1>
-148.32187696,3.58219638,15.73888953,43.87147792,0.39307857,0.03222861,-2.89604075

>  <Name>
ligand

>  <RI>
-1

>  <Rbt.Current_Directory>
/home/itssahil/PROJECTS/Mol_Feturizer/Test_systems_manuscript/rnas/4jf2

>  <Rbt.Executable>
rbdock ($Id: //depot/dev/client3/rdock/2013.1/src/exe/rbdock.cxx#4 $)

>  <Rbt.Library>
libRbt.so (2013.1, Build901 2013/11/27)

>  <Rbt.Parameter_File>
/export/apps/rDock/src/rDock_2013.1_src/data/scripts/dock_solv.prm

>  <Rbt.Receptor>
prm/blind_docking_80.prm

>  <SCORE>
-14.0681

>  <SCORE.INTER>
-13.633

>  <SCORE.INTER.CONST>
1

>  <SCORE.INTER.POLAR>
0

>  <SCORE.INTER.ROT>
1

>  <SCORE.INTER.SOLV>
11.2604

>  <SCORE.INTER.VDW>
-17.1088

>  <SCORE.INTER.norm>
-1.04869

>  <SCORE.INTRA>
-0.452518

>  <SCORE.INTRA.DIHEDRAL>
-0.186506

>  <SCORE.INTRA.DIHEDRAL.0>
1.75624

>  <SCORE.INTRA.POLAR>
0

>  <SCORE.INTRA.POLAR.0>
0

>  <SCORE.INTRA.REPUL>
0

>  <SCORE.INTRA.REPUL.0>
0

>  <SCORE.INTRA.SOLV>
-1.0334

>  <SCORE.INTRA.SOLV.lig_0>
-46.5296

>  <SCORE.INTRA.VDW>
0.157434

>  <SCORE.INTRA.VDW.0>
-0.381873

>  <SCORE.INTRA.norm>
-0.0348091

>  <SCORE.RESTR>
0.0173422

>  <SCORE.RESTR.CAVITY>
0.0173422

>  <SCORE.RESTR.norm>
0.00133402

>  <SCORE.SYSTEM>
0

>  <SCORE.SYSTEM.CONST>
0

>  <SCORE.SYSTEM.DIHEDRAL>
0

>  <SCORE.SYSTEM.SOLV>
0

>  <SCORE.SYSTEM.norm>
0

>  <SCORE.heavy>
13

>  <SCORE.norm>
-1.08216

>  <RMSD>
19.635

$$$$
ligand
 OpenBabel02271912143D
libRbt.so/2013.1/901 2013/11/27
 13 14  0  0  0  0  0  0  0  0999 V2000
    4.9091   13.9435   43.3302 N   0  0  0  0  0  0  0  0  0  0  0  0
    5.9955   14.7995   43.5735 C   0  0  0  0  0  0  0  0  0  0  0  0
    7.3425   14.2995   43.4209 N   0  0  0  0  0  0  0  0  0  0  0  0
    5.7788   16.1072   43.9437 N   0  0  0  0  0  0  0  0  0  0  0  0
    4.4703   16.6320   44.1026 C   0  0  0  0  0  0  0  0  0  0  0  0
    3.3363   15.7761   43.8827 C   0  0  0  0  0  0  0  0  0  0  0  0
    3.6006   14.4072   43.5028 C   0  0  0  0  0  0  0  0  0  0  0  0
    2.5151   13.6049   43.2866 O   0  0  0  0  0  0  0  0  0  0  0  0
    2.1337   16.5457   44.1035 C   0  0  0  0  0  0  0  0  0  0  0  0
    2.5857   17.8160   44.4645 C   0  0  0  0  0  0  0  0  0  0  0  0
    3.9680   17.8601   44.4524 N   0  0  0  0  0  0  0  0  0  0  0  0
    0.6993   16.0629   44.0133 C   0  0  0  0  0  0  0  0  0  0  0  0
   -0.1708   16.6413   45.0348 N   0  0  0  0  0  0  0  0  0  0  0  0
  1  2  1  0  0  0  0
  1  7  1  0  0  0  0
  2  3  1  0  0  0  0
  2  4  2  0  0  0  0
  4  5  1  0  0  0  0
  5  6  2  0  0  0  0
  5 11  1  0  0  0  0
  6  7  1  0  0  0  0
  6  9  1  0  0  0  0
  7  8  2  0  0  0  0
  9 10  2  0  0  0  0
  9 12  1  0  0  0  0
 10 11  1  0  0  0  0
 12 13  1  0  0  0  0
M  END
>  <CHROM.1>
141.78770686,3.61067083,15.68740562,43.92373993,0.38878702,-0.07115365,-2.85968189

>  <Name>
ligand

>  <RI>
0

>  <Rbt.Current_Directory>
/home/itssahil/PROJECTS/Mol_Feturizer/Test_systems_manuscript/rnas/4jf2

>  <Rbt.Executable>
rbdock ($Id: //depot/dev/client3/rdock/2013.1/src/exe/rbdock.cxx#4 $)

>  <Rbt.Library>
libRbt.so (2013.1, Build901 2013/11/27)

>  <Rbt.Parameter_File>
/export/apps/rDock/src/rDock_2013.1_src/data/scripts/dock_solv.prm

>  <Rbt.Receptor>
prm/blind_docking_60.prm

>  <SCORE>
-13.5427

>  <SCORE.INTER>
-13.2606

>  <SCORE.INTER.CONST>
1

>  <SCORE.INTER.POLAR>
0

>  <SCORE.INTER.ROT>
1

>  <SCORE.INTER.SOLV>
13.2212

>  <SCORE.INTER.VDW>
-17.5141

>  <SCORE.INTER.norm>
-1.02005

>  <SCORE.INTRA>
-0.345129

>  <SCORE.INTRA.DIHEDRAL>
0.0280572

>  <SCORE.INTRA.DIHEDRAL.0>
1.75624

>  <SCORE.INTRA.POLAR>
0

>  <SCORE.INTRA.POLAR.0>
0

>  <SCORE.INTRA.REPUL>
0

>  <SCORE.INTRA.REPUL.0>
0

>  <SCORE.INTRA.SOLV>
-1.01977

>  <SCORE.INTRA.SOLV.lig_0>
-46.5296

>  <SCORE.INTRA.VDW>
0.150726

>  <SCORE.INTRA.VDW.0>
-0.381873

>  <SCORE.INTRA.norm>
-0.0265484

>  <SCORE.RESTR>
0.0629889

>  <SCORE.RESTR.CAVITY>
0.0629889

>  <SCORE.RESTR.norm>
0.0048453

>  <SCORE.SYSTEM>
0

>  <SCORE.SYSTEM.CONST>
0

>  <SCORE.SYSTEM.DIHEDRAL>
0

>  <SCORE.SYSTEM.SOLV>
0

>  <SCORE.SYSTEM.norm>
0

>  <SCORE.heavy>
13

>  <SCORE.norm>
-1.04175

>  <RMSD>
19.660

$$$$
ligand
 OpenBabel02271912143D
libRbt.so/2013.1/901 2013/11/27
 13 14  0  0  0  0  0  0  0  0999 V2000
    4.9027   13.9817   43.2958 N   0  0  0  0  0  0  0  0  0  0  0  0
    5.9879   14.8397   43.5372 C   0  0  0  0  0  0  0  0  0  0  0  0
    7.3353   14.3471   43.3659 N   0  0  0  0  0  0  0  0  0  0  0  0
    5.7695   16.1425   43.9232 N   0  0  0  0  0  0  0  0  0  0  0  0
    4.4605   16.6601   44.1006 C   0  0  0  0  0  0  0  0  0  0  0  0
    3.3279   15.8017   43.8831 C   0  0  0  0  0  0  0  0  0  0  0  0
    3.5941   14.4380   43.4862 C   0  0  0  0  0  0  0  0  0  0  0  0
    2.5098   13.6334   43.2724 O   0  0  0  0  0  0  0  0  0  0  0  0
    2.1244   16.5639   44.1240 C   0  0  0  0  0  0  0  0  0  0  0  0
    2.5747   17.8322   44.4938 C   0  0  0  0  0  0  0  0  0  0  0  0
    3.9567   17.8823   44.4684 N   0  0  0  0  0  0  0  0  0  0  0  0
    0.6912   16.0759   44.0431 C   0  0  0  0  0  0  0  0  0  0  0  0
   -0.2408   17.0957   43.5672 N   0  0  0  0  0  0  0  0  0  0  0  0
  1  2  1  0  0  0  0
  1  7  1  0  0  0  0
  2  3  1  0  0  0  0
  2  4  2  0  0  0  0
  4  5  1  0  0  0  0
  5  6  2  0  0  0  0
  5 11  1  0  0  0  0
  6  7  1  0  0  0  0
  6  9  1  0  0  0  0
  7  8  2  0  0  0  0
  9 10  2  0  0  0  0
  9 12  1  0  0  0  0
 10 11  1  0  0  0  0
 12 13  1  0  0  0  0
M  END
>  <CHROM.1>
-146.04184952,3.59737423,15.75084699,43.79745550,0.38723939,0.02738648,-2.86710135

>  <Name>
ligand

>  <RI>
0

>  <Rbt.Current_Directory>
/home/itssahil/PROJECTS/Mol_Feturizer/Test_systems_manuscript/rnas/4jf2

>  <Rbt.Executable>
rbdock ($Id: //depot/dev/client3/rdock/2013.1/src/exe/rbdock.cxx#4 $)

>  <Rbt.Library>
libRbt.so (2013.1, Build901 2013/11/27)

>  <Rbt.Parameter_File>
/export/apps/rDock/src/rDock_2013.1_src/data/scripts/dock_solv.prm

>  <Rbt.Receptor>
prm/blind_docking_60.prm

>  <SCORE>
-14.1359

>  <SCORE.INTER>
-13.709

>  <SCORE.INTER.CONST>
1

>  <SCORE.INTER.POLAR>
0

>  <SCORE.INTER.ROT>
1

>  <SCORE.INTER.SOLV>
11.5325

>  <SCORE.INTER.VDW>
-17.2502

>  <SCORE.INTER.norm>
-1.05454

>  <SCORE.INTRA>
-0.456428

>  <SCORE.INTRA.DIHEDRAL>
-0.183679

>  <SCORE.INTRA.DIHEDRAL.0>
1.75624

>  <SCORE.INTRA.POLAR>
0

>  <SCORE.INTRA.POLAR.0>
0

>  <SCORE.INTRA.REPUL>
0

>  <SCORE.INTRA.REPUL.0>
0

>  <SCORE.INTRA.SOLV>
-1.03481

>  <SCORE.INTRA.SOLV.lig_0>
-46.5296

>  <SCORE.INTRA.VDW>
0.152814

>  <SCORE.INTRA.VDW.0>
-0.381873

>  <SCORE.INTRA.norm>
-0.0351098

>  <SCORE.RESTR>
0.0295495

>  <SCORE.RESTR.CAVITY>
0.0295495

>  <SCORE.RESTR.norm>
0.00227304

>  <SCORE.SYSTEM>
0

>  <SCORE.SYSTEM.CONST>
0

>  <SCORE.SYSTEM.DIHEDRAL>
0

>  <SCORE.SYSTEM.SOLV>
0

>  <SCORE.SYSTEM.norm>
0

>  <SCORE.heavy>
13

>  <SCORE.norm>
-1.08738

>  <RMSD>
19.671

$$$$
ligand
 OpenBabel02271912143D
libRbt.so/2013.1/901 2013/11/27
 13 14  0  0  0  0  0  0  0  0999 V2000
    4.9020   13.9915   43.3105 N   0  0  0  0  0  0  0  0  0  0  0  0
    5.9868   14.8385   43.5897 C   0  0  0  0  0  0  0  0  0  0  0  0
    7.3345   14.3349   43.4571 N   0  0  0  0  0  0  0  0  0  0  0  0
    5.7681   16.1413   43.9760 N   0  0  0  0  0  0  0  0  0  0  0  0
    4.4588   16.6695   44.1161 C   0  0  0  0  0  0  0  0  0  0  0  0
    3.3260   15.8223   43.8593 C   0  0  0  0  0  0  0  0  0  0  0  0
    3.5922   14.4584   43.4633 C   0  0  0  0  0  0  0  0  0  0  0  0
    2.5080   13.6646   43.2121 O   0  0  0  0  0  0  0  0  0  0  0  0
    2.1223   16.5939   44.0674 C   0  0  0  0  0  0  0  0  0  0  0  0
    2.5721   17.8563   44.4577 C   0  0  0  0  0  0  0  0  0  0  0  0
    3.9546   17.8943   44.4749 N   0  0  0  0  0  0  0  0  0  0  0  0
    0.6881   16.1191   43.9400 C   0  0  0  0  0  0  0  0  0  0  0  0
   -0.1916   17.0997   43.3077 N   0  0  0  0  0  0  0  0  0  0  0  0
  1  2  1  0  0  0  0
  1  7  1  0  0  0  0
  2  3  1  0  0  0  0
  2  4  2  0  0  0  0
  4  5  1  0  0  0  0
  5  6  2  0  0  0  0
  5 11  1  0  0  0  0
  6  7  1  0  0  0  0
  6  9  1  0  0  0  0
  7  8  2  0  0  0  0
  9 10  2  0  0  0  0
  9 12  1  0  0  0  0
 10 11  1  0  0  0  0
 12 13  1  0  0  0  0
M  END
>  <CHROM.1>
-139.82796490,3.59976862,15.76548849,43.77079055,0.38036732,0.06767877,-2.86105742

>  <Name>
ligand

>  <RI>
0

>  <Rbt.Current_Directory>
/home/itssahil/PROJECTS/Mol_Feturizer/Test_systems_manuscript/rnas/4jf2

>  <Rbt.Executable>
rbdock ($Id: //depot/dev/client3/rdock/2013.1/src/exe/rbdock.cxx#4 $)

>  <Rbt.Library>
libRbt.so (2013.1, Build901 2013/11/27)

>  <Rbt.Parameter_File>
/export/apps/rDock/src/rDock_2013.1_src/data/scripts/dock_solv.prm

>  <Rbt.Receptor>
prm/blind_docking_60.prm

>  <SCORE>
-14.0961

>  <SCORE.INTER>
-13.647

>  <SCORE.INTER.CONST>
1

>  <SCORE.INTER.POLAR>
0

>  <SCORE.INTER.ROT>
1

>  <SCORE.INTER.SOLV>
11.2975

>  <SCORE.INTER.VDW>
-17.1305

>  <SCORE.INTER.norm>
-1.04977

>  <SCORE.INTRA>
-0.4632

>  <SCORE.INTRA.DIHEDRAL>
-0.1684

>  <SCORE.INTRA.DIHEDRAL.0>
1.75624

>  <SCORE.INTRA.POLAR>
0

>  <SCORE.INTRA.POLAR.0>
0

>  <SCORE.INTRA.REPUL>
0

>  <SCORE.INTRA.REPUL.0>
0

>  <SCORE.INTRA.SOLV>
-1.03867

>  <SCORE.INTRA.SOLV.lig_0>
-46.5296

>  <SCORE.INTRA.VDW>
0.140334

>  <SCORE.INTRA.VDW.0>
-0.381873

>  <SCORE.INTRA.norm>
-0.0356308

>  <SCORE.RESTR>
0.014145

>  <SCORE.RESTR.CAVITY>
0.014145

>  <SCORE.RESTR.norm>
0.00108807

>  <SCORE.SYSTEM>
0

>  <SCORE.SYSTEM.CONST>
0

>  <SCORE.SYSTEM.DIHEDRAL>
0

>  <SCORE.SYSTEM.SOLV>
0

>  <SCORE.SYSTEM.norm>
0

>  <SCORE.heavy>
13

>  <SCORE.norm>
-1.08431

>  <RMSD>
19.674

$$$$
ligand
 OpenBabel02271912143D
libRbt.so/2013.1/901 2013/11/27
 13 14  0  0  0  0  0  0  0  0999 V2000
    4.8428   13.8921   43.3756 N   0  0  0  0  0  0  0  0  0  0  0  0
    5.9090   14.7958   43.5123 C   0  0  0  0  0  0  0  0  0  0  0  0
    7.2628   14.3340   43.3091 N   0  0  0  0  0  0  0  0  0  0  0  0
    5.6653   16.1134   43.8266 N   0  0  0  0  0  0  0  0  0  0  0  0
    4.3492   16.6017   44.0326 C   0  0  0  0  0  0  0  0  0  0  0  0
    3.2369   15.6976   43.9220 C   0  0  0  0  0  0  0  0  0  0  0  0
    3.5297   14.3200   43.5984 C   0  0  0  0  0  0  0  0  0  0  0  0
    2.4640   13.4713   43.4859 O   0  0  0  0  0  0  0  0  0  0  0  0
    2.0210   16.4370   44.1711 C   0  0  0  0  0  0  0  0  0  0  0  0
    2.4454   17.7392   44.4401 C   0  0  0  0  0  0  0  0  0  0  0  0
    3.8225   17.8291   44.3470 N   0  0  0  0  0  0  0  0  0  0  0  0
    0.6024   15.9021   44.1878 C   0  0  0  0  0  0  0  0  0  0  0  0
   -0.3970   16.9021   43.8186 N   0  0  0  0  0  0  0  0  0  0  0  0
  1  2  1  0  0  0  0
  1  7  1  0  0  0  0
  2  3  1  0  0  0  0
  2  4  2  0  0  0  0
  4  5  1  0  0  0  0
  5  6  2  0  0  0  0
  5 11  1  0  0  0  0
  6  7  1  0  0  0  0
  6  9  1  0  0  0  0
  7  8  2  0  0  0  0
  9 10  2  0  0  0  0
  9 12  1  0  0  0  0
 10 11  1  0  0  0  0
 12 13  1  0  0  0  0
M  END
>  <CHROM.1>
-151.68701644,3.50264504,15.65282940,43.83728686,0.37315541,-0.03271758,-2.92995110

>  <Name>
ligand

>  <RI>
0

>  <Rbt.Current_Directory>
/home/itssahil/PROJECTS/Mol_Feturizer/Test_systems_manuscript/rnas/4jf2

>  <Rbt.Executable>
rbdock ($Id: //depot/dev/client3/rdock/2013.1/src/exe/rbdock.cxx#4 $)

>  <Rbt.Library>
libRbt.so (2013.1, Build901 2013/11/27)

>  <Rbt.Parameter_File>
/export/apps/rDock/src/rDock_2013.1_src/data/scripts/dock_solv.prm

>  <Rbt.Receptor>
prm/blind_docking_100.prm

>  <SCORE>
-13.8169

>  <SCORE.INTER>
-13.594

>  <SCORE.INTER.CONST>
1

>  <SCORE.INTER.POLAR>
0

>  <SCORE.INTER.ROT>
1

>  <SCORE.INTER.SOLV>
12.2081

>  <SCORE.INTER.VDW>
-17.3987

>  <SCORE.INTER.norm>
-1.04569

>  <SCORE.INTRA>
-0.445374

>  <SCORE.INTRA.DIHEDRAL>
-0.187806

>  <SCORE.INTRA.DIHEDRAL.0>
1.75624

>  <SCORE.INTRA.POLAR>
0

>  <SCORE.INTRA.POLAR.0>
0

>  <SCORE.INTRA.REPUL>
0

>  <SCORE.INTRA.REPUL.0>
0

>  <SCORE.INTRA.SOLV>
-1.03135

>  <SCORE.INTRA.SOLV.lig_0>
-46.5296

>  <SCORE.INTRA.VDW>
0.164207

>  <SCORE.INTRA.VDW.0>
-0.381873

>  <SCORE.INTRA.norm>
-0.0342595

>  <SCORE.RESTR>
0.222456

>  <SCORE.RESTR.CAVITY>
0.222456

>  <SCORE.RESTR.norm>
0.017112

>  <SCORE.SYSTEM>
0

>  <SCORE.SYSTEM.CONST>
0

>  <SCORE.SYSTEM.DIHEDRAL>
0

>  <SCORE.SYSTEM.SOLV>
0

>  <SCORE.SYSTEM.norm>
0

>  <SCORE.heavy>
13

>  <SCORE.norm>
-1.06284

>  <RMSD>
19.682

$$$$
ligand
 OpenBabel02271912143D
libRbt.so/2013.1/901 2013/11/27
 13 14  0  0  0  0  0  0  0  0999 V2000
    4.8907   13.9895   43.2720 N   0  0  0  0  0  0  0  0  0  0  0  0
    5.9799   14.8444   43.5063 C   0  0  0  0  0  0  0  0  0  0  0  0
    7.3248   14.3483   43.3255 N   0  0  0  0  0  0  0  0  0  0  0  0
    5.7677   16.1477   43.8943 N   0  0  0  0  0  0  0  0  0  0  0  0
    4.4613   16.6687   44.0810 C   0  0  0  0  0  0  0  0  0  0  0  0
    3.3250   15.8134   43.8710 C   0  0  0  0  0  0  0  0  0  0  0  0
    3.5847   14.4491   43.4717 C   0  0  0  0  0  0  0  0  0  0  0  0
    2.4968   13.6475   43.2651 O   0  0  0  0  0  0  0  0  0  0  0  0
    2.1252   16.5787   44.1204 C   0  0  0  0  0  0  0  0  0  0  0  0
    2.5814   17.8457   44.4876 C   0  0  0  0  0  0  0  0  0  0  0  0
    3.9633   17.8921   44.4526 N   0  0  0  0  0  0  0  0  0  0  0  0
    0.6901   16.0946   44.0492 C   0  0  0  0  0  0  0  0  0  0  0  0
   -0.1958   17.0143   43.3390 N   0  0  0  0  0  0  0  0  0  0  0  0
  1  2  1  0  0  0  0
  1  7  1  0  0  0  0
  2  3  1  0  0  0  0
  2  4  2  0  0  0  0
  4  5  1  0  0  0  0
  5  6  2  0  0  0  0
  5 11  1  0  0  0  0
  6  7  1  0  0  0  0
  6  9  1  0  0  0  0
  7  8  2  0  0  0  0
  9 10  2  0  0  0  0
  9 12  1  0  0  0  0
 10 11  1  0  0  0  0
 12 13  1  0  0  0  0
M  END
>  <CHROM.1>
-134.65422639,3.59745010,15.75351705,43.76377422,0.37828362,0.03647633,-2.86483112

>  <Name>
ligand

>  <RI>
0

>  <Rbt.Current_Directory>
/home/itssahil/PROJECTS/Mol_Feturizer/Test_systems_manuscript/rnas/4jf2

>  <Rbt.Executable>
rbdock ($Id: //depot/dev/client3/rdock/2013.1/src/exe/rbdock.cxx#4 $)

>  <Rbt.Library>
libRbt.so (2013.1, Build901 2013/11/27)

>  <Rbt.Parameter_File>
/export/apps/rDock/src/rDock_2013.1_src/data/scripts/dock_solv.prm

>  <Rbt.Receptor>
prm/blind_docking_60.prm

>  <SCORE>
-14.2134

>  <SCORE.INTER>
-13.783

>  <SCORE.INTER.CONST>
1

>  <SCORE.INTER.POLAR>
0

>  <SCORE.INTER.ROT>
1

>  <SCORE.INTER.SOLV>
11.7615

>  <SCORE.INTER.VDW>
-17.3758

>  <SCORE.INTER.norm>
-1.06023

>  <SCORE.INTRA>
-0.464754

>  <SCORE.INTRA.DIHEDRAL>
-0.148201

>  <SCORE.INTRA.DIHEDRAL.0>
1.75624

>  <SCORE.INTRA.POLAR>
0

>  <SCORE.INTRA.POLAR.0>
0

>  <SCORE.INTRA.REPUL>
0

>  <SCORE.INTRA.REPUL.0>
0

>  <SCORE.INTRA.SOLV>
-1.04182

>  <SCORE.INTRA.SOLV.lig_0>
-46.5296

>  <SCORE.INTRA.VDW>
0.130257

>  <SCORE.INTRA.VDW.0>
-0.381873

>  <SCORE.INTRA.norm>
-0.0357503

>  <SCORE.RESTR>
0.0343597

>  <SCORE.RESTR.CAVITY>
0.0343597

>  <SCORE.RESTR.norm>
0.00264305

>  <SCORE.SYSTEM>
0

>  <SCORE.SYSTEM.CONST>
0

>  <SCORE.SYSTEM.DIHEDRAL>
0

>  <SCORE.SYSTEM.SOLV>
0

>  <SCORE.SYSTEM.norm>
0

>  <SCORE.heavy>
13

>  <SCORE.norm>
-1.09334

>  <RMSD>
19.687

$$$$
ligand
 OpenBabel02271912143D
libRbt.so/2013.1/901 2013/11/27
 13 14  0  0  0  0  0  0  0  0999 V2000
    4.8682   13.9839   43.2671 N   0  0  0  0  0  0  0  0  0  0  0  0
    5.9366   14.8773   43.4470 C   0  0  0  0  0  0  0  0  0  0  0  0
    7.2898   14.4205   43.2287 N   0  0  0  0  0  0  0  0  0  0  0  0
    5.6958   16.1807   43.8177 N   0  0  0  0  0  0  0  0  0  0  0  0
    4.3805   16.6637   44.0401 C   0  0  0  0  0  0  0  0  0  0  0  0
    3.2659   15.7689   43.8860 C   0  0  0  0  0  0  0  0  0  0  0  0
    3.5556   14.4059   43.5036 C   0  0  0  0  0  0  0  0  0  0  0  0
    2.4877   13.5663   43.3502 O   0  0  0  0  0  0  0  0  0  0  0  0
    2.0512   16.5007   44.1629 C   0  0  0  0  0  0  0  0  0  0  0  0
    2.4787   17.7885   44.4900 C   0  0  0  0  0  0  0  0  0  0  0  0
    3.8563   17.8779   44.4059 N   0  0  0  0  0  0  0  0  0  0  0  0
    0.6310   15.9702   44.1510 C   0  0  0  0  0  0  0  0  0  0  0  0
   -0.2785   16.7706   43.3341 N   0  0  0  0  0  0  0  0  0  0  0  0
  1  2  1  0  0  0  0
  1  7  1  0  0  0  0
  2  3  1  0  0  0  0
  2  4  2  0  0  0  0
  4  5  1  0  0  0  0
  5  6  2  0  0  0  0
  5 11  1  0  0  0  0
  6  7  1  0  0  0  0
  6  9  1  0  0  0  0
  7  8  2  0  0  0  0
  9 10  2  0  0  0  0
  9 12  1  0  0  0  0
 10 11  1  0  0  0  0
 12 13  1  0  0  0  0
M  END
>  <CHROM.1>
-128.41274694,3.53870080,15.70933600,43.76068767,0.34812701,0.00188824,-2.88120761

>  <Name>
ligand

>  <RI>
0

>  <Rbt.Current_Directory>
/home/itssahil/PROJECTS/Mol_Feturizer/Test_systems_manuscript/rnas/4jf2

>  <Rbt.Executable>
rbdock ($Id: //depot/dev/client3/rdock/2013.1/src/exe/rbdock.cxx#4 $)

>  <Rbt.Library>
libRbt.so (2013.1, Build901 2013/11/27)

>  <Rbt.Parameter_File>
/export/apps/rDock/src/rDock_2013.1_src/data/scripts/dock_solv.prm

>  <Rbt.Receptor>
prm/blind_docking_60.prm

>  <SCORE>
-14.159

>  <SCORE.INTER>
-13.7643

>  <SCORE.INTER.CONST>
1

>  <SCORE.INTER.POLAR>
0

>  <SCORE.INTER.ROT>
1

>  <SCORE.INTER.SOLV>
12.8097

>  <SCORE.INTER.VDW>
-17.7127

>  <SCORE.INTER.norm>
-1.05879

>  <SCORE.INTRA>
-0.432423

>  <SCORE.INTRA.DIHEDRAL>
-0.117012

>  <SCORE.INTRA.DIHEDRAL.0>
1.75624

>  <SCORE.INTRA.POLAR>
0

>  <SCORE.INTRA.POLAR.0>
0

>  <SCORE.INTRA.REPUL>
0

>  <SCORE.INTRA.REPUL.0>
0

>  <SCORE.INTRA.SOLV>
-0.985

>  <SCORE.INTRA.SOLV.lig_0>
-46.5296

>  <SCORE.INTRA.VDW>
0.118583

>  <SCORE.INTRA.VDW.0>
-0.381873

>  <SCORE.INTRA.norm>
-0.0332633

>  <SCORE.RESTR>
0.0376506

>  <SCORE.RESTR.CAVITY>
0.0376506

>  <SCORE.RESTR.norm>
0.0028962

>  <SCORE.SYSTEM>
0

>  <SCORE.SYSTEM.CONST>
0

>  <SCORE.SYSTEM.DIHEDRAL>
0

>  <SCORE.SYSTEM.SOLV>
0

>  <SCORE.SYSTEM.norm>
0

>  <SCORE.heavy>
13

>  <SCORE.norm>
-1.08916

>  <RMSD>
19.694

$$$$
ligand
 OpenBabel02271912143D
libRbt.so/2013.1/901 2013/11/27
 13 14  0  0  0  0  0  0  0  0999 V2000
    4.9160   13.9798   43.2769 N   0  0  0  0  0  0  0  0  0  0  0  0
    6.0014   14.8440   43.4942 C   0  0  0  0  0  0  0  0  0  0  0  0
    7.3477   14.3574   43.2988 N   0  0  0  0  0  0  0  0  0  0  0  0
    5.7840   16.1473   43.8795 N   0  0  0  0  0  0  0  0  0  0  0  0
    4.4760   16.6591   44.0801 C   0  0  0  0  0  0  0  0  0  0  0  0
    3.3438   15.7943   43.8877 C   0  0  0  0  0  0  0  0  0  0  0  0
    3.6090   14.4304   43.4908 C   0  0  0  0  0  0  0  0  0  0  0  0
    2.5248   13.6197   43.3010 O   0  0  0  0  0  0  0  0  0  0  0  0
    2.1413   16.5515   44.1488 C   0  0  0  0  0  0  0  0  0  0  0  0
    2.5924   17.8235   44.5051 C   0  0  0  0  0  0  0  0  0  0  0  0
    3.9733   17.8803   44.4529 N   0  0  0  0  0  0  0  0  0  0  0  0
    0.7093   16.0562   44.0973 C   0  0  0  0  0  0  0  0  0  0  0  0
   -0.1874   16.9541   43.3728 N   0  0  0  0  0  0  0  0  0  0  0  0
  1  2  1  0  0  0  0
  1  7  1  0  0  0  0
  2  3  1  0  0  0  0
  2  4  2  0  0  0  0
  4  5  1  0  0  0  0
  5  6  2  0  0  0  0
  5 11  1  0  0  0  0
  6  7  1  0  0  0  0
  6  9  1  0  0  0  0
  7  8  2  0  0  0  0
  9 10  2  0  0  0  0
  9 12  1  0  0  0  0
 10 11  1  0  0  0  0
 12 13  1  0  0  0  0
M  END
>  <CHROM.1>
-133.57908899,3.61580056,15.73506404,43.77561795,0.37287068,0.02383822,-2.86850319

>  <Name>
ligand

>  <RI>
-1

>  <Rbt.Current_Directory>
/home/itssahil/PROJECTS/Mol_Feturizer/Test_systems_manuscript/rnas/4jf2

>  <Rbt.Executable>
rbdock ($Id: //depot/dev/client3/rdock/2013.1/src/exe/rbdock.cxx#4 $)

>  <Rbt.Library>
libRbt.so (2013.1, Build901 2013/11/27)

>  <Rbt.Parameter_File>
/export/apps/rDock/src/rDock_2013.1_src/data/scripts/dock_solv.prm

>  <Rbt.Receptor>
prm/blind_docking_80.prm

>  <SCORE>
-14.2847

>  <SCORE.INTER>
-13.8678

>  <SCORE.INTER.CONST>
1

>  <SCORE.INTER.POLAR>
0

>  <SCORE.INTER.ROT>
1

>  <SCORE.INTER.SOLV>
11.9706

>  <SCORE.INTER.VDW>
-17.5021

>  <SCORE.INTER.norm>
-1.06675

>  <SCORE.INTRA>
-0.464127

>  <SCORE.INTRA.DIHEDRAL>
-0.143288

>  <SCORE.INTRA.DIHEDRAL.0>
1.75624

>  <SCORE.INTRA.POLAR>
0

>  <SCORE.INTRA.POLAR.0>
0

>  <SCORE.INTRA.REPUL>
0

>  <SCORE.INTRA.REPUL.0>
0

>  <SCORE.INTRA.SOLV>
-1.04138

>  <SCORE.INTRA.SOLV.lig_0>
-46.5296

>  <SCORE.INTRA.VDW>
0.128209

>  <SCORE.INTRA.VDW.0>
-0.381873

>  <SCORE.INTRA.norm>
-0.0357021

>  <SCORE.RESTR>
0.0472713

>  <SCORE.RESTR.CAVITY>
0.0472713

>  <SCORE.RESTR.norm>
0.00363625

>  <SCORE.SYSTEM>
0

>  <SCORE.SYSTEM.CONST>
0

>  <SCORE.SYSTEM.DIHEDRAL>
0

>  <SCORE.SYSTEM.SOLV>
0

>  <SCORE.SYSTEM.norm>
0

>  <SCORE.heavy>
13

>  <SCORE.norm>
-1.09882

>  <RMSD>
19.702

$$$$
ligand
 OpenBabel02271912143D
libRbt.so/2013.1/901 2013/11/27
 13 14  0  0  0  0  0  0  0  0999 V2000
    1.8395   15.3622   43.3948 N   0  0  0  0  0  0  0  0  0  0  0  0
    2.1931   16.7164   43.5101 C   0  0  0  0  0  0  0  0  0  0  0  0
    1.1762   17.7318   43.3607 N   0  0  0  0  0  0  0  0  0  0  0  0
    3.4959   17.0730   43.7742 N   0  0  0  0  0  0  0  0  0  0  0  0
    4.5200   16.1030   43.9274 C   0  0  0  0  0  0  0  0  0  0  0  0
    4.1957   14.7088   43.7933 C   0  0  0  0  0  0  0  0  0  0  0  0
    2.8199   14.3708   43.5083 C   0  0  0  0  0  0  0  0  0  0  0  0
    2.5209   13.0419   43.3927 O   0  0  0  0  0  0  0  0  0  0  0  0
    5.4009   13.9382   43.9957 C   0  0  0  0  0  0  0  0  0  0  0  0
    6.3976   14.8892   44.2204 C   0  0  0  0  0  0  0  0  0  0  0  0
    5.8659   16.1656   44.1872 N   0  0  0  0  0  0  0  0  0  0  0  0
    5.5556   12.4316   43.9265 C   0  0  0  0  0  0  0  0  0  0  0  0
    6.4867   11.8997   44.9191 N   0  0  0  0  0  0  0  0  0  0  0  0
  1  2  1  0  0  0  0
  1  7  1  0  0  0  0
  2  3  1  0  0  0  0
  2  4  2  0  0  0  0
  4  5  1  0  0  0  0
  5  6  2  0  0  0  0
  5 11  1  0  0  0  0
  6  7  1  0  0  0  0
  6  9  1  0  0  0  0
  7  8  2  0  0  0  0
  9 10  2  0  0  0  0
  9 12  1  0  0  0  0
 10 11  1  0  0  0  0
 12 13  1  0  0  0  0
M  END
>  <CHROM.1>
-142.75464633,4.00342268,14.92240962,43.83503975,2.37560737,-0.21869581,0.00063509

>  <Name>
ligand

>  <RI>
-1

>  <Rbt.Current_Directory>
/home/itssahil/PROJECTS/Mol_Feturizer/Test_systems_manuscript/rnas/4jf2

>  <Rbt.Executable>
rbdock ($Id: //depot/dev/client3/rdock/2013.1/src/exe/rbdock.cxx#4 $)

>  <Rbt.Library>
libRbt.so (2013.1, Build901 2013/11/27)

>  <Rbt.Parameter_File>
/export/apps/rDock/src/rDock_2013.1_src/data/scripts/dock_solv.prm

>  <Rbt.Receptor>
prm/blind_docking_80.prm

>  <SCORE>
-13.8118

>  <SCORE.INTER>
-13.3514

>  <SCORE.INTER.CONST>
1

>  <SCORE.INTER.POLAR>
0

>  <SCORE.INTER.ROT>
1

>  <SCORE.INTER.SOLV>
9.82751

>  <SCORE.INTER.VDW>
-16.4434

>  <SCORE.INTER.norm>
-1.02703

>  <SCORE.INTRA>
-0.460712

>  <SCORE.INTRA.DIHEDRAL>
-0.176925

>  <SCORE.INTRA.DIHEDRAL.0>
1.75624

>  <SCORE.INTRA.POLAR>
0

>  <SCORE.INTRA.POLAR.0>
0

>  <SCORE.INTRA.REPUL>
0

>  <SCORE.INTRA.REPUL.0>
0

>  <SCORE.INTRA.SOLV>
-1.03685

>  <SCORE.INTRA.SOLV.lig_0>
-46.5296

>  <SCORE.INTRA.VDW>
0.146176

>  <SCORE.INTRA.VDW.0>
-0.381873

>  <SCORE.INTRA.norm>
-0.0354394

>  <SCORE.RESTR>
0.000307921

>  <SCORE.RESTR.CAVITY>
0.000307921

>  <SCORE.RESTR.norm>
2.36862e-05

>  <SCORE.SYSTEM>
0

>  <SCORE.SYSTEM.CONST>
0

>  <SCORE.SYSTEM.DIHEDRAL>
0

>  <SCORE.SYSTEM.SOLV>
0

>  <SCORE.SYSTEM.norm>
0

>  <SCORE.heavy>
13

>  <SCORE.norm>
-1.06245

>  <RMSD>
20.715

$$$$
ligand
 OpenBabel02271912143D
libRbt.so/2013.1/901 2013/11/27
 13 14  0  0  0  0  0  0  0  0999 V2000
    1.8678   15.3847   43.3925 N   0  0  0  0  0  0  0  0  0  0  0  0
    2.2320   16.7370   43.4967 C   0  0  0  0  0  0  0  0  0  0  0  0
    1.2231   17.7591   43.3400 N   0  0  0  0  0  0  0  0  0  0  0  0
    3.5379   17.0854   43.7570 N   0  0  0  0  0  0  0  0  0  0  0  0
    4.5544   16.1087   43.9171 C   0  0  0  0  0  0  0  0  0  0  0  0
    4.2190   14.7161   43.7944 C   0  0  0  0  0  0  0  0  0  0  0  0
    2.8405   14.3866   43.5132 C   0  0  0  0  0  0  0  0  0  0  0  0
    2.5309   13.0592   43.4085 O   0  0  0  0  0  0  0  0  0  0  0  0
    5.4183   13.9376   44.0021 C   0  0  0  0  0  0  0  0  0  0  0  0
    6.4226   14.8826   44.2184 C   0  0  0  0  0  0  0  0  0  0  0  0
    5.9009   16.1628   44.1754 N   0  0  0  0  0  0  0  0  0  0  0  0
    5.5612   12.4293   43.9448 C   0  0  0  0  0  0  0  0  0  0  0  0
    6.5000   11.8995   44.9312 N   0  0  0  0  0  0  0  0  0  0  0  0
  1  2  1  0  0  0  0
  1  7  1  0  0  0  0
  2  3  1  0  0  0  0
  2  4  2  0  0  0  0
  4  5  1  0  0  0  0
  5  6  2  0  0  0  0
  5 11  1  0  0  0  0
  6  7  1  0  0  0  0
  6  9  1  0  0  0  0
  7  8  2  0  0  0  0
  9 10  2  0  0  0  0
  9 12  1  0  0  0  0
 10 11  1  0  0  0  0
 12 13  1  0  0  0  0
M  END
>  <CHROM.1>
-143.38577767,4.02940389,14.93158212,43.83381725,2.36844615,-0.21759512,-0.00826175

>  <Name>
ligand

>  <RI>
-1

>  <Rbt.Current_Directory>
/home/itssahil/PROJECTS/Mol_Feturizer/Test_systems_manuscript/rnas/4jf2

>  <Rbt.Executable>
rbdock ($Id: //depot/dev/client3/rdock/2013.1/src/exe/rbdock.cxx#4 $)

>  <Rbt.Library>
libRbt.so (2013.1, Build901 2013/11/27)

>  <Rbt.Parameter_File>
/export/apps/rDock/src/rDock_2013.1_src/data/scripts/dock_solv.prm

>  <Rbt.Receptor>
prm/blind_docking_80.prm

>  <SCORE>
-13.8403

>  <SCORE.INTER>
-13.3808

>  <SCORE.INTER.CONST>
1

>  <SCORE.INTER.POLAR>
0

>  <SCORE.INTER.ROT>
1

>  <SCORE.INTER.SOLV>
9.82637

>  <SCORE.INTER.VDW>
-16.4626

>  <SCORE.INTER.norm>
-1.02929

>  <SCORE.INTRA>
-0.460013

>  <SCORE.INTRA.DIHEDRAL>
-0.17846

>  <SCORE.INTRA.DIHEDRAL.0>
1.75624

>  <SCORE.INTRA.POLAR>
0

>  <SCORE.INTRA.POLAR.0>
0

>  <SCORE.INTRA.REPUL>
0

>  <SCORE.INTRA.REPUL.0>
0

>  <SCORE.INTRA.SOLV>
-1.03646

>  <SCORE.INTRA.SOLV.lig_0>
-46.5296

>  <SCORE.INTRA.VDW>
0.147446

>  <SCORE.INTRA.VDW.0>
-0.381873

>  <SCORE.INTRA.norm>
-0.0353856

>  <SCORE.RESTR>
0.000499804

>  <SCORE.RESTR.CAVITY>
0.000499804

>  <SCORE.RESTR.norm>
3.84465e-05

>  <SCORE.SYSTEM>
0

>  <SCORE.SYSTEM.CONST>
0

>  <SCORE.SYSTEM.DIHEDRAL>
0

>  <SCORE.SYSTEM.SOLV>
0

>  <SCORE.SYSTEM.norm>
0

>  <SCORE.heavy>
13

>  <SCORE.norm>
-1.06464

>  <RMSD>
20.719

$$$$
ligand
 OpenBabel02271912143D
libRbt.so/2013.1/901 2013/11/27
 13 14  0  0  0  0  0  0  0  0999 V2000
    1.8604   15.3543   43.3893 N   0  0  0  0  0  0  0  0  0  0  0  0
    2.2114   16.7092   43.5041 C   0  0  0  0  0  0  0  0  0  0  0  0
    1.1929   17.7227   43.3527 N   0  0  0  0  0  0  0  0  0  0  0  0
    3.5132   17.0683   43.7695 N   0  0  0  0  0  0  0  0  0  0  0  0
    4.5388   16.1003   43.9247 C   0  0  0  0  0  0  0  0  0  0  0  0
    4.2172   14.7055   43.7912 C   0  0  0  0  0  0  0  0  0  0  0  0
    2.8424   14.3648   43.5048 C   0  0  0  0  0  0  0  0  0  0  0  0
    2.5459   13.0352   43.3898 O   0  0  0  0  0  0  0  0  0  0  0  0
    5.4236   13.9371   43.9957 C   0  0  0  0  0  0  0  0  0  0  0  0
    6.4182   14.8901   44.2209 C   0  0  0  0  0  0  0  0  0  0  0  0
    5.8843   16.1655   44.1861 N   0  0  0  0  0  0  0  0  0  0  0  0
    5.5811   12.4307   43.9277 C   0  0  0  0  0  0  0  0  0  0  0  0
    6.4997   11.8995   44.9323 N   0  0  0  0  0  0  0  0  0  0  0  0
  1  2  1  0  0  0  0
  1  7  1  0  0  0  0
  2  3  1  0  0  0  0
  2  4  2  0  0  0  0
  4  5  1  0  0  0  0
  5  6  2  0  0  0  0
  5 11  1  0  0  0  0
  6  7  1  0  0  0  0
  6  9  1  0  0  0  0
  7  8  2  0  0  0  0
  9 10  2  0  0  0  0
  9 12  1  0  0  0  0
 10 11  1  0  0  0  0
 12 13  1  0  0  0  0
M  END
>  <CHROM.1>
-142.06721480,4.02351918,14.91855925,43.83340974,2.37648119,-0.22022194,-0.00060057

>  <Name>
ligand

>  <RI>
0

>  <Rbt.Current_Directory>
/home/itssahil/PROJECTS/Mol_Feturizer/Test_systems_manuscript/rnas/4jf2

>  <Rbt.Executable>
rbdock ($Id: //depot/dev/client3/rdock/2013.1/src/exe/rbdock.cxx#4 $)

>  <Rbt.Library>
libRbt.so (2013.1, Build901 2013/11/27)

>  <Rbt.Parameter_File>
/export/apps/rDock/src/rDock_2013.1_src/data/scripts/dock_solv.prm

>  <Rbt.Receptor>
prm/blind_docking_60.prm

>  <SCORE>
-13.8458

>  <SCORE.INTER>
-13.3848

>  <SCORE.INTER.CONST>
1

>  <SCORE.INTER.POLAR>
0

>  <SCORE.INTER.ROT>
1

>  <SCORE.INTER.SOLV>
9.83449

>  <SCORE.INTER.VDW>
-16.468

>  <SCORE.INTER.norm>
-1.0296

>  <SCORE.INTRA>
-0.461407

>  <SCORE.INTRA.DIHEDRAL>
-0.175128

>  <SCORE.INTRA.DIHEDRAL.0>
1.75624

>  <SCORE.INTRA.POLAR>
0

>  <SCORE.INTRA.POLAR.0>
0

>  <SCORE.INTRA.REPUL>
0

>  <SCORE.INTRA.REPUL.0>
0

>  <SCORE.INTRA.SOLV>
-1.03728

>  <SCORE.INTRA.SOLV.lig_0>
-46.5296

>  <SCORE.INTRA.VDW>
0.144796

>  <SCORE.INTRA.VDW.0>
-0.381873

>  <SCORE.INTRA.norm>
-0.0354928

>  <SCORE.RESTR>
0.000480698

>  <SCORE.RESTR.CAVITY>
0.000480698

>  <SCORE.RESTR.norm>
3.69768e-05

>  <SCORE.SYSTEM>
0

>  <SCORE.SYSTEM.CONST>
0

>  <SCORE.SYSTEM.DIHEDRAL>
0

>  <SCORE.SYSTEM.SOLV>
0

>  <SCORE.SYSTEM.norm>
0

>  <SCORE.heavy>
13

>  <SCORE.norm>
-1.06506

>  <RMSD>
20.728

$$$$
ligand
 OpenBabel02271912143D
libRbt.so/2013.1/901 2013/11/27
 13 14  0  0  0  0  0  0  0  0999 V2000
    1.8681   15.3661   43.3803 N   0  0  0  0  0  0  0  0  0  0  0  0
    2.2270   16.7200   43.4818 C   0  0  0  0  0  0  0  0  0  0  0  0
    1.2130   17.7377   43.3284 N   0  0  0  0  0  0  0  0  0  0  0  0
    3.5324   17.0742   43.7364 N   0  0  0  0  0  0  0  0  0  0  0  0
    4.5537   16.1020   43.8931 C   0  0  0  0  0  0  0  0  0  0  0  0
    4.2238   14.7079   43.7731 C   0  0  0  0  0  0  0  0  0  0  0  0
    2.8455   14.3723   43.4979 C   0  0  0  0  0  0  0  0  0  0  0  0
    2.5412   13.0435   43.3956 O   0  0  0  0  0  0  0  0  0  0  0  0
    5.4273   13.9348   43.9764 C   0  0  0  0  0  0  0  0  0  0  0  0
    6.4284   14.8842   44.1878 C   0  0  0  0  0  0  0  0  0  0  0  0
    5.9011   16.1621   44.1458 N   0  0  0  0  0  0  0  0  0  0  0  0
    5.5764   12.4270   43.9198 C   0  0  0  0  0  0  0  0  0  0  0  0
    6.5002   11.8993   44.9215 N   0  0  0  0  0  0  0  0  0  0  0  0
  1  2  1  0  0  0  0
  1  7  1  0  0  0  0
  2  3  1  0  0  0  0
  2  4  2  0  0  0  0
  4  5  1  0  0  0  0
  5  6  2  0  0  0  0
  5 11  1  0  0  0  0
  6  7  1  0  0  0  0
  6  9  1  0  0  0  0
  7  8  2  0  0  0  0
  9 10  2  0  0  0  0
  9 12  1  0  0  0  0
 10 11  1  0  0  0  0
 12 13  1  0  0  0  0
M  END
>  <CHROM.1>
-142.17035773,4.03171268,14.92237658,43.81457117,2.37117669,-0.21400564,-0.00980474

>  <Name>
ligand

>  <RI>
0

>  <Rbt.Current_Directory>
/home/itssahil/PROJECTS/Mol_Feturizer/Test_systems_manuscript/rnas/4jf2

>  <Rbt.Executable>
rbdock ($Id: //depot/dev/client3/rdock/2013.1/src/exe/rbdock.cxx#4 $)

>  <Rbt.Library>
libRbt.so (2013.1, Build901 2013/11/27)

>  <Rbt.Parameter_File>
/export/apps/rDock/src/rDock_2013.1_src/data/scripts/dock_solv.prm

>  <Rbt.Receptor>
prm/blind_docking_60.prm

>  <SCORE>
-13.8617

>  <SCORE.INTER>
-13.4012

>  <SCORE.INTER.CONST>
1

>  <SCORE.INTER.POLAR>
0

>  <SCORE.INTER.ROT>
1

>  <SCORE.INTER.SOLV>
9.82477

>  <SCORE.INTER.VDW>
-16.4757

>  <SCORE.INTER.norm>
-1.03086

>  <SCORE.INTRA>
-0.461307

>  <SCORE.INTRA.DIHEDRAL>
-0.175406

>  <SCORE.INTRA.DIHEDRAL.0>
1.75624

>  <SCORE.INTRA.POLAR>
0

>  <SCORE.INTRA.POLAR.0>
0

>  <SCORE.INTRA.REPUL>
0

>  <SCORE.INTRA.REPUL.0>
0

>  <SCORE.INTRA.SOLV>
-1.03721

>  <SCORE.INTRA.SOLV.lig_0>
-46.5296

>  <SCORE.INTRA.VDW>
0.145003

>  <SCORE.INTRA.VDW.0>
-0.381873

>  <SCORE.INTRA.norm>
-0.0354851

>  <SCORE.RESTR>
0.000854122

>  <SCORE.RESTR.CAVITY>
0.000854122

>  <SCORE.RESTR.norm>
6.57017e-05

>  <SCORE.SYSTEM>
0

>  <SCORE.SYSTEM.CONST>
0

>  <SCORE.SYSTEM.DIHEDRAL>
0

>  <SCORE.SYSTEM.SOLV>
0

>  <SCORE.SYSTEM.norm>
0

>  <SCORE.heavy>
13

>  <SCORE.norm>
-1.06628

>  <RMSD>
20.737

$$$$
ligand
 OpenBabel02271912143D
libRbt.so/2013.1/901 2013/11/27
 13 14  0  0  0  0  0  0  0  0999 V2000
    1.8527   15.3401   43.3859 N   0  0  0  0  0  0  0  0  0  0  0  0
    2.1975   16.6968   43.4984 C   0  0  0  0  0  0  0  0  0  0  0  0
    1.1721   17.7049   43.3579 N   0  0  0  0  0  0  0  0  0  0  0  0
    3.4999   17.0627   43.7514 N   0  0  0  0  0  0  0  0  0  0  0  0
    4.5322   16.1002   43.8956 C   0  0  0  0  0  0  0  0  0  0  0  0
    4.2168   14.7037   43.7641 C   0  0  0  0  0  0  0  0  0  0  0  0
    2.8411   14.3558   43.4909 C   0  0  0  0  0  0  0  0  0  0  0  0
    2.5507   13.0248   43.3776 O   0  0  0  0  0  0  0  0  0  0  0  0
    5.4292   13.9417   43.9560 C   0  0  0  0  0  0  0  0  0  0  0  0
    6.4209   14.8999   44.1724 C   0  0  0  0  0  0  0  0  0  0  0  0
    5.8798   16.1724   44.1439 N   0  0  0  0  0  0  0  0  0  0  0  0
    5.5942   12.4363   43.8852 C   0  0  0  0  0  0  0  0  0  0  0  0
    6.4774   11.9021   44.9195 N   0  0  0  0  0  0  0  0  0  0  0  0
  1  2  1  0  0  0  0
  1  7  1  0  0  0  0
  2  3  1  0  0  0  0
  2  4  2  0  0  0  0
  4  5  1  0  0  0  0
  5  6  2  0  0  0  0
  5 11  1  0  0  0  0
  6  7  1  0  0  0  0
  6  9  1  0  0  0  0
  7  8  2  0  0  0  0
  9 10  2  0  0  0  0
  9 12  1  0  0  0  0
 10 11  1  0  0  0  0
 12 13  1  0  0  0  0
M  END
>  <CHROM.1>
-139.39817325,4.01848393,14.91515519,43.81156631,2.37816561,-0.21147120,-0.00203590

>  <Name>
ligand

>  <RI>
-1

>  <Rbt.Current_Directory>
/home/itssahil/PROJECTS/Mol_Feturizer/Test_systems_manuscript/rnas/4jf2

>  <Rbt.Executable>
rbdock ($Id: //depot/dev/client3/rdock/2013.1/src/exe/rbdock.cxx#4 $)

>  <Rbt.Library>
libRbt.so (2013.1, Build901 2013/11/27)

>  <Rbt.Parameter_File>
/export/apps/rDock/src/rDock_2013.1_src/data/scripts/dock_solv.prm

>  <Rbt.Receptor>
prm/blind_docking_80.prm

>  <SCORE>
-13.8368

>  <SCORE.INTER>
-13.3734

>  <SCORE.INTER.CONST>
1

>  <SCORE.INTER.POLAR>
0

>  <SCORE.INTER.ROT>
1

>  <SCORE.INTER.SOLV>
9.84189

>  <SCORE.INTER.VDW>
-16.4629

>  <SCORE.INTER.norm>
-1.02872

>  <SCORE.INTRA>
-0.463463

>  <SCORE.INTRA.DIHEDRAL>
-0.166961

>  <SCORE.INTRA.DIHEDRAL.0>
1.75624

>  <SCORE.INTRA.POLAR>
0

>  <SCORE.INTRA.POLAR.0>
0

>  <SCORE.INTRA.REPUL>
0

>  <SCORE.INTRA.REPUL.0>
0

>  <SCORE.INTRA.SOLV>
-1.03893

>  <SCORE.INTRA.SOLV.lig_0>
-46.5296

>  <SCORE.INTRA.VDW>
0.139483

>  <SCORE.INTRA.VDW.0>
-0.381873

>  <SCORE.INTRA.norm>
-0.035651

>  <SCORE.RESTR>
0

>  <SCORE.RESTR.CAVITY>
0

>  <SCORE.RESTR.norm>
0

>  <SCORE.SYSTEM>
0

>  <SCORE.SYSTEM.CONST>
0

>  <SCORE.SYSTEM.DIHEDRAL>
0

>  <SCORE.SYSTEM.SOLV>
0

>  <SCORE.SYSTEM.norm>
0

>  <SCORE.heavy>
13

>  <SCORE.norm>
-1.06437

>  <RMSD>
20.739

$$$$
ligand
 OpenBabel02271912143D
libRbt.so/2013.1/901 2013/11/27
 13 14  0  0  0  0  0  0  0  0999 V2000
    1.8703   15.3586   43.3959 N   0  0  0  0  0  0  0  0  0  0  0  0
    2.2241   16.7135   43.5011 C   0  0  0  0  0  0  0  0  0  0  0  0
    1.2044   17.7275   43.3609 N   0  0  0  0  0  0  0  0  0  0  0  0
    3.5299   17.0723   43.7467 N   0  0  0  0  0  0  0  0  0  0  0  0
    4.5567   16.1039   43.8904 C   0  0  0  0  0  0  0  0  0  0  0  0
    4.2320   14.7089   43.7663 C   0  0  0  0  0  0  0  0  0  0  0  0
    2.8530   14.3685   43.5007 C   0  0  0  0  0  0  0  0  0  0  0  0
    2.5536   13.0389   43.3945 O   0  0  0  0  0  0  0  0  0  0  0  0
    5.4405   13.9401   43.9561 C   0  0  0  0  0  0  0  0  0  0  0  0
    6.4391   14.8929   44.1638 C   0  0  0  0  0  0  0  0  0  0  0  0
    5.9059   16.1687   44.1323 N   0  0  0  0  0  0  0  0  0  0  0  0
    5.5956   12.4333   43.8910 C   0  0  0  0  0  0  0  0  0  0  0  0
    6.5014   11.9009   44.9065 N   0  0  0  0  0  0  0  0  0  0  0  0
  1  2  1  0  0  0  0
  1  7  1  0  0  0  0
  2  3  1  0  0  0  0
  2  4  2  0  0  0  0
  4  5  1  0  0  0  0
  5  6  2  0  0  0  0
  5 11  1  0  0  0  0
  6  7  1  0  0  0  0
  6  9  1  0  0  0  0
  7  8  2  0  0  0  0
  9 10  2  0  0  0  0
  9 12  1  0  0  0  0
 10 11  1  0  0  0  0
 12 13  1  0  0  0  0
M  END
>  <CHROM.1>
-140.56800986,4.03697116,14.92200671,43.81233657,2.37344425,-0.20652098,-0.00612675

>  <Name>
ligand

>  <RI>
-1

>  <Rbt.Current_Directory>
/home/itssahil/PROJECTS/Mol_Feturizer/Test_systems_manuscript/rnas/4jf2

>  <Rbt.Executable>
rbdock ($Id: //depot/dev/client3/rdock/2013.1/src/exe/rbdock.cxx#4 $)

>  <Rbt.Library>
libRbt.so (2013.1, Build901 2013/11/27)

>  <Rbt.Parameter_File>
/export/apps/rDock/src/rDock_2013.1_src/data/scripts/dock_solv.prm

>  <Rbt.Receptor>
prm/blind_docking_80.prm

>  <SCORE>
-13.8846

>  <SCORE.INTER>
-13.4223

>  <SCORE.INTER.CONST>
1

>  <SCORE.INTER.POLAR>
0

>  <SCORE.INTER.ROT>
1

>  <SCORE.INTER.SOLV>
9.76417

>  <SCORE.INTER.VDW>
-16.4696

>  <SCORE.INTER.norm>
-1.03248

>  <SCORE.INTRA>
-0.462686

>  <SCORE.INTRA.DIHEDRAL>
-0.170768

>  <SCORE.INTRA.DIHEDRAL.0>
1.75624

>  <SCORE.INTRA.POLAR>
0

>  <SCORE.INTRA.POLAR.0>
0

>  <SCORE.INTRA.REPUL>
0

>  <SCORE.INTRA.REPUL.0>
0

>  <SCORE.INTRA.SOLV>
-1.03821

>  <SCORE.INTRA.SOLV.lig_0>
-46.5296

>  <SCORE.INTRA.VDW>
0.141803

>  <SCORE.INTRA.VDW.0>
-0.381873

>  <SCORE.INTRA.norm>
-0.0355912

>  <SCORE.RESTR>
0.000315421

>  <SCORE.RESTR.CAVITY>
0.000315421

>  <SCORE.RESTR.norm>
2.42632e-05

>  <SCORE.SYSTEM>
0

>  <SCORE.SYSTEM.CONST>
0

>  <SCORE.SYSTEM.DIHEDRAL>
0

>  <SCORE.SYSTEM.SOLV>
0

>  <SCORE.SYSTEM.norm>
0

>  <SCORE.heavy>
13

>  <SCORE.norm>
-1.06805

>  <RMSD>
20.741

$$$$
ligand
 OpenBabel02271912143D
libRbt.so/2013.1/901 2013/11/27
 13 14  0  0  0  0  0  0  0  0999 V2000
    1.8570   15.3264   43.3914 N   0  0  0  0  0  0  0  0  0  0  0  0
    2.1971   16.6840   43.5075 C   0  0  0  0  0  0  0  0  0  0  0  0
    1.1679   17.6889   43.3719 N   0  0  0  0  0  0  0  0  0  0  0  0
    3.4987   17.0537   43.7593 N   0  0  0  0  0  0  0  0  0  0  0  0
    4.5346   16.0944   43.8988 C   0  0  0  0  0  0  0  0  0  0  0  0
    4.2240   14.6973   43.7634 C   0  0  0  0  0  0  0  0  0  0  0  0
    2.8491   14.3453   43.4916 C   0  0  0  0  0  0  0  0  0  0  0  0
    2.5632   13.0137   43.3747 O   0  0  0  0  0  0  0  0  0  0  0  0
    5.4395   13.9390   43.9509 C   0  0  0  0  0  0  0  0  0  0  0  0
    6.4281   14.9001   44.1685 C   0  0  0  0  0  0  0  0  0  0  0  0
    5.8824   16.1707   44.1449 N   0  0  0  0  0  0  0  0  0  0  0  0
    5.6097   12.4344   43.8752 C   0  0  0  0  0  0  0  0  0  0  0  0
    6.5006   11.9008   44.9031 N   0  0  0  0  0  0  0  0  0  0  0  0
  1  2  1  0  0  0  0
  1  7  1  0  0  0  0
  2  3  1  0  0  0  0
  2  4  2  0  0  0  0
  4  5  1  0  0  0  0
  5  6  2  0  0  0  0
  5 11  1  0  0  0  0
  6  7  1  0  0  0  0
  6  9  1  0  0  0  0
  7  8  2  0  0  0  0
  9 10  2  0  0  0  0
  9 12  1  0  0  0  0
 10 11  1  0  0  0  0
 12 13  1  0  0  0  0
M  END
>  <CHROM.1>
-139.61568773,4.02533948,14.90790707,43.81167700,2.38212692,-0.20963043,0.00209152

>  <Name>
ligand

>  <RI>
0

>  <Rbt.Current_Directory>
/home/itssahil/PROJECTS/Mol_Feturizer/Test_systems_manuscript/rnas/4jf2

>  <Rbt.Executable>
rbdock ($Id: //depot/dev/client3/rdock/2013.1/src/exe/rbdock.cxx#4 $)

>  <Rbt.Library>
libRbt.so (2013.1, Build901 2013/11/27)

>  <Rbt.Parameter_File>
/export/apps/rDock/src/rDock_2013.1_src/data/scripts/dock_solv.prm

>  <Rbt.Receptor>
prm/blind_docking_60.prm

>  <SCORE>
-13.8913

>  <SCORE.INTER>
-13.428

>  <SCORE.INTER.CONST>
1

>  <SCORE.INTER.POLAR>
0

>  <SCORE.INTER.ROT>
1

>  <SCORE.INTER.SOLV>
9.76828

>  <SCORE.INTER.VDW>
-16.4747

>  <SCORE.INTER.norm>
-1.03292

>  <SCORE.INTRA>
-0.463333

>  <SCORE.INTRA.DIHEDRAL>
-0.167695

>  <SCORE.INTRA.DIHEDRAL.0>
1.75624

>  <SCORE.INTRA.POLAR>
0

>  <SCORE.INTRA.POLAR.0>
0

>  <SCORE.INTRA.REPUL>
0

>  <SCORE.INTRA.REPUL.0>
0

>  <SCORE.INTRA.SOLV>
-1.0388

>  <SCORE.INTRA.SOLV.lig_0>
-46.5296

>  <SCORE.INTRA.VDW>
0.139913

>  <SCORE.INTRA.VDW.0>
-0.381873

>  <SCORE.INTRA.norm>
-0.035641

>  <SCORE.RESTR>
0

>  <SCORE.RESTR.CAVITY>
0

>  <SCORE.RESTR.norm>
0

>  <SCORE.SYSTEM>
0

>  <SCORE.SYSTEM.CONST>
0

>  <SCORE.SYSTEM.DIHEDRAL>
0

>  <SCORE.SYSTEM.SOLV>
0

>  <SCORE.SYSTEM.norm>
0

>  <SCORE.heavy>
13

>  <SCORE.norm>
-1.06856

>  <RMSD>
20.747

$$$$
ligand
 OpenBabel02271912143D
libRbt.so/2013.1/901 2013/11/27
 13 14  0  0  0  0  0  0  0  0999 V2000
    1.8705   15.3167   43.3857 N   0  0  0  0  0  0  0  0  0  0  0  0
    2.2177   16.6745   43.4752 C   0  0  0  0  0  0  0  0  0  0  0  0
    1.1959   17.6821   43.3076 N   0  0  0  0  0  0  0  0  0  0  0  0
    3.5190   17.0422   43.7314 N   0  0  0  0  0  0  0  0  0  0  0  0
    4.5478   16.0801   43.9019 C   0  0  0  0  0  0  0  0  0  0  0  0
    4.2300   14.6822   43.7944 C   0  0  0  0  0  0  0  0  0  0  0  0
    2.8557   14.3323   43.5171 C   0  0  0  0  0  0  0  0  0  0  0  0
    2.5628   13.0001   43.4268 O   0  0  0  0  0  0  0  0  0  0  0  0
    5.4391   13.9212   44.0103 C   0  0  0  0  0  0  0  0  0  0  0  0
    6.4314   14.8810   44.2161 C   0  0  0  0  0  0  0  0  0  0  0  0
    5.8936   16.1540   44.1593 N   0  0  0  0  0  0  0  0  0  0  0  0
    5.6009   12.4143   43.9693 C   0  0  0  0  0  0  0  0  0  0  0  0
    6.4839   11.8990   45.0133 N   0  0  0  0  0  0  0  0  0  0  0  0
  1  2  1  0  0  0  0
  1  7  1  0  0  0  0
  2  3  1  0  0  0  0
  2  4  2  0  0  0  0
  4  5  1  0  0  0  0
  5  6  2  0  0  0  0
  5 11  1  0  0  0  0
  6  7  1  0  0  0  0
  6  9  1  0  0  0  0
  7  8  2  0  0  0  0
  9 10  2  0  0  0  0
  9 12  1  0  0  0  0
 10 11  1  0  0  0  0
 12 13  1  0  0  0  0
M  END
>  <CHROM.1>
-139.89567569,4.03259892,14.89502949,43.83572440,2.37638479,-0.21906604,-0.02091321

>  <Name>
ligand

>  <RI>
-1

>  <Rbt.Current_Directory>
/home/itssahil/PROJECTS/Mol_Feturizer/Test_systems_manuscript/rnas/4jf2

>  <Rbt.Executable>
rbdock ($Id: //depot/dev/client3/rdock/2013.1/src/exe/rbdock.cxx#4 $)

>  <Rbt.Library>
libRbt.so (2013.1, Build901 2013/11/27)

>  <Rbt.Parameter_File>
/export/apps/rDock/src/rDock_2013.1_src/data/scripts/dock_solv.prm

>  <Rbt.Receptor>
prm/blind_docking_80.prm

>  <SCORE>
-13.8008

>  <SCORE.INTER>
-13.3387

>  <SCORE.INTER.CONST>
1

>  <SCORE.INTER.POLAR>
0

>  <SCORE.INTER.ROT>
1

>  <SCORE.INTER.SOLV>
10.0285

>  <SCORE.INTER.VDW>
-16.502

>  <SCORE.INTER.norm>
-1.02605

>  <SCORE.INTRA>
-0.463156

>  <SCORE.INTRA.DIHEDRAL>
-0.168622

>  <SCORE.INTRA.DIHEDRAL.0>
1.75624

>  <SCORE.INTRA.POLAR>
0

>  <SCORE.INTRA.POLAR.0>
0

>  <SCORE.INTRA.REPUL>
0

>  <SCORE.INTRA.REPUL.0>
0

>  <SCORE.INTRA.SOLV>
-1.03863

>  <SCORE.INTRA.SOLV.lig_0>
-46.5296

>  <SCORE.INTRA.VDW>
0.140468

>  <SCORE.INTRA.VDW.0>
-0.381873

>  <SCORE.INTRA.norm>
-0.0356274

>  <SCORE.RESTR>
0.00100622

>  <SCORE.RESTR.CAVITY>
0.00100622

>  <SCORE.RESTR.norm>
7.74018e-05

>  <SCORE.SYSTEM>
0

>  <SCORE.SYSTEM.CONST>
0

>  <SCORE.SYSTEM.DIHEDRAL>
0

>  <SCORE.SYSTEM.SOLV>
0

>  <SCORE.SYSTEM.norm>
0

>  <SCORE.heavy>
13

>  <SCORE.norm>
-1.0616

>  <RMSD>
20.749

$$$$
ligand
 OpenBabel02271912143D
libRbt.so/2013.1/901 2013/11/27
 13 14  0  0  0  0  0  0  0  0999 V2000
    1.8724   15.3314   43.3824 N   0  0  0  0  0  0  0  0  0  0  0  0
    2.2163   16.6886   43.4917 C   0  0  0  0  0  0  0  0  0  0  0  0
    1.1900   17.6957   43.3504 N   0  0  0  0  0  0  0  0  0  0  0  0
    3.5188   17.0560   43.7424 N   0  0  0  0  0  0  0  0  0  0  0  0
    4.5519   16.0945   43.8872 C   0  0  0  0  0  0  0  0  0  0  0  0
    4.2374   14.6976   43.7589 C   0  0  0  0  0  0  0  0  0  0  0  0
    2.8617   14.3481   43.4881 C   0  0  0  0  0  0  0  0  0  0  0  0
    2.5721   13.0166   43.3779 O   0  0  0  0  0  0  0  0  0  0  0  0
    5.4507   13.9369   43.9509 C   0  0  0  0  0  0  0  0  0  0  0  0
    6.4419   14.8962   44.1641 C   0  0  0  0  0  0  0  0  0  0  0  0
    5.8998   16.1683   44.1337 N   0  0  0  0  0  0  0  0  0  0  0  0
    5.6167   12.4314   43.8830 C   0  0  0  0  0  0  0  0  0  0  0  0
    6.4997   11.8997   44.9187 N   0  0  0  0  0  0  0  0  0  0  0  0
  1  2  1  0  0  0  0
  1  7  1  0  0  0  0
  2  3  1  0  0  0  0
  2  4  2  0  0  0  0
  4  5  1  0  0  0  0
  5  6  2  0  0  0  0
  5 11  1  0  0  0  0
  6  7  1  0  0  0  0
  6  9  1  0  0  0  0
  7  8  2  0  0  0  0
  9 10  2  0  0  0  0
  9 12  1  0  0  0  0
 10 11  1  0  0  0  0
 12 13  1  0  0  0  0
M  END
>  <CHROM.1>
-139.29396664,4.03886322,14.90892158,43.80635658,2.37878021,-0.21027609,-0.00405116

>  <Name>
ligand

>  <RI>
-1

>  <Rbt.Current_Directory>
/home/itssahil/PROJECTS/Mol_Feturizer/Test_systems_manuscript/rnas/4jf2

>  <Rbt.Executable>
rbdock ($Id: //depot/dev/client3/rdock/2013.1/src/exe/rbdock.cxx#4 $)

>  <Rbt.Library>
libRbt.so (2013.1, Build901 2013/11/27)

>  <Rbt.Parameter_File>
/export/apps/rDock/src/rDock_2013.1_src/data/scripts/dock_solv.prm

>  <Rbt.Receptor>
prm/blind_docking_80.prm

>  <SCORE>
-13.8868

>  <SCORE.INTER>
-13.4236

>  <SCORE.INTER.CONST>
1

>  <SCORE.INTER.POLAR>
0

>  <SCORE.INTER.ROT>
1

>  <SCORE.INTER.SOLV>
9.81068

>  <SCORE.INTER.VDW>
-16.486

>  <SCORE.INTER.norm>
-1.03258

>  <SCORE.INTRA>
-0.463524

>  <SCORE.INTRA.DIHEDRAL>
-0.166605

>  <SCORE.INTRA.DIHEDRAL.0>
1.75624

>  <SCORE.INTRA.POLAR>
0

>  <SCORE.INTRA.POLAR.0>
0

>  <SCORE.INTRA.REPUL>
0

>  <SCORE.INTRA.REPUL.0>
0

>  <SCORE.INTRA.SOLV>
-1.039

>  <SCORE.INTRA.SOLV.lig_0>
-46.5296

>  <SCORE.INTRA.VDW>
0.139278

>  <SCORE.INTRA.VDW.0>
-0.381873

>  <SCORE.INTRA.norm>
-0.0356557

>  <SCORE.RESTR>
0.000317965

>  <SCORE.RESTR.CAVITY>
0.000317965

>  <SCORE.RESTR.norm>
2.44589e-05

>  <SCORE.SYSTEM>
0

>  <SCORE.SYSTEM.CONST>
0

>  <SCORE.SYSTEM.DIHEDRAL>
0

>  <SCORE.SYSTEM.SOLV>
0

>  <SCORE.SYSTEM.norm>
0

>  <SCORE.heavy>
13

>  <SCORE.norm>
-1.06822

>  <RMSD>
20.755

$$$$
ligand
 OpenBabel02271912143D
libRbt.so/2013.1/901 2013/11/27
 13 14  0  0  0  0  0  0  0  0999 V2000
    1.8494   15.2955   43.3719 N   0  0  0  0  0  0  0  0  0  0  0  0
    2.1778   16.6555   43.4934 C   0  0  0  0  0  0  0  0  0  0  0  0
    1.1415   17.6524   43.3532 N   0  0  0  0  0  0  0  0  0  0  0  0
    3.4747   17.0350   43.7549 N   0  0  0  0  0  0  0  0  0  0  0  0
    4.5173   16.0837   43.8991 C   0  0  0  0  0  0  0  0  0  0  0  0
    4.2188   14.6844   43.7585 C   0  0  0  0  0  0  0  0  0  0  0  0
    2.8486   14.3222   43.4765 C   0  0  0  0  0  0  0  0  0  0  0  0
    2.5741   12.9885   43.3547 O   0  0  0  0  0  0  0  0  0  0  0  0
    5.4390   13.9355   43.9524 C   0  0  0  0  0  0  0  0  0  0  0  0
    6.4184   14.9039   44.1789 C   0  0  0  0  0  0  0  0  0  0  0  0
    5.8627   16.1702   44.1546 N   0  0  0  0  0  0  0  0  0  0  0  0
    5.6217   12.4324   43.8744 C   0  0  0  0  0  0  0  0  0  0  0  0
    6.5034   11.9025   44.9121 N   0  0  0  0  0  0  0  0  0  0  0  0
  1  2  1  0  0  0  0
  1  7  1  0  0  0  0
  2  3  1  0  0  0  0
  2  4  2  0  0  0  0
  4  5  1  0  0  0  0
  5  6  2  0  0  0  0
  5 11  1  0  0  0  0
  6  7  1  0  0  0  0
  6  9  1  0  0  0  0
  7  8  2  0  0  0  0
  9 10  2  0  0  0  0
  9 12  1  0  0  0  0
 10 11  1  0  0  0  0
 12 13  1  0  0  0  0
M  END
>  <CHROM.1>
-139.26306812,4.01758438,14.89327681,43.80627366,2.38981221,-0.21648399,0.00570059

>  <Name>
ligand

>  <RI>
-1

>  <Rbt.Current_Directory>
/home/itssahil/PROJECTS/Mol_Feturizer/Test_systems_manuscript/rnas/4jf2

>  <Rbt.Executable>
rbdock ($Id: //depot/dev/client3/rdock/2013.1/src/exe/rbdock.cxx#4 $)

>  <Rbt.Library>
libRbt.so (2013.1, Build901 2013/11/27)

>  <Rbt.Parameter_File>
/export/apps/rDock/src/rDock_2013.1_src/data/scripts/dock_solv.prm

>  <Rbt.Receptor>
prm/blind_docking_80.prm

>  <SCORE>
-13.8192

>  <SCORE.INTER>
-13.3562

>  <SCORE.INTER.CONST>
1

>  <SCORE.INTER.POLAR>
0

>  <SCORE.INTER.ROT>
1

>  <SCORE.INTER.SOLV>
9.80641

>  <SCORE.INTER.VDW>
-16.4396

>  <SCORE.INTER.norm>
-1.0274

>  <SCORE.INTRA>
-0.463541

>  <SCORE.INTRA.DIHEDRAL>
-0.166499

>  <SCORE.INTRA.DIHEDRAL.0>
1.75624

>  <SCORE.INTRA.POLAR>
0

>  <SCORE.INTRA.POLAR.0>
0

>  <SCORE.INTRA.REPUL>
0

>  <SCORE.INTRA.REPUL.0>
0

>  <SCORE.INTRA.SOLV>
-1.03902

>  <SCORE.INTRA.SOLV.lig_0>
-46.5296

>  <SCORE.INTRA.VDW>
0.139217

>  <SCORE.INTRA.VDW.0>
-0.381873

>  <SCORE.INTRA.norm>
-0.035657

>  <SCORE.RESTR>
0.000581096

>  <SCORE.RESTR.CAVITY>
0.000581096

>  <SCORE.RESTR.norm>
4.46997e-05

>  <SCORE.SYSTEM>
0

>  <SCORE.SYSTEM.CONST>
0

>  <SCORE.SYSTEM.DIHEDRAL>
0

>  <SCORE.SYSTEM.SOLV>
0

>  <SCORE.SYSTEM.norm>
0

>  <SCORE.heavy>
13

>  <SCORE.norm>
-1.06302

>  <RMSD>
20.759

$$$$
ligand
 OpenBabel02271912143D
libRbt.so/2013.1/901 2013/11/27
 13 14  0  0  0  0  0  0  0  0999 V2000
    4.4502   17.0650   43.8571 N   0  0  0  0  0  0  0  0  0  0  0  0
    3.0574   17.0324   43.6808 C   0  0  0  0  0  0  0  0  0  0  0  0
    2.3204   18.2732   43.6112 N   0  0  0  0  0  0  0  0  0  0  0  0
    2.4010   15.8283   43.5644 N   0  0  0  0  0  0  0  0  0  0  0  0
    3.0924   14.5910   43.6276 C   0  0  0  0  0  0  0  0  0  0  0  0
    4.5158   14.5887   43.8295 C   0  0  0  0  0  0  0  0  0  0  0  0
    5.1713   15.8703   43.9554 C   0  0  0  0  0  0  0  0  0  0  0  0
    6.5262   15.8567   44.1371 O   0  0  0  0  0  0  0  0  0  0  0  0
    4.9716   13.2179   43.8521 C   0  0  0  0  0  0  0  0  0  0  0  0
    3.8142   12.4555   43.6858 C   0  0  0  0  0  0  0  0  0  0  0  0
    2.7096   13.2759   43.5449 N   0  0  0  0  0  0  0  0  0  0  0  0
    6.3879   12.7195   44.0627 C   0  0  0  0  0  0  0  0  0  0  0  0
    6.5932   12.0958   45.3681 N   0  0  0  0  0  0  0  0  0  0  0  0
  1  2  1  0  0  0  0
  1  7  1  0  0  0  0
  2  3  1  0  0  0  0
  2  4  2  0  0  0  0
  4  5  1  0  0  0  0
  5  6  2  0  0  0  0
  5 11  1  0  0  0  0
  6  7  1  0  0  0  0
  6  9  1  0  0  0  0
  7  8  2  0  0  0  0
  9 10  2  0  0  0  0
  9 12  1  0  0  0  0
 10 11  1  0  0  0  0
 12 13  1  0  0  0  0
M  END
>  <CHROM.1>
107.76895071,4.34870950,14.86236797,43.91791346,-2.13115845,0.21713580,3.11074412

>  <Name>
ligand

>  <RI>
-1

>  <Rbt.Current_Directory>
/home/itssahil/PROJECTS/Mol_Feturizer/Test_systems_manuscript/rnas/4jf2

>  <Rbt.Executable>
rbdock ($Id: //depot/dev/client3/rdock/2013.1/src/exe/rbdock.cxx#4 $)

>  <Rbt.Library>
libRbt.so (2013.1, Build901 2013/11/27)

>  <Rbt.Parameter_File>
/export/apps/rDock/src/rDock_2013.1_src/data/scripts/dock_solv.prm

>  <Rbt.Receptor>
prm/blind_docking_80.prm

>  <SCORE>
-13.1533

>  <SCORE.INTER>
-12.8072

>  <SCORE.INTER.CONST>
1

>  <SCORE.INTER.POLAR>
0

>  <SCORE.INTER.ROT>
1

>  <SCORE.INTER.SOLV>
11.7853

>  <SCORE.INTER.VDW>
-16.7333

>  <SCORE.INTER.norm>
-0.985171

>  <SCORE.INTRA>
-0.346115

>  <SCORE.INTRA.DIHEDRAL>
-0.13683

>  <SCORE.INTRA.DIHEDRAL.0>
1.75624

>  <SCORE.INTRA.POLAR>
0

>  <SCORE.INTRA.POLAR.0>
0

>  <SCORE.INTRA.REPUL>
0

>  <SCORE.INTRA.REPUL.0>
0

>  <SCORE.INTRA.SOLV>
-0.719216

>  <SCORE.INTRA.SOLV.lig_0>
-46.5296

>  <SCORE.INTRA.VDW>
0.081908

>  <SCORE.INTRA.VDW.0>
-0.381873

>  <SCORE.INTRA.norm>
-0.0266242

>  <SCORE.RESTR>
0

>  <SCORE.RESTR.CAVITY>
0

>  <SCORE.RESTR.norm>
0

>  <SCORE.SYSTEM>
0

>  <SCORE.SYSTEM.CONST>
0

>  <SCORE.SYSTEM.DIHEDRAL>
0

>  <SCORE.SYSTEM.SOLV>
0

>  <SCORE.SYSTEM.norm>
0

>  <SCORE.heavy>
13

>  <SCORE.norm>
-1.01179

>  <RMSD>
20.775

$$$$
ligand
 OpenBabel02271912143D
libRbt.so/2013.1/901 2013/11/27
 13 14  0  0  0  0  0  0  0  0999 V2000
    3.6155   16.9459   43.7698 N   0  0  0  0  0  0  0  0  0  0  0  0
    2.2664   16.6605   43.5039 C   0  0  0  0  0  0  0  0  0  0  0  0
    1.3304   17.7474   43.3316 N   0  0  0  0  0  0  0  0  0  0  0  0
    1.8416   15.3557   43.3976 N   0  0  0  0  0  0  0  0  0  0  0  0
    2.7327   14.2638   43.5604 C   0  0  0  0  0  0  0  0  0  0  0  0
    4.1160   14.5212   43.8553 C   0  0  0  0  0  0  0  0  0  0  0  0
    4.5258   15.9024   43.9676 C   0  0  0  0  0  0  0  0  0  0  0  0
    5.8453   16.1358   44.2384 O   0  0  0  0  0  0  0  0  0  0  0  0
    4.8022   13.2548   43.9679 C   0  0  0  0  0  0  0  0  0  0  0  0
    3.8116   12.2938   43.7596 C   0  0  0  0  0  0  0  0  0  0  0  0
    2.5934   12.8996   43.5105 N   0  0  0  0  0  0  0  0  0  0  0  0
    6.2649   13.0232   44.2929 C   0  0  0  0  0  0  0  0  0  0  0  0
    6.6007   11.6128   44.4745 N   0  0  0  0  0  0  0  0  0  0  0  0
  1  2  1  0  0  0  0
  1  7  1  0  0  0  0
  2  3  1  0  0  0  0
  2  4  2  0  0  0  0
  4  5  1  0  0  0  0
  5  6  2  0  0  0  0
  5 11  1  0  0  0  0
  6  7  1  0  0  0  0
  6  9  1  0  0  0  0
  7  8  2  0  0  0  0
  9 10  2  0  0  0  0
  9 12  1  0  0  0  0
 10 11  1  0  0  0  0
 12 13  1  0  0  0  0
M  END
>  <CHROM.1>
173.58906540,3.90732642,14.69222591,43.82600871,-2.25386311,0.21266735,-3.13356210

>  <Name>
ligand

>  <RI>
0

>  <Rbt.Current_Directory>
/home/itssahil/PROJECTS/Mol_Feturizer/Test_systems_manuscript/rnas/4jf2

>  <Rbt.Executable>
rbdock ($Id: //depot/dev/client3/rdock/2013.1/src/exe/rbdock.cxx#4 $)

>  <Rbt.Library>
libRbt.so (2013.1, Build901 2013/11/27)

>  <Rbt.Parameter_File>
/export/apps/rDock/src/rDock_2013.1_src/data/scripts/dock_solv.prm

>  <Rbt.Receptor>
prm/blind_docking_100.prm

>  <SCORE>
-11.527

>  <SCORE.INTER>
-11.213

>  <SCORE.INTER.CONST>
1

>  <SCORE.INTER.POLAR>
0

>  <SCORE.INTER.ROT>
1

>  <SCORE.INTER.SOLV>
9.84593

>  <SCORE.INTER.VDW>
-15.024

>  <SCORE.INTER.norm>
-0.862539

>  <SCORE.INTRA>
-0.330897

>  <SCORE.INTRA.DIHEDRAL>
-0.0465624

>  <SCORE.INTRA.DIHEDRAL.0>
1.75624

>  <SCORE.INTRA.POLAR>
0

>  <SCORE.INTRA.POLAR.0>
0

>  <SCORE.INTRA.REPUL>
0

>  <SCORE.INTRA.REPUL.0>
0

>  <SCORE.INTRA.SOLV>
-1.01722

>  <SCORE.INTRA.SOLV.lig_0>
-46.5296

>  <SCORE.INTRA.VDW>
0.200992

>  <SCORE.INTRA.VDW.0>
-0.381873

>  <SCORE.INTRA.norm>
-0.0254536

>  <SCORE.RESTR>
0.0168625

>  <SCORE.RESTR.CAVITY>
0.0168625

>  <SCORE.RESTR.norm>
0.00129711

>  <SCORE.SYSTEM>
0

>  <SCORE.SYSTEM.CONST>
0

>  <SCORE.SYSTEM.DIHEDRAL>
0

>  <SCORE.SYSTEM.SOLV>
0

>  <SCORE.SYSTEM.norm>
0

>  <SCORE.heavy>
13

>  <SCORE.norm>
-0.886695

>  <RMSD>
20.784

$$$$
ligand
 OpenBabel02271912143D
libRbt.so/2013.1/901 2013/11/27
 13 14  0  0  0  0  0  0  0  0999 V2000
    4.4721   17.0674   43.8242 N   0  0  0  0  0  0  0  0  0  0  0  0
    3.0802   17.0301   43.6413 C   0  0  0  0  0  0  0  0  0  0  0  0
    2.3424   18.2685   43.5449 N   0  0  0  0  0  0  0  0  0  0  0  0
    2.4257   15.8233   43.5437 N   0  0  0  0  0  0  0  0  0  0  0  0
    3.1179   14.5881   43.6333 C   0  0  0  0  0  0  0  0  0  0  0  0
    4.5402   14.5911   43.8427 C   0  0  0  0  0  0  0  0  0  0  0  0
    5.1938   15.8755   43.9483 C   0  0  0  0  0  0  0  0  0  0  0  0
    6.5477   15.8667   44.1373 O   0  0  0  0  0  0  0  0  0  0  0  0
    4.9972   13.2214   43.8929 C   0  0  0  0  0  0  0  0  0  0  0  0
    3.8415   12.4548   43.7347 C   0  0  0  0  0  0  0  0  0  0  0  0
    2.7369   13.2713   43.5729 N   0  0  0  0  0  0  0  0  0  0  0  0
    6.4129   12.7284   44.1201 C   0  0  0  0  0  0  0  0  0  0  0  0
    6.6001   12.0864   45.4192 N   0  0  0  0  0  0  0  0  0  0  0  0
  1  2  1  0  0  0  0
  1  7  1  0  0  0  0
  2  3  1  0  0  0  0
  2  4  2  0  0  0  0
  4  5  1  0  0  0  0
  5  6  2  0  0  0  0
  5 11  1  0  0  0  0
  6  7  1  0  0  0  0
  6  9  1  0  0  0  0
  7  8  2  0  0  0  0
  9 10  2  0  0  0  0
  9 12  1  0  0  0  0
 10 11  1  0  0  0  0
 12 13  1  0  0  0  0
M  END
>  <CHROM.1>
109.82294690,4.37146039,14.86263982,43.92361987,-2.12858317,0.22022117,3.09200668

>  <Name>
ligand

>  <RI>
-1

>  <Rbt.Current_Directory>
/home/itssahil/PROJECTS/Mol_Feturizer/Test_systems_manuscript/rnas/4jf2

>  <Rbt.Executable>
rbdock ($Id: //depot/dev/client3/rdock/2013.1/src/exe/rbdock.cxx#4 $)

>  <Rbt.Library>
libRbt.so (2013.1, Build901 2013/11/27)

>  <Rbt.Parameter_File>
/export/apps/rDock/src/rDock_2013.1_src/data/scripts/dock_solv.prm

>  <Rbt.Receptor>
prm/blind_docking_80.prm

>  <SCORE>
-13.0981

>  <SCORE.INTER>
-12.7468

>  <SCORE.INTER.CONST>
1

>  <SCORE.INTER.POLAR>
0

>  <SCORE.INTER.ROT>
1

>  <SCORE.INTER.SOLV>
11.7586

>  <SCORE.INTER.VDW>
-16.684

>  <SCORE.INTER.norm>
-0.98052

>  <SCORE.INTRA>
-0.352099

>  <SCORE.INTRA.DIHEDRAL>
-0.126421

>  <SCORE.INTRA.DIHEDRAL.0>
1.75624

>  <SCORE.INTRA.POLAR>
0

>  <SCORE.INTRA.POLAR.0>
0

>  <SCORE.INTRA.REPUL>
0

>  <SCORE.INTRA.REPUL.0>
0

>  <SCORE.INTRA.SOLV>
-0.749797

>  <SCORE.INTRA.SOLV.lig_0>
-46.5296

>  <SCORE.INTRA.VDW>
0.0860097

>  <SCORE.INTRA.VDW.0>
-0.381873

>  <SCORE.INTRA.norm>
-0.0270846

>  <SCORE.RESTR>
0.000769332

>  <SCORE.RESTR.CAVITY>
0.000769332

>  <SCORE.RESTR.norm>
5.91794e-05

>  <SCORE.SYSTEM>
0

>  <SCORE.SYSTEM.CONST>
0

>  <SCORE.SYSTEM.DIHEDRAL>
0

>  <SCORE.SYSTEM.SOLV>
0

>  <SCORE.SYSTEM.norm>
0

>  <SCORE.heavy>
13

>  <SCORE.norm>
-1.00755

>  <RMSD>
20.784

$$$$
ligand
 OpenBabel02271912143D
libRbt.so/2013.1/901 2013/11/27
 13 14  0  0  0  0  0  0  0  0999 V2000
    6.5514   15.8524   43.9210 N   0  0  0  0  0  0  0  0  0  0  0  0
    7.1848   14.6110   43.7478 C   0  0  0  0  0  0  0  0  0  0  0  0
    8.6276   14.5395   43.7719 N   0  0  0  0  0  0  0  0  0  0  0  0
    6.4366   13.4699   43.5674 N   0  0  0  0  0  0  0  0  0  0  0  0
    5.0185   13.5026   43.5388 C   0  0  0  0  0  0  0  0  0  0  0  0
    4.3396   14.7607   43.6909 C   0  0  0  0  0  0  0  0  0  0  0  0
    5.1561   15.9392   43.8706 C   0  0  0  0  0  0  0  0  0  0  0  0
    4.5000   17.1286   44.0242 O   0  0  0  0  0  0  0  0  0  0  0  0
    2.9160   14.5216   43.6293 C   0  0  0  0  0  0  0  0  0  0  0  0
    2.7950   13.1463   43.4235 C   0  0  0  0  0  0  0  0  0  0  0  0
    4.0426   12.5511   43.3804 N   0  0  0  0  0  0  0  0  0  0  0  0
    1.8032   15.5475   43.7167 C   0  0  0  0  0  0  0  0  0  0  0  0
    0.8241   15.2512   44.7602 N   0  0  0  0  0  0  0  0  0  0  0  0
  1  2  1  0  0  0  0
  1  7  1  0  0  0  0
  2  3  1  0  0  0  0
  2  4  2  0  0  0  0
  4  5  1  0  0  0  0
  5  6  2  0  0  0  0
  5 11  1  0  0  0  0
  6  7  1  0  0  0  0
  6  9  1  0  0  0  0
  7  8  2  0  0  0  0
  9 10  2  0  0  0  0
  9 12  1  0  0  0  0
 10 11  1  0  0  0  0
 12 13  1  0  0  0  0
M  END
>  <CHROM.1>
-125.43330652,4.63290422,14.72548860,43.78392974,-0.05492824,0.04427643,0.16662354

>  <Name>
ligand

>  <RI>
0

>  <Rbt.Current_Directory>
/home/itssahil/PROJECTS/Mol_Feturizer/Test_systems_manuscript/rnas/4jf2

>  <Rbt.Executable>
rbdock ($Id: //depot/dev/client3/rdock/2013.1/src/exe/rbdock.cxx#4 $)

>  <Rbt.Library>
libRbt.so (2013.1, Build901 2013/11/27)

>  <Rbt.Parameter_File>
/export/apps/rDock/src/rDock_2013.1_src/data/scripts/dock_solv.prm

>  <Rbt.Receptor>
prm/blind_docking_60.prm

>  <SCORE>
-13.0257

>  <SCORE.INTER>
-12.6423

>  <SCORE.INTER.CONST>
1

>  <SCORE.INTER.POLAR>
0

>  <SCORE.INTER.ROT>
1

>  <SCORE.INTER.SOLV>
15.1787

>  <SCORE.INTER.VDW>
-17.7545

>  <SCORE.INTER.norm>
-0.972488

>  <SCORE.INTRA>
-0.412007

>  <SCORE.INTRA.DIHEDRAL>
-0.100378

>  <SCORE.INTRA.DIHEDRAL.0>
1.75624

>  <SCORE.INTRA.POLAR>
0

>  <SCORE.INTRA.POLAR.0>
0

>  <SCORE.INTRA.REPUL>
0

>  <SCORE.INTRA.REPUL.0>
0

>  <SCORE.INTRA.SOLV>
-0.949976

>  <SCORE.INTRA.SOLV.lig_0>
-46.5296

>  <SCORE.INTRA.VDW>
0.11317

>  <SCORE.INTRA.VDW.0>
-0.381873

>  <SCORE.INTRA.norm>
-0.0316928

>  <SCORE.RESTR>
0.0286016

>  <SCORE.RESTR.CAVITY>
0.0286016

>  <SCORE.RESTR.norm>
0.00220012

>  <SCORE.SYSTEM>
0

>  <SCORE.SYSTEM.CONST>
0

>  <SCORE.SYSTEM.DIHEDRAL>
0

>  <SCORE.SYSTEM.SOLV>
0

>  <SCORE.SYSTEM.norm>
0

>  <SCORE.heavy>
13

>  <SCORE.norm>
-1.00198

>  <RMSD>
20.788

$$$$
ligand
 OpenBabel02271912143D
libRbt.so/2013.1/901 2013/11/27
 13 14  0  0  0  0  0  0  0  0999 V2000
    6.5600   15.8322   43.9140 N   0  0  0  0  0  0  0  0  0  0  0  0
    7.1897   14.5865   43.7591 C   0  0  0  0  0  0  0  0  0  0  0  0
    8.6322   14.5106   43.7879 N   0  0  0  0  0  0  0  0  0  0  0  0
    6.4382   13.4456   43.5919 N   0  0  0  0  0  0  0  0  0  0  0  0
    5.0203   13.4826   43.5591 C   0  0  0  0  0  0  0  0  0  0  0  0
    4.3451   14.7448   43.6927 C   0  0  0  0  0  0  0  0  0  0  0  0
    5.1652   15.9229   43.8587 C   0  0  0  0  0  0  0  0  0  0  0  0
    4.5126   17.1164   43.9948 O   0  0  0  0  0  0  0  0  0  0  0  0
    2.9209   14.5095   43.6305 C   0  0  0  0  0  0  0  0  0  0  0  0
    2.7959   13.1321   43.4427 C   0  0  0  0  0  0  0  0  0  0  0  0
    4.0417   12.5322   43.4109 N   0  0  0  0  0  0  0  0  0  0  0  0
    1.8113   15.5403   43.7013 C   0  0  0  0  0  0  0  0  0  0  0  0
    0.8324   15.2649   44.7507 N   0  0  0  0  0  0  0  0  0  0  0  0
  1  2  1  0  0  0  0
  1  7  1  0  0  0  0
  2  3  1  0  0  0  0
  2  4  2  0  0  0  0
  4  5  1  0  0  0  0
  5  6  2  0  0  0  0
  5 11  1  0  0  0  0
  6  7  1  0  0  0  0
  6  9  1  0  0  0  0
  7  8  2  0  0  0  0
  9 10  2  0  0  0  0
  9 12  1  0  0  0  0
 10 11  1  0  0  0  0
 12 13  1  0  0  0  0
M  END
>  <CHROM.1>
-125.12635341,4.63842309,14.71017779,43.78730835,-0.05824570,0.04139464,0.15367917

>  <Name>
ligand

>  <RI>
0

>  <Rbt.Current_Directory>
/home/itssahil/PROJECTS/Mol_Feturizer/Test_systems_manuscript/rnas/4jf2

>  <Rbt.Executable>
rbdock ($Id: //depot/dev/client3/rdock/2013.1/src/exe/rbdock.cxx#4 $)

>  <Rbt.Library>
libRbt.so (2013.1, Build901 2013/11/27)

>  <Rbt.Parameter_File>
/export/apps/rDock/src/rDock_2013.1_src/data/scripts/dock_solv.prm

>  <Rbt.Receptor>
prm/blind_docking_60.prm

>  <SCORE>
-13.0005

>  <SCORE.INTER>
-12.618

>  <SCORE.INTER.CONST>
1

>  <SCORE.INTER.POLAR>
0

>  <SCORE.INTER.ROT>
1

>  <SCORE.INTER.SOLV>
15.0435

>  <SCORE.INTER.VDW>
-17.6932

>  <SCORE.INTER.norm>
-0.970612

>  <SCORE.INTRA>
-0.409828

>  <SCORE.INTRA.DIHEDRAL>
-0.0986238

>  <SCORE.INTRA.DIHEDRAL.0>
1.75624

>  <SCORE.INTRA.POLAR>
0

>  <SCORE.INTRA.POLAR.0>
0

>  <SCORE.INTRA.REPUL>
0

>  <SCORE.INTRA.REPUL.0>
0

>  <SCORE.INTRA.SOLV>
-0.946265

>  <SCORE.INTRA.SOLV.lig_0>
-46.5296

>  <SCORE.INTRA.VDW>
0.112617

>  <SCORE.INTRA.VDW.0>
-0.381873

>  <SCORE.INTRA.norm>
-0.0315252

>  <SCORE.RESTR>
0.0272382

>  <SCORE.RESTR.CAVITY>
0.0272382

>  <SCORE.RESTR.norm>
0.00209525

>  <SCORE.SYSTEM>
0

>  <SCORE.SYSTEM.CONST>
0

>  <SCORE.SYSTEM.DIHEDRAL>
0

>  <SCORE.SYSTEM.SOLV>
0

>  <SCORE.SYSTEM.norm>
0

>  <SCORE.heavy>
13

>  <SCORE.norm>
-1.00004

>  <RMSD>
20.800

$$$$
ligand
 OpenBabel02271912143D
libRbt.so/2013.1/901 2013/11/27
 13 14  0  0  0  0  0  0  0  0999 V2000
    6.5616   15.8359   43.8939 N   0  0  0  0  0  0  0  0  0  0  0  0
    7.1921   14.5908   43.7382 C   0  0  0  0  0  0  0  0  0  0  0  0
    8.6348   14.5168   43.7600 N   0  0  0  0  0  0  0  0  0  0  0  0
    6.4413   13.4486   43.5769 N   0  0  0  0  0  0  0  0  0  0  0  0
    5.0232   13.4837   43.5510 C   0  0  0  0  0  0  0  0  0  0  0  0
    4.3471   14.7453   43.6855 C   0  0  0  0  0  0  0  0  0  0  0  0
    5.1664   15.9248   43.8453 C   0  0  0  0  0  0  0  0  0  0  0  0
    4.5130   17.1177   43.9824 O   0  0  0  0  0  0  0  0  0  0  0  0
    2.9229   14.5082   43.6309 C   0  0  0  0  0  0  0  0  0  0  0  0
    2.7987   13.1302   43.4463 C   0  0  0  0  0  0  0  0  0  0  0  0
    4.0451   12.5318   43.4094 N   0  0  0  0  0  0  0  0  0  0  0  0
    1.8123   15.5376   43.7052 C   0  0  0  0  0  0  0  0  0  0  0  0
    0.8316   15.2557   44.7511 N   0  0  0  0  0  0  0  0  0  0  0  0
  1  2  1  0  0  0  0
  1  7  1  0  0  0  0
  2  3  1  0  0  0  0
  2  4  2  0  0  0  0
  4  5  1  0  0  0  0
  5  6  2  0  0  0  0
  5 11  1  0  0  0  0
  6  7  1  0  0  0  0
  6  9  1  0  0  0  0
  7  8  2  0  0  0  0
  9 10  2  0  0  0  0
  9 12  1  0  0  0  0
 10 11  1  0  0  0  0
 12 13  1  0  0  0  0
M  END
>  <CHROM.1>
-125.70844739,4.64028400,14.71068542,43.77807775,-0.05685395,0.04604372,0.15123182

>  <Name>
ligand

>  <RI>
0

>  <Rbt.Current_Directory>
/home/itssahil/PROJECTS/Mol_Feturizer/Test_systems_manuscript/rnas/4jf2

>  <Rbt.Executable>
rbdock ($Id: //depot/dev/client3/rdock/2013.1/src/exe/rbdock.cxx#4 $)

>  <Rbt.Library>
libRbt.so (2013.1, Build901 2013/11/27)

>  <Rbt.Parameter_File>
/export/apps/rDock/src/rDock_2013.1_src/data/scripts/dock_solv.prm

>  <Rbt.Receptor>
prm/blind_docking_60.prm

>  <SCORE>
-12.9778

>  <SCORE.INTER>
-12.5927

>  <SCORE.INTER.CONST>
1

>  <SCORE.INTER.POLAR>
0

>  <SCORE.INTER.ROT>
1

>  <SCORE.INTER.SOLV>
15.11

>  <SCORE.INTER.VDW>
-17.6985

>  <SCORE.INTER.norm>
-0.968671

>  <SCORE.INTRA>
-0.413949

>  <SCORE.INTRA.DIHEDRAL>
-0.101945

>  <SCORE.INTRA.DIHEDRAL.0>
1.75624

>  <SCORE.INTRA.POLAR>
0

>  <SCORE.INTRA.POLAR.0>
0

>  <SCORE.INTRA.REPUL>
0

>  <SCORE.INTRA.REPUL.0>
0

>  <SCORE.INTRA.SOLV>
-0.953286

>  <SCORE.INTRA.SOLV.lig_0>
-46.5296

>  <SCORE.INTRA.VDW>
0.113667

>  <SCORE.INTRA.VDW.0>
-0.381873

>  <SCORE.INTRA.norm>
-0.0318422

>  <SCORE.RESTR>
0.028892

>  <SCORE.RESTR.CAVITY>
0.028892

>  <SCORE.RESTR.norm>
0.00222247

>  <SCORE.SYSTEM>
0

>  <SCORE.SYSTEM.CONST>
0

>  <SCORE.SYSTEM.DIHEDRAL>
0

>  <SCORE.SYSTEM.SOLV>
0

>  <SCORE.SYSTEM.norm>
0

>  <SCORE.heavy>
13

>  <SCORE.norm>
-0.998291

>  <RMSD>
20.805

$$$$
ligand
 OpenBabel02271912143D
libRbt.so/2013.1/901 2013/11/27
 13 14  0  0  0  0  0  0  0  0999 V2000
    1.9389   15.2637   43.4383 N   0  0  0  0  0  0  0  0  0  0  0  0
    2.3014   16.6158   43.5513 C   0  0  0  0  0  0  0  0  0  0  0  0
    1.2904   17.6374   43.4046 N   0  0  0  0  0  0  0  0  0  0  0  0
    3.6074   16.9644   43.8104 N   0  0  0  0  0  0  0  0  0  0  0  0
    4.6258   15.9882   43.9608 C   0  0  0  0  0  0  0  0  0  0  0  0
    4.2923   14.5959   43.8291 C   0  0  0  0  0  0  0  0  0  0  0  0
    2.9135   14.2663   43.5493 C   0  0  0  0  0  0  0  0  0  0  0  0
    2.6057   12.9392   43.4359 O   0  0  0  0  0  0  0  0  0  0  0  0
    5.4934   13.8179   44.0279 C   0  0  0  0  0  0  0  0  0  0  0  0
    6.4968   14.7629   44.2482 C   0  0  0  0  0  0  0  0  0  0  0  0
    5.9730   16.0425   44.2158 N   0  0  0  0  0  0  0  0  0  0  0  0
    5.6385   12.3103   43.9594 C   0  0  0  0  0  0  0  0  0  0  0  0
    6.6677   11.7871   44.8550 N   0  0  0  0  0  0  0  0  0  0  0  0
  1  2  1  0  0  0  0
  1  7  1  0  0  0  0
  2  3  1  0  0  0  0
  2  4  2  0  0  0  0
  4  5  1  0  0  0  0
  5  6  2  0  0  0  0
  5 11  1  0  0  0  0
  6  7  1  0  0  0  0
  6  9  1  0  0  0  0
  7  8  2  0  0  0  0
  9 10  2  0  0  0  0
  9 12  1  0  0  0  0
 10 11  1  0  0  0  0
 12 13  1  0  0  0  0
M  END
>  <CHROM.1>
-148.58759098,4.10955548,14.81186263,43.86364886,2.37693187,-0.21214995,0.00611061

>  <Name>
ligand

>  <RI>
0

>  <Rbt.Current_Directory>
/home/itssahil/PROJECTS/Mol_Feturizer/Test_systems_manuscript/rnas/4jf2

>  <Rbt.Executable>
rbdock ($Id: //depot/dev/client3/rdock/2013.1/src/exe/rbdock.cxx#4 $)

>  <Rbt.Library>
libRbt.so (2013.1, Build901 2013/11/27)

>  <Rbt.Parameter_File>
/export/apps/rDock/src/rDock_2013.1_src/data/scripts/dock_solv.prm

>  <Rbt.Receptor>
prm/blind_docking_100.prm

>  <SCORE>
-14.3551

>  <SCORE.INTER>
-13.9031

>  <SCORE.INTER.CONST>
1

>  <SCORE.INTER.POLAR>
0

>  <SCORE.INTER.ROT>
1

>  <SCORE.INTER.SOLV>
9.53314

>  <SCORE.INTER.VDW>
-16.7131

>  <SCORE.INTER.norm>
-1.06947

>  <SCORE.INTRA>
-0.452013

>  <SCORE.INTRA.DIHEDRAL>
-0.186734

>  <SCORE.INTRA.DIHEDRAL.0>
1.75624

>  <SCORE.INTRA.POLAR>
0

>  <SCORE.INTRA.POLAR.0>
0

>  <SCORE.INTRA.REPUL>
0

>  <SCORE.INTRA.REPUL.0>
0

>  <SCORE.INTRA.SOLV>
-1.03323

>  <SCORE.INTRA.SOLV.lig_0>
-46.5296

>  <SCORE.INTRA.VDW>
0.157971

>  <SCORE.INTRA.VDW.0>
-0.381873

>  <SCORE.INTRA.norm>
-0.0347702

>  <SCORE.RESTR>
0

>  <SCORE.RESTR.CAVITY>
0

>  <SCORE.RESTR.norm>
0

>  <SCORE.SYSTEM>
0

>  <SCORE.SYSTEM.CONST>
0

>  <SCORE.SYSTEM.DIHEDRAL>
0

>  <SCORE.SYSTEM.SOLV>
0

>  <SCORE.SYSTEM.norm>
0

>  <SCORE.heavy>
13

>  <SCORE.norm>
-1.10424

>  <RMSD>
20.828

$$$$
ligand
 OpenBabel02271912143D
libRbt.so/2013.1/901 2013/11/27
 13 14  0  0  0  0  0  0  0  0999 V2000
    1.9469   15.2529   43.4148 N   0  0  0  0  0  0  0  0  0  0  0  0
    2.3037   16.6067   43.5247 C   0  0  0  0  0  0  0  0  0  0  0  0
    1.2895   17.6240   43.3705 N   0  0  0  0  0  0  0  0  0  0  0  0
    3.6073   16.9611   43.7881 N   0  0  0  0  0  0  0  0  0  0  0  0
    4.6288   15.9892   43.9459 C   0  0  0  0  0  0  0  0  0  0  0  0
    4.3011   14.5953   43.8174 C   0  0  0  0  0  0  0  0  0  0  0  0
    2.9247   14.2596   43.5330 C   0  0  0  0  0  0  0  0  0  0  0  0
    2.6224   12.9309   43.4228 O   0  0  0  0  0  0  0  0  0  0  0  0
    5.5043   13.8225   44.0237 C   0  0  0  0  0  0  0  0  0  0  0  0
    6.5032   14.7720   44.2451 C   0  0  0  0  0  0  0  0  0  0  0  0
    5.9747   16.0495   44.2062 N   0  0  0  0  0  0  0  0  0  0  0  0
    5.6553   12.3152   43.9608 C   0  0  0  0  0  0  0  0  0  0  0  0
    6.6779   11.7982   44.8675 N   0  0  0  0  0  0  0  0  0  0  0  0
  1  2  1  0  0  0  0
  1  7  1  0  0  0  0
  2  3  1  0  0  0  0
  2  4  2  0  0  0  0
  4  5  1  0  0  0  0
  5  6  2  0  0  0  0
  5 11  1  0  0  0  0
  6  7  1  0  0  0  0
  6  9  1  0  0  0  0
  7  8  2  0  0  0  0
  9 10  2  0  0  0  0
  9 12  1  0  0  0  0
 10 11  1  0  0  0  0
 12 13  1  0  0  0  0
M  END
>  <CHROM.1>
-148.28356596,4.11697810,14.81060033,43.85092884,2.38044142,-0.21643275,0.00323525

>  <Name>
ligand

>  <RI>
0

>  <Rbt.Current_Directory>
/home/itssahil/PROJECTS/Mol_Feturizer/Test_systems_manuscript/rnas/4jf2

>  <Rbt.Executable>
rbdock ($Id: //depot/dev/client3/rdock/2013.1/src/exe/rbdock.cxx#4 $)

>  <Rbt.Library>
libRbt.so (2013.1, Build901 2013/11/27)

>  <Rbt.Parameter_File>
/export/apps/rDock/src/rDock_2013.1_src/data/scripts/dock_solv.prm

>  <Rbt.Receptor>
prm/blind_docking_100.prm

>  <SCORE>
-14.3633

>  <SCORE.INTER>
-13.9107

>  <SCORE.INTER.CONST>
1

>  <SCORE.INTER.POLAR>
0

>  <SCORE.INTER.ROT>
1

>  <SCORE.INTER.SOLV>
9.53176

>  <SCORE.INTER.VDW>
-16.7177

>  <SCORE.INTER.norm>
-1.07005

>  <SCORE.INTRA>
-0.45259

>  <SCORE.INTRA.DIHEDRAL>
-0.186472

>  <SCORE.INTRA.DIHEDRAL.0>
1.75624

>  <SCORE.INTRA.POLAR>
0

>  <SCORE.INTRA.POLAR.0>
0

>  <SCORE.INTRA.REPUL>
0

>  <SCORE.INTRA.REPUL.0>
0

>  <SCORE.INTRA.SOLV>
-1.03342

>  <SCORE.INTRA.SOLV.lig_0>
-46.5296

>  <SCORE.INTRA.VDW>
0.157356

>  <SCORE.INTRA.VDW.0>
-0.381873

>  <SCORE.INTRA.norm>
-0.0348146

>  <SCORE.RESTR>
0

>  <SCORE.RESTR.CAVITY>
0

>  <SCORE.RESTR.norm>
0

>  <SCORE.SYSTEM>
0

>  <SCORE.SYSTEM.CONST>
0

>  <SCORE.SYSTEM.DIHEDRAL>
0

>  <SCORE.SYSTEM.SOLV>
0

>  <SCORE.SYSTEM.norm>
0

>  <SCORE.heavy>
13

>  <SCORE.norm>
-1.10487

>  <RMSD>
20.839

$$$$
ligand
 OpenBabel02271912143D
libRbt.so/2013.1/901 2013/11/27
 13 14  0  0  0  0  0  0  0  0999 V2000
    6.5867   15.9438   43.8998 N   0  0  0  0  0  0  0  0  0  0  0  0
    7.2534   14.7449   43.5996 C   0  0  0  0  0  0  0  0  0  0  0  0
    8.6962   14.7334   43.5239 N   0  0  0  0  0  0  0  0  0  0  0  0
    6.5386   13.5876   43.3898 N   0  0  0  0  0  0  0  0  0  0  0  0
    5.1217   13.5618   43.4566 C   0  0  0  0  0  0  0  0  0  0  0  0
    4.4074   14.7768   43.7401 C   0  0  0  0  0  0  0  0  0  0  0  0
    5.1890   15.9744   43.9472 C   0  0  0  0  0  0  0  0  0  0  0  0
    4.5002   17.1219   44.2259 O   0  0  0  0  0  0  0  0  0  0  0  0
    2.9931   14.4820   43.7556 C   0  0  0  0  0  0  0  0  0  0  0  0
    2.9105   13.1197   43.4630 C   0  0  0  0  0  0  0  0  0  0  0  0
    4.1740   12.5822   43.2969 N   0  0  0  0  0  0  0  0  0  0  0  0
    1.8506   15.4515   43.9869 C   0  0  0  0  0  0  0  0  0  0  0  0
    1.3226   16.0281   42.7524 N   0  0  0  0  0  0  0  0  0  0  0  0
  1  2  1  0  0  0  0
  1  7  1  0  0  0  0
  2  3  1  0  0  0  0
  2  4  2  0  0  0  0
  4  5  1  0  0  0  0
  5  6  2  0  0  0  0
  5 11  1  0  0  0  0
  6  7  1  0  0  0  0
  6  9  1  0  0  0  0
  7  8  2  0  0  0  0
  9 10  2  0  0  0  0
  9 12  1  0  0  0  0
 10 11  1  0  0  0  0
 12 13  1  0  0  0  0
M  END
>  <CHROM.1>
91.83125458,4.73724711,14.82802174,43.62243111,-0.07456522,-0.03910150,0.14730767

>  <Name>
ligand

>  <RI>
0

>  <Rbt.Current_Directory>
/home/itssahil/PROJECTS/Mol_Feturizer/Test_systems_manuscript/rnas/4jf2

>  <Rbt.Executable>
rbdock ($Id: //depot/dev/client3/rdock/2013.1/src/exe/rbdock.cxx#4 $)

>  <Rbt.Library>
libRbt.so (2013.1, Build901 2013/11/27)

>  <Rbt.Parameter_File>
/export/apps/rDock/src/rDock_2013.1_src/data/scripts/dock_solv.prm

>  <Rbt.Receptor>
prm/blind_docking_60.prm

>  <SCORE>
-12.8211

>  <SCORE.INTER>
-12.5664

>  <SCORE.INTER.CONST>
1

>  <SCORE.INTER.POLAR>
0

>  <SCORE.INTER.ROT>
1

>  <SCORE.INTER.SOLV>
15.131

>  <SCORE.INTER.VDW>
-17.6879

>  <SCORE.INTER.norm>
-0.966649

>  <SCORE.INTRA>
-0.276712

>  <SCORE.INTRA.DIHEDRAL>
-0.186365

>  <SCORE.INTRA.DIHEDRAL.0>
1.75624

>  <SCORE.INTRA.POLAR>
0

>  <SCORE.INTRA.POLAR.0>
0

>  <SCORE.INTRA.REPUL>
0

>  <SCORE.INTRA.REPUL.0>
0

>  <SCORE.INTRA.SOLV>
-0.460011

>  <SCORE.INTRA.SOLV.lig_0>
-46.5296

>  <SCORE.INTRA.VDW>
0.0464768

>  <SCORE.INTRA.VDW.0>
-0.381873

>  <SCORE.INTRA.norm>
-0.0212855

>  <SCORE.RESTR>
0.0219971

>  <SCORE.RESTR.CAVITY>
0.0219971

>  <SCORE.RESTR.norm>
0.00169208

>  <SCORE.SYSTEM>
0

>  <SCORE.SYSTEM.CONST>
0

>  <SCORE.SYSTEM.DIHEDRAL>
0

>  <SCORE.SYSTEM.SOLV>
0

>  <SCORE.SYSTEM.norm>
0

>  <SCORE.heavy>
13

>  <SCORE.norm>
-0.986242

>  <RMSD>
20.843

$$$$
ligand
 OpenBabel02271912143D
libRbt.so/2013.1/901 2013/11/27
 13 14  0  0  0  0  0  0  0  0999 V2000
    6.6184   15.9553   43.8812 N   0  0  0  0  0  0  0  0  0  0  0  0
    7.2754   14.7501   43.5847 C   0  0  0  0  0  0  0  0  0  0  0  0
    8.7180   14.7268   43.5089 N   0  0  0  0  0  0  0  0  0  0  0  0
    6.5513   13.5979   43.3789 N   0  0  0  0  0  0  0  0  0  0  0  0
    5.1342   13.5837   43.4461 C   0  0  0  0  0  0  0  0  0  0  0  0
    4.4297   14.8053   43.7256 C   0  0  0  0  0  0  0  0  0  0  0  0
    5.2210   15.9973   43.9287 C   0  0  0  0  0  0  0  0  0  0  0  0
    4.5414   17.1512   44.2037 O   0  0  0  0  0  0  0  0  0  0  0  0
    3.0131   14.5219   43.7424 C   0  0  0  0  0  0  0  0  0  0  0  0
    2.9196   13.1594   43.4543 C   0  0  0  0  0  0  0  0  0  0  0  0
    4.1787   12.6113   43.2897 N   0  0  0  0  0  0  0  0  0  0  0  0
    1.8785   15.5014   43.9707 C   0  0  0  0  0  0  0  0  0  0  0  0
    1.2986   16.0136   42.7311 N   0  0  0  0  0  0  0  0  0  0  0  0
  1  2  1  0  0  0  0
  1  7  1  0  0  0  0
  2  3  1  0  0  0  0
  2  4  2  0  0  0  0
  4  5  1  0  0  0  0
  5  6  2  0  0  0  0
  5 11  1  0  0  0  0
  6  7  1  0  0  0  0
  6  9  1  0  0  0  0
  7  8  2  0  0  0  0
  9 10  2  0  0  0  0
  9 12  1  0  0  0  0
 10 11  1  0  0  0  0
 12 13  1  0  0  0  0
M  END
>  <CHROM.1>
95.48400824,4.75539703,14.84826536,43.60751578,-0.07634328,-0.04065278,0.14710697

>  <Name>
ligand

>  <RI>
0

>  <Rbt.Current_Directory>
/home/itssahil/PROJECTS/Mol_Feturizer/Test_systems_manuscript/rnas/4jf2

>  <Rbt.Executable>
rbdock ($Id: //depot/dev/client3/rdock/2013.1/src/exe/rbdock.cxx#4 $)

>  <Rbt.Library>
libRbt.so (2013.1, Build901 2013/11/27)

>  <Rbt.Parameter_File>
/export/apps/rDock/src/rDock_2013.1_src/data/scripts/dock_solv.prm

>  <Rbt.Receptor>
prm/blind_docking_100.prm

>  <SCORE>
-12.4909

>  <SCORE.INTER>
-12.6624

>  <SCORE.INTER.CONST>
1

>  <SCORE.INTER.POLAR>
0

>  <SCORE.INTER.ROT>
1

>  <SCORE.INTER.SOLV>
15.2226

>  <SCORE.INTER.VDW>
-17.7825

>  <SCORE.INTER.norm>
-0.974032

>  <SCORE.INTRA>
-0.296392

>  <SCORE.INTRA.DIHEDRAL>
-0.180928

>  <SCORE.INTRA.DIHEDRAL.0>
1.75624

>  <SCORE.INTRA.POLAR>
0

>  <SCORE.INTRA.POLAR.0>
0

>  <SCORE.INTRA.REPUL>
0

>  <SCORE.INTRA.REPUL.0>
0

>  <SCORE.INTRA.SOLV>
-0.522533

>  <SCORE.INTRA.SOLV.lig_0>
-46.5296

>  <SCORE.INTRA.VDW>
0.0553388

>  <SCORE.INTRA.VDW.0>
-0.381873

>  <SCORE.INTRA.norm>
-0.0227994

>  <SCORE.RESTR>
0.467956

>  <SCORE.RESTR.CAVITY>
0.467956

>  <SCORE.RESTR.norm>
0.0359966

>  <SCORE.SYSTEM>
0

>  <SCORE.SYSTEM.CONST>
0

>  <SCORE.SYSTEM.DIHEDRAL>
0

>  <SCORE.SYSTEM.SOLV>
0

>  <SCORE.SYSTEM.norm>
0

>  <SCORE.heavy>
13

>  <SCORE.norm>
-0.960835

>  <RMSD>
20.844

$$$$
ligand
 OpenBabel02271912143D
libRbt.so/2013.1/901 2013/11/27
 13 14  0  0  0  0  0  0  0  0999 V2000
    6.5786   15.9081   43.9275 N   0  0  0  0  0  0  0  0  0  0  0  0
    7.2381   14.7031   43.6355 C   0  0  0  0  0  0  0  0  0  0  0  0
    8.6814   14.6795   43.5734 N   0  0  0  0  0  0  0  0  0  0  0  0
    6.5156   13.5514   43.4211 N   0  0  0  0  0  0  0  0  0  0  0  0
    5.0980   13.5375   43.4748 C   0  0  0  0  0  0  0  0  0  0  0  0
    4.3912   14.7589   43.7494 C   0  0  0  0  0  0  0  0  0  0  0  0
    5.1808   15.9504   43.9618 C   0  0  0  0  0  0  0  0  0  0  0  0
    4.4990   17.1040   44.2320 O   0  0  0  0  0  0  0  0  0  0  0  0
    2.9744   14.4759   43.7523 C   0  0  0  0  0  0  0  0  0  0  0  0
    2.8833   13.1138   43.4613 C   0  0  0  0  0  0  0  0  0  0  0  0
    4.1438   12.5656   43.3079 N   0  0  0  0  0  0  0  0  0  0  0  0
    1.8380   15.4553   43.9712 C   0  0  0  0  0  0  0  0  0  0  0  0
    1.3164   16.0228   42.7298 N   0  0  0  0  0  0  0  0  0  0  0  0
  1  2  1  0  0  0  0
  1  7  1  0  0  0  0
  2  3  1  0  0  0  0
  2  4  2  0  0  0  0
  4  5  1  0  0  0  0
  5  6  2  0  0  0  0
  5 11  1  0  0  0  0
  6  7  1  0  0  0  0
  6  9  1  0  0  0  0
  7  8  2  0  0  0  0
  9 10  2  0  0  0  0
  9 12  1  0  0  0  0
 10 11  1  0  0  0  0
 12 13  1  0  0  0  0
M  END
>  <CHROM.1>
92.47046716,4.72177735,14.80629227,43.63470338,-0.08035140,-0.04966918,0.14580137

>  <Name>
ligand

>  <RI>
0

>  <Rbt.Current_Directory>
/home/itssahil/PROJECTS/Mol_Feturizer/Test_systems_manuscript/rnas/4jf2

>  <Rbt.Executable>
rbdock ($Id: //depot/dev/client3/rdock/2013.1/src/exe/rbdock.cxx#4 $)

>  <Rbt.Library>
libRbt.so (2013.1, Build901 2013/11/27)

>  <Rbt.Parameter_File>
/export/apps/rDock/src/rDock_2013.1_src/data/scripts/dock_solv.prm

>  <Rbt.Receptor>
prm/blind_docking_60.prm

>  <SCORE>
-12.8003

>  <SCORE.INTER>
-12.524

>  <SCORE.INTER.CONST>
1

>  <SCORE.INTER.POLAR>
0

>  <SCORE.INTER.ROT>
1

>  <SCORE.INTER.SOLV>
15.033

>  <SCORE.INTER.VDW>
-17.627

>  <SCORE.INTER.norm>
-0.963387

>  <SCORE.INTRA>
-0.28032

>  <SCORE.INTRA.DIHEDRAL>
-0.1857

>  <SCORE.INTRA.DIHEDRAL.0>
1.75624

>  <SCORE.INTRA.POLAR>
0

>  <SCORE.INTRA.POLAR.0>
0

>  <SCORE.INTRA.REPUL>
0

>  <SCORE.INTRA.REPUL.0>
0

>  <SCORE.INTRA.SOLV>
-0.47107

>  <SCORE.INTRA.SOLV.lig_0>
-46.5296

>  <SCORE.INTRA.VDW>
0.0480652

>  <SCORE.INTRA.VDW.0>
-0.381873

>  <SCORE.INTRA.norm>
-0.0215631

>  <SCORE.RESTR>
0.00403158

>  <SCORE.RESTR.CAVITY>
0.00403158

>  <SCORE.RESTR.norm>
0.000310121

>  <SCORE.SYSTEM>
0

>  <SCORE.SYSTEM.CONST>
0

>  <SCORE.SYSTEM.DIHEDRAL>
0

>  <SCORE.SYSTEM.SOLV>
0

>  <SCORE.SYSTEM.norm>
0

>  <SCORE.heavy>
13

>  <SCORE.norm>
-0.98464

>  <RMSD>
20.845

$$$$
ligand
 OpenBabel02271912143D
libRbt.so/2013.1/901 2013/11/27
 13 14  0  0  0  0  0  0  0  0999 V2000
    6.5802   15.9080   43.9296 N   0  0  0  0  0  0  0  0  0  0  0  0
    7.2402   14.7036   43.6365 C   0  0  0  0  0  0  0  0  0  0  0  0
    8.6835   14.6805   43.5750 N   0  0  0  0  0  0  0  0  0  0  0  0
    6.5183   13.5519   43.4204 N   0  0  0  0  0  0  0  0  0  0  0  0
    5.1006   13.5374   43.4734 C   0  0  0  0  0  0  0  0  0  0  0  0
    4.3933   14.7583   43.7491 C   0  0  0  0  0  0  0  0  0  0  0  0
    5.1824   15.9498   43.9632 C   0  0  0  0  0  0  0  0  0  0  0  0
    4.5001   17.1029   44.2345 O   0  0  0  0  0  0  0  0  0  0  0  0
    2.9766   14.4748   43.7510 C   0  0  0  0  0  0  0  0  0  0  0  0
    2.8860   13.1130   43.4584 C   0  0  0  0  0  0  0  0  0  0  0  0
    4.1468   12.5654   43.3050 N   0  0  0  0  0  0  0  0  0  0  0  0
    1.8397   15.4537   43.9705 C   0  0  0  0  0  0  0  0  0  0  0  0
    1.3076   16.0098   42.7285 N   0  0  0  0  0  0  0  0  0  0  0  0
  1  2  1  0  0  0  0
  1  7  1  0  0  0  0
  2  3  1  0  0  0  0
  2  4  2  0  0  0  0
  4  5  1  0  0  0  0
  5  6  2  0  0  0  0
  5 11  1  0  0  0  0
  6  7  1  0  0  0  0
  6  9  1  0  0  0  0
  7  8  2  0  0  0  0
  9 10  2  0  0  0  0
  9 12  1  0  0  0  0
 10 11  1  0  0  0  0
 12 13  1  0  0  0  0
M  END
>  <CHROM.1>
93.18353318,4.72301168,14.80491429,43.63453304,-0.07875015,-0.05021053,0.14763130

>  <Name>
ligand

>  <RI>
-1

>  <Rbt.Current_Directory>
/home/itssahil/PROJECTS/Mol_Feturizer/Test_systems_manuscript/rnas/4jf2

>  <Rbt.Executable>
rbdock ($Id: //depot/dev/client3/rdock/2013.1/src/exe/rbdock.cxx#4 $)

>  <Rbt.Library>
libRbt.so (2013.1, Build901 2013/11/27)

>  <Rbt.Parameter_File>
/export/apps/rDock/src/rDock_2013.1_src/data/scripts/dock_solv.prm

>  <Rbt.Receptor>
prm/blind_docking_80.prm

>  <SCORE>
-12.802

>  <SCORE.INTER>
-12.5207

>  <SCORE.INTER.CONST>
1

>  <SCORE.INTER.POLAR>
0

>  <SCORE.INTER.ROT>
1

>  <SCORE.INTER.SOLV>
15.0601

>  <SCORE.INTER.VDW>
-17.6338

>  <SCORE.INTER.norm>
-0.963133

>  <SCORE.INTRA>
-0.284263

>  <SCORE.INTRA.DIHEDRAL>
-0.184813

>  <SCORE.INTRA.DIHEDRAL.0>
1.75624

>  <SCORE.INTRA.POLAR>
0

>  <SCORE.INTRA.POLAR.0>
0

>  <SCORE.INTRA.REPUL>
0

>  <SCORE.INTRA.REPUL.0>
0

>  <SCORE.INTRA.SOLV>
-0.483349

>  <SCORE.INTRA.SOLV.lig_0>
-46.5296

>  <SCORE.INTRA.VDW>
0.0498181

>  <SCORE.INTRA.VDW.0>
-0.381873

>  <SCORE.INTRA.norm>
-0.0218664

>  <SCORE.RESTR>
0.00298794

>  <SCORE.RESTR.CAVITY>
0.00298794

>  <SCORE.RESTR.norm>
0.000229842

>  <SCORE.SYSTEM>
0

>  <SCORE.SYSTEM.CONST>
0

>  <SCORE.SYSTEM.DIHEDRAL>
0

>  <SCORE.SYSTEM.SOLV>
0

>  <SCORE.SYSTEM.norm>
0

>  <SCORE.heavy>
13

>  <SCORE.norm>
-0.984769

>  <RMSD>
20.847

$$$$
ligand
 OpenBabel02271912143D
libRbt.so/2013.1/901 2013/11/27
 13 14  0  0  0  0  0  0  0  0999 V2000
    6.5829   15.9111   43.9270 N   0  0  0  0  0  0  0  0  0  0  0  0
    7.2454   14.7085   43.6320 C   0  0  0  0  0  0  0  0  0  0  0  0
    8.6885   14.6894   43.5662 N   0  0  0  0  0  0  0  0  0  0  0  0
    6.5260   13.5548   43.4179 N   0  0  0  0  0  0  0  0  0  0  0  0
    5.1085   13.5364   43.4750 C   0  0  0  0  0  0  0  0  0  0  0  0
    4.3986   14.7553   43.7529 C   0  0  0  0  0  0  0  0  0  0  0  0
    5.1850   15.9490   43.9648 C   0  0  0  0  0  0  0  0  0  0  0  0
    4.5003   17.1002   44.2381 O   0  0  0  0  0  0  0  0  0  0  0  0
    2.9827   14.4679   43.7589 C   0  0  0  0  0  0  0  0  0  0  0  0
    2.8951   13.1059   43.4665 C   0  0  0  0  0  0  0  0  0  0  0  0
    4.1569   12.5618   43.3093 N   0  0  0  0  0  0  0  0  0  0  0  0
    1.8438   15.4436   43.9818 C   0  0  0  0  0  0  0  0  0  0  0  0
    1.3226   16.0169   42.7429 N   0  0  0  0  0  0  0  0  0  0  0  0
  1  2  1  0  0  0  0
  1  7  1  0  0  0  0
  2  3  1  0  0  0  0
  2  4  2  0  0  0  0
  4  5  1  0  0  0  0
  5  6  2  0  0  0  0
  5 11  1  0  0  0  0
  6  7  1  0  0  0  0
  6  9  1  0  0  0  0
  7  8  2  0  0  0  0
  9 10  2  0  0  0  0
  9 12  1  0  0  0  0
 10 11  1  0  0  0  0
 12 13  1  0  0  0  0
M  END
>  <CHROM.1>
92.13117208,4.72918356,14.80434403,43.63747737,-0.07822850,-0.04672108,0.14684374

>  <Name>
ligand

>  <RI>
0

>  <Rbt.Current_Directory>
/home/itssahil/PROJECTS/Mol_Feturizer/Test_systems_manuscript/rnas/4jf2

>  <Rbt.Executable>
rbdock ($Id: //depot/dev/client3/rdock/2013.1/src/exe/rbdock.cxx#4 $)

>  <Rbt.Library>
libRbt.so (2013.1, Build901 2013/11/27)

>  <Rbt.Parameter_File>
/export/apps/rDock/src/rDock_2013.1_src/data/scripts/dock_solv.prm

>  <Rbt.Receptor>
prm/blind_docking_60.prm

>  <SCORE>
-12.7665

>  <SCORE.INTER>
-12.4885

>  <SCORE.INTER.CONST>
1

>  <SCORE.INTER.POLAR>
0

>  <SCORE.INTER.ROT>
1

>  <SCORE.INTER.SOLV>
15.0405

>  <SCORE.INTER.VDW>
-17.6059

>  <SCORE.INTER.norm>
-0.960658

>  <SCORE.INTRA>
-0.278413

>  <SCORE.INTRA.DIHEDRAL>
-0.186069

>  <SCORE.INTRA.DIHEDRAL.0>
1.75624

>  <SCORE.INTRA.POLAR>
0

>  <SCORE.INTRA.POLAR.0>
0

>  <SCORE.INTRA.REPUL>
0

>  <SCORE.INTRA.REPUL.0>
0

>  <SCORE.INTRA.SOLV>
-0.465206

>  <SCORE.INTRA.SOLV.lig_0>
-46.5296

>  <SCORE.INTRA.VDW>
0.0472241

>  <SCORE.INTRA.VDW.0>
-0.381873

>  <SCORE.INTRA.norm>
-0.0214164

>  <SCORE.RESTR>
0.000465744

>  <SCORE.RESTR.CAVITY>
0.000465744

>  <SCORE.RESTR.norm>
3.58265e-05

>  <SCORE.SYSTEM>
0

>  <SCORE.SYSTEM.CONST>
0

>  <SCORE.SYSTEM.DIHEDRAL>
0

>  <SCORE.SYSTEM.SOLV>
0

>  <SCORE.SYSTEM.norm>
0

>  <SCORE.heavy>
13

>  <SCORE.norm>
-0.982038

>  <RMSD>
20.849

$$$$
ligand
 OpenBabel02271912143D
libRbt.so/2013.1/901 2013/11/27
 13 14  0  0  0  0  0  0  0  0999 V2000
    1.9430   15.2186   43.4408 N   0  0  0  0  0  0  0  0  0  0  0  0
    2.3113   16.5695   43.5483 C   0  0  0  0  0  0  0  0  0  0  0  0
    1.3046   17.5949   43.3986 N   0  0  0  0  0  0  0  0  0  0  0  0
    3.6190   16.9135   43.8051 N   0  0  0  0  0  0  0  0  0  0  0  0
    4.6334   15.9335   43.9584 C   0  0  0  0  0  0  0  0  0  0  0  0
    4.2938   14.5422   43.8321 C   0  0  0  0  0  0  0  0  0  0  0  0
    2.9134   14.2174   43.5547 C   0  0  0  0  0  0  0  0  0  0  0  0
    2.5998   12.8913   43.4465 O   0  0  0  0  0  0  0  0  0  0  0  0
    5.4918   13.7598   44.0330 C   0  0  0  0  0  0  0  0  0  0  0  0
    6.4994   14.7013   44.2490 C   0  0  0  0  0  0  0  0  0  0  0  0
    5.9810   15.9830   44.2121 N   0  0  0  0  0  0  0  0  0  0  0  0
    5.6303   12.2513   43.9700 C   0  0  0  0  0  0  0  0  0  0  0  0
    6.6490   11.7259   44.8763 N   0  0  0  0  0  0  0  0  0  0  0  0
  1  2  1  0  0  0  0
  1  7  1  0  0  0  0
  2  3  1  0  0  0  0
  2  4  2  0  0  0  0
  4  5  1  0  0  0  0
  5  6  2  0  0  0  0
  5 11  1  0  0  0  0
  6  7  1  0  0  0  0
  6  9  1  0  0  0  0
  7  8  2  0  0  0  0
  9 10  2  0  0  0  0
  9 12  1  0  0  0  0
 10 11  1  0  0  0  0
 12 13  1  0  0  0  0
M  END
>  <CHROM.1>
-148.02585901,4.11127595,14.75892176,43.86684056,2.37184076,-0.21169991,0.00068379

>  <Name>
ligand

>  <RI>
0

>  <Rbt.Current_Directory>
/home/itssahil/PROJECTS/Mol_Feturizer/Test_systems_manuscript/rnas/4jf2

>  <Rbt.Executable>
rbdock ($Id: //depot/dev/client3/rdock/2013.1/src/exe/rbdock.cxx#4 $)

>  <Rbt.Library>
libRbt.so (2013.1, Build901 2013/11/27)

>  <Rbt.Parameter_File>
/export/apps/rDock/src/rDock_2013.1_src/data/scripts/dock_solv.prm

>  <Rbt.Receptor>
prm/blind_docking_100.prm

>  <SCORE>
-14.3296

>  <SCORE.INTER>
-13.8765

>  <SCORE.INTER.CONST>
1

>  <SCORE.INTER.POLAR>
0

>  <SCORE.INTER.ROT>
1

>  <SCORE.INTER.SOLV>
9.65446

>  <SCORE.INTER.VDW>
-16.7358

>  <SCORE.INTER.norm>
-1.06742

>  <SCORE.INTRA>
-0.453069

>  <SCORE.INTRA.DIHEDRAL>
-0.186227

>  <SCORE.INTRA.DIHEDRAL.0>
1.75624

>  <SCORE.INTRA.POLAR>
0

>  <SCORE.INTRA.POLAR.0>
0

>  <SCORE.INTRA.REPUL>
0

>  <SCORE.INTRA.REPUL.0>
0

>  <SCORE.INTRA.SOLV>
-1.03358

>  <SCORE.INTRA.SOLV.lig_0>
-46.5296

>  <SCORE.INTRA.VDW>
0.156835

>  <SCORE.INTRA.VDW.0>
-0.381873

>  <SCORE.INTRA.norm>
-0.0348515

>  <SCORE.RESTR>
0

>  <SCORE.RESTR.CAVITY>
0

>  <SCORE.RESTR.norm>
0

>  <SCORE.SYSTEM>
0

>  <SCORE.SYSTEM.CONST>
0

>  <SCORE.SYSTEM.DIHEDRAL>
0

>  <SCORE.SYSTEM.SOLV>
0

>  <SCORE.SYSTEM.norm>
0

>  <SCORE.heavy>
13

>  <SCORE.norm>
-1.10227

>  <RMSD>
20.865

$$$$
ligand
 OpenBabel02271912143D
libRbt.so/2013.1/901 2013/11/27
 13 14  0  0  0  0  0  0  0  0999 V2000
    4.4910   16.9767   43.8176 N   0  0  0  0  0  0  0  0  0  0  0  0
    3.1025   16.8539   43.6466 C   0  0  0  0  0  0  0  0  0  0  0  0
    2.2905   18.0448   43.5466 N   0  0  0  0  0  0  0  0  0  0  0  0
    2.5213   15.6091   43.5640 N   0  0  0  0  0  0  0  0  0  0  0  0
    3.2875   14.4187   43.6576 C   0  0  0  0  0  0  0  0  0  0  0  0
    4.7087   14.5093   43.8551 C   0  0  0  0  0  0  0  0  0  0  0  0
    5.2843   15.8316   43.9450 C   0  0  0  0  0  0  0  0  0  0  0  0
    6.6377   15.9061   44.1228 O   0  0  0  0  0  0  0  0  0  0  0  0
    5.2479   13.1701   43.9123 C   0  0  0  0  0  0  0  0  0  0  0  0
    4.1394   12.3339   43.7698 C   0  0  0  0  0  0  0  0  0  0  0  0
    2.9862   13.0808   43.6107 N   0  0  0  0  0  0  0  0  0  0  0  0
    6.6925   12.7654   44.1315 C   0  0  0  0  0  0  0  0  0  0  0  0
    7.2936   13.3839   45.3111 N   0  0  0  0  0  0  0  0  0  0  0  0
  1  2  1  0  0  0  0
  1  7  1  0  0  0  0
  2  3  1  0  0  0  0
  2  4  2  0  0  0  0
  4  5  1  0  0  0  0
  5  6  2  0  0  0  0
  5 11  1  0  0  0  0
  6  7  1  0  0  0  0
  6  9  1  0  0  0  0
  7  8  2  0  0  0  0
  9 10  2  0  0  0  0
  9 12  1  0  0  0  0
 10 11  1  0  0  0  0
 12 13  1  0  0  0  0
M  END
>  <CHROM.1>
52.08299384,4.55418797,14.87149083,43.92524223,-2.28672542,0.22622996,3.13566121

>  <Name>
ligand

>  <RI>
-1

>  <Rbt.Current_Directory>
/home/itssahil/PROJECTS/Mol_Feturizer/Test_systems_manuscript/rnas/4jf2

>  <Rbt.Executable>
rbdock ($Id: //depot/dev/client3/rdock/2013.1/src/exe/rbdock.cxx#4 $)

>  <Rbt.Library>
libRbt.so (2013.1, Build901 2013/11/27)

>  <Rbt.Parameter_File>
/export/apps/rDock/src/rDock_2013.1_src/data/scripts/dock_solv.prm

>  <Rbt.Receptor>
prm/blind_docking_80.prm

>  <SCORE>
-13.1561

>  <SCORE.INTER>
-13.4465

>  <SCORE.INTER.CONST>
1

>  <SCORE.INTER.POLAR>
0

>  <SCORE.INTER.ROT>
1

>  <SCORE.INTER.SOLV>
10.4982

>  <SCORE.INTER.VDW>
-16.7304

>  <SCORE.INTER.norm>
-1.03435

>  <SCORE.INTRA>
0.290424

>  <SCORE.INTRA.DIHEDRAL>
-0.0381805

>  <SCORE.INTRA.DIHEDRAL.0>
1.75624

>  <SCORE.INTRA.POLAR>
0

>  <SCORE.INTRA.POLAR.0>
0

>  <SCORE.INTRA.REPUL>
0

>  <SCORE.INTRA.REPUL.0>
0

>  <SCORE.INTRA.SOLV>
0.626531

>  <SCORE.INTRA.SOLV.lig_0>
-46.5296

>  <SCORE.INTRA.VDW>
-0.00375082

>  <SCORE.INTRA.VDW.0>
-0.381873

>  <SCORE.INTRA.norm>
0.0223403

>  <SCORE.RESTR>
0

>  <SCORE.RESTR.CAVITY>
0

>  <SCORE.RESTR.norm>
0

>  <SCORE.SYSTEM>
0

>  <SCORE.SYSTEM.CONST>
0

>  <SCORE.SYSTEM.DIHEDRAL>
0

>  <SCORE.SYSTEM.SOLV>
0

>  <SCORE.SYSTEM.norm>
0

>  <SCORE.heavy>
13

>  <SCORE.norm>
-1.01201

>  <RMSD>
20.868

$$$$
ligand
 OpenBabel02271912143D
libRbt.so/2013.1/901 2013/11/27
 13 14  0  0  0  0  0  0  0  0999 V2000
    4.4331   16.9482   43.7890 N   0  0  0  0  0  0  0  0  0  0  0  0
    3.0496   16.7693   43.6274 C   0  0  0  0  0  0  0  0  0  0  0  0
    2.1922   17.9262   43.5090 N   0  0  0  0  0  0  0  0  0  0  0  0
    2.5160   15.5019   43.5714 N   0  0  0  0  0  0  0  0  0  0  0  0
    3.3275   14.3436   43.6836 C   0  0  0  0  0  0  0  0  0  0  0  0
    4.7450   14.4920   43.8720 C   0  0  0  0  0  0  0  0  0  0  0  0
    5.2701   15.8368   43.9340 C   0  0  0  0  0  0  0  0  0  0  0  0
    6.6205   15.9662   44.1034 O   0  0  0  0  0  0  0  0  0  0  0  0
    5.3353   13.1757   43.9519 C   0  0  0  0  0  0  0  0  0  0  0  0
    4.2589   12.2953   43.8309 C   0  0  0  0  0  0  0  0  0  0  0  0
    3.0774   12.9946   43.6636 N   0  0  0  0  0  0  0  0  0  0  0  0
    6.7953   12.8306   44.1714 C   0  0  0  0  0  0  0  0  0  0  0  0
    7.3437   13.3939   45.4031 N   0  0  0  0  0  0  0  0  0  0  0  0
  1  2  1  0  0  0  0
  1  7  1  0  0  0  0
  2  3  1  0  0  0  0
  2  4  2  0  0  0  0
  4  5  1  0  0  0  0
  5  6  2  0  0  0  0
  5 11  1  0  0  0  0
  6  7  1  0  0  0  0
  6  9  1  0  0  0  0
  7  8  2  0  0  0  0
  9 10  2  0  0  0  0
  9 12  1  0  0  0  0
 10 11  1  0  0  0  0
 12 13  1  0  0  0  0
M  END
>  <CHROM.1>
57.43639361,4.57437752,14.84121240,43.94160382,-2.31892557,0.22643216,3.12218043

>  <Name>
ligand

>  <RI>
-1

>  <Rbt.Current_Directory>
/home/itssahil/PROJECTS/Mol_Feturizer/Test_systems_manuscript/rnas/4jf2

>  <Rbt.Executable>
rbdock ($Id: //depot/dev/client3/rdock/2013.1/src/exe/rbdock.cxx#4 $)

>  <Rbt.Library>
libRbt.so (2013.1, Build901 2013/11/27)

>  <Rbt.Parameter_File>
/export/apps/rDock/src/rDock_2013.1_src/data/scripts/dock_solv.prm

>  <Rbt.Receptor>
prm/blind_docking_80.prm

>  <SCORE>
-13.2374

>  <SCORE.INTER>
-13.4191

>  <SCORE.INTER.CONST>
1

>  <SCORE.INTER.POLAR>
0

>  <SCORE.INTER.ROT>
1

>  <SCORE.INTER.SOLV>
10.5322

>  <SCORE.INTER.VDW>
-16.7235

>  <SCORE.INTER.norm>
-1.03224

>  <SCORE.INTRA>
0.181663

>  <SCORE.INTRA.DIHEDRAL>
-0.0686862

>  <SCORE.INTRA.DIHEDRAL.0>
1.75624

>  <SCORE.INTRA.POLAR>
0

>  <SCORE.INTRA.POLAR.0>
0

>  <SCORE.INTRA.REPUL>
0

>  <SCORE.INTRA.REPUL.0>
0

>  <SCORE.INTRA.SOLV>
0.482319

>  <SCORE.INTRA.SOLV.lig_0>
-46.5296

>  <SCORE.INTRA.VDW>
-0.0251534

>  <SCORE.INTRA.VDW.0>
-0.381873

>  <SCORE.INTRA.norm>
0.0139741

>  <SCORE.RESTR>
2.10782e-05

>  <SCORE.RESTR.CAVITY>
2.10782e-05

>  <SCORE.RESTR.norm>
1.6214e-06

>  <SCORE.SYSTEM>
0

>  <SCORE.SYSTEM.CONST>
0

>  <SCORE.SYSTEM.DIHEDRAL>
0

>  <SCORE.SYSTEM.SOLV>
0

>  <SCORE.SYSTEM.norm>
0

>  <SCORE.heavy>
13

>  <SCORE.norm>
-1.01826

>  <RMSD>
20.897

$$$$
ligand
 OpenBabel02271912143D
libRbt.so/2013.1/901 2013/11/27
 13 14  0  0  0  0  0  0  0  0999 V2000
    4.4275   16.9461   43.7972 N   0  0  0  0  0  0  0  0  0  0  0  0
    3.0444   16.7636   43.6360 C   0  0  0  0  0  0  0  0  0  0  0  0
    2.1834   17.9183   43.5229 N   0  0  0  0  0  0  0  0  0  0  0  0
    2.5147   15.4947   43.5753 N   0  0  0  0  0  0  0  0  0  0  0  0
    3.3299   14.3385   43.6823 C   0  0  0  0  0  0  0  0  0  0  0  0
    4.7471   14.4906   43.8703 C   0  0  0  0  0  0  0  0  0  0  0  0
    5.2681   15.8367   43.9372 C   0  0  0  0  0  0  0  0  0  0  0  0
    6.6181   15.9696   44.1061 O   0  0  0  0  0  0  0  0  0  0  0  0
    5.3415   13.1758   43.9444 C   0  0  0  0  0  0  0  0  0  0  0  0
    4.2678   12.2926   43.8207 C   0  0  0  0  0  0  0  0  0  0  0  0
    3.0839   12.9888   43.6571 N   0  0  0  0  0  0  0  0  0  0  0  0
    6.8027   12.8343   44.1614 C   0  0  0  0  0  0  0  0  0  0  0  0
    7.3499   13.3933   45.3956 N   0  0  0  0  0  0  0  0  0  0  0  0
  1  2  1  0  0  0  0
  1  7  1  0  0  0  0
  2  3  1  0  0  0  0
  2  4  2  0  0  0  0
  4  5  1  0  0  0  0
  5  6  2  0  0  0  0
  5 11  1  0  0  0  0
  6  7  1  0  0  0  0
  6  9  1  0  0  0  0
  7  8  2  0  0  0  0
  9 10  2  0  0  0  0
  9 12  1  0  0  0  0
 10 11  1  0  0  0  0
 12 13  1  0  0  0  0
M  END
>  <CHROM.1>
57.49052943,4.57539845,14.83886516,43.94140495,-2.32203484,0.22577694,3.12684974

>  <Name>
ligand

>  <RI>
-1

>  <Rbt.Current_Directory>
/home/itssahil/PROJECTS/Mol_Feturizer/Test_systems_manuscript/rnas/4jf2

>  <Rbt.Executable>
rbdock ($Id: //depot/dev/client3/rdock/2013.1/src/exe/rbdock.cxx#4 $)

>  <Rbt.Library>
libRbt.so (2013.1, Build901 2013/11/27)

>  <Rbt.Parameter_File>
/export/apps/rDock/src/rDock_2013.1_src/data/scripts/dock_solv.prm

>  <Rbt.Receptor>
prm/blind_docking_80.prm

>  <SCORE>
-13.2453

>  <SCORE.INTER>
-13.4263

>  <SCORE.INTER.CONST>
1

>  <SCORE.INTER.POLAR>
0

>  <SCORE.INTER.ROT>
1

>  <SCORE.INTER.SOLV>
10.5398

>  <SCORE.INTER.VDW>
-16.7308

>  <SCORE.INTER.norm>
-1.03279

>  <SCORE.INTRA>
0.180667

>  <SCORE.INTRA.DIHEDRAL>
-0.0690018

>  <SCORE.INTRA.DIHEDRAL.0>
1.75624

>  <SCORE.INTRA.POLAR>
0

>  <SCORE.INTRA.POLAR.0>
0

>  <SCORE.INTRA.REPUL>
0

>  <SCORE.INTRA.REPUL.0>
0

>  <SCORE.INTRA.SOLV>
0.480834

>  <SCORE.INTRA.SOLV.lig_0>
-46.5296

>  <SCORE.INTRA.VDW>
-0.0252488

>  <SCORE.INTRA.VDW.0>
-0.381873

>  <SCORE.INTRA.norm>
0.0138975

>  <SCORE.RESTR>
0.000303177

>  <SCORE.RESTR.CAVITY>
0.000303177

>  <SCORE.RESTR.norm>
2.33213e-05

>  <SCORE.SYSTEM>
0

>  <SCORE.SYSTEM.CONST>
0

>  <SCORE.SYSTEM.DIHEDRAL>
0

>  <SCORE.SYSTEM.SOLV>
0

>  <SCORE.SYSTEM.norm>
0

>  <SCORE.heavy>
13

>  <SCORE.norm>
-1.01887

>  <RMSD>
20.900

$$$$
ligand
 OpenBabel02271912143D
libRbt.so/2013.1/901 2013/11/27
 13 14  0  0  0  0  0  0  0  0999 V2000
    6.7297   15.9136   43.6803 N   0  0  0  0  0  0  0  0  0  0  0  0
    7.4625   14.7168   43.6267 C   0  0  0  0  0  0  0  0  0  0  0  0
    8.9064   14.7664   43.6325 N   0  0  0  0  0  0  0  0  0  0  0  0
    6.8102   13.5057   43.5800 N   0  0  0  0  0  0  0  0  0  0  0  0
    5.3941   13.4193   43.5733 C   0  0  0  0  0  0  0  0  0  0  0  0
    4.6143   14.6267   43.6050 C   0  0  0  0  0  0  0  0  0  0  0  0
    5.3317   15.8804   43.6458 C   0  0  0  0  0  0  0  0  0  0  0  0
    4.5803   17.0217   43.6858 O   0  0  0  0  0  0  0  0  0  0  0  0
    3.2150   14.2669   43.5941 C   0  0  0  0  0  0  0  0  0  0  0  0
    3.2068   12.8723   43.5354 C   0  0  0  0  0  0  0  0  0  0  0  0
    4.4992   12.3798   43.5327 N   0  0  0  0  0  0  0  0  0  0  0  0
    2.0216   15.2020   43.5934 C   0  0  0  0  0  0  0  0  0  0  0  0
    2.0973   16.2370   44.6221 N   0  0  0  0  0  0  0  0  0  0  0  0
  1  2  1  0  0  0  0
  1  7  1  0  0  0  0
  2  3  1  0  0  0  0
  2  4  2  0  0  0  0
  4  5  1  0  0  0  0
  5  6  2  0  0  0  0
  5 11  1  0  0  0  0
  6  7  1  0  0  0  0
  6  9  1  0  0  0  0
  7  8  2  0  0  0  0
  9 10  2  0  0  0  0
  9 12  1  0  0  0  0
 10 11  1  0  0  0  0
 12 13  1  0  0  0  0
M  END
>  <CHROM.1>
-49.54011918,4.99313633,14.73125402,43.69133221,-0.09015415,0.04667269,0.09554192

>  <Name>
ligand

>  <RI>
0

>  <Rbt.Current_Directory>
/home/itssahil/PROJECTS/Mol_Feturizer/Test_systems_manuscript/rnas/4jf2

>  <Rbt.Executable>
rbdock ($Id: //depot/dev/client3/rdock/2013.1/src/exe/rbdock.cxx#4 $)

>  <Rbt.Library>
libRbt.so (2013.1, Build901 2013/11/27)

>  <Rbt.Parameter_File>
/export/apps/rDock/src/rDock_2013.1_src/data/scripts/dock_solv.prm

>  <Rbt.Receptor>
prm/blind_docking_60.prm

>  <SCORE>
-12.4576

>  <SCORE.INTER>
-12.815

>  <SCORE.INTER.CONST>
1

>  <SCORE.INTER.POLAR>
0

>  <SCORE.INTER.ROT>
1

>  <SCORE.INTER.SOLV>
15.6321

>  <SCORE.INTER.VDW>
-18.0207

>  <SCORE.INTER.norm>
-0.985768

>  <SCORE.INTRA>
0.357369

>  <SCORE.INTRA.DIHEDRAL>
-0.140548

>  <SCORE.INTRA.DIHEDRAL.0>
1.75624

>  <SCORE.INTRA.POLAR>
0

>  <SCORE.INTRA.POLAR.0>
0

>  <SCORE.INTRA.REPUL>
0

>  <SCORE.INTRA.REPUL.0>
0

>  <SCORE.INTRA.SOLV>
0.726995

>  <SCORE.INTRA.SOLV.lig_0>
-46.5296

>  <SCORE.INTRA.VDW>
0.0641455

>  <SCORE.INTRA.VDW.0>
-0.381873

>  <SCORE.INTRA.norm>
0.0274899

>  <SCORE.RESTR>
1.6922e-06

>  <SCORE.RESTR.CAVITY>
1.6922e-06

>  <SCORE.RESTR.norm>
1.30169e-07

>  <SCORE.SYSTEM>
0

>  <SCORE.SYSTEM.CONST>
0

>  <SCORE.SYSTEM.DIHEDRAL>
0

>  <SCORE.SYSTEM.SOLV>
0

>  <SCORE.SYSTEM.norm>
0

>  <SCORE.heavy>
13

>  <SCORE.norm>
-0.958278

>  <RMSD>
21.000

$$$$
ligand
 OpenBabel02271912143D
libRbt.so/2013.1/901 2013/11/27
 13 14  0  0  0  0  0  0  0  0999 V2000
    2.5086   15.6451   43.5182 N   0  0  0  0  0  0  0  0  0  0  0  0
    3.2091   16.8523   43.6734 C   0  0  0  0  0  0  0  0  0  0  0  0
    2.5058   18.1061   43.5286 N   0  0  0  0  0  0  0  0  0  0  0  0
    4.5526   16.8411   43.9719 N   0  0  0  0  0  0  0  0  0  0  0  0
    5.2749   15.6291   44.1217 C   0  0  0  0  0  0  0  0  0  0  0  0
    4.5923   14.3759   43.9473 C   0  0  0  0  0  0  0  0  0  0  0  0
    3.1841   14.4250   43.6270 C   0  0  0  0  0  0  0  0  0  0  0  0
    2.5428   13.2276   43.4732 O   0  0  0  0  0  0  0  0  0  0  0  0
    5.5413   13.3064   44.1548 C   0  0  0  0  0  0  0  0  0  0  0  0
    6.7503   13.9506   44.4223 C   0  0  0  0  0  0  0  0  0  0  0  0
    6.5812   15.3233   44.4096 N   0  0  0  0  0  0  0  0  0  0  0  0
    5.2881   11.8151   44.0520 C   0  0  0  0  0  0  0  0  0  0  0  0
    6.0741   11.0285   45.0000 N   0  0  0  0  0  0  0  0  0  0  0  0
  1  2  1  0  0  0  0
  1  7  1  0  0  0  0
  2  3  1  0  0  0  0
  2  4  2  0  0  0  0
  4  5  1  0  0  0  0
  5  6  2  0  0  0  0
  5 11  1  0  0  0  0
  6  7  1  0  0  0  0
  6  9  1  0  0  0  0
  7  8  2  0  0  0  0
  9 10  2  0  0  0  0
  9 12  1  0  0  0  0
 10 11  1  0  0  0  0
 12 13  1  0  0  0  0
M  END
>  <CHROM.1>
-146.00312690,4.46799630,14.63198707,43.98638044,2.10085809,-0.23595840,-0.03655800

>  <Name>
ligand

>  <RI>
0

>  <Rbt.Current_Directory>
/home/itssahil/PROJECTS/Mol_Feturizer/Test_systems_manuscript/rnas/4jf2

>  <Rbt.Executable>
rbdock ($Id: //depot/dev/client3/rdock/2013.1/src/exe/rbdock.cxx#4 $)

>  <Rbt.Library>
libRbt.so (2013.1, Build901 2013/11/27)

>  <Rbt.Parameter_File>
/export/apps/rDock/src/rDock_2013.1_src/data/scripts/dock_solv.prm

>  <Rbt.Receptor>
prm/blind_docking_60.prm

>  <SCORE>
-13.4521

>  <SCORE.INTER>
-12.9956

>  <SCORE.INTER.CONST>
1

>  <SCORE.INTER.POLAR>
0

>  <SCORE.INTER.ROT>
1

>  <SCORE.INTER.SOLV>
12.8687

>  <SCORE.INTER.VDW>
-17.22

>  <SCORE.INTER.norm>
-0.999661

>  <SCORE.INTRA>
-0.456488

>  <SCORE.INTRA.DIHEDRAL>
-0.183617

>  <SCORE.INTRA.DIHEDRAL.0>
1.75624

>  <SCORE.INTRA.POLAR>
0

>  <SCORE.INTRA.POLAR.0>
0

>  <SCORE.INTRA.REPUL>
0

>  <SCORE.INTRA.REPUL.0>
0

>  <SCORE.INTRA.SOLV>
-1.03483

>  <SCORE.INTRA.SOLV.lig_0>
-46.5296

>  <SCORE.INTRA.VDW>
0.152736

>  <SCORE.INTRA.VDW.0>
-0.381873

>  <SCORE.INTRA.norm>
-0.0351144

>  <SCORE.RESTR>
0

>  <SCORE.RESTR.CAVITY>
0

>  <SCORE.RESTR.norm>
0

>  <SCORE.SYSTEM>
0

>  <SCORE.SYSTEM.CONST>
0

>  <SCORE.SYSTEM.DIHEDRAL>
0

>  <SCORE.SYSTEM.SOLV>
0

>  <SCORE.SYSTEM.norm>
0

>  <SCORE.heavy>
13

>  <SCORE.norm>
-1.03478

>  <RMSD>
21.002

$$$$
ligand
 OpenBabel02271912143D
libRbt.so/2013.1/901 2013/11/27
 13 14  0  0  0  0  0  0  0  0999 V2000
    2.4660   15.5844   43.5172 N   0  0  0  0  0  0  0  0  0  0  0  0
    3.1492   16.8001   43.6830 C   0  0  0  0  0  0  0  0  0  0  0  0
    2.4307   18.0450   43.5370 N   0  0  0  0  0  0  0  0  0  0  0  0
    4.4902   16.8053   43.9931 N   0  0  0  0  0  0  0  0  0  0  0  0
    5.2270   15.6024   44.1445 C   0  0  0  0  0  0  0  0  0  0  0  0
    4.5626   14.3411   43.9595 C   0  0  0  0  0  0  0  0  0  0  0  0
    3.1566   14.3729   43.6272 C   0  0  0  0  0  0  0  0  0  0  0  0
    2.5325   13.1677   43.4634 O   0  0  0  0  0  0  0  0  0  0  0  0
    5.5237   13.2833   44.1711 C   0  0  0  0  0  0  0  0  0  0  0  0
    6.7218   13.9423   44.4515 C   0  0  0  0  0  0  0  0  0  0  0  0
    6.5348   15.3127   44.4425 N   0  0  0  0  0  0  0  0  0  0  0  0
    5.2912   11.7892   44.0605 C   0  0  0  0  0  0  0  0  0  0  0  0
    6.0937   11.0081   44.9991 N   0  0  0  0  0  0  0  0  0  0  0  0
  1  2  1  0  0  0  0
  1  7  1  0  0  0  0
  2  3  1  0  0  0  0
  2  4  2  0  0  0  0
  4  5  1  0  0  0  0
  5  6  2  0  0  0  0
  5 11  1  0  0  0  0
  6  7  1  0  0  0  0
  6  9  1  0  0  0  0
  7  8  2  0  0  0  0
  9 10  2  0  0  0  0
  9 12  1  0  0  0  0
 10 11  1  0  0  0  0
 12 13  1  0  0  0  0
M  END
>  <CHROM.1>
-146.83152874,4.43572114,14.59518156,43.99738910,2.11526675,-0.24483412,-0.02836281

>  <Name>
ligand

>  <RI>
0

>  <Rbt.Current_Directory>
/home/itssahil/PROJECTS/Mol_Feturizer/Test_systems_manuscript/rnas/4jf2

>  <Rbt.Executable>
rbdock ($Id: //depot/dev/client3/rdock/2013.1/src/exe/rbdock.cxx#4 $)

>  <Rbt.Library>
libRbt.so (2013.1, Build901 2013/11/27)

>  <Rbt.Parameter_File>
/export/apps/rDock/src/rDock_2013.1_src/data/scripts/dock_solv.prm

>  <Rbt.Receptor>
prm/blind_docking_60.prm

>  <SCORE>
-13.5208

>  <SCORE.INTER>
-13.0658

>  <SCORE.INTER.CONST>
1

>  <SCORE.INTER.POLAR>
0

>  <SCORE.INTER.ROT>
1

>  <SCORE.INTER.SOLV>
12.5995

>  <SCORE.INTER.VDW>
-17.177

>  <SCORE.INTER.norm>
-1.00506

>  <SCORE.INTRA>
-0.45516

>  <SCORE.INTRA.DIHEDRAL>
-0.184834

>  <SCORE.INTRA.DIHEDRAL.0>
1.75624

>  <SCORE.INTRA.POLAR>
0

>  <SCORE.INTRA.POLAR.0>
0

>  <SCORE.INTRA.REPUL>
0

>  <SCORE.INTRA.REPUL.0>
0

>  <SCORE.INTRA.SOLV>
-1.03432

>  <SCORE.INTRA.SOLV.lig_0>
-46.5296

>  <SCORE.INTRA.VDW>
0.154415

>  <SCORE.INTRA.VDW.0>
-0.381873

>  <SCORE.INTRA.norm>
-0.0350123

>  <SCORE.RESTR>
0.000203452

>  <SCORE.RESTR.CAVITY>
0.000203452

>  <SCORE.RESTR.norm>
1.56501e-05

>  <SCORE.SYSTEM>
0

>  <SCORE.SYSTEM.CONST>
0

>  <SCORE.SYSTEM.DIHEDRAL>
0

>  <SCORE.SYSTEM.SOLV>
0

>  <SCORE.SYSTEM.norm>
0

>  <SCORE.heavy>
13

>  <SCORE.norm>
-1.04006

>  <RMSD>
21.012

$$$$
ligand
 OpenBabel02271912143D
libRbt.so/2013.1/901 2013/11/27
 13 14  0  0  0  0  0  0  0  0999 V2000
    4.2426   16.7443   43.7593 N   0  0  0  0  0  0  0  0  0  0  0  0
    2.8878   16.4087   43.6046 C   0  0  0  0  0  0  0  0  0  0  0  0
    1.9078   17.4595   43.4534 N   0  0  0  0  0  0  0  0  0  0  0  0
    2.4980   15.0888   43.5864 N   0  0  0  0  0  0  0  0  0  0  0  0
    3.4326   14.0314   43.7316 C   0  0  0  0  0  0  0  0  0  0  0  0
    4.8246   14.3413   43.9139 C   0  0  0  0  0  0  0  0  0  0  0  0
    5.1973   15.7373   43.9358 C   0  0  0  0  0  0  0  0  0  0  0  0
    6.5246   16.0204   44.0998 O   0  0  0  0  0  0  0  0  0  0  0  0
    5.5568   13.1014   44.0316 C   0  0  0  0  0  0  0  0  0  0  0  0
    4.5849   12.1041   43.9378 C   0  0  0  0  0  0  0  0  0  0  0  0
    3.3335   12.6629   43.7515 N   0  0  0  0  0  0  0  0  0  0  0  0
    7.0456   12.9268   44.2595 C   0  0  0  0  0  0  0  0  0  0  0  0
    7.4980   13.4455   45.5484 N   0  0  0  0  0  0  0  0  0  0  0  0
  1  2  1  0  0  0  0
  1  7  1  0  0  0  0
  2  3  1  0  0  0  0
  2  4  2  0  0  0  0
  4  5  1  0  0  0  0
  5  6  2  0  0  0  0
  5 11  1  0  0  0  0
  6  7  1  0  0  0  0
  6  9  1  0  0  0  0
  7  8  2  0  0  0  0
  9 10  2  0  0  0  0
  9 12  1  0  0  0  0
 10 11  1  0  0  0  0
 12 13  1  0  0  0  0
M  END
>  <CHROM.1>
64.23301401,4.61386888,14.66017020,43.97953817,-2.42312099,0.23382429,3.11443291

>  <Name>
ligand

>  <RI>
-1

>  <Rbt.Current_Directory>
/home/itssahil/PROJECTS/Mol_Feturizer/Test_systems_manuscript/rnas/4jf2

>  <Rbt.Executable>
rbdock ($Id: //depot/dev/client3/rdock/2013.1/src/exe/rbdock.cxx#4 $)

>  <Rbt.Library>
libRbt.so (2013.1, Build901 2013/11/27)

>  <Rbt.Parameter_File>
/export/apps/rDock/src/rDock_2013.1_src/data/scripts/dock_solv.prm

>  <Rbt.Receptor>
prm/blind_docking_80.prm

>  <SCORE>
-13.2563

>  <SCORE.INTER>
-13.3236

>  <SCORE.INTER.CONST>
1

>  <SCORE.INTER.POLAR>
0

>  <SCORE.INTER.ROT>
1

>  <SCORE.INTER.SOLV>
10.1795

>  <SCORE.INTER.VDW>
-16.5422

>  <SCORE.INTER.norm>
-1.02489

>  <SCORE.INTRA>
0.0672769

>  <SCORE.INTRA.DIHEDRAL>
-0.107949

>  <SCORE.INTRA.DIHEDRAL.0>
1.75624

>  <SCORE.INTRA.POLAR>
0

>  <SCORE.INTRA.POLAR.0>
0

>  <SCORE.INTRA.REPUL>
0

>  <SCORE.INTRA.REPUL.0>
0

>  <SCORE.INTRA.SOLV>
0.292669

>  <SCORE.INTRA.SOLV.lig_0>
-46.5296

>  <SCORE.INTRA.VDW>
-0.0250829

>  <SCORE.INTRA.VDW.0>
-0.381873

>  <SCORE.INTRA.norm>
0.00517515

>  <SCORE.RESTR>
0

>  <SCORE.RESTR.CAVITY>
0

>  <SCORE.RESTR.norm>
0

>  <SCORE.SYSTEM>
0

>  <SCORE.SYSTEM.CONST>
0

>  <SCORE.SYSTEM.DIHEDRAL>
0

>  <SCORE.SYSTEM.SOLV>
0

>  <SCORE.SYSTEM.norm>
0

>  <SCORE.heavy>
13

>  <SCORE.norm>
-1.01971

>  <RMSD>
21.045

$$$$
ligand
 OpenBabel02271912143D
libRbt.so/2013.1/901 2013/11/27
 13 14  0  0  0  0  0  0  0  0999 V2000
    4.1022   16.6427   43.7820 N   0  0  0  0  0  0  0  0  0  0  0  0
    2.7598   16.2570   43.6355 C   0  0  0  0  0  0  0  0  0  0  0  0
    1.7399   17.2709   43.4967 N   0  0  0  0  0  0  0  0  0  0  0  0
    2.4198   14.9235   43.6132 N   0  0  0  0  0  0  0  0  0  0  0  0
    3.3947   13.9013   43.7462 C   0  0  0  0  0  0  0  0  0  0  0  0
    4.7753   14.2626   43.9201 C   0  0  0  0  0  0  0  0  0  0  0  0
    5.0954   15.6715   43.9465 C   0  0  0  0  0  0  0  0  0  0  0  0
    6.4123   16.0036   44.1023 O   0  0  0  0  0  0  0  0  0  0  0  0
    5.5545   13.0506   44.0260 C   0  0  0  0  0  0  0  0  0  0  0  0
    4.6201   12.0178   43.9341 C   0  0  0  0  0  0  0  0  0  0  0  0
    3.3472   12.5300   43.7597 N   0  0  0  0  0  0  0  0  0  0  0  0
    7.0504   12.9311   44.2422 C   0  0  0  0  0  0  0  0  0  0  0  0
    7.4903   13.4445   45.5375 N   0  0  0  0  0  0  0  0  0  0  0  0
  1  2  1  0  0  0  0
  1  7  1  0  0  0  0
  2  3  1  0  0  0  0
  2  4  2  0  0  0  0
  4  5  1  0  0  0  0
  5  6  2  0  0  0  0
  5 11  1  0  0  0  0
  6  7  1  0  0  0  0
  6  9  1  0  0  0  0
  7  8  2  0  0  0  0
  9 10  2  0  0  0  0
  9 12  1  0  0  0  0
 10 11  1  0  0  0  0
 12 13  1  0  0  0  0
M  END
>  <CHROM.1>
64.97117776,4.55302806,14.57168899,43.98939841,-2.46082658,0.22765052,3.12784709

>  <Name>
ligand

>  <RI>
-1

>  <Rbt.Current_Directory>
/home/itssahil/PROJECTS/Mol_Feturizer/Test_systems_manuscript/rnas/4jf2

>  <Rbt.Executable>
rbdock ($Id: //depot/dev/client3/rdock/2013.1/src/exe/rbdock.cxx#4 $)

>  <Rbt.Library>
libRbt.so (2013.1, Build901 2013/11/27)

>  <Rbt.Parameter_File>
/export/apps/rDock/src/rDock_2013.1_src/data/scripts/dock_solv.prm

>  <Rbt.Receptor>
prm/blind_docking_80.prm

>  <SCORE>
-13.1739

>  <SCORE.INTER>
-13.2298

>  <SCORE.INTER.CONST>
1

>  <SCORE.INTER.POLAR>
0

>  <SCORE.INTER.ROT>
1

>  <SCORE.INTER.SOLV>
9.92549

>  <SCORE.INTER.VDW>
-16.395

>  <SCORE.INTER.norm>
-1.01767

>  <SCORE.INTRA>
0.0558495

>  <SCORE.INTRA.DIHEDRAL>
-0.11206

>  <SCORE.INTRA.DIHEDRAL.0>
1.75624

>  <SCORE.INTRA.POLAR>
0

>  <SCORE.INTRA.POLAR.0>
0

>  <SCORE.INTRA.REPUL>
0

>  <SCORE.INTRA.REPUL.0>
0

>  <SCORE.INTRA.SOLV>
0.271754

>  <SCORE.INTRA.SOLV.lig_0>
-46.5296

>  <SCORE.INTRA.VDW>
-0.0239975

>  <SCORE.INTRA.VDW.0>
-0.381873

>  <SCORE.INTRA.norm>
0.00429612

>  <SCORE.RESTR>
0

>  <SCORE.RESTR.CAVITY>
0

>  <SCORE.RESTR.norm>
0

>  <SCORE.SYSTEM>
0

>  <SCORE.SYSTEM.CONST>
0

>  <SCORE.SYSTEM.DIHEDRAL>
0

>  <SCORE.SYSTEM.SOLV>
0

>  <SCORE.SYSTEM.norm>
0

>  <SCORE.heavy>
13

>  <SCORE.norm>
-1.01338

>  <RMSD>
21.082

$$$$
ligand
 OpenBabel02271912143D
libRbt.so/2013.1/901 2013/11/27
 13 14  0  0  0  0  0  0  0  0999 V2000
    4.4176   16.7814   43.7947 N   0  0  0  0  0  0  0  0  0  0  0  0
    3.0535   16.4766   43.6585 C   0  0  0  0  0  0  0  0  0  0  0  0
    2.0948   17.5496   43.5282 N   0  0  0  0  0  0  0  0  0  0  0  0
    2.6345   15.1657   43.6384 N   0  0  0  0  0  0  0  0  0  0  0  0
    3.5477   14.0871   43.7633 C   0  0  0  0  0  0  0  0  0  0  0  0
    4.9487   14.3653   43.9265 C   0  0  0  0  0  0  0  0  0  0  0  0
    5.3524   15.7525   43.9510 C   0  0  0  0  0  0  0  0  0  0  0  0
    6.6879   16.0054   44.0967 O   0  0  0  0  0  0  0  0  0  0  0  0
    5.6551   13.1089   44.0258 C   0  0  0  0  0  0  0  0  0  0  0  0
    4.6600   12.1337   43.9408 C   0  0  0  0  0  0  0  0  0  0  0  0
    3.4186   12.7211   43.7766 N   0  0  0  0  0  0  0  0  0  0  0  0
    7.1428   12.9002   44.2302 C   0  0  0  0  0  0  0  0  0  0  0  0
    7.5450   12.9413   45.6344 N   0  0  0  0  0  0  0  0  0  0  0  0
  1  2  1  0  0  0  0
  1  7  1  0  0  0  0
  2  3  1  0  0  0  0
  2  4  2  0  0  0  0
  4  5  1  0  0  0  0
  5  6  2  0  0  0  0
  5 11  1  0  0  0  0
  6  7  1  0  0  0  0
  6  9  1  0  0  0  0
  7  8  2  0  0  0  0
  9 10  2  0  0  0  0
  9 12  1  0  0  0  0
 10 11  1  0  0  0  0
 12 13  1  0  0  0  0
M  END
>  <CHROM.1>
84.90347045,4.73947049,14.65086821,44.00682662,-2.36633331,0.22030604,3.09940797

>  <Name>
ligand

>  <RI>
0

>  <Rbt.Current_Directory>
/home/itssahil/PROJECTS/Mol_Feturizer/Test_systems_manuscript/rnas/4jf2

>  <Rbt.Executable>
rbdock ($Id: //depot/dev/client3/rdock/2013.1/src/exe/rbdock.cxx#4 $)

>  <Rbt.Library>
libRbt.so (2013.1, Build901 2013/11/27)

>  <Rbt.Parameter_File>
/export/apps/rDock/src/rDock_2013.1_src/data/scripts/dock_solv.prm

>  <Rbt.Receptor>
prm/blind_docking_60.prm

>  <SCORE>
-13.903

>  <SCORE.INTER>
-13.6897

>  <SCORE.INTER.CONST>
1

>  <SCORE.INTER.POLAR>
0

>  <SCORE.INTER.ROT>
1

>  <SCORE.INTER.SOLV>
9.97598

>  <SCORE.INTER.VDW>
-16.7184

>  <SCORE.INTER.norm>
-1.05305

>  <SCORE.INTRA>
-0.213871

>  <SCORE.INTRA.DIHEDRAL>
-0.1856

>  <SCORE.INTRA.DIHEDRAL.0>
1.75624

>  <SCORE.INTRA.POLAR>
0

>  <SCORE.INTRA.POLAR.0>
0

>  <SCORE.INTRA.REPUL>
0

>  <SCORE.INTRA.REPUL.0>
0

>  <SCORE.INTRA.SOLV>
-0.298623

>  <SCORE.INTRA.SOLV.lig_0>
-46.5296

>  <SCORE.INTRA.VDW>
0.0282403

>  <SCORE.INTRA.VDW.0>
-0.381873

>  <SCORE.INTRA.norm>
-0.0164516

>  <SCORE.RESTR>
0.000575853

>  <SCORE.RESTR.CAVITY>
0.000575853

>  <SCORE.RESTR.norm>
4.42964e-05

>  <SCORE.SYSTEM>
0

>  <SCORE.SYSTEM.CONST>
0

>  <SCORE.SYSTEM.DIHEDRAL>
0

>  <SCORE.SYSTEM.SOLV>
0

>  <SCORE.SYSTEM.norm>
0

>  <SCORE.heavy>
13

>  <SCORE.norm>
-1.06946

>  <RMSD>
21.093

$$$$
ligand
 OpenBabel02271912143D
libRbt.so/2013.1/901 2013/11/27
 13 14  0  0  0  0  0  0  0  0999 V2000
    6.5612   13.3822   44.4039 N   0  0  0  0  0  0  0  0  0  0  0  0
    5.9347   12.1474   44.1696 C   0  0  0  0  0  0  0  0  0  0  0  0
    6.7012   10.9282   44.2845 N   0  0  0  0  0  0  0  0  0  0  0  0
    4.5983   12.0985   43.8438 N   0  0  0  0  0  0  0  0  0  0  0  0
    3.8149   13.2752   43.7228 C   0  0  0  0  0  0  0  0  0  0  0  0
    4.4311   14.5568   43.9345 C   0  0  0  0  0  0  0  0  0  0  0  0
    5.8372   14.5714   44.2673 C   0  0  0  0  0  0  0  0  0  0  0  0
    6.4105   15.7947   44.4761 O   0  0  0  0  0  0  0  0  0  0  0  0
    3.4274   15.5808   43.7574 C   0  0  0  0  0  0  0  0  0  0  0  0
    2.2631   14.8845   43.4287 C   0  0  0  0  0  0  0  0  0  0  0  0
    2.4996   13.5219   43.4196 N   0  0  0  0  0  0  0  0  0  0  0  0
    3.6133   17.0823   43.8560 C   0  0  0  0  0  0  0  0  0  0  0  0
    2.4252   17.8388   43.4671 N   0  0  0  0  0  0  0  0  0  0  0  0
  1  2  1  0  0  0  0
  1  7  1  0  0  0  0
  2  3  1  0  0  0  0
  2  4  2  0  0  0  0
  4  5  1  0  0  0  0
  5  6  2  0  0  0  0
  5 11  1  0  0  0  0
  6  7  1  0  0  0  0
  6  9  1  0  0  0  0
  7  8  2  0  0  0  0
  9 10  2  0  0  0  0
  9 12  1  0  0  0  0
 10 11  1  0  0  0  0
 12 13  1  0  0  0  0
M  END
>  <CHROM.1>
173.24429862,4.53844100,14.30740653,43.93501216,-0.95964487,-0.24060072,0.04205517

>  <Name>
ligand

>  <RI>
0

>  <Rbt.Current_Directory>
/home/itssahil/PROJECTS/Mol_Feturizer/Test_systems_manuscript/rnas/4jf2

>  <Rbt.Executable>
rbdock ($Id: //depot/dev/client3/rdock/2013.1/src/exe/rbdock.cxx#4 $)

>  <Rbt.Library>
libRbt.so (2013.1, Build901 2013/11/27)

>  <Rbt.Parameter_File>
/export/apps/rDock/src/rDock_2013.1_src/data/scripts/dock_solv.prm

>  <Rbt.Receptor>
prm/blind_docking_100.prm

>  <SCORE>
-12.2906

>  <SCORE.INTER>
-12.1063

>  <SCORE.INTER.CONST>
1

>  <SCORE.INTER.POLAR>
0

>  <SCORE.INTER.ROT>
1

>  <SCORE.INTER.SOLV>
12.1331

>  <SCORE.INTER.VDW>
-16.3819

>  <SCORE.INTER.norm>
-0.93125

>  <SCORE.INTRA>
-0.330062

>  <SCORE.INTRA.DIHEDRAL>
-0.0446254

>  <SCORE.INTRA.DIHEDRAL.0>
1.75624

>  <SCORE.INTRA.POLAR>
0

>  <SCORE.INTRA.POLAR.0>
0

>  <SCORE.INTRA.REPUL>
0

>  <SCORE.INTRA.REPUL.0>
0

>  <SCORE.INTRA.SOLV>
-1.01716

>  <SCORE.INTRA.SOLV.lig_0>
-46.5296

>  <SCORE.INTRA.VDW>
0.200833

>  <SCORE.INTRA.VDW.0>
-0.381873

>  <SCORE.INTRA.norm>
-0.0253894

>  <SCORE.RESTR>
0.145747

>  <SCORE.RESTR.CAVITY>
0.145747

>  <SCORE.RESTR.norm>
0.0112113

>  <SCORE.SYSTEM>
0

>  <SCORE.SYSTEM.CONST>
0

>  <SCORE.SYSTEM.DIHEDRAL>
0

>  <SCORE.SYSTEM.SOLV>
0

>  <SCORE.SYSTEM.norm>
0

>  <SCORE.heavy>
13

>  <SCORE.norm>
-0.945428

>  <RMSD>
21.109

$$$$
ligand
 OpenBabel02271912143D
libRbt.so/2013.1/901 2013/11/27
 13 14  0  0  0  0  0  0  0  0999 V2000
    4.4717   16.7065   43.8911 N   0  0  0  0  0  0  0  0  0  0  0  0
    3.0994   16.5027   43.6727 C   0  0  0  0  0  0  0  0  0  0  0  0
    2.2277   17.6438   43.5136 N   0  0  0  0  0  0  0  0  0  0  0  0
    2.5909   15.2258   43.5998 N   0  0  0  0  0  0  0  0  0  0  0  0
    3.4172   14.0824   43.7508 C   0  0  0  0  0  0  0  0  0  0  0  0
    4.8228   14.2565   43.9977 C   0  0  0  0  0  0  0  0  0  0  0  0
    5.3212   15.6106   44.0757 C   0  0  0  0  0  0  0  0  0  0  0  0
    6.6608   15.7644   44.3008 O   0  0  0  0  0  0  0  0  0  0  0  0
    5.4321   12.9511   44.1077 C   0  0  0  0  0  0  0  0  0  0  0  0
    4.3773   12.0514   43.9457 C   0  0  0  0  0  0  0  0  0  0  0  0
    3.1917   12.7291   43.7262 N   0  0  0  0  0  0  0  0  0  0  0  0
    6.8874   12.6326   44.3895 C   0  0  0  0  0  0  0  0  0  0  0  0
    7.0997   11.9998   45.6893 N   0  0  0  0  0  0  0  0  0  0  0  0
  1  2  1  0  0  0  0
  1  7  1  0  0  0  0
  2  3  1  0  0  0  0
  2  4  2  0  0  0  0
  4  5  1  0  0  0  0
  5  6  2  0  0  0  0
  5 11  1  0  0  0  0
  6  7  1  0  0  0  0
  6  9  1  0  0  0  0
  7  8  2  0  0  0  0
  9 10  2  0  0  0  0
  9 12  1  0  0  0  0
 10 11  1  0  0  0  0
 12 13  1  0  0  0  0
M  END
>  <CHROM.1>
112.54913964,4.62094984,14.50441165,44.06250663,-2.24115112,0.25192383,3.08546658

>  <Name>
ligand

>  <RI>
0

>  <Rbt.Current_Directory>
/home/itssahil/PROJECTS/Mol_Feturizer/Test_systems_manuscript/rnas/4jf2

>  <Rbt.Executable>
rbdock ($Id: //depot/dev/client3/rdock/2013.1/src/exe/rbdock.cxx#4 $)

>  <Rbt.Library>
libRbt.so (2013.1, Build901 2013/11/27)

>  <Rbt.Parameter_File>
/export/apps/rDock/src/rDock_2013.1_src/data/scripts/dock_solv.prm

>  <Rbt.Receptor>
prm/blind_docking_100.prm

>  <SCORE>
-13.8227

>  <SCORE.INTER>
-13.5276

>  <SCORE.INTER.CONST>
1

>  <SCORE.INTER.POLAR>
0

>  <SCORE.INTER.ROT>
1

>  <SCORE.INTER.SOLV>
10.6435

>  <SCORE.INTER.VDW>
-16.8329

>  <SCORE.INTER.norm>
-1.04058

>  <SCORE.INTRA>
-0.359128

>  <SCORE.INTRA.DIHEDRAL>
-0.111731

>  <SCORE.INTRA.DIHEDRAL.0>
1.75624

>  <SCORE.INTRA.POLAR>
0

>  <SCORE.INTRA.POLAR.0>
0

>  <SCORE.INTRA.REPUL>
0

>  <SCORE.INTRA.REPUL.0>
0

>  <SCORE.INTRA.SOLV>
-0.789275

>  <SCORE.INTRA.SOLV.lig_0>
-46.5296

>  <SCORE.INTRA.VDW>
0.0913748

>  <SCORE.INTRA.VDW.0>
-0.381873

>  <SCORE.INTRA.norm>
-0.0276252

>  <SCORE.RESTR>
0.0640383

>  <SCORE.RESTR.CAVITY>
0.0640383

>  <SCORE.RESTR.norm>
0.00492602

>  <SCORE.SYSTEM>
0

>  <SCORE.SYSTEM.CONST>
0

>  <SCORE.SYSTEM.DIHEDRAL>
0

>  <SCORE.SYSTEM.SOLV>
0

>  <SCORE.SYSTEM.norm>
0

>  <SCORE.heavy>
13

>  <SCORE.norm>
-1.06328

>  <RMSD>
21.111

$$$$
ligand
 OpenBabel02271912143D
libRbt.so/2013.1/901 2013/11/27
 13 14  0  0  0  0  0  0  0  0999 V2000
    4.3135   16.7019   43.8053 N   0  0  0  0  0  0  0  0  0  0  0  0
    2.9584   16.3583   43.6717 C   0  0  0  0  0  0  0  0  0  0  0  0
    1.9704   17.4033   43.5330 N   0  0  0  0  0  0  0  0  0  0  0  0
    2.5758   15.0363   43.6621 N   0  0  0  0  0  0  0  0  0  0  0  0
    3.5185   13.9844   43.7954 C   0  0  0  0  0  0  0  0  0  0  0  0
    4.9112   14.3025   43.9562 C   0  0  0  0  0  0  0  0  0  0  0  0
    5.2764   15.7006   43.9696 C   0  0  0  0  0  0  0  0  0  0  0  0
    6.6044   15.9914   44.1131 O   0  0  0  0  0  0  0  0  0  0  0  0
    5.6521   13.0670   44.0655 C   0  0  0  0  0  0  0  0  0  0  0  0
    4.6845   12.0640   43.9884 C   0  0  0  0  0  0  0  0  0  0  0  0
    3.4273   12.6154   43.8197 N   0  0  0  0  0  0  0  0  0  0  0  0
    7.1451   12.9012   44.2713 C   0  0  0  0  0  0  0  0  0  0  0  0
    7.5429   12.9404   45.6768 N   0  0  0  0  0  0  0  0  0  0  0  0
  1  2  1  0  0  0  0
  1  7  1  0  0  0  0
  2  3  1  0  0  0  0
  2  4  2  0  0  0  0
  4  5  1  0  0  0  0
  5  6  2  0  0  0  0
  5 11  1  0  0  0  0
  6  7  1  0  0  0  0
  6  9  1  0  0  0  0
  7  8  2  0  0  0  0
  9 10  2  0  0  0  0
  9 12  1  0  0  0  0
 10 11  1  0  0  0  0
 12 13  1  0  0  0  0
M  END
>  <CHROM.1>
85.94795576,4.69397347,14.58084956,44.03444924,-2.39279830,0.22114590,3.09677163

>  <Name>
ligand

>  <RI>
0

>  <Rbt.Current_Directory>
/home/itssahil/PROJECTS/Mol_Feturizer/Test_systems_manuscript/rnas/4jf2

>  <Rbt.Executable>
rbdock ($Id: //depot/dev/client3/rdock/2013.1/src/exe/rbdock.cxx#4 $)

>  <Rbt.Library>
libRbt.so (2013.1, Build901 2013/11/27)

>  <Rbt.Parameter_File>
/export/apps/rDock/src/rDock_2013.1_src/data/scripts/dock_solv.prm

>  <Rbt.Receptor>
prm/blind_docking_60.prm

>  <SCORE>
-14.0452

>  <SCORE.INTER>
-13.8305

>  <SCORE.INTER.CONST>
1

>  <SCORE.INTER.POLAR>
0

>  <SCORE.INTER.ROT>
1

>  <SCORE.INTER.SOLV>
9.78973

>  <SCORE.INTER.VDW>
-16.7502

>  <SCORE.INTER.norm>
-1.06388

>  <SCORE.INTRA>
-0.226281

>  <SCORE.INTRA.DIHEDRAL>
-0.186651

>  <SCORE.INTRA.DIHEDRAL.0>
1.75624

>  <SCORE.INTRA.POLAR>
0

>  <SCORE.INTRA.POLAR.0>
0

>  <SCORE.INTRA.REPUL>
0

>  <SCORE.INTRA.REPUL.0>
0

>  <SCORE.INTRA.SOLV>
-0.32812

>  <SCORE.INTRA.SOLV.lig_0>
-46.5296

>  <SCORE.INTRA.VDW>
0.0311041

>  <SCORE.INTRA.VDW.0>
-0.381873

>  <SCORE.INTRA.norm>
-0.0174062

>  <SCORE.RESTR>
0.0115282

>  <SCORE.RESTR.CAVITY>
0.0115282

>  <SCORE.RESTR.norm>
0.000886783

>  <SCORE.SYSTEM>
0

>  <SCORE.SYSTEM.CONST>
0

>  <SCORE.SYSTEM.DIHEDRAL>
0

>  <SCORE.SYSTEM.SOLV>
0

>  <SCORE.SYSTEM.norm>
0

>  <SCORE.heavy>
13

>  <SCORE.norm>
-1.0804

>  <RMSD>
21.115

$$$$
ligand
 OpenBabel02271912143D
libRbt.so/2013.1/901 2013/11/27
 13 14  0  0  0  0  0  0  0  0999 V2000
    4.3140   16.7006   43.8047 N   0  0  0  0  0  0  0  0  0  0  0  0
    2.9587   16.3561   43.6753 C   0  0  0  0  0  0  0  0  0  0  0  0
    1.9691   17.4006   43.5439 N   0  0  0  0  0  0  0  0  0  0  0  0
    2.5773   15.0338   43.6628 N   0  0  0  0  0  0  0  0  0  0  0  0
    3.5215   13.9823   43.7889 C   0  0  0  0  0  0  0  0  0  0  0  0
    4.9146   14.3013   43.9453 C   0  0  0  0  0  0  0  0  0  0  0  0
    5.2785   15.6996   43.9620 C   0  0  0  0  0  0  0  0  0  0  0  0
    6.6068   15.9913   44.1012 O   0  0  0  0  0  0  0  0  0  0  0  0
    5.6571   13.0661   44.0476 C   0  0  0  0  0  0  0  0  0  0  0  0
    4.6901   12.0625   43.9709 C   0  0  0  0  0  0  0  0  0  0  0  0
    3.4318   12.6132   43.8089 N   0  0  0  0  0  0  0  0  0  0  0  0
    7.1510   12.9011   44.2470 C   0  0  0  0  0  0  0  0  0  0  0  0
    7.5567   12.9564   45.6497 N   0  0  0  0  0  0  0  0  0  0  0  0
  1  2  1  0  0  0  0
  1  7  1  0  0  0  0
  2  3  1  0  0  0  0
  2  4  2  0  0  0  0
  4  5  1  0  0  0  0
  5  6  2  0  0  0  0
  5 11  1  0  0  0  0
  6  7  1  0  0  0  0
  6  9  1  0  0  0  0
  7  8  2  0  0  0  0
  9 10  2  0  0  0  0
  9 12  1  0  0  0  0
 10 11  1  0  0  0  0
 12 13  1  0  0  0  0
M  END
>  <CHROM.1>
85.06813543,4.69756858,14.58081944,44.02521522,-2.39554559,0.21755325,3.10108467

>  <Name>
ligand

>  <RI>
0

>  <Rbt.Current_Directory>
/home/itssahil/PROJECTS/Mol_Feturizer/Test_systems_manuscript/rnas/4jf2

>  <Rbt.Executable>
rbdock ($Id: //depot/dev/client3/rdock/2013.1/src/exe/rbdock.cxx#4 $)

>  <Rbt.Library>
libRbt.so (2013.1, Build901 2013/11/27)

>  <Rbt.Parameter_File>
/export/apps/rDock/src/rDock_2013.1_src/data/scripts/dock_solv.prm

>  <Rbt.Receptor>
prm/blind_docking_60.prm

>  <SCORE>
-14.0154

>  <SCORE.INTER>
-13.7996

>  <SCORE.INTER.CONST>
1

>  <SCORE.INTER.POLAR>
0

>  <SCORE.INTER.ROT>
1

>  <SCORE.INTER.SOLV>
9.76856

>  <SCORE.INTER.VDW>
-16.7226

>  <SCORE.INTER.norm>
-1.06151

>  <SCORE.INTRA>
-0.215839

>  <SCORE.INTRA.DIHEDRAL>
-0.185787

>  <SCORE.INTRA.DIHEDRAL.0>
1.75624

>  <SCORE.INTRA.POLAR>
0

>  <SCORE.INTRA.POLAR.0>
0

>  <SCORE.INTRA.REPUL>
0

>  <SCORE.INTRA.REPUL.0>
0

>  <SCORE.INTRA.SOLV>
-0.303279

>  <SCORE.INTRA.SOLV.lig_0>
-46.5296

>  <SCORE.INTRA.VDW>
0.0286942

>  <SCORE.INTRA.VDW.0>
-0.381873

>  <SCORE.INTRA.norm>
-0.016603

>  <SCORE.RESTR>
0

>  <SCORE.RESTR.CAVITY>
0

>  <SCORE.RESTR.norm>
0

>  <SCORE.SYSTEM>
0

>  <SCORE.SYSTEM.CONST>
0

>  <SCORE.SYSTEM.DIHEDRAL>
0

>  <SCORE.SYSTEM.SOLV>
0

>  <SCORE.SYSTEM.norm>
0

>  <SCORE.heavy>
13

>  <SCORE.norm>
-1.07811

>  <RMSD>
21.121

$$$$
ligand
 OpenBabel02271912143D
libRbt.so/2013.1/901 2013/11/27
 13 14  0  0  0  0  0  0  0  0999 V2000
    4.4221   16.6622   43.8059 N   0  0  0  0  0  0  0  0  0  0  0  0
    3.0572   16.3549   43.6838 C   0  0  0  0  0  0  0  0  0  0  0  0
    2.0953   17.4262   43.5633 N   0  0  0  0  0  0  0  0  0  0  0  0
    2.6404   15.0433   43.6680 N   0  0  0  0  0  0  0  0  0  0  0  0
    3.5568   13.9664   43.7835 C   0  0  0  0  0  0  0  0  0  0  0  0
    4.9589   14.2471   43.9322 C   0  0  0  0  0  0  0  0  0  0  0  0
    5.3603   15.6351   43.9525 C   0  0  0  0  0  0  0  0  0  0  0  0
    6.6968   15.8904   44.0844 O   0  0  0  0  0  0  0  0  0  0  0  0
    5.6686   12.9920   44.0243 C   0  0  0  0  0  0  0  0  0  0  0  0
    4.6745   12.0150   43.9495 C   0  0  0  0  0  0  0  0  0  0  0  0
    3.4304   12.6001   43.7981 N   0  0  0  0  0  0  0  0  0  0  0  0
    7.1587   12.7860   44.2133 C   0  0  0  0  0  0  0  0  0  0  0  0
    7.5344   12.5202   45.6002 N   0  0  0  0  0  0  0  0  0  0  0  0
  1  2  1  0  0  0  0
  1  7  1  0  0  0  0
  2  3  1  0  0  0  0
  2  4  2  0  0  0  0
  4  5  1  0  0  0  0
  5  6  2  0  0  0  0
  5 11  1  0  0  0  0
  6  7  1  0  0  0  0
  6  9  1  0  0  0  0
  7  8  2  0  0  0  0
  9 10  2  0  0  0  0
  9 12  1  0  0  0  0
 10 11  1  0  0  0  0
 12 13  1  0  0  0  0
M  END
>  <CHROM.1>
98.19986805,4.74667776,14.50725356,44.01363646,-2.34465508,0.20290977,3.08979605

>  <Name>
ligand

>  <RI>
0

>  <Rbt.Current_Directory>
/home/itssahil/PROJECTS/Mol_Feturizer/Test_systems_manuscript/rnas/4jf2

>  <Rbt.Executable>
rbdock ($Id: //depot/dev/client3/rdock/2013.1/src/exe/rbdock.cxx#4 $)

>  <Rbt.Library>
libRbt.so (2013.1, Build901 2013/11/27)

>  <Rbt.Parameter_File>
/export/apps/rDock/src/rDock_2013.1_src/data/scripts/dock_solv.prm

>  <Rbt.Receptor>
prm/blind_docking_100.prm

>  <SCORE>
-14.2654

>  <SCORE.INTER>
-13.9651

>  <SCORE.INTER.CONST>
1

>  <SCORE.INTER.POLAR>
0

>  <SCORE.INTER.ROT>
1

>  <SCORE.INTER.SOLV>
9.42348

>  <SCORE.INTER.VDW>
-16.7179

>  <SCORE.INTER.norm>
-1.07424

>  <SCORE.INTRA>
-0.309546

>  <SCORE.INTRA.DIHEDRAL>
-0.174395

>  <SCORE.INTRA.DIHEDRAL.0>
1.75624

>  <SCORE.INTRA.POLAR>
0

>  <SCORE.INTRA.POLAR.0>
0

>  <SCORE.INTRA.REPUL>
0

>  <SCORE.INTRA.REPUL.0>
0

>  <SCORE.INTRA.SOLV>
-0.567905

>  <SCORE.INTRA.SOLV.lig_0>
-46.5296

>  <SCORE.INTRA.VDW>
0.0616037

>  <SCORE.INTRA.VDW.0>
-0.381873

>  <SCORE.INTRA.norm>
-0.0238113

>  <SCORE.RESTR>
0.00927974

>  <SCORE.RESTR.CAVITY>
0.00927974

>  <SCORE.RESTR.norm>
0.000713826

>  <SCORE.SYSTEM>
0

>  <SCORE.SYSTEM.CONST>
0

>  <SCORE.SYSTEM.DIHEDRAL>
0

>  <SCORE.SYSTEM.SOLV>
0

>  <SCORE.SYSTEM.norm>
0

>  <SCORE.heavy>
13

>  <SCORE.norm>
-1.09734

>  <RMSD>
21.199

$$$$
ligand
 OpenBabel02271912143D
libRbt.so/2013.1/901 2013/11/27
 13 14  0  0  0  0  0  0  0  0999 V2000
    4.3419   16.6246   43.8497 N   0  0  0  0  0  0  0  0  0  0  0  0
    2.9852   16.2845   43.7239 C   0  0  0  0  0  0  0  0  0  0  0  0
    1.9969   17.3325   43.6132 N   0  0  0  0  0  0  0  0  0  0  0  0
    2.6012   14.9631   43.6955 N   0  0  0  0  0  0  0  0  0  0  0  0
    3.5441   13.9083   43.8011 C   0  0  0  0  0  0  0  0  0  0  0  0
    4.9388   14.2225   43.9532 C   0  0  0  0  0  0  0  0  0  0  0  0
    5.3055   15.6198   43.9870 C   0  0  0  0  0  0  0  0  0  0  0  0
    6.6351   15.9071   44.1219 O   0  0  0  0  0  0  0  0  0  0  0  0
    5.6795   12.9847   44.0337 C   0  0  0  0  0  0  0  0  0  0  0  0
    4.7101   11.9840   43.9492 C   0  0  0  0  0  0  0  0  0  0  0  0
    3.4519   12.5392   43.8027 N   0  0  0  0  0  0  0  0  0  0  0  0
    7.1743   12.8141   44.2215 C   0  0  0  0  0  0  0  0  0  0  0  0
    7.5559   12.5418   45.6055 N   0  0  0  0  0  0  0  0  0  0  0  0
  1  2  1  0  0  0  0
  1  7  1  0  0  0  0
  2  3  1  0  0  0  0
  2  4  2  0  0  0  0
  4  5  1  0  0  0  0
  5  6  2  0  0  0  0
  5 11  1  0  0  0  0
  6  7  1  0  0  0  0
  6  9  1  0  0  0  0
  7  8  2  0  0  0  0
  9 10  2  0  0  0  0
  9 12  1  0  0  0  0
 10 11  1  0  0  0  0
 12 13  1  0  0  0  0
M  END
>  <CHROM.1>
98.31941997,4.72010640,14.47629353,44.03698747,-2.36987204,0.20430133,3.10438772

>  <Name>
ligand

>  <RI>
0

>  <Rbt.Current_Directory>
/home/itssahil/PROJECTS/Mol_Feturizer/Test_systems_manuscript/rnas/4jf2

>  <Rbt.Executable>
rbdock ($Id: //depot/dev/client3/rdock/2013.1/src/exe/rbdock.cxx#4 $)

>  <Rbt.Library>
libRbt.so (2013.1, Build901 2013/11/27)

>  <Rbt.Parameter_File>
/export/apps/rDock/src/rDock_2013.1_src/data/scripts/dock_solv.prm

>  <Rbt.Receptor>
prm/blind_docking_100.prm

>  <SCORE>
-14.2756

>  <SCORE.INTER>
-13.971

>  <SCORE.INTER.CONST>
1

>  <SCORE.INTER.POLAR>
0

>  <SCORE.INTER.ROT>
1

>  <SCORE.INTER.SOLV>
9.34925

>  <SCORE.INTER.VDW>
-16.6971

>  <SCORE.INTER.norm>
-1.07469

>  <SCORE.INTRA>
-0.310097

>  <SCORE.INTRA.DIHEDRAL>
-0.174061

>  <SCORE.INTRA.DIHEDRAL.0>
1.75624

>  <SCORE.INTRA.POLAR>
0

>  <SCORE.INTRA.POLAR.0>
0

>  <SCORE.INTRA.REPUL>
0

>  <SCORE.INTRA.REPUL.0>
0

>  <SCORE.INTRA.SOLV>
-0.569879

>  <SCORE.INTRA.SOLV.lig_0>
-46.5296

>  <SCORE.INTRA.VDW>
0.0618735

>  <SCORE.INTRA.VDW.0>
-0.381873

>  <SCORE.INTRA.norm>
-0.0238536

>  <SCORE.RESTR>
0.00549919

>  <SCORE.RESTR.CAVITY>
0.00549919

>  <SCORE.RESTR.norm>
0.000423015

>  <SCORE.SYSTEM>
0

>  <SCORE.SYSTEM.CONST>
0

>  <SCORE.SYSTEM.DIHEDRAL>
0

>  <SCORE.SYSTEM.SOLV>
0

>  <SCORE.SYSTEM.norm>
0

>  <SCORE.heavy>
13

>  <SCORE.norm>
-1.09812

>  <RMSD>
21.201

$$$$
ligand
 OpenBabel02271912143D
libRbt.so/2013.1/901 2013/11/27
 13 14  0  0  0  0  0  0  0  0999 V2000
    4.5670   16.6345   43.8478 N   0  0  0  0  0  0  0  0  0  0  0  0
    3.1978   16.3665   43.6870 C   0  0  0  0  0  0  0  0  0  0  0  0
    2.2703   17.4651   43.5448 N   0  0  0  0  0  0  0  0  0  0  0  0
    2.7446   15.0674   43.6541 N   0  0  0  0  0  0  0  0  0  0  0  0
    3.6266   13.9644   43.7901 C   0  0  0  0  0  0  0  0  0  0  0  0
    5.0314   14.2046   43.9784 C   0  0  0  0  0  0  0  0  0  0  0  0
    5.4713   15.5806   44.0157 C   0  0  0  0  0  0  0  0  0  0  0  0
    6.8104   15.7973   44.1853 O   0  0  0  0  0  0  0  0  0  0  0  0
    5.7025   12.9295   44.0846 C   0  0  0  0  0  0  0  0  0  0  0  0
    4.6836   11.9815   43.9783 C   0  0  0  0  0  0  0  0  0  0  0  0
    3.4612   12.6022   43.7954 N   0  0  0  0  0  0  0  0  0  0  0  0
    7.1805   12.6806   44.3135 C   0  0  0  0  0  0  0  0  0  0  0  0
    7.6467   13.1316   45.6229 N   0  0  0  0  0  0  0  0  0  0  0  0
  1  2  1  0  0  0  0
  1  7  1  0  0  0  0
  2  3  1  0  0  0  0
  2  4  2  0  0  0  0
  4  5  1  0  0  0  0
  5  6  2  0  0  0  0
  5 11  1  0  0  0  0
  6  7  1  0  0  0  0
  6  9  1  0  0  0  0
  7  8  2  0  0  0  0
  9 10  2  0  0  0  0
  9 12  1  0  0  0  0
 10 11  1  0  0  0  0
 12 13  1  0  0  0  0
M  END
>  <CHROM.1>
65.75183810,4.83566373,14.53002175,44.04810818,-2.37091838,0.23544801,3.11222775

>  <Name>
ligand

>  <RI>
0

>  <Rbt.Current_Directory>
/home/itssahil/PROJECTS/Mol_Feturizer/Test_systems_manuscript/rnas/4jf2

>  <Rbt.Executable>
rbdock ($Id: //depot/dev/client3/rdock/2013.1/src/exe/rbdock.cxx#4 $)

>  <Rbt.Library>
libRbt.so (2013.1, Build901 2013/11/27)

>  <Rbt.Parameter_File>
/export/apps/rDock/src/rDock_2013.1_src/data/scripts/dock_solv.prm

>  <Rbt.Receptor>
prm/blind_docking_100.prm

>  <SCORE>
-14.0625

>  <SCORE.INTER>
-14.1064

>  <SCORE.INTER.CONST>
1

>  <SCORE.INTER.POLAR>
0

>  <SCORE.INTER.ROT>
1

>  <SCORE.INTER.SOLV>
10.2947

>  <SCORE.INTER.VDW>
-17.1025

>  <SCORE.INTER.norm>
-1.08511

>  <SCORE.INTRA>
0.0439229

>  <SCORE.INTRA.DIHEDRAL>
-0.116349

>  <SCORE.INTRA.DIHEDRAL.0>
1.75624

>  <SCORE.INTRA.POLAR>
0

>  <SCORE.INTRA.POLAR.0>
0

>  <SCORE.INTRA.REPUL>
0

>  <SCORE.INTRA.REPUL.0>
0

>  <SCORE.INTRA.SOLV>
0.249583

>  <SCORE.INTRA.SOLV.lig_0>
-46.5296

>  <SCORE.INTRA.VDW>
-0.0226944

>  <SCORE.INTRA.VDW.0>
-0.381873

>  <SCORE.INTRA.norm>
0.00337868

>  <SCORE.RESTR>
1.72798e-05

>  <SCORE.RESTR.CAVITY>
1.72798e-05

>  <SCORE.RESTR.norm>
1.32922e-06

>  <SCORE.SYSTEM>
0

>  <SCORE.SYSTEM.CONST>
0

>  <SCORE.SYSTEM.DIHEDRAL>
0

>  <SCORE.SYSTEM.SOLV>
0

>  <SCORE.SYSTEM.norm>
0

>  <SCORE.heavy>
13

>  <SCORE.norm>
-1.08173

>  <RMSD>
21.202

$$$$
ligand
 OpenBabel02271912143D
libRbt.so/2013.1/901 2013/11/27
 13 14  0  0  0  0  0  0  0  0999 V2000
    4.3620   16.6224   43.8459 N   0  0  0  0  0  0  0  0  0  0  0  0
    3.0074   16.2713   43.7273 C   0  0  0  0  0  0  0  0  0  0  0  0
    2.0108   17.3112   43.6138 N   0  0  0  0  0  0  0  0  0  0  0  0
    2.6333   14.9469   43.7084 N   0  0  0  0  0  0  0  0  0  0  0  0
    3.5845   13.8999   43.8170 C   0  0  0  0  0  0  0  0  0  0  0  0
    4.9773   14.2255   43.9620 C   0  0  0  0  0  0  0  0  0  0  0  0
    5.3336   15.6257   43.9858 C   0  0  0  0  0  0  0  0  0  0  0  0
    6.6615   15.9238   44.1140 O   0  0  0  0  0  0  0  0  0  0  0  0
    5.7277   12.9938   44.0474 C   0  0  0  0  0  0  0  0  0  0  0  0
    4.7655   11.9853   43.9726 C   0  0  0  0  0  0  0  0  0  0  0  0
    3.5026   12.5302   43.8274 N   0  0  0  0  0  0  0  0  0  0  0  0
    7.2244   12.8357   44.2306 C   0  0  0  0  0  0  0  0  0  0  0  0
    7.6069   12.4998   45.6003 N   0  0  0  0  0  0  0  0  0  0  0  0
  1  2  1  0  0  0  0
  1  7  1  0  0  0  0
  2  3  1  0  0  0  0
  2  4  2  0  0  0  0
  4  5  1  0  0  0  0
  5  6  2  0  0  0  0
  5 11  1  0  0  0  0
  6  7  1  0  0  0  0
  6  9  1  0  0  0  0
  7  8  2  0  0  0  0
  9 10  2  0  0  0  0
  9 12  1  0  0  0  0
 10 11  1  0  0  0  0
 12 13  1  0  0  0  0
M  END
>  <CHROM.1>
101.58998825,4.75652979,14.47205112,44.04382041,-2.37184719,0.19837899,3.09762502

>  <Name>
ligand

>  <RI>
0

>  <Rbt.Current_Directory>
/home/itssahil/PROJECTS/Mol_Feturizer/Test_systems_manuscript/rnas/4jf2

>  <Rbt.Executable>
rbdock ($Id: //depot/dev/client3/rdock/2013.1/src/exe/rbdock.cxx#4 $)

>  <Rbt.Library>
libRbt.so (2013.1, Build901 2013/11/27)

>  <Rbt.Parameter_File>
/export/apps/rDock/src/rDock_2013.1_src/data/scripts/dock_solv.prm

>  <Rbt.Receptor>
prm/blind_docking_100.prm

>  <SCORE>
-14.2877

>  <SCORE.INTER>
-13.964

>  <SCORE.INTER.CONST>
1

>  <SCORE.INTER.POLAR>
0

>  <SCORE.INTER.ROT>
1

>  <SCORE.INTER.SOLV>
9.3563

>  <SCORE.INTER.VDW>
-16.6948

>  <SCORE.INTER.norm>
-1.07416

>  <SCORE.INTRA>
-0.324212

>  <SCORE.INTRA.DIHEDRAL>
-0.163479

>  <SCORE.INTRA.DIHEDRAL.0>
1.75624

>  <SCORE.INTRA.POLAR>
0

>  <SCORE.INTRA.POLAR.0>
0

>  <SCORE.INTRA.REPUL>
0

>  <SCORE.INTRA.REPUL.0>
0

>  <SCORE.INTRA.SOLV>
-0.623099

>  <SCORE.INTRA.SOLV.lig_0>
-46.5296

>  <SCORE.INTRA.VDW>
0.0690768

>  <SCORE.INTRA.VDW.0>
-0.381873

>  <SCORE.INTRA.norm>
-0.0249394

>  <SCORE.RESTR>
0.000492727

>  <SCORE.RESTR.CAVITY>
0.000492727

>  <SCORE.RESTR.norm>
3.79021e-05

>  <SCORE.SYSTEM>
0

>  <SCORE.SYSTEM.CONST>
0

>  <SCORE.SYSTEM.DIHEDRAL>
0

>  <SCORE.SYSTEM.SOLV>
0

>  <SCORE.SYSTEM.norm>
0

>  <SCORE.heavy>
13

>  <SCORE.norm>
-1.09906

>  <RMSD>
21.219

$$$$
ligand
 OpenBabel02271912143D
libRbt.so/2013.1/901 2013/11/27
 13 14  0  0  0  0  0  0  0  0999 V2000
    2.7121   14.8545   43.7053 N   0  0  0  0  0  0  0  0  0  0  0  0
    3.0296   16.2224   43.6838 C   0  0  0  0  0  0  0  0  0  0  0  0
    1.9721   17.1953   43.5336 N   0  0  0  0  0  0  0  0  0  0  0  0
    4.3365   16.6332   43.8157 N   0  0  0  0  0  0  0  0  0  0  0  0
    5.3999   15.7060   43.9655 C   0  0  0  0  0  0  0  0  0  0  0  0
    5.1115   14.2976   43.9693 C   0  0  0  0  0  0  0  0  0  0  0  0
    3.7297   13.9017   43.8209 C   0  0  0  0  0  0  0  0  0  0  0  0
    3.4657   12.5605   43.8359 O   0  0  0  0  0  0  0  0  0  0  0  0
    6.3529   13.5778   44.1379 C   0  0  0  0  0  0  0  0  0  0  0  0
    7.3325   14.5696   44.2070 C   0  0  0  0  0  0  0  0  0  0  0  0
    6.7590   15.8247   44.1133 N   0  0  0  0  0  0  0  0  0  0  0  0
    6.5503   12.0751   44.1777 C   0  0  0  0  0  0  0  0  0  0  0  0
    6.0848   11.4634   45.4204 N   0  0  0  0  0  0  0  0  0  0  0  0
  1  2  1  0  0  0  0
  1  7  1  0  0  0  0
  2  3  1  0  0  0  0
  2  4  2  0  0  0  0
  4  5  1  0  0  0  0
  5  6  2  0  0  0  0
  5 11  1  0  0  0  0
  6  7  1  0  0  0  0
  6  9  1  0  0  0  0
  7  8  2  0  0  0  0
  9 10  2  0  0  0  0
  9 12  1  0  0  0  0
 10 11  1  0  0  0  0
 12 13  1  0  0  0  0
M  END
>  <CHROM.1>
-73.50595160,4.79529095,14.49353999,44.03205111,2.29467057,-0.11729600,-0.12820195

>  <Name>
ligand

>  <RI>
0

>  <Rbt.Current_Directory>
/home/itssahil/PROJECTS/Mol_Feturizer/Test_systems_manuscript/rnas/4jf2

>  <Rbt.Executable>
rbdock ($Id: //depot/dev/client3/rdock/2013.1/src/exe/rbdock.cxx#4 $)

>  <Rbt.Library>
libRbt.so (2013.1, Build901 2013/11/27)

>  <Rbt.Parameter_File>
/export/apps/rDock/src/rDock_2013.1_src/data/scripts/dock_solv.prm

>  <Rbt.Receptor>
prm/blind_docking_100.prm

>  <SCORE>
-12.3247

>  <SCORE.INTER>
-12.3451

>  <SCORE.INTER.CONST>
1

>  <SCORE.INTER.POLAR>
0

>  <SCORE.INTER.ROT>
1

>  <SCORE.INTER.SOLV>
12.3387

>  <SCORE.INTER.VDW>
-16.6096

>  <SCORE.INTER.norm>
-0.949621

>  <SCORE.INTRA>
0.0201966

>  <SCORE.INTRA.DIHEDRAL>
-0.00953736

>  <SCORE.INTRA.DIHEDRAL.0>
1.75624

>  <SCORE.INTRA.POLAR>
0

>  <SCORE.INTRA.POLAR.0>
0

>  <SCORE.INTRA.REPUL>
0

>  <SCORE.INTRA.REPUL.0>
0

>  <SCORE.INTRA.SOLV>
0.0616076

>  <SCORE.INTRA.SOLV.lig_0>
-46.5296

>  <SCORE.INTRA.VDW>
-0.00583854

>  <SCORE.INTRA.VDW.0>
-0.381873

>  <SCORE.INTRA.norm>
0.00155358

>  <SCORE.RESTR>
0.000126754

>  <SCORE.RESTR.CAVITY>
0.000126754

>  <SCORE.RESTR.norm>
9.75035e-06

>  <SCORE.SYSTEM>
0

>  <SCORE.SYSTEM.CONST>
0

>  <SCORE.SYSTEM.DIHEDRAL>
0

>  <SCORE.SYSTEM.SOLV>
0

>  <SCORE.SYSTEM.norm>
0

>  <SCORE.heavy>
13

>  <SCORE.norm>
-0.948058

>  <RMSD>
21.271

$$$$
ligand
 OpenBabel02271912143D
libRbt.so/2013.1/901 2013/11/27
 13 14  0  0  0  0  0  0  0  0999 V2000
    7.7422   15.3360   43.3981 N   0  0  0  0  0  0  0  0  0  0  0  0
    8.5999   14.3368   43.8862 C   0  0  0  0  0  0  0  0  0  0  0  0
   10.0146   14.6073   43.9995 N   0  0  0  0  0  0  0  0  0  0  0  0
    8.0951   13.1133   44.2638 N   0  0  0  0  0  0  0  0  0  0  0  0
    6.7119   12.8132   44.1667 C   0  0  0  0  0  0  0  0  0  0  0  0
    5.8099   13.8065   43.6503 C   0  0  0  0  0  0  0  0  0  0  0  0
    6.3749   15.0767   43.2562 C   0  0  0  0  0  0  0  0  0  0  0  0
    5.5069   16.0173   42.7759 O   0  0  0  0  0  0  0  0  0  0  0  0
    4.4733   13.2580   43.6587 C   0  0  0  0  0  0  0  0  0  0  0  0
    4.6238   11.9620   44.1548 C   0  0  0  0  0  0  0  0  0  0  0  0
    5.9491   11.7111   44.4609 N   0  0  0  0  0  0  0  0  0  0  0  0
    3.1982   13.9266   43.1836 C   0  0  0  0  0  0  0  0  0  0  0  0
    2.8897   15.1605   43.9029 N   0  0  0  0  0  0  0  0  0  0  0  0
  1  2  1  0  0  0  0
  1  7  1  0  0  0  0
  2  3  1  0  0  0  0
  2  4  2  0  0  0  0
  4  5  1  0  0  0  0
  5  6  2  0  0  0  0
  5 11  1  0  0  0  0
  6  7  1  0  0  0  0
  6  9  1  0  0  0  0
  7  8  2  0  0  0  0
  9 10  2  0  0  0  0
  9 12  1  0  0  0  0
 10 11  1  0  0  0  0
 12 13  1  0  0  0  0
M  END
>  <CHROM.1>
-60.09142782,6.14897119,13.98402216,43.73609629,0.04328472,-0.07369211,-0.29941520

>  <Name>
ligand

>  <RI>
0

>  <Rbt.Current_Directory>
/home/itssahil/PROJECTS/Mol_Feturizer/Test_systems_manuscript/rnas/4jf2

>  <Rbt.Executable>
rbdock ($Id: //depot/dev/client3/rdock/2013.1/src/exe/rbdock.cxx#4 $)

>  <Rbt.Library>
libRbt.so (2013.1, Build901 2013/11/27)

>  <Rbt.Parameter_File>
/export/apps/rDock/src/rDock_2013.1_src/data/scripts/dock_solv.prm

>  <Rbt.Receptor>
prm/blind_docking_60.prm

>  <SCORE>
-13.561

>  <SCORE.INTER>
-13.7195

>  <SCORE.INTER.CONST>
1

>  <SCORE.INTER.POLAR>
0

>  <SCORE.INTER.ROT>
1

>  <SCORE.INTER.SOLV>
14.5446

>  <SCORE.INTER.VDW>
-18.2612

>  <SCORE.INTER.norm>
-1.05535

>  <SCORE.INTRA>
0.158535

>  <SCORE.INTRA.DIHEDRAL>
-0.0831208

>  <SCORE.INTRA.DIHEDRAL.0>
1.75624

>  <SCORE.INTRA.POLAR>
0

>  <SCORE.INTRA.POLAR.0>
0

>  <SCORE.INTRA.REPUL>
0

>  <SCORE.INTRA.REPUL.0>
0

>  <SCORE.INTRA.SOLV>
0.444159

>  <SCORE.INTRA.SOLV.lig_0>
-46.5296

>  <SCORE.INTRA.VDW>
-0.0219838

>  <SCORE.INTRA.VDW.0>
-0.381873

>  <SCORE.INTRA.norm>
0.012195

>  <SCORE.RESTR>
0

>  <SCORE.RESTR.CAVITY>
0

>  <SCORE.RESTR.norm>
0

>  <SCORE.SYSTEM>
0

>  <SCORE.SYSTEM.CONST>
0

>  <SCORE.SYSTEM.DIHEDRAL>
0

>  <SCORE.SYSTEM.SOLV>
0

>  <SCORE.SYSTEM.norm>
0

>  <SCORE.heavy>
13

>  <SCORE.norm>
-1.04315

>  <RMSD>
22.078

$$$$
ligand
 OpenBabel02271912143D
libRbt.so/2013.1/901 2013/11/27
 13 14  0  0  0  0  0  0  0  0999 V2000
    7.8895   15.0794   43.3675 N   0  0  0  0  0  0  0  0  0  0  0  0
    8.6991   14.1073   43.9772 C   0  0  0  0  0  0  0  0  0  0  0  0
   10.1135   14.3569   44.1346 N   0  0  0  0  0  0  0  0  0  0  0  0
    8.1477   12.9307   44.4310 N   0  0  0  0  0  0  0  0  0  0  0  0
    6.7633   12.6523   44.2937 C   0  0  0  0  0  0  0  0  0  0  0  0
    5.9106   13.6170   43.6541 C   0  0  0  0  0  0  0  0  0  0  0  0
    6.5241   14.8375   43.1829 C   0  0  0  0  0  0  0  0  0  0  0  0
    5.7024   15.7520   42.5854 O   0  0  0  0  0  0  0  0  0  0  0  0
    4.5619   13.0990   43.6447 C   0  0  0  0  0  0  0  0  0  0  0  0
    4.6577   11.8466   44.2535 C   0  0  0  0  0  0  0  0  0  0  0  0
    5.9610   11.5949   44.6419 N   0  0  0  0  0  0  0  0  0  0  0  0
    3.3266   13.7515   43.0556 C   0  0  0  0  0  0  0  0  0  0  0  0
    2.8834   14.9281   43.8002 N   0  0  0  0  0  0  0  0  0  0  0  0
  1  2  1  0  0  0  0
  1  7  1  0  0  0  0
  2  3  1  0  0  0  0
  2  4  2  0  0  0  0
  4  5  1  0  0  0  0
  5  6  2  0  0  0  0
  5 11  1  0  0  0  0
  6  7  1  0  0  0  0
  6  9  1  0  0  0  0
  7  8  2  0  0  0  0
  9 10  2  0  0  0  0
  9 12  1  0  0  0  0
 10 11  1  0  0  0  0
 12 13  1  0  0  0  0
M  END
>  <CHROM.1>
-69.95558982,6.23886573,13.78429935,43.75271916,0.01893150,-0.10147192,-0.38722126

>  <Name>
ligand

>  <RI>
0

>  <Rbt.Current_Directory>
/home/itssahil/PROJECTS/Mol_Feturizer/Test_systems_manuscript/rnas/4jf2

>  <Rbt.Executable>
rbdock ($Id: //depot/dev/client3/rdock/2013.1/src/exe/rbdock.cxx#4 $)

>  <Rbt.Library>
libRbt.so (2013.1, Build901 2013/11/27)

>  <Rbt.Parameter_File>
/export/apps/rDock/src/rDock_2013.1_src/data/scripts/dock_solv.prm

>  <Rbt.Receptor>
prm/blind_docking_100.prm

>  <SCORE>
-13.5795

>  <SCORE.INTER>
-13.6333

>  <SCORE.INTER.CONST>
1

>  <SCORE.INTER.POLAR>
0

>  <SCORE.INTER.ROT>
1

>  <SCORE.INTER.SOLV>
13.7664

>  <SCORE.INTER.VDW>
-17.9443

>  <SCORE.INTER.norm>
-1.04872

>  <SCORE.INTRA>
0.0538726

>  <SCORE.INTRA.DIHEDRAL>
-0.0272214

>  <SCORE.INTRA.DIHEDRAL.0>
1.75624

>  <SCORE.INTRA.POLAR>
0

>  <SCORE.INTRA.POLAR.0>
0

>  <SCORE.INTRA.REPUL>
0

>  <SCORE.INTRA.REPUL.0>
0

>  <SCORE.INTRA.SOLV>
0.164124

>  <SCORE.INTRA.SOLV.lig_0>
-46.5296

>  <SCORE.INTRA.VDW>
-0.0145789

>  <SCORE.INTRA.VDW.0>
-0.381873

>  <SCORE.INTRA.norm>
0.00414404

>  <SCORE.RESTR>
0

>  <SCORE.RESTR.CAVITY>
0

>  <SCORE.RESTR.norm>
0

>  <SCORE.SYSTEM>
0

>  <SCORE.SYSTEM.CONST>
0

>  <SCORE.SYSTEM.DIHEDRAL>
0

>  <SCORE.SYSTEM.SOLV>
0

>  <SCORE.SYSTEM.norm>
0

>  <SCORE.heavy>
13

>  <SCORE.norm>
-1.04457

>  <RMSD>
22.260

$$$$
ligand
 OpenBabel02271912143D
libRbt.so/2013.1/901 2013/11/27
 13 14  0  0  0  0  0  0  0  0999 V2000
    9.5095   29.8112   24.8105 N   0  0  0  0  0  0  0  0  0  0  0  0
    8.4677   28.9103   25.0852 C   0  0  0  0  0  0  0  0  0  0  0  0
    7.7472   28.3015   23.9909 N   0  0  0  0  0  0  0  0  0  0  0  0
    8.1429   28.6016   26.3866 N   0  0  0  0  0  0  0  0  0  0  0  0
    8.8291   29.1799   27.4855 C   0  0  0  0  0  0  0  0  0  0  0  0
    9.8860   30.1228   27.2391 C   0  0  0  0  0  0  0  0  0  0  0  0
   10.1952   30.4296   25.8613 C   0  0  0  0  0  0  0  0  0  0  0  0
   11.2084   31.3198   25.6384 O   0  0  0  0  0  0  0  0  0  0  0  0
   10.4179   30.5551   28.5110 C   0  0  0  0  0  0  0  0  0  0  0  0
    9.6546   29.8789   29.4641 C   0  0  0  0  0  0  0  0  0  0  0  0
    8.7241   29.0615   28.8486 N   0  0  0  0  0  0  0  0  0  0  0  0
   11.5257   31.5613   28.7542 C   0  0  0  0  0  0  0  0  0  0  0  0
   11.7381   31.8567   30.1694 N   0  0  0  0  0  0  0  0  0  0  0  0
  1  2  1  0  0  0  0
  1  7  1  0  0  0  0
  2  3  1  0  0  0  0
  2  4  2  0  0  0  0
  4  5  1  0  0  0  0
  5  6  2  0  0  0  0
  5 11  1  0  0  0  0
  6  7  1  0  0  0  0
  6  9  1  0  0  0  0
  7  8  2  0  0  0  0
  9 10  2  0  0  0  0
  9 12  1  0  0  0  0
 10 11  1  0  0  0  0
 12 13  1  0  0  0  0
M  END
>  <CHROM.1>
174.88293463,9.72201404,29.99282368,27.06663546,-2.25161216,0.72976657,1.58184294

>  <Name>
ligand

>  <RI>
0

>  <Rbt.Current_Directory>
/home/itssahil/PROJECTS/Mol_Feturizer/Test_systems_manuscript/rnas/4jf2

>  <Rbt.Executable>
rbdock ($Id: //depot/dev/client3/rdock/2013.1/src/exe/rbdock.cxx#4 $)

>  <Rbt.Library>
libRbt.so (2013.1, Build901 2013/11/27)

>  <Rbt.Parameter_File>
/export/apps/rDock/src/rDock_2013.1_src/data/scripts/dock_solv.prm

>  <Rbt.Receptor>
prm/blind_docking_100.prm

>  <SCORE>
-10.2103

>  <SCORE.INTER>
-9.87609

>  <SCORE.INTER.CONST>
1

>  <SCORE.INTER.POLAR>
0

>  <SCORE.INTER.ROT>
1

>  <SCORE.INTER.SOLV>
8.064

>  <SCORE.INTER.VDW>
-13.5387

>  <SCORE.INTER.norm>
-0.759699

>  <SCORE.INTRA>
-0.334187

>  <SCORE.INTRA.DIHEDRAL>
-0.0539125

>  <SCORE.INTRA.DIHEDRAL.0>
1.75624

>  <SCORE.INTRA.POLAR>
0

>  <SCORE.INTRA.POLAR.0>
0

>  <SCORE.INTRA.REPUL>
0

>  <SCORE.INTRA.REPUL.0>
0

>  <SCORE.INTRA.SOLV>
-1.01742

>  <SCORE.INTRA.SOLV.lig_0>
-46.5296

>  <SCORE.INTRA.VDW>
0.20148

>  <SCORE.INTRA.VDW.0>
-0.381873

>  <SCORE.INTRA.norm>
-0.0257067

>  <SCORE.RESTR>
0

>  <SCORE.RESTR.CAVITY>
0

>  <SCORE.RESTR.norm>
0

>  <SCORE.SYSTEM>
0

>  <SCORE.SYSTEM.CONST>
0

>  <SCORE.SYSTEM.DIHEDRAL>
0

>  <SCORE.SYSTEM.SOLV>
0

>  <SCORE.SYSTEM.norm>
0

>  <SCORE.heavy>
13

>  <SCORE.norm>
-0.785406

>  <RMSD>
30.912

$$$$
ligand
 OpenBabel02271912143D
libRbt.so/2013.1/901 2013/11/27
 13 14  0  0  0  0  0  0  0  0999 V2000
    9.5978   29.8905   24.7531 N   0  0  0  0  0  0  0  0  0  0  0  0
    8.5362   28.9964   24.9670 C   0  0  0  0  0  0  0  0  0  0  0  0
    7.8487   28.4246   23.8322 N   0  0  0  0  0  0  0  0  0  0  0  0
    8.1609   28.6590   26.2475 N   0  0  0  0  0  0  0  0  0  0  0  0
    8.8137   29.2005   27.3849 C   0  0  0  0  0  0  0  0  0  0  0  0
    9.8898   30.1359   27.2009 C   0  0  0  0  0  0  0  0  0  0  0  0
   10.2524   30.4734   25.8434 C   0  0  0  0  0  0  0  0  0  0  0  0
   11.2834   31.3559   25.6799 O   0  0  0  0  0  0  0  0  0  0  0  0
   10.3804   30.5291   28.5017 C   0  0  0  0  0  0  0  0  0  0  0  0
    9.5752   29.8388   29.4091 C   0  0  0  0  0  0  0  0  0  0  0  0
    8.6580   29.0491   28.7398 N   0  0  0  0  0  0  0  0  0  0  0  0
   11.4905   31.5147   28.8102 C   0  0  0  0  0  0  0  0  0  0  0  0
   11.4308   32.0456   30.1703 N   0  0  0  0  0  0  0  0  0  0  0  0
  1  2  1  0  0  0  0
  1  7  1  0  0  0  0
  2  3  1  0  0  0  0
  2  4  2  0  0  0  0
  4  5  1  0  0  0  0
  5  6  2  0  0  0  0
  5 11  1  0  0  0  0
  6  7  1  0  0  0  0
  6  9  1  0  0  0  0
  7  8  2  0  0  0  0
  9 10  2  0  0  0  0
  9 12  1  0  0  0  0
 10 11  1  0  0  0  0
 12 13  1  0  0  0  0
M  END
>  <CHROM.1>
159.42993470,9.71244963,30.03468802,27.01369927,-2.19330844,0.73559969,1.55262763

>  <Name>
ligand

>  <RI>
0

>  <Rbt.Current_Directory>
/home/itssahil/PROJECTS/Mol_Feturizer/Test_systems_manuscript/rnas/4jf2

>  <Rbt.Executable>
rbdock ($Id: //depot/dev/client3/rdock/2013.1/src/exe/rbdock.cxx#4 $)

>  <Rbt.Library>
libRbt.so (2013.1, Build901 2013/11/27)

>  <Rbt.Parameter_File>
/export/apps/rDock/src/rDock_2013.1_src/data/scripts/dock_solv.prm

>  <Rbt.Receptor>
prm/blind_docking_60.prm

>  <SCORE>
-10.2185

>  <SCORE.INTER>
-9.90493

>  <SCORE.INTER.CONST>
1

>  <SCORE.INTER.POLAR>
0

>  <SCORE.INTER.ROT>
1

>  <SCORE.INTER.SOLV>
7.78283

>  <SCORE.INTER.VDW>
-13.4642

>  <SCORE.INTER.norm>
-0.761918

>  <SCORE.INTRA>
-0.313565

>  <SCORE.INTRA.DIHEDRAL>
0.0182915

>  <SCORE.INTRA.DIHEDRAL.0>
1.75624

>  <SCORE.INTRA.POLAR>
0

>  <SCORE.INTRA.POLAR.0>
0

>  <SCORE.INTRA.REPUL>
0

>  <SCORE.INTRA.REPUL.0>
0

>  <SCORE.INTRA.SOLV>
-1.01671

>  <SCORE.INTRA.SOLV.lig_0>
-46.5296

>  <SCORE.INTRA.VDW>
0.185645

>  <SCORE.INTRA.VDW.0>
-0.381873

>  <SCORE.INTRA.norm>
-0.0241204

>  <SCORE.RESTR>
0

>  <SCORE.RESTR.CAVITY>
0

>  <SCORE.RESTR.norm>
0

>  <SCORE.SYSTEM>
0

>  <SCORE.SYSTEM.CONST>
0

>  <SCORE.SYSTEM.DIHEDRAL>
0

>  <SCORE.SYSTEM.SOLV>
0

>  <SCORE.SYSTEM.norm>
0

>  <SCORE.heavy>
13

>  <SCORE.norm>
-0.786038

>  <RMSD>
30.949

$$$$
ligand
 OpenBabel02271912143D
libRbt.so/2013.1/901 2013/11/27
 13 14  0  0  0  0  0  0  0  0999 V2000
    9.6803   29.9757   24.7549 N   0  0  0  0  0  0  0  0  0  0  0  0
    8.6020   29.0940   24.9337 C   0  0  0  0  0  0  0  0  0  0  0  0
    7.9257   28.5542   23.7767 N   0  0  0  0  0  0  0  0  0  0  0  0
    8.1996   28.7384   26.2010 N   0  0  0  0  0  0  0  0  0  0  0  0
    8.8406   29.2484   27.3594 C   0  0  0  0  0  0  0  0  0  0  0  0
    9.9336   30.1706   27.2115 C   0  0  0  0  0  0  0  0  0  0  0  0
   10.3245   30.5280   25.8671 C   0  0  0  0  0  0  0  0  0  0  0  0
   11.3713   31.3977   25.7380 O   0  0  0  0  0  0  0  0  0  0  0  0
   10.4074   30.5318   28.5278 C   0  0  0  0  0  0  0  0  0  0  0  0
    9.5764   29.8369   29.4080 C   0  0  0  0  0  0  0  0  0  0  0  0
    8.6592   29.0739   28.7083 N   0  0  0  0  0  0  0  0  0  0  0  0
   11.5265   31.4944   28.8739 C   0  0  0  0  0  0  0  0  0  0  0  0
   11.4754   31.9679   30.2553 N   0  0  0  0  0  0  0  0  0  0  0  0
  1  2  1  0  0  0  0
  1  7  1  0  0  0  0
  2  3  1  0  0  0  0
  2  4  2  0  0  0  0
  4  5  1  0  0  0  0
  5  6  2  0  0  0  0
  5 11  1  0  0  0  0
  6  7  1  0  0  0  0
  6  9  1  0  0  0  0
  7  8  2  0  0  0  0
  9 10  2  0  0  0  0
  9 12  1  0  0  0  0
 10 11  1  0  0  0  0
 12 13  1  0  0  0  0
M  END
>  <CHROM.1>
161.24409737,9.75989925,30.07299014,27.02052209,-2.17138456,0.71820129,1.55904219

>  <Name>
ligand

>  <RI>
-1

>  <Rbt.Current_Directory>
/home/itssahil/PROJECTS/Mol_Feturizer/Test_systems_manuscript/rnas/4jf2

>  <Rbt.Executable>
rbdock ($Id: //depot/dev/client3/rdock/2013.1/src/exe/rbdock.cxx#4 $)

>  <Rbt.Library>
libRbt.so (2013.1, Build901 2013/11/27)

>  <Rbt.Parameter_File>
/export/apps/rDock/src/rDock_2013.1_src/data/scripts/dock_solv.prm

>  <Rbt.Receptor>
prm/blind_docking_80.prm

>  <SCORE>
-10.2997

>  <SCORE.INTER>
-9.98599

>  <SCORE.INTER.CONST>
1

>  <SCORE.INTER.POLAR>
0

>  <SCORE.INTER.ROT>
1

>  <SCORE.INTER.SOLV>
7.74879

>  <SCORE.INTER.VDW>
-13.5069

>  <SCORE.INTER.norm>
-0.768153

>  <SCORE.INTRA>
-0.31368

>  <SCORE.INTRA.DIHEDRAL>
0.0122412

>  <SCORE.INTRA.DIHEDRAL.0>
1.75624

>  <SCORE.INTRA.POLAR>
0

>  <SCORE.INTRA.POLAR.0>
0

>  <SCORE.INTRA.REPUL>
0

>  <SCORE.INTRA.REPUL.0>
0

>  <SCORE.INTRA.SOLV>
-1.01661

>  <SCORE.INTRA.SOLV.lig_0>
-46.5296

>  <SCORE.INTRA.VDW>
0.188502

>  <SCORE.INTRA.VDW.0>
-0.381873

>  <SCORE.INTRA.norm>
-0.0241293

>  <SCORE.RESTR>
0

>  <SCORE.RESTR.CAVITY>
0

>  <SCORE.RESTR.norm>
0

>  <SCORE.SYSTEM>
0

>  <SCORE.SYSTEM.CONST>
0

>  <SCORE.SYSTEM.DIHEDRAL>
0

>  <SCORE.SYSTEM.SOLV>
0

>  <SCORE.SYSTEM.norm>
0

>  <SCORE.heavy>
13

>  <SCORE.norm>
-0.792282

>  <RMSD>
30.965

$$$$
ligand
 OpenBabel02271912143D
libRbt.so/2013.1/901 2013/11/27
 13 14  0  0  0  0  0  0  0  0999 V2000
    9.6533   29.9504   24.7390 N   0  0  0  0  0  0  0  0  0  0  0  0
    8.5776   29.0679   24.9293 C   0  0  0  0  0  0  0  0  0  0  0  0
    7.8924   28.5238   23.7795 N   0  0  0  0  0  0  0  0  0  0  0  0
    8.1863   28.7155   26.2009 N   0  0  0  0  0  0  0  0  0  0  0  0
    8.8363   29.2298   27.3524 C   0  0  0  0  0  0  0  0  0  0  0  0
    9.9268   30.1528   27.1928 C   0  0  0  0  0  0  0  0  0  0  0  0
   10.3061   30.5067   25.8441 C   0  0  0  0  0  0  0  0  0  0  0  0
   11.3506   31.3773   25.7037 O   0  0  0  0  0  0  0  0  0  0  0  0
   10.4112   30.5185   28.5040 C   0  0  0  0  0  0  0  0  0  0  0  0
    9.5884   29.8252   29.3931 C   0  0  0  0  0  0  0  0  0  0  0  0
    8.6664   29.0590   28.7033 N   0  0  0  0  0  0  0  0  0  0  0  0
   11.5319   31.4834   28.8379 C   0  0  0  0  0  0  0  0  0  0  0  0
   11.4911   31.9618   30.2180 N   0  0  0  0  0  0  0  0  0  0  0  0
  1  2  1  0  0  0  0
  1  7  1  0  0  0  0
  2  3  1  0  0  0  0
  2  4  2  0  0  0  0
  4  5  1  0  0  0  0
  5  6  2  0  0  0  0
  5 11  1  0  0  0  0
  6  7  1  0  0  0  0
  6  9  1  0  0  0  0
  7  8  2  0  0  0  0
  9 10  2  0  0  0  0
  9 12  1  0  0  0  0
 10 11  1  0  0  0  0
 12 13  1  0  0  0  0
M  END
>  <CHROM.1>
161.19861995,9.75163475,30.05451416,27.00350024,-2.18243376,0.71958239,1.56333500

>  <Name>
ligand

>  <RI>
0

>  <Rbt.Current_Directory>
/home/itssahil/PROJECTS/Mol_Feturizer/Test_systems_manuscript/rnas/4jf2

>  <Rbt.Executable>
rbdock ($Id: //depot/dev/client3/rdock/2013.1/src/exe/rbdock.cxx#4 $)

>  <Rbt.Library>
libRbt.so (2013.1, Build901 2013/11/27)

>  <Rbt.Parameter_File>
/export/apps/rDock/src/rDock_2013.1_src/data/scripts/dock_solv.prm

>  <Rbt.Receptor>
prm/blind_docking_100.prm

>  <SCORE>
-10.2887

>  <SCORE.INTER>
-9.97504

>  <SCORE.INTER.CONST>
1

>  <SCORE.INTER.POLAR>
0

>  <SCORE.INTER.ROT>
1

>  <SCORE.INTER.SOLV>
7.82207

>  <SCORE.INTER.VDW>
-13.524

>  <SCORE.INTER.norm>
-0.767311

>  <SCORE.INTRA>
-0.31367

>  <SCORE.INTRA.DIHEDRAL>
0.0124029

>  <SCORE.INTRA.DIHEDRAL.0>
1.75624

>  <SCORE.INTRA.POLAR>
0

>  <SCORE.INTRA.POLAR.0>
0

>  <SCORE.INTRA.REPUL>
0

>  <SCORE.INTRA.REPUL.0>
0

>  <SCORE.INTRA.SOLV>
-1.01661

>  <SCORE.INTRA.SOLV.lig_0>
-46.5296

>  <SCORE.INTRA.VDW>
0.188433

>  <SCORE.INTRA.VDW.0>
-0.381873

>  <SCORE.INTRA.norm>
-0.0241284

>  <SCORE.RESTR>
0

>  <SCORE.RESTR.CAVITY>
0

>  <SCORE.RESTR.norm>
0

>  <SCORE.SYSTEM>
0

>  <SCORE.SYSTEM.CONST>
0

>  <SCORE.SYSTEM.DIHEDRAL>
0

>  <SCORE.SYSTEM.SOLV>
0

>  <SCORE.SYSTEM.norm>
0

>  <SCORE.heavy>
13

>  <SCORE.norm>
-0.791439

>  <RMSD>
30.977

$$$$
ligand
 OpenBabel02271912143D
libRbt.so/2013.1/901 2013/11/27
 13 14  0  0  0  0  0  0  0  0999 V2000
    9.4331   29.7232   24.7396 N   0  0  0  0  0  0  0  0  0  0  0  0
    8.3873   28.8453   25.0677 C   0  0  0  0  0  0  0  0  0  0  0  0
    7.6363   28.2077   24.0109 N   0  0  0  0  0  0  0  0  0  0  0  0
    8.0872   28.5861   26.3857 N   0  0  0  0  0  0  0  0  0  0  0  0
    8.8036   29.1938   27.4489 C   0  0  0  0  0  0  0  0  0  0  0  0
    9.8657   30.1145   27.1472 C   0  0  0  0  0  0  0  0  0  0  0  0
   10.1486   30.3693   25.7533 C   0  0  0  0  0  0  0  0  0  0  0  0
   11.1669   31.2388   25.4778 O   0  0  0  0  0  0  0  0  0  0  0  0
   10.4299   30.5843   28.3916 C   0  0  0  0  0  0  0  0  0  0  0  0
    9.6796   29.9511   29.3837 C   0  0  0  0  0  0  0  0  0  0  0  0
    8.7266   29.1241   28.8172 N   0  0  0  0  0  0  0  0  0  0  0  0
   11.5542   31.5847   28.5758 C   0  0  0  0  0  0  0  0  0  0  0  0
   11.8842   31.8319   29.9776 N   0  0  0  0  0  0  0  0  0  0  0  0
  1  2  1  0  0  0  0
  1  7  1  0  0  0  0
  2  3  1  0  0  0  0
  2  4  2  0  0  0  0
  4  5  1  0  0  0  0
  5  6  2  0  0  0  0
  5 11  1  0  0  0  0
  6  7  1  0  0  0  0
  6  9  1  0  0  0  0
  7  8  2  0  0  0  0
  9 10  2  0  0  0  0
  9 12  1  0  0  0  0
 10 11  1  0  0  0  0
 12 13  1  0  0  0  0
M  END
>  <CHROM.1>
-179.72440056,9.70331417,29.97293823,26.98313432,-2.28504126,0.71112187,1.57337063

>  <Name>
ligand

>  <RI>
0

>  <Rbt.Current_Directory>
/home/itssahil/PROJECTS/Mol_Feturizer/Test_systems_manuscript/rnas/4jf2

>  <Rbt.Executable>
rbdock ($Id: //depot/dev/client3/rdock/2013.1/src/exe/rbdock.cxx#4 $)

>  <Rbt.Library>
libRbt.so (2013.1, Build901 2013/11/27)

>  <Rbt.Parameter_File>
/export/apps/rDock/src/rDock_2013.1_src/data/scripts/dock_solv.prm

>  <Rbt.Receptor>
prm/blind_docking_100.prm

>  <SCORE>
-10.2316

>  <SCORE.INTER>
-9.88136

>  <SCORE.INTER.CONST>
1

>  <SCORE.INTER.POLAR>
0

>  <SCORE.INTER.ROT>
1

>  <SCORE.INTER.SOLV>
8.31421

>  <SCORE.INTER.VDW>
-13.6256

>  <SCORE.INTER.norm>
-0.760105

>  <SCORE.INTRA>
-0.350239

>  <SCORE.INTRA.DIHEDRAL>
-0.0852598

>  <SCORE.INTRA.DIHEDRAL.0>
1.75624

>  <SCORE.INTRA.POLAR>
0

>  <SCORE.INTRA.POLAR.0>
0

>  <SCORE.INTRA.REPUL>
0

>  <SCORE.INTRA.REPUL.0>
0

>  <SCORE.INTRA.SOLV>
-1.01858

>  <SCORE.INTRA.SOLV.lig_0>
-46.5296

>  <SCORE.INTRA.VDW>
0.201682

>  <SCORE.INTRA.VDW.0>
-0.381873

>  <SCORE.INTRA.norm>
-0.0269415

>  <SCORE.RESTR>
0

>  <SCORE.RESTR.CAVITY>
0

>  <SCORE.RESTR.norm>
0

>  <SCORE.SYSTEM>
0

>  <SCORE.SYSTEM.CONST>
0

>  <SCORE.SYSTEM.DIHEDRAL>
0

>  <SCORE.SYSTEM.SOLV>
0

>  <SCORE.SYSTEM.norm>
0

>  <SCORE.heavy>
13

>  <SCORE.norm>
-0.787046

>  <RMSD>
30.980

$$$$
ligand
 OpenBabel02271912143D
libRbt.so/2013.1/901 2013/11/27
 13 14  0  0  0  0  0  0  0  0999 V2000
    9.6667   29.9581   24.7375 N   0  0  0  0  0  0  0  0  0  0  0  0
    8.5917   29.0738   24.9237 C   0  0  0  0  0  0  0  0  0  0  0  0
    7.9109   28.5298   23.7714 N   0  0  0  0  0  0  0  0  0  0  0  0
    8.1969   28.7199   26.1938 N   0  0  0  0  0  0  0  0  0  0  0  0
    8.8425   29.2341   27.3478 C   0  0  0  0  0  0  0  0  0  0  0  0
    9.9322   30.1588   27.1923 C   0  0  0  0  0  0  0  0  0  0  0  0
   10.3152   30.5144   25.8451 C   0  0  0  0  0  0  0  0  0  0  0  0
   11.3590   31.3866   25.7087 O   0  0  0  0  0  0  0  0  0  0  0  0
   10.4119   30.5241   28.5053 C   0  0  0  0  0  0  0  0  0  0  0  0
    9.5873   29.8289   29.3913 C   0  0  0  0  0  0  0  0  0  0  0  0
    8.6685   29.0620   28.6980 N   0  0  0  0  0  0  0  0  0  0  0  0
   11.5302   31.4904   28.8435 C   0  0  0  0  0  0  0  0  0  0  0  0
   11.4426   32.0239   30.2011 N   0  0  0  0  0  0  0  0  0  0  0  0
  1  2  1  0  0  0  0
  1  7  1  0  0  0  0
  2  3  1  0  0  0  0
  2  4  2  0  0  0  0
  4  5  1  0  0  0  0
  5  6  2  0  0  0  0
  5 11  1  0  0  0  0
  6  7  1  0  0  0  0
  6  9  1  0  0  0  0
  7  8  2  0  0  0  0
  9 10  2  0  0  0  0
  9 12  1  0  0  0  0
 10 11  1  0  0  0  0
 12 13  1  0  0  0  0
M  END
>  <CHROM.1>
158.04644251,9.75436884,30.06502132,27.00052934,-2.17706934,0.72457553,1.55699299

>  <Name>
ligand

>  <RI>
0

>  <Rbt.Current_Directory>
/home/itssahil/PROJECTS/Mol_Feturizer/Test_systems_manuscript/rnas/4jf2

>  <Rbt.Executable>
rbdock ($Id: //depot/dev/client3/rdock/2013.1/src/exe/rbdock.cxx#4 $)

>  <Rbt.Library>
libRbt.so (2013.1, Build901 2013/11/27)

>  <Rbt.Parameter_File>
/export/apps/rDock/src/rDock_2013.1_src/data/scripts/dock_solv.prm

>  <Rbt.Receptor>
prm/blind_docking_60.prm

>  <SCORE>
-10.3146

>  <SCORE.INTER>
-10.0007

>  <SCORE.INTER.CONST>
1

>  <SCORE.INTER.POLAR>
0

>  <SCORE.INTER.ROT>
1

>  <SCORE.INTER.SOLV>
7.75178

>  <SCORE.INTER.VDW>
-13.5177

>  <SCORE.INTER.norm>
-0.769285

>  <SCORE.INTRA>
-0.313915

>  <SCORE.INTRA.DIHEDRAL>
0.0223352

>  <SCORE.INTRA.DIHEDRAL.0>
1.75624

>  <SCORE.INTRA.POLAR>
0

>  <SCORE.INTRA.POLAR.0>
0

>  <SCORE.INTRA.REPUL>
0

>  <SCORE.INTRA.REPUL.0>
0

>  <SCORE.INTRA.SOLV>
-1.01682

>  <SCORE.INTRA.SOLV.lig_0>
-46.5296

>  <SCORE.INTRA.VDW>
0.18333

>  <SCORE.INTRA.VDW.0>
-0.381873

>  <SCORE.INTRA.norm>
-0.0241473

>  <SCORE.RESTR>
0

>  <SCORE.RESTR.CAVITY>
0

>  <SCORE.RESTR.norm>
0

>  <SCORE.SYSTEM>
0

>  <SCORE.SYSTEM.CONST>
0

>  <SCORE.SYSTEM.DIHEDRAL>
0

>  <SCORE.SYSTEM.SOLV>
0

>  <SCORE.SYSTEM.norm>
0

>  <SCORE.heavy>
13

>  <SCORE.norm>
-0.793432

>  <RMSD>
30.980

$$$$
ligand
 OpenBabel02271912143D
libRbt.so/2013.1/901 2013/11/27
 13 14  0  0  0  0  0  0  0  0999 V2000
    9.4238   29.7214   24.7640 N   0  0  0  0  0  0  0  0  0  0  0  0
    8.3905   28.8276   25.0893 C   0  0  0  0  0  0  0  0  0  0  0  0
    7.6432   28.1890   24.0304 N   0  0  0  0  0  0  0  0  0  0  0  0
    8.0994   28.5538   26.4063 N   0  0  0  0  0  0  0  0  0  0  0  0
    8.8126   29.1619   27.4715 C   0  0  0  0  0  0  0  0  0  0  0  0
    9.8616   30.0985   27.1729 C   0  0  0  0  0  0  0  0  0  0  0  0
   10.1352   30.3682   25.7799 C   0  0  0  0  0  0  0  0  0  0  0  0
   11.1413   31.2528   25.5074 O   0  0  0  0  0  0  0  0  0  0  0  0
   10.4251   30.5652   28.4187 C   0  0  0  0  0  0  0  0  0  0  0  0
    9.6872   29.9145   29.4088 C   0  0  0  0  0  0  0  0  0  0  0  0
    8.7424   29.0801   28.8394 N   0  0  0  0  0  0  0  0  0  0  0  0
   11.5374   31.5783   28.6065 C   0  0  0  0  0  0  0  0  0  0  0  0
   12.4948   31.2004   29.6436 N   0  0  0  0  0  0  0  0  0  0  0  0
  1  2  1  0  0  0  0
  1  7  1  0  0  0  0
  2  3  1  0  0  0  0
  2  4  2  0  0  0  0
  4  5  1  0  0  0  0
  5  6  2  0  0  0  0
  5 11  1  0  0  0  0
  6  7  1  0  0  0  0
  6  9  1  0  0  0  0
  7  8  2  0  0  0  0
  9 10  2  0  0  0  0
  9 12  1  0  0  0  0
 10 11  1  0  0  0  0
 12 13  1  0  0  0  0
M  END
>  <CHROM.1>
-138.19892879,9.75115258,29.90591332,26.97864544,-2.34608510,0.67080227,1.62746453

>  <Name>
ligand

>  <RI>
0

>  <Rbt.Current_Directory>
/home/itssahil/PROJECTS/Mol_Feturizer/Test_systems_manuscript/rnas/4jf2

>  <Rbt.Executable>
rbdock ($Id: //depot/dev/client3/rdock/2013.1/src/exe/rbdock.cxx#4 $)

>  <Rbt.Library>
libRbt.so (2013.1, Build901 2013/11/27)

>  <Rbt.Parameter_File>
/export/apps/rDock/src/rDock_2013.1_src/data/scripts/dock_solv.prm

>  <Rbt.Receptor>
prm/blind_docking_100.prm

>  <SCORE>
-10.2519

>  <SCORE.INTER>
-9.78782

>  <SCORE.INTER.CONST>
1

>  <SCORE.INTER.POLAR>
0

>  <SCORE.INTER.ROT>
1

>  <SCORE.INTER.SOLV>
8.77485

>  <SCORE.INTER.VDW>
-13.7168

>  <SCORE.INTER.norm>
-0.752909

>  <SCORE.INTRA>
-0.464065

>  <SCORE.INTRA.DIHEDRAL>
-0.162704

>  <SCORE.INTRA.DIHEDRAL.0>
1.75624

>  <SCORE.INTRA.POLAR>
0

>  <SCORE.INTRA.POLAR.0>
0

>  <SCORE.INTRA.REPUL>
0

>  <SCORE.INTRA.REPUL.0>
0

>  <SCORE.INTRA.SOLV>
-1.03967

>  <SCORE.INTRA.SOLV.lig_0>
-46.5296

>  <SCORE.INTRA.VDW>
0.137123

>  <SCORE.INTRA.VDW.0>
-0.381873

>  <SCORE.INTRA.norm>
-0.0356973

>  <SCORE.RESTR>
0

>  <SCORE.RESTR.CAVITY>
0

>  <SCORE.RESTR.norm>
0

>  <SCORE.SYSTEM>
0

>  <SCORE.SYSTEM.CONST>
0

>  <SCORE.SYSTEM.DIHEDRAL>
0

>  <SCORE.SYSTEM.SOLV>
0

>  <SCORE.SYSTEM.norm>
0

>  <SCORE.heavy>
13

>  <SCORE.norm>
-0.788607

>  <RMSD>
31.008

$$$$
ligand
 OpenBabel02271912143D
libRbt.so/2013.1/901 2013/11/27
 13 14  0  0  0  0  0  0  0  0999 V2000
    9.6703   29.9673   24.7496 N   0  0  0  0  0  0  0  0  0  0  0  0
    8.5953   29.0822   24.9321 C   0  0  0  0  0  0  0  0  0  0  0  0
    7.9167   28.5403   23.7775 N   0  0  0  0  0  0  0  0  0  0  0  0
    8.1986   28.7254   26.2008 N   0  0  0  0  0  0  0  0  0  0  0  0
    8.8420   29.2374   27.3569 C   0  0  0  0  0  0  0  0  0  0  0  0
    9.9316   30.1630   27.2052 C   0  0  0  0  0  0  0  0  0  0  0  0
   10.3167   30.5215   25.8594 C   0  0  0  0  0  0  0  0  0  0  0  0
   11.3603   31.3945   25.7266 O   0  0  0  0  0  0  0  0  0  0  0  0
   10.4090   30.5257   28.5198 C   0  0  0  0  0  0  0  0  0  0  0  0
    9.5832   29.8282   29.4030 C   0  0  0  0  0  0  0  0  0  0  0  0
    8.6660   29.0624   28.7065 N   0  0  0  0  0  0  0  0  0  0  0  0
   11.5263   31.4917   28.8619 C   0  0  0  0  0  0  0  0  0  0  0  0
   12.3806   31.0251   29.9517 N   0  0  0  0  0  0  0  0  0  0  0  0
  1  2  1  0  0  0  0
  1  7  1  0  0  0  0
  2  3  1  0  0  0  0
  2  4  2  0  0  0  0
  4  5  1  0  0  0  0
  5  6  2  0  0  0  0
  5 11  1  0  0  0  0
  6  7  1  0  0  0  0
  6  9  1  0  0  0  0
  7  8  2  0  0  0  0
  9 10  2  0  0  0  0
  9 12  1  0  0  0  0
 10 11  1  0  0  0  0
 12 13  1  0  0  0  0
M  END
>  <CHROM.1>
-139.09460255,9.83098875,29.98833822,26.99109985,-2.24733929,0.65132733,1.63814331

>  <Name>
ligand

>  <RI>
0

>  <Rbt.Current_Directory>
/home/itssahil/PROJECTS/Mol_Feturizer/Test_systems_manuscript/rnas/4jf2

>  <Rbt.Executable>
rbdock ($Id: //depot/dev/client3/rdock/2013.1/src/exe/rbdock.cxx#4 $)

>  <Rbt.Library>
libRbt.so (2013.1, Build901 2013/11/27)

>  <Rbt.Parameter_File>
/export/apps/rDock/src/rDock_2013.1_src/data/scripts/dock_solv.prm

>  <Rbt.Receptor>
prm/blind_docking_60.prm

>  <SCORE>
-10.2769

>  <SCORE.INTER>
-9.81329

>  <SCORE.INTER.CONST>
1

>  <SCORE.INTER.POLAR>
0

>  <SCORE.INTER.ROT>
1

>  <SCORE.INTER.SOLV>
8.30269

>  <SCORE.INTER.VDW>
-13.5764

>  <SCORE.INTER.norm>
-0.754869

>  <SCORE.INTRA>
-0.463634

>  <SCORE.INTRA.DIHEDRAL>
-0.165916

>  <SCORE.INTRA.DIHEDRAL.0>
1.75624

>  <SCORE.INTRA.POLAR>
0

>  <SCORE.INTRA.POLAR.0>
0

>  <SCORE.INTRA.REPUL>
0

>  <SCORE.INTRA.REPUL.0>
0

>  <SCORE.INTRA.SOLV>
-1.03912

>  <SCORE.INTRA.SOLV.lig_0>
-46.5296

>  <SCORE.INTRA.VDW>
0.138884

>  <SCORE.INTRA.VDW.0>
-0.381873

>  <SCORE.INTRA.norm>
-0.0356642

>  <SCORE.RESTR>
0

>  <SCORE.RESTR.CAVITY>
0

>  <SCORE.RESTR.norm>
0

>  <SCORE.SYSTEM>
0

>  <SCORE.SYSTEM.CONST>
0

>  <SCORE.SYSTEM.DIHEDRAL>
0

>  <SCORE.SYSTEM.SOLV>
0

>  <SCORE.SYSTEM.norm>
0

>  <SCORE.heavy>
13

>  <SCORE.norm>
-0.790533

>  <RMSD>
31.030

$$$$
ligand
 OpenBabel02271912143D
libRbt.so/2013.1/901 2013/11/27
 13 14  0  0  0  0  0  0  0  0999 V2000
    9.6535   29.9550   24.7278 N   0  0  0  0  0  0  0  0  0  0  0  0
    8.5807   29.0690   24.9183 C   0  0  0  0  0  0  0  0  0  0  0  0
    7.8982   28.5214   23.7686 N   0  0  0  0  0  0  0  0  0  0  0  0
    8.1896   28.7167   26.1900 N   0  0  0  0  0  0  0  0  0  0  0  0
    8.8369   29.2344   27.3414 C   0  0  0  0  0  0  0  0  0  0  0  0
    9.9245   30.1609   27.1816 C   0  0  0  0  0  0  0  0  0  0  0  0
   10.3036   30.5147   25.8328 C   0  0  0  0  0  0  0  0  0  0  0  0
   11.3453   31.3887   25.6923 O   0  0  0  0  0  0  0  0  0  0  0  0
   10.4066   30.5297   28.4928 C   0  0  0  0  0  0  0  0  0  0  0  0
    9.5855   29.8345   29.3821 C   0  0  0  0  0  0  0  0  0  0  0  0
    8.6666   29.0645   28.6924 N   0  0  0  0  0  0  0  0  0  0  0  0
   11.5238   31.4988   28.8265 C   0  0  0  0  0  0  0  0  0  0  0  0
   12.3215   31.0867   29.9794 N   0  0  0  0  0  0  0  0  0  0  0  0
  1  2  1  0  0  0  0
  1  7  1  0  0  0  0
  2  3  1  0  0  0  0
  2  4  2  0  0  0  0
  4  5  1  0  0  0  0
  5  6  2  0  0  0  0
  5 11  1  0  0  0  0
  6  7  1  0  0  0  0
  6  9  1  0  0  0  0
  7  8  2  0  0  0  0
  9 10  2  0  0  0  0
  9 12  1  0  0  0  0
 10 11  1  0  0  0  0
 12 13  1  0  0  0  0
M  END
>  <CHROM.1>
-143.44766737,9.81824790,29.98927910,26.97386443,-2.24579094,0.65796977,1.63443441

>  <Name>
ligand

>  <RI>
0

>  <Rbt.Current_Directory>
/home/itssahil/PROJECTS/Mol_Feturizer/Test_systems_manuscript/rnas/4jf2

>  <Rbt.Executable>
rbdock ($Id: //depot/dev/client3/rdock/2013.1/src/exe/rbdock.cxx#4 $)

>  <Rbt.Library>
libRbt.so (2013.1, Build901 2013/11/27)

>  <Rbt.Parameter_File>
/export/apps/rDock/src/rDock_2013.1_src/data/scripts/dock_solv.prm

>  <Rbt.Receptor>
prm/blind_docking_100.prm

>  <SCORE>
-10.2565

>  <SCORE.INTER>
-9.79653

>  <SCORE.INTER.CONST>
1

>  <SCORE.INTER.POLAR>
0

>  <SCORE.INTER.ROT>
1

>  <SCORE.INTER.SOLV>
8.26181

>  <SCORE.INTER.VDW>
-13.5516

>  <SCORE.INTER.norm>
-0.75358

>  <SCORE.INTRA>
-0.459941

>  <SCORE.INTRA.DIHEDRAL>
-0.178604

>  <SCORE.INTRA.DIHEDRAL.0>
1.75624

>  <SCORE.INTRA.POLAR>
0

>  <SCORE.INTRA.POLAR.0>
0

>  <SCORE.INTRA.REPUL>
0

>  <SCORE.INTRA.REPUL.0>
0

>  <SCORE.INTRA.SOLV>
-1.03642

>  <SCORE.INTRA.SOLV.lig_0>
-46.5296

>  <SCORE.INTRA.VDW>
0.14757

>  <SCORE.INTRA.VDW.0>
-0.381873

>  <SCORE.INTRA.norm>
-0.0353801

>  <SCORE.RESTR>
0

>  <SCORE.RESTR.CAVITY>
0

>  <SCORE.RESTR.norm>
0

>  <SCORE.SYSTEM>
0

>  <SCORE.SYSTEM.CONST>
0

>  <SCORE.SYSTEM.DIHEDRAL>
0

>  <SCORE.SYSTEM.SOLV>
0

>  <SCORE.SYSTEM.norm>
0

>  <SCORE.heavy>
13

>  <SCORE.norm>
-0.78896

>  <RMSD>
31.039

$$$$
ligand
 OpenBabel02271912143D
libRbt.so/2013.1/901 2013/11/27
 13 14  0  0  0  0  0  0  0  0999 V2000
    9.6414   29.9567   24.7417 N   0  0  0  0  0  0  0  0  0  0  0  0
    8.5676   29.0722   24.9337 C   0  0  0  0  0  0  0  0  0  0  0  0
    7.8789   28.5301   23.7850 N   0  0  0  0  0  0  0  0  0  0  0  0
    8.1813   28.7161   26.2058 N   0  0  0  0  0  0  0  0  0  0  0  0
    8.8348   29.2284   27.3562 C   0  0  0  0  0  0  0  0  0  0  0  0
    9.9235   30.1533   27.1950 C   0  0  0  0  0  0  0  0  0  0  0  0
   10.2974   30.5111   25.8458 C   0  0  0  0  0  0  0  0  0  0  0  0
   11.3403   31.3835   25.7039 O   0  0  0  0  0  0  0  0  0  0  0  0
   10.4121   30.5163   28.5053 C   0  0  0  0  0  0  0  0  0  0  0  0
    9.5935   29.8196   29.3957 C   0  0  0  0  0  0  0  0  0  0  0  0
    8.6700   29.0540   28.7073 N   0  0  0  0  0  0  0  0  0  0  0  0
   11.5328   31.4819   28.8376 C   0  0  0  0  0  0  0  0  0  0  0  0
   12.4565   30.9701   29.8475 N   0  0  0  0  0  0  0  0  0  0  0  0
  1  2  1  0  0  0  0
  1  7  1  0  0  0  0
  2  3  1  0  0  0  0
  2  4  2  0  0  0  0
  4  5  1  0  0  0  0
  5  6  2  0  0  0  0
  5 11  1  0  0  0  0
  6  7  1  0  0  0  0
  6  9  1  0  0  0  0
  7  8  2  0  0  0  0
  9 10  2  0  0  0  0
  9 12  1  0  0  0  0
 10 11  1  0  0  0  0
 12 13  1  0  0  0  0
M  END
>  <CHROM.1>
-134.61373998,9.82592902,29.97492368,26.97583827,-2.26474703,0.64468680,1.64621311

>  <Name>
ligand

>  <RI>
0

>  <Rbt.Current_Directory>
/home/itssahil/PROJECTS/Mol_Feturizer/Test_systems_manuscript/rnas/4jf2

>  <Rbt.Executable>
rbdock ($Id: //depot/dev/client3/rdock/2013.1/src/exe/rbdock.cxx#4 $)

>  <Rbt.Library>
libRbt.so (2013.1, Build901 2013/11/27)

>  <Rbt.Parameter_File>
/export/apps/rDock/src/rDock_2013.1_src/data/scripts/dock_solv.prm

>  <Rbt.Receptor>
prm/blind_docking_100.prm

>  <SCORE>
-10.253

>  <SCORE.INTER>
-9.7882

>  <SCORE.INTER.CONST>
1

>  <SCORE.INTER.POLAR>
0

>  <SCORE.INTER.ROT>
1

>  <SCORE.INTER.SOLV>
8.49246

>  <SCORE.INTER.VDW>
-13.623

>  <SCORE.INTER.norm>
-0.752938

>  <SCORE.INTRA>
-0.464753

>  <SCORE.INTRA.DIHEDRAL>
-0.14802

>  <SCORE.INTRA.DIHEDRAL.0>
1.75624

>  <SCORE.INTRA.POLAR>
0

>  <SCORE.INTRA.POLAR.0>
0

>  <SCORE.INTRA.REPUL>
0

>  <SCORE.INTRA.REPUL.0>
0

>  <SCORE.INTRA.SOLV>
-1.04185

>  <SCORE.INTRA.SOLV.lig_0>
-46.5296

>  <SCORE.INTRA.VDW>
0.130179

>  <SCORE.INTRA.VDW.0>
-0.381873

>  <SCORE.INTRA.norm>
-0.0357502

>  <SCORE.RESTR>
0

>  <SCORE.RESTR.CAVITY>
0

>  <SCORE.RESTR.norm>
0

>  <SCORE.SYSTEM>
0

>  <SCORE.SYSTEM.CONST>
0

>  <SCORE.SYSTEM.DIHEDRAL>
0

>  <SCORE.SYSTEM.SOLV>
0

>  <SCORE.SYSTEM.norm>
0

>  <SCORE.heavy>
13

>  <SCORE.norm>
-0.788688

>  <RMSD>
31.041

$$$$
ligand
 OpenBabel02271912143D
libRbt.so/2013.1/901 2013/11/27
 13 14  0  0  0  0  0  0  0  0999 V2000
   11.7929   31.5807   27.1995 N   0  0  0  0  0  0  0  0  0  0  0  0
   11.3548   31.2380   28.4890 C   0  0  0  0  0  0  0  0  0  0  0  0
   12.0570   31.7575   29.6399 N   0  0  0  0  0  0  0  0  0  0  0  0
   10.2585   30.4226   28.6552 N   0  0  0  0  0  0  0  0  0  0  0  0
    9.5448   29.8950   27.5483 C   0  0  0  0  0  0  0  0  0  0  0  0
    9.9807   30.2085   26.2147 C   0  0  0  0  0  0  0  0  0  0  0  0
   11.1395   31.0608   26.0772 C   0  0  0  0  0  0  0  0  0  0  0  0
   11.5392   31.3606   24.8048 O   0  0  0  0  0  0  0  0  0  0  0  0
    9.0923   29.5580   25.2792 C   0  0  0  0  0  0  0  0  0  0  0  0
    8.1785   28.8681   26.0775 C   0  0  0  0  0  0  0  0  0  0  0  0
    8.4483   29.0806   27.4173 N   0  0  0  0  0  0  0  0  0  0  0  0
    9.1699   29.5792   23.7652 C   0  0  0  0  0  0  0  0  0  0  0  0
    8.6246   28.3756   23.1414 N   0  0  0  0  0  0  0  0  0  0  0  0
  1  2  1  0  0  0  0
  1  7  1  0  0  0  0
  2  3  1  0  0  0  0
  2  4  2  0  0  0  0
  4  5  1  0  0  0  0
  5  6  2  0  0  0  0
  5 11  1  0  0  0  0
  6  7  1  0  0  0  0
  6  9  1  0  0  0  0
  7  8  2  0  0  0  0
  9 10  2  0  0  0  0
  9 12  1  0  0  0  0
 10 11  1  0  0  0  0
 12 13  1  0  0  0  0
M  END
>  <CHROM.1>
150.77724098,10.12205473,30.24901371,26.45657902,-0.92870078,-0.65923445
-1.62679651

>  <Name>
ligand

>  <RI>
0

>  <Rbt.Current_Directory>
/home/itssahil/PROJECTS/Mol_Feturizer/Test_systems_manuscript/rnas/4jf2

>  <Rbt.Executable>
rbdock ($Id: //depot/dev/client3/rdock/2013.1/src/exe/rbdock.cxx#4 $)

>  <Rbt.Library>
libRbt.so (2013.1, Build901 2013/11/27)

>  <Rbt.Parameter_File>
/export/apps/rDock/src/rDock_2013.1_src/data/scripts/dock_solv.prm

>  <Rbt.Receptor>
prm/blind_docking_60.prm

>  <SCORE>
-9.45834

>  <SCORE.INTER>
-9.13642

>  <SCORE.INTER.CONST>
1

>  <SCORE.INTER.POLAR>
0

>  <SCORE.INTER.ROT>
1

>  <SCORE.INTER.SOLV>
5.67262

>  <SCORE.INTER.VDW>
-12.2485

>  <SCORE.INTER.norm>
-0.702802

>  <SCORE.INTRA>
-0.321917

>  <SCORE.INTRA.DIHEDRAL>
0.0347095

>  <SCORE.INTRA.DIHEDRAL.0>
1.75624

>  <SCORE.INTRA.POLAR>
0

>  <SCORE.INTRA.POLAR.0>
0

>  <SCORE.INTRA.REPUL>
0

>  <SCORE.INTRA.REPUL.0>
0

>  <SCORE.INTRA.SOLV>
-1.01781

>  <SCORE.INTRA.SOLV.lig_0>
-46.5296

>  <SCORE.INTRA.VDW>
0.169634

>  <SCORE.INTRA.VDW.0>
-0.381873

>  <SCORE.INTRA.norm>
-0.0247628

>  <SCORE.RESTR>
0

>  <SCORE.RESTR.CAVITY>
0

>  <SCORE.RESTR.norm>
0

>  <SCORE.SYSTEM>
0

>  <SCORE.SYSTEM.CONST>
0

>  <SCORE.SYSTEM.DIHEDRAL>
0

>  <SCORE.SYSTEM.SOLV>
0

>  <SCORE.SYSTEM.norm>
0

>  <SCORE.heavy>
13

>  <SCORE.norm>
-0.727565

>  <RMSD>
31.423

$$$$
ligand
 OpenBabel02271912143D
libRbt.so/2013.1/901 2013/11/27
 13 14  0  0  0  0  0  0  0  0999 V2000
   11.9672   31.6507   26.5530 N   0  0  0  0  0  0  0  0  0  0  0  0
   11.7616   31.4619   27.9294 C   0  0  0  0  0  0  0  0  0  0  0  0
   12.6600   32.0842   28.8743 N   0  0  0  0  0  0  0  0  0  0  0  0
   10.7061   30.6990   28.3747 N   0  0  0  0  0  0  0  0  0  0  0  0
    9.8041   30.0737   27.4757 C   0  0  0  0  0  0  0  0  0  0  0  0
    9.9995   30.2288   26.0599 C   0  0  0  0  0  0  0  0  0  0  0  0
   11.1218   31.0298   25.6275 C   0  0  0  0  0  0  0  0  0  0  0  0
   11.2923   31.1787   24.2794 O   0  0  0  0  0  0  0  0  0  0  0  0
    8.9550   29.5046   25.3728 C   0  0  0  0  0  0  0  0  0  0  0  0
    8.1918   28.9303   26.3906 C   0  0  0  0  0  0  0  0  0  0  0  0
    8.6958   29.2796   27.6303 N   0  0  0  0  0  0  0  0  0  0  0  0
    8.7638   29.3592   23.8758 C   0  0  0  0  0  0  0  0  0  0  0  0
    8.7302   27.9682   23.4296 N   0  0  0  0  0  0  0  0  0  0  0  0
  1  2  1  0  0  0  0
  1  7  1  0  0  0  0
  2  3  1  0  0  0  0
  2  4  2  0  0  0  0
  4  5  1  0  0  0  0
  5  6  2  0  0  0  0
  5 11  1  0  0  0  0
  6  7  1  0  0  0  0
  6  9  1  0  0  0  0
  7  8  2  0  0  0  0
  9 10  2  0  0  0  0
  9 12  1  0  0  0  0
 10 11  1  0  0  0  0
 12 13  1  0  0  0  0
M  END
>  <CHROM.1>
123.11790342,10.23232323,30.27996533,26.26188696,-0.76271836,-0.66025301
-1.64469760

>  <Name>
ligand

>  <RI>
0

>  <Rbt.Current_Directory>
/home/itssahil/PROJECTS/Mol_Feturizer/Test_systems_manuscript/rnas/4jf2

>  <Rbt.Executable>
rbdock ($Id: //depot/dev/client3/rdock/2013.1/src/exe/rbdock.cxx#4 $)

>  <Rbt.Library>
libRbt.so (2013.1, Build901 2013/11/27)

>  <Rbt.Parameter_File>
/export/apps/rDock/src/rDock_2013.1_src/data/scripts/dock_solv.prm

>  <Rbt.Receptor>
prm/blind_docking_100.prm

>  <SCORE>
-9.67626

>  <SCORE.INTER>
-9.29804

>  <SCORE.INTER.CONST>
1

>  <SCORE.INTER.POLAR>
0

>  <SCORE.INTER.ROT>
1

>  <SCORE.INTER.SOLV>
5.88783

>  <SCORE.INTER.VDW>
-12.428

>  <SCORE.INTER.norm>
-0.715234

>  <SCORE.INTRA>
-0.378221

>  <SCORE.INTRA.DIHEDRAL>
-0.0508311

>  <SCORE.INTRA.DIHEDRAL.0>
1.75624

>  <SCORE.INTRA.POLAR>
0

>  <SCORE.INTRA.POLAR.0>
0

>  <SCORE.INTRA.REPUL>
0

>  <SCORE.INTRA.REPUL.0>
0

>  <SCORE.INTRA.SOLV>
-0.929587

>  <SCORE.INTRA.SOLV.lig_0>
-46.5296

>  <SCORE.INTRA.VDW>
0.111988

>  <SCORE.INTRA.VDW.0>
-0.381873

>  <SCORE.INTRA.norm>
-0.029094

>  <SCORE.RESTR>
0

>  <SCORE.RESTR.CAVITY>
0

>  <SCORE.RESTR.norm>
0

>  <SCORE.SYSTEM>
0

>  <SCORE.SYSTEM.CONST>
0

>  <SCORE.SYSTEM.DIHEDRAL>
0

>  <SCORE.SYSTEM.SOLV>
0

>  <SCORE.SYSTEM.norm>
0

>  <SCORE.heavy>
13

>  <SCORE.norm>
-0.744328

>  <RMSD>
31.636

$$$$
ligand
 OpenBabel02271912143D
libRbt.so/2013.1/901 2013/11/27
 13 14  0  0  0  0  0  0  0  0999 V2000
   10.2653   30.5712   28.4713 N   0  0  0  0  0  0  0  0  0  0  0  0
   11.3388   31.4497   28.2524 C   0  0  0  0  0  0  0  0  0  0  0  0
   11.9788   32.0854   29.3811 N   0  0  0  0  0  0  0  0  0  0  0  0
   11.7847   31.6948   26.9736 N   0  0  0  0  0  0  0  0  0  0  0  0
   11.1807   31.0880   25.8423 C   0  0  0  0  0  0  0  0  0  0  0  0
   10.0653   30.2007   26.0301 C   0  0  0  0  0  0  0  0  0  0  0  0
    9.6185   29.9722   27.3852 C   0  0  0  0  0  0  0  0  0  0  0  0
    8.5636   29.1190   27.5530 O   0  0  0  0  0  0  0  0  0  0  0  0
    9.6417   29.7194   24.7354 C   0  0  0  0  0  0  0  0  0  0  0  0
   10.4960   30.3455   23.8263 C   0  0  0  0  0  0  0  0  0  0  0  0
   11.4081   31.1454   24.4903 N   0  0  0  0  0  0  0  0  0  0  0  0
    8.4895   28.7821   24.4308 C   0  0  0  0  0  0  0  0  0  0  0  0
    8.7881   27.8252   23.3676 N   0  0  0  0  0  0  0  0  0  0  0  0
  1  2  1  0  0  0  0
  1  7  1  0  0  0  0
  2  3  1  0  0  0  0
  2  4  2  0  0  0  0
  4  5  1  0  0  0  0
  5  6  2  0  0  0  0
  5 11  1  0  0  0  0
  6  7  1  0  0  0  0
  6  9  1  0  0  0  0
  7  8  2  0  0  0  0
  9 10  2  0  0  0  0
  9 12  1  0  0  0  0
 10 11  1  0  0  0  0
 12 13  1  0  0  0  0
M  END
>  <CHROM.1>
-141.39967857,10.25054827,30.28286405,26.23987648,1.00674728,0.72482855,1.42470998

>  <Name>
ligand

>  <RI>
0

>  <Rbt.Current_Directory>
/home/itssahil/PROJECTS/Mol_Feturizer/Test_systems_manuscript/rnas/4jf2

>  <Rbt.Executable>
rbdock ($Id: //depot/dev/client3/rdock/2013.1/src/exe/rbdock.cxx#4 $)

>  <Rbt.Library>
libRbt.so (2013.1, Build901 2013/11/27)

>  <Rbt.Parameter_File>
/export/apps/rDock/src/rDock_2013.1_src/data/scripts/dock_solv.prm

>  <Rbt.Receptor>
prm/blind_docking_100.prm

>  <SCORE>
-8.79921

>  <SCORE.INTER>
-8.3372

>  <SCORE.INTER.CONST>
1

>  <SCORE.INTER.POLAR>
0

>  <SCORE.INTER.ROT>
1

>  <SCORE.INTER.SOLV>
5.88659

>  <SCORE.INTER.VDW>
-11.787

>  <SCORE.INTER.norm>
-0.641323

>  <SCORE.INTRA>
-0.462016

>  <SCORE.INTRA.DIHEDRAL>
-0.17326

>  <SCORE.INTRA.DIHEDRAL.0>
1.75624

>  <SCORE.INTRA.POLAR>
0

>  <SCORE.INTRA.POLAR.0>
0

>  <SCORE.INTRA.REPUL>
0

>  <SCORE.INTRA.REPUL.0>
0

>  <SCORE.INTRA.SOLV>
-1.03769

>  <SCORE.INTRA.SOLV.lig_0>
-46.5296

>  <SCORE.INTRA.VDW>
0.143461

>  <SCORE.INTRA.VDW.0>
-0.381873

>  <SCORE.INTRA.norm>
-0.0355397

>  <SCORE.RESTR>
0

>  <SCORE.RESTR.CAVITY>
0

>  <SCORE.RESTR.norm>
0

>  <SCORE.SYSTEM>
0

>  <SCORE.SYSTEM.CONST>
0

>  <SCORE.SYSTEM.DIHEDRAL>
0

>  <SCORE.SYSTEM.SOLV>
0

>  <SCORE.SYSTEM.norm>
0

>  <SCORE.heavy>
13

>  <SCORE.norm>
-0.676862

>  <RMSD>
31.772

$$$$
ligand
 OpenBabel02271912143D
libRbt.so/2013.1/901 2013/11/27
 13 14  0  0  0  0  0  0  0  0999 V2000
   10.2618   30.5658   28.4972 N   0  0  0  0  0  0  0  0  0  0  0  0
   11.3466   31.4363   28.3032 C   0  0  0  0  0  0  0  0  0  0  0  0
   11.9783   32.0512   29.4479 N   0  0  0  0  0  0  0  0  0  0  0  0
   11.8113   31.6930   27.0333 N   0  0  0  0  0  0  0  0  0  0  0  0
   11.2160   31.1067   25.8868 C   0  0  0  0  0  0  0  0  0  0  0  0
   10.0895   30.2283   26.0490 C   0  0  0  0  0  0  0  0  0  0  0  0
    9.6232   29.9871   27.3953 C   0  0  0  0  0  0  0  0  0  0  0  0
    8.5578   29.1426   27.5387 O   0  0  0  0  0  0  0  0  0  0  0  0
    9.6779   29.7676   24.7430 C   0  0  0  0  0  0  0  0  0  0  0  0
   10.5499   30.3966   23.8529 C   0  0  0  0  0  0  0  0  0  0  0  0
   11.4613   31.1789   24.5386 N   0  0  0  0  0  0  0  0  0  0  0  0
    8.5205   28.8459   24.4118 C   0  0  0  0  0  0  0  0  0  0  0  0
    8.6359   28.2229   23.0951 N   0  0  0  0  0  0  0  0  0  0  0  0
  1  2  1  0  0  0  0
  1  7  1  0  0  0  0
  2  3  1  0  0  0  0
  2  4  2  0  0  0  0
  4  5  1  0  0  0  0
  5  6  2  0  0  0  0
  5 11  1  0  0  0  0
  6  7  1  0  0  0  0
  6  9  1  0  0  0  0
  7  8  2  0  0  0  0
  9 10  2  0  0  0  0
  9 12  1  0  0  0  0
 10 11  1  0  0  0  0
 12 13  1  0  0  0  0
M  END
>  <CHROM.1>
-160.57468885,10.25763239,30.33224243,26.24222703,1.02447062,0.69154678,1.45015864

>  <Name>
ligand

>  <RI>
0

>  <Rbt.Current_Directory>
/home/itssahil/PROJECTS/Mol_Feturizer/Test_systems_manuscript/rnas/4jf2

>  <Rbt.Executable>
rbdock ($Id: //depot/dev/client3/rdock/2013.1/src/exe/rbdock.cxx#4 $)

>  <Rbt.Library>
libRbt.so (2013.1, Build901 2013/11/27)

>  <Rbt.Parameter_File>
/export/apps/rDock/src/rDock_2013.1_src/data/scripts/dock_solv.prm

>  <Rbt.Receptor>
prm/blind_docking_100.prm

>  <SCORE>
-8.56236

>  <SCORE.INTER>
-8.1428

>  <SCORE.INTER.CONST>
1

>  <SCORE.INTER.POLAR>
0

>  <SCORE.INTER.ROT>
1

>  <SCORE.INTER.SOLV>
5.63879

>  <SCORE.INTER.VDW>
-11.5748

>  <SCORE.INTER.norm>
-0.626369

>  <SCORE.INTRA>
-0.419566

>  <SCORE.INTRA.DIHEDRAL>
-0.174848

>  <SCORE.INTRA.DIHEDRAL.0>
1.75624

>  <SCORE.INTRA.POLAR>
0

>  <SCORE.INTRA.POLAR.0>
0

>  <SCORE.INTRA.REPUL>
0

>  <SCORE.INTRA.REPUL.0>
0

>  <SCORE.INTRA.SOLV>
-1.02631

>  <SCORE.INTRA.SOLV.lig_0>
-46.5296

>  <SCORE.INTRA.VDW>
0.181014

>  <SCORE.INTRA.VDW.0>
-0.381873

>  <SCORE.INTRA.norm>
-0.0322743

>  <SCORE.RESTR>
0

>  <SCORE.RESTR.CAVITY>
0

>  <SCORE.RESTR.norm>
0

>  <SCORE.SYSTEM>
0

>  <SCORE.SYSTEM.CONST>
0

>  <SCORE.SYSTEM.DIHEDRAL>
0

>  <SCORE.SYSTEM.SOLV>
0

>  <SCORE.SYSTEM.norm>
0

>  <SCORE.heavy>
13

>  <SCORE.norm>
-0.658643

>  <RMSD>
31.772

$$$$
ligand
 OpenBabel02271912143D
libRbt.so/2013.1/901 2013/11/27
 13 14  0  0  0  0  0  0  0  0999 V2000
   16.9063   33.9936   30.6112 N   0  0  0  0  0  0  0  0  0  0  0  0
   17.6914   34.4814   31.6684 C   0  0  0  0  0  0  0  0  0  0  0  0
   17.6291   35.8833   32.0123 N   0  0  0  0  0  0  0  0  0  0  0  0
   18.5056   33.6286   32.3785 N   0  0  0  0  0  0  0  0  0  0  0  0
   18.5915   32.2467   32.0691 C   0  0  0  0  0  0  0  0  0  0  0  0
   17.8175   31.7194   30.9783 C   0  0  0  0  0  0  0  0  0  0  0  0
   16.9797   32.6443   30.2497 C   0  0  0  0  0  0  0  0  0  0  0  0
   16.2405   32.1304   29.2209 O   0  0  0  0  0  0  0  0  0  0  0  0
   18.0792   30.3022   30.8758 C   0  0  0  0  0  0  0  0  0  0  0  0
   19.0069   30.0380   31.8847 C   0  0  0  0  0  0  0  0  0  0  0  0
   19.2968   31.1915   32.5906 N   0  0  0  0  0  0  0  0  0  0  0  0
   17.5101   29.3295   29.8615 C   0  0  0  0  0  0  0  0  0  0  0  0
   18.4988   28.8585   28.8942 N   0  0  0  0  0  0  0  0  0  0  0  0
  1  2  1  0  0  0  0
  1  7  1  0  0  0  0
  2  3  1  0  0  0  0
  2  4  2  0  0  0  0
  4  5  1  0  0  0  0
  5  6  2  0  0  0  0
  5 11  1  0  0  0  0
  6  7  1  0  0  0  0
  6  9  1  0  0  0  0
  7  8  2  0  0  0  0
  9 10  2  0  0  0  0
  9 12  1  0  0  0  0
 10 11  1  0  0  0  0
 12 13  1  0  0  0  0
M  END
>  <CHROM.1>
109.63054747,17.87620786,32.04420246,30.98326378,1.71874042,-0.88048106,0.43243230

>  <Name>
ligand

>  <RI>
-1

>  <Rbt.Current_Directory>
/home/itssahil/PROJECTS/Mol_Feturizer/Test_systems_manuscript/rnas/4jf2

>  <Rbt.Executable>
rbdock ($Id: //depot/dev/client3/rdock/2013.1/src/exe/rbdock.cxx#4 $)

>  <Rbt.Library>
libRbt.so (2013.1, Build901 2013/11/27)

>  <Rbt.Parameter_File>
/export/apps/rDock/src/rDock_2013.1_src/data/scripts/dock_solv.prm

>  <Rbt.Receptor>
prm/blind_docking_80.prm

>  <SCORE>
-4.10072

>  <SCORE.INTER>
-3.74916

>  <SCORE.INTER.CONST>
1

>  <SCORE.INTER.POLAR>
0

>  <SCORE.INTER.ROT>
1

>  <SCORE.INTER.SOLV>
5.28472

>  <SCORE.INTER.VDW>
-8.52768

>  <SCORE.INTER.norm>
-0.288397

>  <SCORE.INTRA>
-0.351565

>  <SCORE.INTRA.DIHEDRAL>
-0.127422

>  <SCORE.INTRA.DIHEDRAL.0>
1.75624

>  <SCORE.INTRA.POLAR>
0

>  <SCORE.INTRA.POLAR.0>
0

>  <SCORE.INTRA.REPUL>
0

>  <SCORE.INTRA.REPUL.0>
0

>  <SCORE.INTRA.SOLV>
-0.746963

>  <SCORE.INTRA.SOLV.lig_0>
-46.5296

>  <SCORE.INTRA.VDW>
0.085628

>  <SCORE.INTRA.VDW.0>
-0.381873

>  <SCORE.INTRA.norm>
-0.0270434

>  <SCORE.RESTR>
0

>  <SCORE.RESTR.CAVITY>
0

>  <SCORE.RESTR.norm>
0

>  <SCORE.SYSTEM>
0

>  <SCORE.SYSTEM.CONST>
0

>  <SCORE.SYSTEM.DIHEDRAL>
0

>  <SCORE.SYSTEM.SOLV>
0

>  <SCORE.SYSTEM.norm>
0

>  <SCORE.heavy>
13

>  <SCORE.norm>
-0.31544

>  <RMSD>
32.602

$$$$
ligand
 OpenBabel02271912143D
libRbt.so/2013.1/901 2013/11/27
 13 14  0  0  0  0  0  0  0  0999 V2000
    7.7958   26.7703   25.8857 N   0  0  0  0  0  0  0  0  0  0  0  0
    8.0854   27.9937   26.5116 C   0  0  0  0  0  0  0  0  0  0  0  0
    8.2842   28.0308   27.9422 N   0  0  0  0  0  0  0  0  0  0  0  0
    8.1899   29.1462   25.7666 N   0  0  0  0  0  0  0  0  0  0  0  0
    8.0015   29.1469   24.3604 C   0  0  0  0  0  0  0  0  0  0  0  0
    7.6819   27.9150   23.6917 C   0  0  0  0  0  0  0  0  0  0  0  0
    7.5725   26.7260   24.5055 C   0  0  0  0  0  0  0  0  0  0  0  0
    7.2781   25.5585   23.8581 O   0  0  0  0  0  0  0  0  0  0  0  0
    7.5463   28.1844   22.2787 C   0  0  0  0  0  0  0  0  0  0  0  0
    7.7663   29.5572   22.1557 C   0  0  0  0  0  0  0  0  0  0  0  0
    8.0435   30.1162   23.3900 N   0  0  0  0  0  0  0  0  0  0  0  0
    7.1914   27.2001   21.1814 C   0  0  0  0  0  0  0  0  0  0  0  0
    7.8670   25.9118   21.3196 N   0  0  0  0  0  0  0  0  0  0  0  0
  1  2  1  0  0  0  0
  1  7  1  0  0  0  0
  2  3  1  0  0  0  0
  2  4  2  0  0  0  0
  4  5  1  0  0  0  0
  5  6  2  0  0  0  0
  5 11  1  0  0  0  0
  6  7  1  0  0  0  0
  6  9  1  0  0  0  0
  7  8  2  0  0  0  0
  9 10  2  0  0  0  0
  9 12  1  0  0  0  0
 10 11  1  0  0  0  0
 12 13  1  0  0  0  0
M  END
>  <CHROM.1>
-42.04203719,7.78775176,27.81214540,24.07272498,0.73140591,1.41860048,2.24257848

>  <Name>
ligand

>  <RI>
-1

>  <Rbt.Current_Directory>
/home/itssahil/PROJECTS/Mol_Feturizer/Test_systems_manuscript/rnas/4jf2

>  <Rbt.Executable>
rbdock ($Id: //depot/dev/client3/rdock/2013.1/src/exe/rbdock.cxx#4 $)

>  <Rbt.Library>
libRbt.so (2013.1, Build901 2013/11/27)

>  <Rbt.Parameter_File>
/export/apps/rDock/src/rDock_2013.1_src/data/scripts/dock_solv.prm

>  <Rbt.Receptor>
prm/blind_docking_40.prm

>  <SCORE>
-1.103

>  <SCORE.INTER>
-4.53668

>  <SCORE.INTER.CONST>
1

>  <SCORE.INTER.POLAR>
0

>  <SCORE.INTER.ROT>
1

>  <SCORE.INTER.SOLV>
4.20896

>  <SCORE.INTER.VDW>
-8.6941

>  <SCORE.INTER.norm>
-0.348975

>  <SCORE.INTRA>
0.588695

>  <SCORE.INTRA.DIHEDRAL>
-0.170547

>  <SCORE.INTRA.DIHEDRAL.0>
1.75624

>  <SCORE.INTRA.POLAR>
0

>  <SCORE.INTRA.POLAR.0>
0

>  <SCORE.INTRA.REPUL>
0

>  <SCORE.INTRA.REPUL.0>
0

>  <SCORE.INTRA.SOLV>
0.910516

>  <SCORE.INTRA.SOLV.lig_0>
-46.5296

>  <SCORE.INTRA.VDW>
0.218711

>  <SCORE.INTRA.VDW.0>
-0.381873

>  <SCORE.INTRA.norm>
0.0452842

>  <SCORE.RESTR>
2.84498

>  <SCORE.RESTR.CAVITY>
2.84498

>  <SCORE.RESTR.norm>
0.218845

>  <SCORE.SYSTEM>
0

>  <SCORE.SYSTEM.CONST>
0

>  <SCORE.SYSTEM.DIHEDRAL>
0

>  <SCORE.SYSTEM.SOLV>
0

>  <SCORE.SYSTEM.norm>
0

>  <SCORE.heavy>
13

>  <SCORE.norm>
-0.0848463

>  <RMSD>
32.759

$$$$
ligand
 OpenBabel02271912143D
libRbt.so/2013.1/901 2013/11/27
 13 14  0  0  0  0  0  0  0  0999 V2000
    7.8024   26.8073   25.8147 N   0  0  0  0  0  0  0  0  0  0  0  0
    8.1094   27.9997   26.4901 C   0  0  0  0  0  0  0  0  0  0  0  0
    8.2622   27.9839   27.9267 N   0  0  0  0  0  0  0  0  0  0  0  0
    8.2740   29.1719   25.7878 N   0  0  0  0  0  0  0  0  0  0  0  0
    8.1319   29.2243   24.3772 C   0  0  0  0  0  0  0  0  0  0  0  0
    7.7962   28.0258   23.6578 C   0  0  0  0  0  0  0  0  0  0  0  0
    7.6231   26.8150   24.4274 C   0  0  0  0  0  0  0  0  0  0  0  0
    7.3139   25.6793   23.7322 O   0  0  0  0  0  0  0  0  0  0  0  0
    7.7154   28.3451   22.2510 C   0  0  0  0  0  0  0  0  0  0  0  0
    7.9819   29.7134   22.1811 C   0  0  0  0  0  0  0  0  0  0  0  0
    8.2359   30.2228   23.4416 N   0  0  0  0  0  0  0  0  0  0  0  0
    7.3662   27.4090   21.1106 C   0  0  0  0  0  0  0  0  0  0  0  0
    5.9446   27.4144   20.7728 N   0  0  0  0  0  0  0  0  0  0  0  0
  1  2  1  0  0  0  0
  1  7  1  0  0  0  0
  2  3  1  0  0  0  0
  2  4  2  0  0  0  0
  4  5  1  0  0  0  0
  5  6  2  0  0  0  0
  5 11  1  0  0  0  0
  6  7  1  0  0  0  0
  6  9  1  0  0  0  0
  7  8  2  0  0  0  0
  9 10  2  0  0  0  0
  9 12  1  0  0  0  0
 10 11  1  0  0  0  0
 12 13  1  0  0  0  0
M  END
>  <CHROM.1>
93.10165569,7.71926204,28.01450615,24.00133241,0.87481060,1.24372791,2.21888045

>  <Name>
ligand

>  <RI>
-1

>  <Rbt.Current_Directory>
/home/itssahil/PROJECTS/Mol_Feturizer/Test_systems_manuscript/rnas/4jf2

>  <Rbt.Executable>
rbdock ($Id: //depot/dev/client3/rdock/2013.1/src/exe/rbdock.cxx#4 $)

>  <Rbt.Library>
libRbt.so (2013.1, Build901 2013/11/27)

>  <Rbt.Parameter_File>
/export/apps/rDock/src/rDock_2013.1_src/data/scripts/dock_solv.prm

>  <Rbt.Receptor>
prm/blind_docking_40.prm

>  <SCORE>
-2.15183

>  <SCORE.INTER>
-4.11414

>  <SCORE.INTER.CONST>
1

>  <SCORE.INTER.POLAR>
0

>  <SCORE.INTER.ROT>
1

>  <SCORE.INTER.SOLV>
6.72329

>  <SCORE.INTER.VDW>
-9.25052

>  <SCORE.INTER.norm>
-0.316472

>  <SCORE.INTRA>
-0.283814

>  <SCORE.INTRA.DIHEDRAL>
-0.184923

>  <SCORE.INTRA.DIHEDRAL.0>
1.75624

>  <SCORE.INTRA.POLAR>
0

>  <SCORE.INTRA.POLAR.0>
0

>  <SCORE.INTRA.REPUL>
0

>  <SCORE.INTRA.REPUL.0>
0

>  <SCORE.INTRA.SOLV>
-0.481942

>  <SCORE.INTRA.SOLV.lig_0>
-46.5296

>  <SCORE.INTRA.VDW>
0.0496179

>  <SCORE.INTRA.VDW.0>
-0.381873

>  <SCORE.INTRA.norm>
-0.0218319

>  <SCORE.RESTR>
2.24612

>  <SCORE.RESTR.CAVITY>
2.24612

>  <SCORE.RESTR.norm>
0.172779

>  <SCORE.SYSTEM>
0

>  <SCORE.SYSTEM.CONST>
0

>  <SCORE.SYSTEM.DIHEDRAL>
0

>  <SCORE.SYSTEM.SOLV>
0

>  <SCORE.SYSTEM.norm>
0

>  <SCORE.heavy>
13

>  <SCORE.norm>
-0.165526

>  <RMSD>
32.775

$$$$
ligand
 OpenBabel02271912143D
libRbt.so/2013.1/901 2013/11/27
 13 14  0  0  0  0  0  0  0  0999 V2000
    7.7938   26.8094   25.8180 N   0  0  0  0  0  0  0  0  0  0  0  0
    8.0968   27.9981   26.5017 C   0  0  0  0  0  0  0  0  0  0  0  0
    8.2309   27.9765   27.9401 N   0  0  0  0  0  0  0  0  0  0  0  0
    8.2754   29.1721   25.8059 N   0  0  0  0  0  0  0  0  0  0  0  0
    8.1519   29.2302   24.3937 C   0  0  0  0  0  0  0  0  0  0  0  0
    7.8206   28.0357   23.6656 C   0  0  0  0  0  0  0  0  0  0  0  0
    7.6325   26.8229   24.4285 C   0  0  0  0  0  0  0  0  0  0  0  0
    7.3277   25.6910   23.7252 O   0  0  0  0  0  0  0  0  0  0  0  0
    7.7594   28.3604   22.2591 C   0  0  0  0  0  0  0  0  0  0  0  0
    8.0325   29.7279   22.1977 C   0  0  0  0  0  0  0  0  0  0  0  0
    8.2721   30.2316   23.4633 N   0  0  0  0  0  0  0  0  0  0  0  0
    7.4212   27.4299   21.1109 C   0  0  0  0  0  0  0  0  0  0  0  0
    5.9995   27.4212   20.7732 N   0  0  0  0  0  0  0  0  0  0  0  0
  1  2  1  0  0  0  0
  1  7  1  0  0  0  0
  2  3  1  0  0  0  0
  2  4  2  0  0  0  0
  4  5  1  0  0  0  0
  5  6  2  0  0  0  0
  5 11  1  0  0  0  0
  6  7  1  0  0  0  0
  6  9  1  0  0  0  0
  7  8  2  0  0  0  0
  9 10  2  0  0  0  0
  9 12  1  0  0  0  0
 10 11  1  0  0  0  0
 12 13  1  0  0  0  0
M  END
>  <CHROM.1>
91.88110164,7.73877181,28.02179114,24.00964772,0.91574373,1.24721981,2.18155318

>  <Name>
ligand

>  <RI>
-1

>  <Rbt.Current_Directory>
/home/itssahil/PROJECTS/Mol_Feturizer/Test_systems_manuscript/rnas/4jf2

>  <Rbt.Executable>
rbdock ($Id: //depot/dev/client3/rdock/2013.1/src/exe/rbdock.cxx#4 $)

>  <Rbt.Library>
libRbt.so (2013.1, Build901 2013/11/27)

>  <Rbt.Parameter_File>
/export/apps/rDock/src/rDock_2013.1_src/data/scripts/dock_solv.prm

>  <Rbt.Receptor>
prm/blind_docking_40.prm

>  <SCORE>
-2.22434

>  <SCORE.INTER>
-4.22264

>  <SCORE.INTER.CONST>
1

>  <SCORE.INTER.POLAR>
0

>  <SCORE.INTER.ROT>
1

>  <SCORE.INTER.SOLV>
6.4984

>  <SCORE.INTER.VDW>
-9.2479

>  <SCORE.INTER.norm>
-0.324819

>  <SCORE.INTRA>
-0.276995

>  <SCORE.INTRA.DIHEDRAL>
-0.186318

>  <SCORE.INTRA.DIHEDRAL.0>
1.75624

>  <SCORE.INTRA.POLAR>
0

>  <SCORE.INTRA.POLAR.0>
0

>  <SCORE.INTRA.REPUL>
0

>  <SCORE.INTRA.REPUL.0>
0

>  <SCORE.INTRA.SOLV>
-0.460875

>  <SCORE.INTRA.SOLV.lig_0>
-46.5296

>  <SCORE.INTRA.VDW>
0.0466013

>  <SCORE.INTRA.VDW.0>
-0.381873

>  <SCORE.INTRA.norm>
-0.0213073

>  <SCORE.RESTR>
2.2753

>  <SCORE.RESTR.CAVITY>
2.2753

>  <SCORE.RESTR.norm>
0.175023

>  <SCORE.SYSTEM>
0

>  <SCORE.SYSTEM.CONST>
0

>  <SCORE.SYSTEM.DIHEDRAL>
0

>  <SCORE.SYSTEM.SOLV>
0

>  <SCORE.SYSTEM.norm>
0

>  <SCORE.heavy>
13

>  <SCORE.norm>
-0.171103

>  <RMSD>
32.776

$$$$
ligand
 OpenBabel02271912143D
libRbt.so/2013.1/901 2013/11/27
 13 14  0  0  0  0  0  0  0  0999 V2000
    7.0003   27.6757   25.5078 N   0  0  0  0  0  0  0  0  0  0  0  0
    8.0025   28.1791   26.3530 C   0  0  0  0  0  0  0  0  0  0  0  0
    8.0052   27.8113   27.7502 N   0  0  0  0  0  0  0  0  0  0  0  0
    8.9806   29.0077   25.8520 N   0  0  0  0  0  0  0  0  0  0  0  0
    9.0093   29.3893   24.4858 C   0  0  0  0  0  0  0  0  0  0  0  0
    7.9851   28.9091   23.5984 C   0  0  0  0  0  0  0  0  0  0  0  0
    6.9697   28.0477   24.1597 C   0  0  0  0  0  0  0  0  0  0  0  0
    6.0065   27.5889   23.3049 O   0  0  0  0  0  0  0  0  0  0  0  0
    8.2426   29.4342   22.2773 C   0  0  0  0  0  0  0  0  0  0  0  0
    9.3877   30.2189   22.4235 C   0  0  0  0  0  0  0  0  0  0  0  0
    9.8389   30.1791   23.7303 N   0  0  0  0  0  0  0  0  0  0  0  0
    7.4190   29.2205   21.0224 C   0  0  0  0  0  0  0  0  0  0  0  0
    5.9820   29.3693   21.2417 N   0  0  0  0  0  0  0  0  0  0  0  0
  1  2  1  0  0  0  0
  1  7  1  0  0  0  0
  2  3  1  0  0  0  0
  2  4  2  0  0  0  0
  4  5  1  0  0  0  0
  5  6  2  0  0  0  0
  5 11  1  0  0  0  0
  6  7  1  0  0  0  0
  6  9  1  0  0  0  0
  7  8  2  0  0  0  0
  9 10  2  0  0  0  0
  9 12  1  0  0  0  0
 10 11  1  0  0  0  0
 12 13  1  0  0  0  0
M  END
>  <CHROM.1>
44.86699790,7.86306425,28.82136895,23.97589957,1.41058788,0.53268111,1.89444550

>  <Name>
ligand

>  <RI>
-1

>  <Rbt.Current_Directory>
/home/itssahil/PROJECTS/Mol_Feturizer/Test_systems_manuscript/rnas/4jf2

>  <Rbt.Executable>
rbdock ($Id: //depot/dev/client3/rdock/2013.1/src/exe/rbdock.cxx#4 $)

>  <Rbt.Library>
libRbt.so (2013.1, Build901 2013/11/27)

>  <Rbt.Parameter_File>
/export/apps/rDock/src/rDock_2013.1_src/data/scripts/dock_solv.prm

>  <Rbt.Receptor>
prm/blind_docking_40.prm

>  <SCORE>
1.84207

>  <SCORE.INTER>
-0.931712

>  <SCORE.INTER.CONST>
1

>  <SCORE.INTER.POLAR>
0

>  <SCORE.INTER.ROT>
1

>  <SCORE.INTER.SOLV>
8.74261

>  <SCORE.INTER.VDW>
-7.80201

>  <SCORE.INTER.norm>
-0.0716701

>  <SCORE.INTRA>
0.503627

>  <SCORE.INTRA.DIHEDRAL>
-0.00216716

>  <SCORE.INTRA.DIHEDRAL.0>
1.75624

>  <SCORE.INTRA.POLAR>
0

>  <SCORE.INTRA.POLAR.0>
0

>  <SCORE.INTRA.REPUL>
0

>  <SCORE.INTRA.REPUL.0>
0

>  <SCORE.INTRA.SOLV>
0.810539

>  <SCORE.INTRA.SOLV.lig_0>
-46.5296

>  <SCORE.INTRA.VDW>
0.0994408

>  <SCORE.INTRA.VDW.0>
-0.381873

>  <SCORE.INTRA.norm>
0.0387405

>  <SCORE.RESTR>
2.27016

>  <SCORE.RESTR.CAVITY>
2.27016

>  <SCORE.RESTR.norm>
0.174627

>  <SCORE.SYSTEM>
0

>  <SCORE.SYSTEM.CONST>
0

>  <SCORE.SYSTEM.DIHEDRAL>
0

>  <SCORE.SYSTEM.SOLV>
0

>  <SCORE.SYSTEM.norm>
0

>  <SCORE.heavy>
13

>  <SCORE.norm>
0.141698

>  <RMSD>
32.813

$$$$
ligand
 OpenBabel02271912143D
libRbt.so/2013.1/901 2013/11/27
 13 14  0  0  0  0  0  0  0  0999 V2000
    7.8148   26.7757   25.8433 N   0  0  0  0  0  0  0  0  0  0  0  0
    8.1049   27.9983   26.4703 C   0  0  0  0  0  0  0  0  0  0  0  0
    8.2905   28.0363   27.9026 N   0  0  0  0  0  0  0  0  0  0  0  0
    8.2222   29.1493   25.7249 N   0  0  0  0  0  0  0  0  0  0  0  0
    8.0469   29.1492   24.3170 C   0  0  0  0  0  0  0  0  0  0  0  0
    7.7272   27.9181   23.6469 C   0  0  0  0  0  0  0  0  0  0  0  0
    7.6040   26.7307   24.4611 C   0  0  0  0  0  0  0  0  0  0  0  0
    7.3096   25.5639   23.8124 O   0  0  0  0  0  0  0  0  0  0  0  0
    7.6061   28.1863   22.2324 C   0  0  0  0  0  0  0  0  0  0  0  0
    7.8343   29.5579   22.1097 C   0  0  0  0  0  0  0  0  0  0  0  0
    8.1030   30.1170   23.3459 N   0  0  0  0  0  0  0  0  0  0  0  0
    7.2564   27.2026   21.1330 C   0  0  0  0  0  0  0  0  0  0  0  0
    7.9171   25.9080   21.2839 N   0  0  0  0  0  0  0  0  0  0  0  0
  1  2  1  0  0  0  0
  1  7  1  0  0  0  0
  2  3  1  0  0  0  0
  2  4  2  0  0  0  0
  4  5  1  0  0  0  0
  5  6  2  0  0  0  0
  5 11  1  0  0  0  0
  6  7  1  0  0  0  0
  6  9  1  0  0  0  0
  7  8  2  0  0  0  0
  9 10  2  0  0  0  0
  9 12  1  0  0  0  0
 10 11  1  0  0  0  0
 12 13  1  0  0  0  0
M  END
>  <CHROM.1>
-41.66476197,7.82837686,27.81495671,24.02939887,0.80029509,1.41944656,2.17292951

>  <Name>
ligand

>  <RI>
-1

>  <Rbt.Current_Directory>
/home/itssahil/PROJECTS/Mol_Feturizer/Test_systems_manuscript/rnas/4jf2

>  <Rbt.Executable>
rbdock ($Id: //depot/dev/client3/rdock/2013.1/src/exe/rbdock.cxx#4 $)

>  <Rbt.Library>
libRbt.so (2013.1, Build901 2013/11/27)

>  <Rbt.Parameter_File>
/export/apps/rDock/src/rDock_2013.1_src/data/scripts/dock_solv.prm

>  <Rbt.Receptor>
prm/blind_docking_40.prm

>  <SCORE>
-1.31132

>  <SCORE.INTER>
-4.81634

>  <SCORE.INTER.CONST>
1

>  <SCORE.INTER.POLAR>
0

>  <SCORE.INTER.ROT>
1

>  <SCORE.INTER.SOLV>
4.04329

>  <SCORE.INTER.VDW>
-8.82533

>  <SCORE.INTER.norm>
-0.370488

>  <SCORE.INTRA>
0.605215

>  <SCORE.INTRA.DIHEDRAL>
-0.171707

>  <SCORE.INTRA.DIHEDRAL.0>
1.75624

>  <SCORE.INTRA.POLAR>
0

>  <SCORE.INTRA.POLAR.0>
0

>  <SCORE.INTRA.REPUL>
0

>  <SCORE.INTRA.REPUL.0>
0

>  <SCORE.INTRA.SOLV>
0.91926

>  <SCORE.INTRA.SOLV.lig_0>
-46.5296

>  <SCORE.INTRA.VDW>
0.231438

>  <SCORE.INTRA.VDW.0>
-0.381873

>  <SCORE.INTRA.norm>
0.046555

>  <SCORE.RESTR>
2.89981

>  <SCORE.RESTR.CAVITY>
2.89981

>  <SCORE.RESTR.norm>
0.223062

>  <SCORE.SYSTEM>
0

>  <SCORE.SYSTEM.CONST>
0

>  <SCORE.SYSTEM.DIHEDRAL>
0

>  <SCORE.SYSTEM.SOLV>
0

>  <SCORE.SYSTEM.norm>
0

>  <SCORE.heavy>
13

>  <SCORE.norm>
-0.100871

>  <RMSD>
32.815

$$$$
ligand
 OpenBabel02271912143D
libRbt.so/2013.1/901 2013/11/27
 13 14  0  0  0  0  0  0  0  0999 V2000
    7.7478   28.0617   26.1372 N   0  0  0  0  0  0  0  0  0  0  0  0
    8.6502   29.1084   26.3870 C   0  0  0  0  0  0  0  0  0  0  0  0
    8.9971   29.4378   27.7503 N   0  0  0  0  0  0  0  0  0  0  0  0
    9.2081   29.8075   25.3409 N   0  0  0  0  0  0  0  0  0  0  0  0
    8.8909   29.5112   23.9902 C   0  0  0  0  0  0  0  0  0  0  0  0
    7.9536   28.4602   23.7008 C   0  0  0  0  0  0  0  0  0  0  0  0
    7.3815   27.7522   24.8231 C   0  0  0  0  0  0  0  0  0  0  0  0
    6.4991   26.7483   24.5361 O   0  0  0  0  0  0  0  0  0  0  0  0
    7.8095   28.3591   22.2668 C   0  0  0  0  0  0  0  0  0  0  0  0
    8.6407   29.3566   21.7546 C   0  0  0  0  0  0  0  0  0  0  0  0
    9.2827   30.0264   22.7803 N   0  0  0  0  0  0  0  0  0  0  0  0
    6.9124   27.4123   21.4938 C   0  0  0  0  0  0  0  0  0  0  0  0
    7.3721   26.0256   21.5247 N   0  0  0  0  0  0  0  0  0  0  0  0
  1  2  1  0  0  0  0
  1  7  1  0  0  0  0
  2  3  1  0  0  0  0
  2  4  2  0  0  0  0
  4  5  1  0  0  0  0
  5  6  2  0  0  0  0
  5 11  1  0  0  0  0
  6  7  1  0  0  0  0
  6  9  1  0  0  0  0
  7  8  2  0  0  0  0
  9 10  2  0  0  0  0
  9 12  1  0  0  0  0
 10 11  1  0  0  0  0
 12 13  1  0  0  0  0
M  END
>  <CHROM.1>
-71.85801491,8.07662016,28.42643371,24.05792664,1.15189370,0.94100214,1.55675535

>  <Name>
ligand

>  <RI>
-1

>  <Rbt.Current_Directory>
/home/itssahil/PROJECTS/Mol_Feturizer/Test_systems_manuscript/rnas/4jf2

>  <Rbt.Executable>
rbdock ($Id: //depot/dev/client3/rdock/2013.1/src/exe/rbdock.cxx#4 $)

>  <Rbt.Library>
libRbt.so (2013.1, Build901 2013/11/27)

>  <Rbt.Parameter_File>
/export/apps/rDock/src/rDock_2013.1_src/data/scripts/dock_solv.prm

>  <Rbt.Receptor>
prm/blind_docking_40.prm

>  <SCORE>
-2.0243

>  <SCORE.INTER>
-5.62636

>  <SCORE.INTER.CONST>
1

>  <SCORE.INTER.POLAR>
0

>  <SCORE.INTER.ROT>
1

>  <SCORE.INTER.SOLV>
5.39033

>  <SCORE.INTER.VDW>
-9.81435

>  <SCORE.INTER.norm>
-0.432797

>  <SCORE.INTRA>
0.0357828

>  <SCORE.INTRA.DIHEDRAL>
-0.0174951

>  <SCORE.INTRA.DIHEDRAL.0>
1.75624

>  <SCORE.INTRA.POLAR>
0

>  <SCORE.INTRA.POLAR.0>
0

>  <SCORE.INTRA.REPUL>
0

>  <SCORE.INTRA.REPUL.0>
0

>  <SCORE.INTRA.SOLV>
0.109245

>  <SCORE.INTRA.SOLV.lig_0>
-46.5296

>  <SCORE.INTRA.VDW>
-0.0100924

>  <SCORE.INTRA.VDW.0>
-0.381873

>  <SCORE.INTRA.norm>
0.00275252

>  <SCORE.RESTR>
3.56627

>  <SCORE.RESTR.CAVITY>
3.56627

>  <SCORE.RESTR.norm>
0.274329

>  <SCORE.SYSTEM>
0

>  <SCORE.SYSTEM.CONST>
0

>  <SCORE.SYSTEM.DIHEDRAL>
0

>  <SCORE.SYSTEM.SOLV>
0

>  <SCORE.SYSTEM.norm>
0

>  <SCORE.heavy>
13

>  <SCORE.norm>
-0.155716

>  <RMSD>
32.836

$$$$
ligand
 OpenBabel02271912143D
libRbt.so/2013.1/901 2013/11/27
 13 14  0  0  0  0  0  0  0  0999 V2000
    6.9658   27.6543   25.5311 N   0  0  0  0  0  0  0  0  0  0  0  0
    7.9922   28.1340   26.3609 C   0  0  0  0  0  0  0  0  0  0  0  0
    8.0268   27.7381   27.7500 N   0  0  0  0  0  0  0  0  0  0  0  0
    8.9636   28.9659   25.8523 N   0  0  0  0  0  0  0  0  0  0  0  0
    8.9613   29.3746   24.4937 C   0  0  0  0  0  0  0  0  0  0  0  0
    7.9120   28.9193   23.6227 C   0  0  0  0  0  0  0  0  0  0  0  0
    6.9046   28.0536   24.1918 C   0  0  0  0  0  0  0  0  0  0  0  0
    5.9173   27.6185   23.3523 O   0  0  0  0  0  0  0  0  0  0  0  0
    8.1406   29.4690   22.3063 C   0  0  0  0  0  0  0  0  0  0  0  0
    9.2946   30.2429   22.4396 C   0  0  0  0  0  0  0  0  0  0  0  0
    9.7777   30.1738   23.7337 N   0  0  0  0  0  0  0  0  0  0  0  0
    7.2847   29.2862   21.0683 C   0  0  0  0  0  0  0  0  0  0  0  0
    6.8938   27.8976   20.8356 N   0  0  0  0  0  0  0  0  0  0  0  0
  1  2  1  0  0  0  0
  1  7  1  0  0  0  0
  2  3  1  0  0  0  0
  2  4  2  0  0  0  0
  4  5  1  0  0  0  0
  5  6  2  0  0  0  0
  5 11  1  0  0  0  0
  6  7  1  0  0  0  0
  6  9  1  0  0  0  0
  7  8  2  0  0  0  0
  9 10  2  0  0  0  0
  9 12  1  0  0  0  0
 10 11  1  0  0  0  0
 12 13  1  0  0  0  0
M  END
>  <CHROM.1>
-46.69974367,7.88328114,28.69924063,23.96138326,1.44700137,0.64768365,1.81083198

>  <Name>
ligand

>  <RI>
-1

>  <Rbt.Current_Directory>
/home/itssahil/PROJECTS/Mol_Feturizer/Test_systems_manuscript/rnas/4jf2

>  <Rbt.Executable>
rbdock ($Id: //depot/dev/client3/rdock/2013.1/src/exe/rbdock.cxx#4 $)

>  <Rbt.Library>
libRbt.so (2013.1, Build901 2013/11/27)

>  <Rbt.Parameter_File>
/export/apps/rDock/src/rDock_2013.1_src/data/scripts/dock_solv.prm

>  <Rbt.Receptor>
prm/blind_docking_40.prm

>  <SCORE>
2.20069

>  <SCORE.INTER>
-0.762257

>  <SCORE.INTER.CONST>
1

>  <SCORE.INTER.POLAR>
0

>  <SCORE.INTER.ROT>
1

>  <SCORE.INTER.SOLV>
4.99993

>  <SCORE.INTER.VDW>
-6.44148

>  <SCORE.INTER.norm>
-0.0586352

>  <SCORE.INTRA>
0.434762

>  <SCORE.INTRA.DIHEDRAL>
-0.153351

>  <SCORE.INTRA.DIHEDRAL.0>
1.75624

>  <SCORE.INTRA.POLAR>
0

>  <SCORE.INTRA.POLAR.0>
0

>  <SCORE.INTRA.REPUL>
0

>  <SCORE.INTRA.REPUL.0>
0

>  <SCORE.INTRA.SOLV>
0.798563

>  <SCORE.INTRA.SOLV.lig_0>
-46.5296

>  <SCORE.INTRA.VDW>
0.112156

>  <SCORE.INTRA.VDW.0>
-0.381873

>  <SCORE.INTRA.norm>
0.0334432

>  <SCORE.RESTR>
2.52818

>  <SCORE.RESTR.CAVITY>
2.52818

>  <SCORE.RESTR.norm>
0.194475

>  <SCORE.SYSTEM>
0

>  <SCORE.SYSTEM.CONST>
0

>  <SCORE.SYSTEM.DIHEDRAL>
0

>  <SCORE.SYSTEM.SOLV>
0

>  <SCORE.SYSTEM.norm>
0

>  <SCORE.heavy>
13

>  <SCORE.norm>
0.169284

>  <RMSD>
32.842

$$$$
ligand
 OpenBabel02271912143D
libRbt.so/2013.1/901 2013/11/27
 13 14  0  0  0  0  0  0  0  0999 V2000
    7.0792   27.6264   25.4277 N   0  0  0  0  0  0  0  0  0  0  0  0
    7.9853   28.1661   26.3550 C   0  0  0  0  0  0  0  0  0  0  0  0
    7.8732   27.8073   27.7500 N   0  0  0  0  0  0  0  0  0  0  0  0
    8.9790   29.0215   25.9364 N   0  0  0  0  0  0  0  0  0  0  0  0
    9.1192   29.3951   24.5750 C   0  0  0  0  0  0  0  0  0  0  0  0
    8.1943   28.8778   23.6035 C   0  0  0  0  0  0  0  0  0  0  0  0
    7.1591   27.9887   24.0789 C   0  0  0  0  0  0  0  0  0  0  0  0
    6.2912   27.4949   23.1452 O   0  0  0  0  0  0  0  0  0  0  0  0
    8.5539   29.4022   22.3062 C   0  0  0  0  0  0  0  0  0  0  0  0
    9.6567   30.2230   22.5476 C   0  0  0  0  0  0  0  0  0  0  0  0
    9.9893   30.2055   23.8900 N   0  0  0  0  0  0  0  0  0  0  0  0
    7.8536   29.1552   20.9843 C   0  0  0  0  0  0  0  0  0  0  0  0
    6.3969   29.1332   21.0970 N   0  0  0  0  0  0  0  0  0  0  0  0
  1  2  1  0  0  0  0
  1  7  1  0  0  0  0
  2  3  1  0  0  0  0
  2  4  2  0  0  0  0
  4  5  1  0  0  0  0
  5  6  2  0  0  0  0
  5 11  1  0  0  0  0
  6  7  1  0  0  0  0
  6  9  1  0  0  0  0
  7  8  2  0  0  0  0
  9 10  2  0  0  0  0
  9 12  1  0  0  0  0
 10 11  1  0  0  0  0
 12 13  1  0  0  0  0
M  END
>  <CHROM.1>
39.31866855,8.04128626,28.77827892,23.97127075,1.50093457,0.59273061,1.83073877

>  <Name>
ligand

>  <RI>
-1

>  <Rbt.Current_Directory>
/home/itssahil/PROJECTS/Mol_Feturizer/Test_systems_manuscript/rnas/4jf2

>  <Rbt.Executable>
rbdock ($Id: //depot/dev/client3/rdock/2013.1/src/exe/rbdock.cxx#4 $)

>  <Rbt.Library>
libRbt.so (2013.1, Build901 2013/11/27)

>  <Rbt.Parameter_File>
/export/apps/rDock/src/rDock_2013.1_src/data/scripts/dock_solv.prm

>  <Rbt.Receptor>
prm/blind_docking_40.prm

>  <SCORE>
0.519736

>  <SCORE.INTER>
-2.64182

>  <SCORE.INTER.CONST>
1

>  <SCORE.INTER.POLAR>
0

>  <SCORE.INTER.ROT>
1

>  <SCORE.INTER.SOLV>
6.74878

>  <SCORE.INTER.VDW>
-8.27748

>  <SCORE.INTER.norm>
-0.203217

>  <SCORE.INTRA>
0.708214

>  <SCORE.INTRA.DIHEDRAL>
0.0186353

>  <SCORE.INTRA.DIHEDRAL.0>
1.75624

>  <SCORE.INTRA.POLAR>
0

>  <SCORE.INTRA.POLAR.0>
0

>  <SCORE.INTRA.REPUL>
0

>  <SCORE.INTRA.REPUL.0>
0

>  <SCORE.INTRA.SOLV>
0.941498

>  <SCORE.INTRA.SOLV.lig_0>
-46.5296

>  <SCORE.INTRA.VDW>
0.228147

>  <SCORE.INTRA.VDW.0>
-0.381873

>  <SCORE.INTRA.norm>
0.054478

>  <SCORE.RESTR>
2.45334

>  <SCORE.RESTR.CAVITY>
2.45334

>  <SCORE.RESTR.norm>
0.188719

>  <SCORE.SYSTEM>
0

>  <SCORE.SYSTEM.CONST>
0

>  <SCORE.SYSTEM.DIHEDRAL>
0

>  <SCORE.SYSTEM.SOLV>
0

>  <SCORE.SYSTEM.norm>
0

>  <SCORE.heavy>
13

>  <SCORE.norm>
0.0399797

>  <RMSD>
32.896

$$$$
ligand
 OpenBabel02271912143D
libRbt.so/2013.1/901 2013/11/27
 13 14  0  0  0  0  0  0  0  0999 V2000
    7.6786   29.4458   21.3161 N   0  0  0  0  0  0  0  0  0  0  0  0
    6.6953   28.4782   21.0536 C   0  0  0  0  0  0  0  0  0  0  0  0
    6.1641   28.3490   19.7163 N   0  0  0  0  0  0  0  0  0  0  0  0
    6.2491   27.6521   22.0600 N   0  0  0  0  0  0  0  0  0  0  0  0
    6.7485   27.7504   23.3843 C   0  0  0  0  0  0  0  0  0  0  0  0
    7.7398   28.7453   23.6915 C   0  0  0  0  0  0  0  0  0  0  0  0
    8.1798   29.6004   22.6130 C   0  0  0  0  0  0  0  0  0  0  0  0
    9.1298   30.5362   22.9139 O   0  0  0  0  0  0  0  0  0  0  0  0
    8.0793   28.6345   25.0915 C   0  0  0  0  0  0  0  0  0  0  0  0
    7.2723   27.6023   25.5726 C   0  0  0  0  0  0  0  0  0  0  0  0
    6.4957   27.0796   24.5544 N   0  0  0  0  0  0  0  0  0  0  0  0
    9.0581   29.4878   25.8741 C   0  0  0  0  0  0  0  0  0  0  0  0
    8.8788   29.3936   27.3213 N   0  0  0  0  0  0  0  0  0  0  0  0
  1  2  1  0  0  0  0
  1  7  1  0  0  0  0
  2  3  1  0  0  0  0
  2  4  2  0  0  0  0
  4  5  1  0  0  0  0
  5  6  2  0  0  0  0
  5 11  1  0  0  0  0
  6  7  1  0  0  0  0
  6  9  1  0  0  0  0
  7  8  2  0  0  0  0
  9 10  2  0  0  0  0
  9 12  1  0  0  0  0
 10 11  1  0  0  0  0
 12 13  1  0  0  0  0
M  END
>  <CHROM.1>
162.49187208,7.59309913,28.70938675,23.46132101,-2.06918550,0.82509408,1.86173852

>  <Name>
ligand

>  <RI>
-1

>  <Rbt.Current_Directory>
/home/itssahil/PROJECTS/Mol_Feturizer/Test_systems_manuscript/rnas/4jf2

>  <Rbt.Executable>
rbdock ($Id: //depot/dev/client3/rdock/2013.1/src/exe/rbdock.cxx#4 $)

>  <Rbt.Library>
libRbt.so (2013.1, Build901 2013/11/27)

>  <Rbt.Parameter_File>
/export/apps/rDock/src/rDock_2013.1_src/data/scripts/dock_solv.prm

>  <Rbt.Receptor>
prm/blind_docking_40.prm

>  <SCORE>
0.688452

>  <SCORE.INTER>
-2.10337

>  <SCORE.INTER.CONST>
1

>  <SCORE.INTER.POLAR>
0

>  <SCORE.INTER.ROT>
1

>  <SCORE.INTER.SOLV>
14.4738

>  <SCORE.INTER.VDW>
-10.4935

>  <SCORE.INTER.norm>
-0.161797

>  <SCORE.INTRA>
-0.314136

>  <SCORE.INTRA.DIHEDRAL>
0.00761324

>  <SCORE.INTRA.DIHEDRAL.0>
1.75624

>  <SCORE.INTRA.POLAR>
0

>  <SCORE.INTRA.POLAR.0>
0

>  <SCORE.INTRA.REPUL>
0

>  <SCORE.INTRA.REPUL.0>
0

>  <SCORE.INTRA.SOLV>
-1.01656

>  <SCORE.INTRA.SOLV.lig_0>
-46.5296

>  <SCORE.INTRA.VDW>
0.190337

>  <SCORE.INTRA.VDW.0>
-0.381873

>  <SCORE.INTRA.norm>
-0.0241643

>  <SCORE.RESTR>
3.10596

>  <SCORE.RESTR.CAVITY>
3.10596

>  <SCORE.RESTR.norm>
0.23892

>  <SCORE.SYSTEM>
0

>  <SCORE.SYSTEM.CONST>
0

>  <SCORE.SYSTEM.DIHEDRAL>
0

>  <SCORE.SYSTEM.SOLV>
0

>  <SCORE.SYSTEM.norm>
0

>  <SCORE.heavy>
13

>  <SCORE.norm>
0.0529579

>  <RMSD>
33.248

$$$$
ligand
 OpenBabel02271912143D
libRbt.so/2013.1/901 2013/11/27
 13 14  0  0  0  0  0  0  0  0999 V2000
    7.6931   29.1008   21.6150 N   0  0  0  0  0  0  0  0  0  0  0  0
    6.7061   28.1107   21.7487 C   0  0  0  0  0  0  0  0  0  0  0  0
    5.9510   27.6983   20.5880 N   0  0  0  0  0  0  0  0  0  0  0  0
    6.4677   27.5300   22.9735 N   0  0  0  0  0  0  0  0  0  0  0  0
    7.1901   27.9097   24.1341 C   0  0  0  0  0  0  0  0  0  0  0  0
    8.1920   28.9361   24.0360 C   0  0  0  0  0  0  0  0  0  0  0  0
    8.4107   29.5294   22.7367 C   0  0  0  0  0  0  0  0  0  0  0  0
    9.3726   30.4972   22.6528 O   0  0  0  0  0  0  0  0  0  0  0  0
    8.7761   29.1303   25.3431 C   0  0  0  0  0  0  0  0  0  0  0  0
    8.0957   28.2378   26.1729 C   0  0  0  0  0  0  0  0  0  0  0  0
    7.1664   27.5142   25.4478 N   0  0  0  0  0  0  0  0  0  0  0  0
    9.8536   30.1226   25.7343 C   0  0  0  0  0  0  0  0  0  0  0  0
   10.7503   30.4666   24.6330 N   0  0  0  0  0  0  0  0  0  0  0  0
  1  2  1  0  0  0  0
  1  7  1  0  0  0  0
  2  3  1  0  0  0  0
  2  4  2  0  0  0  0
  4  5  1  0  0  0  0
  5  6  2  0  0  0  0
  5 11  1  0  0  0  0
  6  7  1  0  0  0  0
  6  9  1  0  0  0  0
  7  8  2  0  0  0  0
  9 10  2  0  0  0  0
  9 12  1  0  0  0  0
 10 11  1  0  0  0  0
 12 13  1  0  0  0  0
M  END
>  <CHROM.1>
-28.05842856,8.07429468,28.86199678,23.64212068,-2.50348254,0.71302226,1.83323332

>  <Name>
ligand

>  <RI>
-1

>  <Rbt.Current_Directory>
/home/itssahil/PROJECTS/Mol_Feturizer/Test_systems_manuscript/rnas/4jf2

>  <Rbt.Executable>
rbdock ($Id: //depot/dev/client3/rdock/2013.1/src/exe/rbdock.cxx#4 $)

>  <Rbt.Library>
libRbt.so (2013.1, Build901 2013/11/27)

>  <Rbt.Parameter_File>
/export/apps/rDock/src/rDock_2013.1_src/data/scripts/dock_solv.prm

>  <Rbt.Receptor>
prm/blind_docking_40.prm

>  <SCORE>
1.18682

>  <SCORE.INTER>
-2.97582

>  <SCORE.INTER.CONST>
1

>  <SCORE.INTER.POLAR>
0

>  <SCORE.INTER.ROT>
1

>  <SCORE.INTER.SOLV>
13.8692

>  <SCORE.INTER.VDW>
-10.8736

>  <SCORE.INTER.norm>
-0.22891

>  <SCORE.INTRA>
1.60155

>  <SCORE.INTRA.DIHEDRAL>
-0.186259

>  <SCORE.INTRA.DIHEDRAL.0>
1.75624

>  <SCORE.INTRA.POLAR>
0

>  <SCORE.INTRA.POLAR.0>
0

>  <SCORE.INTRA.REPUL>
0

>  <SCORE.INTRA.REPUL.0>
0

>  <SCORE.INTRA.SOLV>
1.19532

>  <SCORE.INTRA.SOLV.lig_0>
-46.5296

>  <SCORE.INTRA.VDW>
1.09702

>  <SCORE.INTRA.VDW.0>
-0.381873

>  <SCORE.INTRA.norm>
0.123196

>  <SCORE.RESTR>
2.56109

>  <SCORE.RESTR.CAVITY>
2.56109

>  <SCORE.RESTR.norm>
0.197007

>  <SCORE.SYSTEM>
0

>  <SCORE.SYSTEM.CONST>
0

>  <SCORE.SYSTEM.DIHEDRAL>
0

>  <SCORE.SYSTEM.SOLV>
0

>  <SCORE.SYSTEM.norm>
0

>  <SCORE.heavy>
13

>  <SCORE.norm>
0.0912941

>  <RMSD>
33.264

$$$$
ligand
 OpenBabel02271912143D
libRbt.so/2013.1/901 2013/11/27
 13 14  0  0  0  0  0  0  0  0999 V2000
   15.0309   30.3355   25.8968 N   0  0  0  0  0  0  0  0  0  0  0  0
   16.4191   30.5470   25.8771 C   0  0  0  0  0  0  0  0  0  0  0  0
   17.2652   29.6447   25.1305 N   0  0  0  0  0  0  0  0  0  0  0  0
   16.9681   31.6118   26.5547 N   0  0  0  0  0  0  0  0  0  0  0  0
   16.1680   32.5179   27.2974 C   0  0  0  0  0  0  0  0  0  0  0  0
   14.7457   32.3169   27.3563 C   0  0  0  0  0  0  0  0  0  0  0  0
   14.2041   31.1849   26.6397 C   0  0  0  0  0  0  0  0  0  0  0  0
   12.8496   31.0090   26.6943 O   0  0  0  0  0  0  0  0  0  0  0  0
   14.1691   33.3671   28.1638 C   0  0  0  0  0  0  0  0  0  0  0  0
   15.2576   34.1392   28.5730 C   0  0  0  0  0  0  0  0  0  0  0  0
   16.4339   33.6350   28.0485 N   0  0  0  0  0  0  0  0  0  0  0  0
   12.7095   33.5556   28.5279 C   0  0  0  0  0  0  0  0  0  0  0  0
   12.4474   33.4141   29.9585 N   0  0  0  0  0  0  0  0  0  0  0  0
  1  2  1  0  0  0  0
  1  7  1  0  0  0  0
  2  3  1  0  0  0  0
  2  4  2  0  0  0  0
  4  5  1  0  0  0  0
  5  6  2  0  0  0  0
  5 11  1  0  0  0  0
  6  7  1  0  0  0  0
  6  9  1  0  0  0  0
  7  8  2  0  0  0  0
  9 10  2  0  0  0  0
  9 12  1  0  0  0  0
 10 11  1  0  0  0  0
 12 13  1  0  0  0  0
M  END
>  <CHROM.1>
114.96433713,14.93666289,32.06870511,27.27711217,0.93053059,-0.18764971,-2.47998824

>  <Name>
ligand

>  <RI>
0

>  <Rbt.Current_Directory>
/home/itssahil/PROJECTS/Mol_Feturizer/Test_systems_manuscript/rnas/4jf2

>  <Rbt.Executable>
rbdock ($Id: //depot/dev/client3/rdock/2013.1/src/exe/rbdock.cxx#4 $)

>  <Rbt.Library>
libRbt.so (2013.1, Build901 2013/11/27)

>  <Rbt.Parameter_File>
/export/apps/rDock/src/rDock_2013.1_src/data/scripts/dock_solv.prm

>  <Rbt.Receptor>
prm/blind_docking_100.prm

>  <SCORE>
-7.20249

>  <SCORE.INTER>
-6.83795

>  <SCORE.INTER.CONST>
1

>  <SCORE.INTER.POLAR>
0

>  <SCORE.INTER.ROT>
1

>  <SCORE.INTER.SOLV>
7.08134

>  <SCORE.INTER.VDW>
-11.1857

>  <SCORE.INTER.norm>
-0.525996

>  <SCORE.INTRA>
-0.364548

>  <SCORE.INTRA.DIHEDRAL>
-0.0981044

>  <SCORE.INTRA.DIHEDRAL.0>
1.75624

>  <SCORE.INTRA.POLAR>
0

>  <SCORE.INTRA.POLAR.0>
0

>  <SCORE.INTRA.REPUL>
0

>  <SCORE.INTRA.REPUL.0>
0

>  <SCORE.INTRA.SOLV>
-0.823156

>  <SCORE.INTRA.SOLV.lig_0>
-46.5296

>  <SCORE.INTRA.VDW>
0.0960817

>  <SCORE.INTRA.VDW.0>
-0.381873

>  <SCORE.INTRA.norm>
-0.0280422

>  <SCORE.RESTR>
0

>  <SCORE.RESTR.CAVITY>
0

>  <SCORE.RESTR.norm>
0

>  <SCORE.SYSTEM>
0

>  <SCORE.SYSTEM.CONST>
0

>  <SCORE.SYSTEM.DIHEDRAL>
0

>  <SCORE.SYSTEM.SOLV>
0

>  <SCORE.SYSTEM.norm>
0

>  <SCORE.heavy>
13

>  <SCORE.norm>
-0.554038

>  <RMSD>
33.530

$$$$
ligand
 OpenBabel02271912143D
libRbt.so/2013.1/901 2013/11/27
 13 14  0  0  0  0  0  0  0  0999 V2000
    8.7899   27.7083   24.7063 N   0  0  0  0  0  0  0  0  0  0  0  0
    7.5800   27.1804   25.1857 C   0  0  0  0  0  0  0  0  0  0  0  0
    7.5688   26.4434   26.4284 N   0  0  0  0  0  0  0  0  0  0  0  0
    6.4125   27.3730   24.4829 N   0  0  0  0  0  0  0  0  0  0  0  0
    6.3861   28.0917   23.2599 C   0  0  0  0  0  0  0  0  0  0  0  0
    7.6111   28.6261   22.7302 C   0  0  0  0  0  0  0  0  0  0  0  0
    8.8190   28.3985   23.4900 C   0  0  0  0  0  0  0  0  0  0  0  0
    9.9763   28.9196   22.9822 O   0  0  0  0  0  0  0  0  0  0  0  0
    7.3137   29.3088   21.4921 C   0  0  0  0  0  0  0  0  0  0  0  0
    5.9391   29.1425   21.3155 C   0  0  0  0  0  0  0  0  0  0  0  0
    5.3978   28.4296   22.3699 N   0  0  0  0  0  0  0  0  0  0  0  0
    8.2900   30.0059   20.5648 C   0  0  0  0  0  0  0  0  0  0  0  0
    9.4837   30.4999   21.2476 N   0  0  0  0  0  0  0  0  0  0  0  0
  1  2  1  0  0  0  0
  1  7  1  0  0  0  0
  2  3  1  0  0  0  0
  2  4  2  0  0  0  0
  4  5  1  0  0  0  0
  5  6  2  0  0  0  0
  5 11  1  0  0  0  0
  6  7  1  0  0  0  0
  6  9  1  0  0  0  0
  7  8  2  0  0  0  0
  9 10  2  0  0  0  0
  9 12  1  0  0  0  0
 10 11  1  0  0  0  0
 12 13  1  0  0  0  0
M  END
>  <CHROM.1>
-26.90807273,7.71272166,28.47765817,23.10778547,-1.71476063,-0.19907034,-1.01359246

>  <Name>
ligand

>  <RI>
-1

>  <Rbt.Current_Directory>
/home/itssahil/PROJECTS/Mol_Feturizer/Test_systems_manuscript/rnas/4jf2

>  <Rbt.Executable>
rbdock ($Id: //depot/dev/client3/rdock/2013.1/src/exe/rbdock.cxx#4 $)

>  <Rbt.Library>
libRbt.so (2013.1, Build901 2013/11/27)

>  <Rbt.Parameter_File>
/export/apps/rDock/src/rDock_2013.1_src/data/scripts/dock_solv.prm

>  <Rbt.Receptor>
prm/blind_docking_40.prm

>  <SCORE>
3.77545

>  <SCORE.INTER>
1.00247

>  <SCORE.INTER.CONST>
1

>  <SCORE.INTER.POLAR>
0

>  <SCORE.INTER.ROT>
1

>  <SCORE.INTER.SOLV>
20.2406

>  <SCORE.INTER.VDW>
-10.3452

>  <SCORE.INTER.norm>
0.0771131

>  <SCORE.INTRA>
1.72673

>  <SCORE.INTRA.DIHEDRAL>
-0.184936

>  <SCORE.INTRA.DIHEDRAL.0>
1.75624

>  <SCORE.INTRA.POLAR>
0

>  <SCORE.INTRA.POLAR.0>
0

>  <SCORE.INTRA.REPUL>
0

>  <SCORE.INTRA.REPUL.0>
0

>  <SCORE.INTRA.SOLV>
1.21466

>  <SCORE.INTRA.SOLV.lig_0>
-46.5296

>  <SCORE.INTRA.VDW>
1.21187

>  <SCORE.INTRA.VDW.0>
-0.381873

>  <SCORE.INTRA.norm>
0.132825

>  <SCORE.RESTR>
1.04625

>  <SCORE.RESTR.CAVITY>
1.04625

>  <SCORE.RESTR.norm>
0.0804809

>  <SCORE.SYSTEM>
0

>  <SCORE.SYSTEM.CONST>
0

>  <SCORE.SYSTEM.DIHEDRAL>
0

>  <SCORE.SYSTEM.SOLV>
0

>  <SCORE.SYSTEM.norm>
0

>  <SCORE.heavy>
13

>  <SCORE.norm>
0.290419

>  <RMSD>
33.567

$$$$
ligand
 OpenBabel02271912143D
libRbt.so/2013.1/901 2013/11/27
 13 14  0  0  0  0  0  0  0  0999 V2000
    8.7855   27.7142   24.6887 N   0  0  0  0  0  0  0  0  0  0  0  0
    7.5723   27.1930   25.1670 C   0  0  0  0  0  0  0  0  0  0  0  0
    7.5563   26.4544   26.4086 N   0  0  0  0  0  0  0  0  0  0  0  0
    6.4061   27.3938   24.4642 N   0  0  0  0  0  0  0  0  0  0  0  0
    6.3844   28.1143   23.2423 C   0  0  0  0  0  0  0  0  0  0  0  0
    7.6128   28.6420   22.7136 C   0  0  0  0  0  0  0  0  0  0  0  0
    8.8191   28.4061   23.4733 C   0  0  0  0  0  0  0  0  0  0  0  0
    9.9797   28.9208   22.9665 O   0  0  0  0  0  0  0  0  0  0  0  0
    7.3198   29.3283   21.4764 C   0  0  0  0  0  0  0  0  0  0  0  0
    5.9443   29.1706   21.2993 C   0  0  0  0  0  0  0  0  0  0  0  0
    5.3984   28.4596   22.3526 N   0  0  0  0  0  0  0  0  0  0  0  0
    8.3005   30.0208   20.5504 C   0  0  0  0  0  0  0  0  0  0  0  0
    9.4994   30.5019   21.2332 N   0  0  0  0  0  0  0  0  0  0  0  0
  1  2  1  0  0  0  0
  1  7  1  0  0  0  0
  2  3  1  0  0  0  0
  2  4  2  0  0  0  0
  4  5  1  0  0  0  0
  5  6  2  0  0  0  0
  5 11  1  0  0  0  0
  6  7  1  0  0  0  0
  6  9  1  0  0  0  0
  7  8  2  0  0  0  0
  9 10  2  0  0  0  0
  9 12  1  0  0  0  0
 10 11  1  0  0  0  0
 12 13  1  0  0  0  0
M  END
>  <CHROM.1>
-26.68195643,7.71358351,28.49207539,23.09092398,-1.71839343,-0.19370821,-1.01307884

>  <Name>
ligand

>  <RI>
-1

>  <Rbt.Current_Directory>
/home/itssahil/PROJECTS/Mol_Feturizer/Test_systems_manuscript/rnas/4jf2

>  <Rbt.Executable>
rbdock ($Id: //depot/dev/client3/rdock/2013.1/src/exe/rbdock.cxx#4 $)

>  <Rbt.Library>
libRbt.so (2013.1, Build901 2013/11/27)

>  <Rbt.Parameter_File>
/export/apps/rDock/src/rDock_2013.1_src/data/scripts/dock_solv.prm

>  <Rbt.Receptor>
prm/blind_docking_40.prm

>  <SCORE>
3.79131

>  <SCORE.INTER>
0.997149

>  <SCORE.INTER.CONST>
1

>  <SCORE.INTER.POLAR>
0

>  <SCORE.INTER.ROT>
1

>  <SCORE.INTER.SOLV>
20.1469

>  <SCORE.INTER.VDW>
-10.3175

>  <SCORE.INTER.norm>
0.0767038

>  <SCORE.INTRA>
1.75208

>  <SCORE.INTRA.DIHEDRAL>
-0.184629

>  <SCORE.INTRA.DIHEDRAL.0>
1.75624

>  <SCORE.INTRA.POLAR>
0

>  <SCORE.INTRA.POLAR.0>
0

>  <SCORE.INTRA.REPUL>
0

>  <SCORE.INTRA.REPUL.0>
0

>  <SCORE.INTRA.SOLV>
1.21838

>  <SCORE.INTRA.SOLV.lig_0>
-46.5296

>  <SCORE.INTRA.VDW>
1.2352

>  <SCORE.INTRA.VDW.0>
-0.381873

>  <SCORE.INTRA.norm>
0.134775

>  <SCORE.RESTR>
1.04209

>  <SCORE.RESTR.CAVITY>
1.04209

>  <SCORE.RESTR.norm>
0.0801605

>  <SCORE.SYSTEM>
0

>  <SCORE.SYSTEM.CONST>
0

>  <SCORE.SYSTEM.DIHEDRAL>
0

>  <SCORE.SYSTEM.SOLV>
0

>  <SCORE.SYSTEM.norm>
0

>  <SCORE.heavy>
13

>  <SCORE.norm>
0.291639

>  <RMSD>
33.583

$$$$
ligand
 OpenBabel02271912143D
libRbt.so/2013.1/901 2013/11/27
 13 14  0  0  0  0  0  0  0  0999 V2000
    6.0475   27.9558   21.9158 N   0  0  0  0  0  0  0  0  0  0  0  0
    6.6817   28.6286   20.8588 C   0  0  0  0  0  0  0  0  0  0  0  0
    6.1505   28.5105   19.5204 N   0  0  0  0  0  0  0  0  0  0  0  0
    7.7940   29.4032   21.0978 N   0  0  0  0  0  0  0  0  0  0  0  0
    8.3424   29.5423   22.3988 C   0  0  0  0  0  0  0  0  0  0  0  0
    7.7303   28.8488   23.4994 C   0  0  0  0  0  0  0  0  0  0  0  0
    6.5691   28.0385   23.2111 C   0  0  0  0  0  0  0  0  0  0  0  0
    5.9891   27.3916   24.2665 O   0  0  0  0  0  0  0  0  0  0  0  0
    8.4700   29.1572   24.7015 C   0  0  0  0  0  0  0  0  0  0  0  0
    9.5005   29.9985   24.2791 C   0  0  0  0  0  0  0  0  0  0  0  0
    9.4117   30.2278   22.9180 N   0  0  0  0  0  0  0  0  0  0  0  0
    8.2124   28.6379   26.1025 C   0  0  0  0  0  0  0  0  0  0  0  0
    7.9086   27.2091   26.1428 N   0  0  0  0  0  0  0  0  0  0  0  0
  1  2  1  0  0  0  0
  1  7  1  0  0  0  0
  2  3  1  0  0  0  0
  2  4  2  0  0  0  0
  4  5  1  0  0  0  0
  5  6  2  0  0  0  0
  5 11  1  0  0  0  0
  6  7  1  0  0  0  0
  6  9  1  0  0  0  0
  7  8  2  0  0  0  0
  9 10  2  0  0  0  0
  9 12  1  0  0  0  0
 10 11  1  0  0  0  0
 12 13  1  0  0  0  0
M  END
>  <CHROM.1>
42.97474003,7.56239539,28.69809816,23.15964302,1.97738153,-0.66055535,-1.26818595

>  <Name>
ligand

>  <RI>
-1

>  <Rbt.Current_Directory>
/home/itssahil/PROJECTS/Mol_Feturizer/Test_systems_manuscript/rnas/4jf2

>  <Rbt.Executable>
rbdock ($Id: //depot/dev/client3/rdock/2013.1/src/exe/rbdock.cxx#4 $)

>  <Rbt.Library>
libRbt.so (2013.1, Build901 2013/11/27)

>  <Rbt.Parameter_File>
/export/apps/rDock/src/rDock_2013.1_src/data/scripts/dock_solv.prm

>  <Rbt.Receptor>
prm/blind_docking_40.prm

>  <SCORE>
0.443642

>  <SCORE.INTER>
-2.0131

>  <SCORE.INTER.CONST>
1

>  <SCORE.INTER.POLAR>
0

>  <SCORE.INTER.ROT>
1

>  <SCORE.INTER.SOLV>
14.1953

>  <SCORE.INTER.VDW>
-10.3405

>  <SCORE.INTER.norm>
-0.154854

>  <SCORE.INTRA>
0.570373

>  <SCORE.INTRA.DIHEDRAL>
0.00572513

>  <SCORE.INTRA.DIHEDRAL.0>
1.75624

>  <SCORE.INTRA.POLAR>
0

>  <SCORE.INTRA.POLAR.0>
0

>  <SCORE.INTRA.REPUL>
0

>  <SCORE.INTRA.REPUL.0>
0

>  <SCORE.INTRA.SOLV>
0.856352

>  <SCORE.INTRA.SOLV.lig_0>
-46.5296

>  <SCORE.INTRA.VDW>
0.139335

>  <SCORE.INTRA.VDW.0>
-0.381873

>  <SCORE.INTRA.norm>
0.0438749

>  <SCORE.RESTR>
1.88637

>  <SCORE.RESTR.CAVITY>
1.88637

>  <SCORE.RESTR.norm>
0.145105

>  <SCORE.SYSTEM>
0

>  <SCORE.SYSTEM.CONST>
0

>  <SCORE.SYSTEM.DIHEDRAL>
0

>  <SCORE.SYSTEM.SOLV>
0

>  <SCORE.SYSTEM.norm>
0

>  <SCORE.heavy>
13

>  <SCORE.norm>
0.0341263

>  <RMSD>
33.585

$$$$
ligand
 OpenBabel02271912143D
libRbt.so/2013.1/901 2013/11/27
 13 14  0  0  0  0  0  0  0  0999 V2000
    8.8072   27.7277   24.6888 N   0  0  0  0  0  0  0  0  0  0  0  0
    7.5986   27.2009   25.1724 C   0  0  0  0  0  0  0  0  0  0  0  0
    7.5906   26.4655   26.4160 N   0  0  0  0  0  0  0  0  0  0  0  0
    6.4291   27.3929   24.4725 N   0  0  0  0  0  0  0  0  0  0  0  0
    6.3995   28.1099   23.2487 C   0  0  0  0  0  0  0  0  0  0  0  0
    7.6232   28.6433   22.7148 C   0  0  0  0  0  0  0  0  0  0  0  0
    8.8332   28.4164   23.4715 C   0  0  0  0  0  0  0  0  0  0  0  0
    9.9892   28.9364   22.9598 O   0  0  0  0  0  0  0  0  0  0  0  0
    7.3225   29.3245   21.4766 C   0  0  0  0  0  0  0  0  0  0  0  0
    5.9474   29.1583   21.3042 C   0  0  0  0  0  0  0  0  0  0  0  0
    5.4089   28.4470   22.3611 N   0  0  0  0  0  0  0  0  0  0  0  0
    8.2964   30.0200   20.5458 C   0  0  0  0  0  0  0  0  0  0  0  0
    9.4997   30.5000   21.2216 N   0  0  0  0  0  0  0  0  0  0  0  0
  1  2  1  0  0  0  0
  1  7  1  0  0  0  0
  2  3  1  0  0  0  0
  2  4  2  0  0  0  0
  4  5  1  0  0  0  0
  5  6  2  0  0  0  0
  5 11  1  0  0  0  0
  6  7  1  0  0  0  0
  6  9  1  0  0  0  0
  7  8  2  0  0  0  0
  9 10  2  0  0  0  0
  9 12  1  0  0  0  0
 10 11  1  0  0  0  0
 12 13  1  0  0  0  0
M  END
>  <CHROM.1>
-26.19497275,7.72643338,28.49414777,23.09209520,-1.71298431,-0.19632816,-1.01525680

>  <Name>
ligand

>  <RI>
-1

>  <Rbt.Current_Directory>
/home/itssahil/PROJECTS/Mol_Feturizer/Test_systems_manuscript/rnas/4jf2

>  <Rbt.Executable>
rbdock ($Id: //depot/dev/client3/rdock/2013.1/src/exe/rbdock.cxx#4 $)

>  <Rbt.Library>
libRbt.so (2013.1, Build901 2013/11/27)

>  <Rbt.Parameter_File>
/export/apps/rDock/src/rDock_2013.1_src/data/scripts/dock_solv.prm

>  <Rbt.Receptor>
prm/blind_docking_40.prm

>  <SCORE>
3.71305

>  <SCORE.INTER>
0.843259

>  <SCORE.INTER.CONST>
1

>  <SCORE.INTER.POLAR>
0

>  <SCORE.INTER.ROT>
1

>  <SCORE.INTER.SOLV>
20.0566

>  <SCORE.INTER.VDW>
-10.39

>  <SCORE.INTER.norm>
0.0648661

>  <SCORE.INTRA>
1.80748

>  <SCORE.INTRA.DIHEDRAL>
-0.183917

>  <SCORE.INTRA.DIHEDRAL.0>
1.75624

>  <SCORE.INTRA.POLAR>
0

>  <SCORE.INTRA.POLAR.0>
0

>  <SCORE.INTRA.REPUL>
0

>  <SCORE.INTRA.REPUL.0>
0

>  <SCORE.INTRA.SOLV>
1.2263

>  <SCORE.INTRA.SOLV.lig_0>
-46.5296

>  <SCORE.INTRA.VDW>
1.28629

>  <SCORE.INTRA.VDW.0>
-0.381873

>  <SCORE.INTRA.norm>
0.139037

>  <SCORE.RESTR>
1.06231

>  <SCORE.RESTR.CAVITY>
1.06231

>  <SCORE.RESTR.norm>
0.0817165

>  <SCORE.SYSTEM>
0

>  <SCORE.SYSTEM.CONST>
0

>  <SCORE.SYSTEM.DIHEDRAL>
0

>  <SCORE.SYSTEM.SOLV>
0

>  <SCORE.SYSTEM.norm>
0

>  <SCORE.heavy>
13

>  <SCORE.norm>
0.28562

>  <RMSD>
33.586

$$$$
ligand
 OpenBabel02271912143D
libRbt.so/2013.1/901 2013/11/27
 13 14  0  0  0  0  0  0  0  0999 V2000
    8.8401   27.7216   24.6757 N   0  0  0  0  0  0  0  0  0  0  0  0
    7.6355   27.2037   25.1786 C   0  0  0  0  0  0  0  0  0  0  0  0
    7.6412   26.4731   26.4251 N   0  0  0  0  0  0  0  0  0  0  0  0
    6.4572   27.3999   24.4950 N   0  0  0  0  0  0  0  0  0  0  0  0
    6.4142   28.1125   23.2689 C   0  0  0  0  0  0  0  0  0  0  0  0
    7.6331   28.6367   22.7154 C   0  0  0  0  0  0  0  0  0  0  0  0
    8.8525   28.4055   23.4555 C   0  0  0  0  0  0  0  0  0  0  0  0
   10.0041   28.9169   22.9252 O   0  0  0  0  0  0  0  0  0  0  0  0
    7.3186   29.3149   21.4791 C   0  0  0  0  0  0  0  0  0  0  0  0
    5.9402   29.1561   21.3271 C   0  0  0  0  0  0  0  0  0  0  0  0
    5.4128   28.4520   22.3943 N   0  0  0  0  0  0  0  0  0  0  0  0
    8.2830   30.0012   20.5316 C   0  0  0  0  0  0  0  0  0  0  0  0
    9.4885   30.4965   21.1923 N   0  0  0  0  0  0  0  0  0  0  0  0
  1  2  1  0  0  0  0
  1  7  1  0  0  0  0
  2  3  1  0  0  0  0
  2  4  2  0  0  0  0
  4  5  1  0  0  0  0
  5  6  2  0  0  0  0
  5 11  1  0  0  0  0
  6  7  1  0  0  0  0
  6  9  1  0  0  0  0
  7  8  2  0  0  0  0
  9 10  2  0  0  0  0
  9 12  1  0  0  0  0
 10 11  1  0  0  0  0
 12 13  1  0  0  0  0
M  END
>  <CHROM.1>
-27.16140159,7.74007256,28.48993623,23.09208134,-1.70298366,-0.18514802,-1.01622468

>  <Name>
ligand

>  <RI>
-1

>  <Rbt.Current_Directory>
/home/itssahil/PROJECTS/Mol_Feturizer/Test_systems_manuscript/rnas/4jf2

>  <Rbt.Executable>
rbdock ($Id: //depot/dev/client3/rdock/2013.1/src/exe/rbdock.cxx#4 $)

>  <Rbt.Library>
libRbt.so (2013.1, Build901 2013/11/27)

>  <Rbt.Parameter_File>
/export/apps/rDock/src/rDock_2013.1_src/data/scripts/dock_solv.prm

>  <Rbt.Receptor>
prm/blind_docking_40.prm

>  <SCORE>
3.51395

>  <SCORE.INTER>
0.701909

>  <SCORE.INTER.CONST>
1

>  <SCORE.INTER.POLAR>
0

>  <SCORE.INTER.ROT>
1

>  <SCORE.INTER.SOLV>
19.9226

>  <SCORE.INTER.VDW>
-10.4396

>  <SCORE.INTER.norm>
0.053993

>  <SCORE.INTRA>
1.69861

>  <SCORE.INTRA.DIHEDRAL>
-0.185261

>  <SCORE.INTRA.DIHEDRAL.0>
1.75624

>  <SCORE.INTRA.POLAR>
0

>  <SCORE.INTRA.POLAR.0>
0

>  <SCORE.INTRA.REPUL>
0

>  <SCORE.INTRA.REPUL.0>
0

>  <SCORE.INTRA.SOLV>
1.21046

>  <SCORE.INTRA.SOLV.lig_0>
-46.5296

>  <SCORE.INTRA.VDW>
1.18602

>  <SCORE.INTRA.VDW.0>
-0.381873

>  <SCORE.INTRA.norm>
0.130663

>  <SCORE.RESTR>
1.11343

>  <SCORE.RESTR.CAVITY>
1.11343

>  <SCORE.RESTR.norm>
0.0856484

>  <SCORE.SYSTEM>
0

>  <SCORE.SYSTEM.CONST>
0

>  <SCORE.SYSTEM.DIHEDRAL>
0

>  <SCORE.SYSTEM.SOLV>
0

>  <SCORE.SYSTEM.norm>
0

>  <SCORE.heavy>
13

>  <SCORE.norm>
0.270304

>  <RMSD>
33.589

$$$$
ligand
 OpenBabel02271912143D
libRbt.so/2013.1/901 2013/11/27
 13 14  0  0  0  0  0  0  0  0999 V2000
    8.8110   27.7151   24.6682 N   0  0  0  0  0  0  0  0  0  0  0  0
    7.5995   27.2030   25.1602 C   0  0  0  0  0  0  0  0  0  0  0  0
    7.5908   26.4703   26.4054 N   0  0  0  0  0  0  0  0  0  0  0  0
    6.4280   27.4069   24.4672 N   0  0  0  0  0  0  0  0  0  0  0  0
    6.3991   28.1218   23.2420 C   0  0  0  0  0  0  0  0  0  0  0  0
    7.6254   28.6401   22.6996 C   0  0  0  0  0  0  0  0  0  0  0  0
    8.8373   28.4010   23.4493 C   0  0  0  0  0  0  0  0  0  0  0  0
    9.9960   28.9069   22.9295 O   0  0  0  0  0  0  0  0  0  0  0  0
    7.3249   29.3222   21.4618 C   0  0  0  0  0  0  0  0  0  0  0  0
    5.9469   29.1713   21.2981 C   0  0  0  0  0  0  0  0  0  0  0  0
    5.4069   28.4683   22.3598 N   0  0  0  0  0  0  0  0  0  0  0  0
    8.3008   30.0047   20.5236 C   0  0  0  0  0  0  0  0  0  0  0  0
    9.4996   30.5000   21.1965 N   0  0  0  0  0  0  0  0  0  0  0  0
  1  2  1  0  0  0  0
  1  7  1  0  0  0  0
  2  3  1  0  0  0  0
  2  4  2  0  0  0  0
  4  5  1  0  0  0  0
  5  6  2  0  0  0  0
  5 11  1  0  0  0  0
  6  7  1  0  0  0  0
  6  9  1  0  0  0  0
  7  8  2  0  0  0  0
  9 10  2  0  0  0  0
  9 12  1  0  0  0  0
 10 11  1  0  0  0  0
 12 13  1  0  0  0  0
M  END
>  <CHROM.1>
-27.54021544,7.72809999,28.49281268,23.07696701,-1.71283594,-0.18535033,-1.01594256

>  <Name>
ligand

>  <RI>
-1

>  <Rbt.Current_Directory>
/home/itssahil/PROJECTS/Mol_Feturizer/Test_systems_manuscript/rnas/4jf2

>  <Rbt.Executable>
rbdock ($Id: //depot/dev/client3/rdock/2013.1/src/exe/rbdock.cxx#4 $)

>  <Rbt.Library>
libRbt.so (2013.1, Build901 2013/11/27)

>  <Rbt.Parameter_File>
/export/apps/rDock/src/rDock_2013.1_src/data/scripts/dock_solv.prm

>  <Rbt.Receptor>
prm/blind_docking_40.prm

>  <SCORE>
3.57049

>  <SCORE.INTER>
0.816571

>  <SCORE.INTER.CONST>
1

>  <SCORE.INTER.POLAR>
0

>  <SCORE.INTER.ROT>
1

>  <SCORE.INTER.SOLV>
19.9683

>  <SCORE.INTER.VDW>
-10.3784

>  <SCORE.INTER.norm>
0.0628131

>  <SCORE.INTRA>
1.65715

>  <SCORE.INTRA.DIHEDRAL>
-0.185712

>  <SCORE.INTRA.DIHEDRAL.0>
1.75624

>  <SCORE.INTRA.POLAR>
0

>  <SCORE.INTRA.POLAR.0>
0

>  <SCORE.INTRA.REPUL>
0

>  <SCORE.INTRA.REPUL.0>
0

>  <SCORE.INTRA.SOLV>
1.20412

>  <SCORE.INTRA.SOLV.lig_0>
-46.5296

>  <SCORE.INTRA.VDW>
1.14795

>  <SCORE.INTRA.VDW.0>
-0.381873

>  <SCORE.INTRA.norm>
0.127473

>  <SCORE.RESTR>
1.09677

>  <SCORE.RESTR.CAVITY>
1.09677

>  <SCORE.RESTR.norm>
0.0843666

>  <SCORE.SYSTEM>
0

>  <SCORE.SYSTEM.CONST>
0

>  <SCORE.SYSTEM.DIHEDRAL>
0

>  <SCORE.SYSTEM.SOLV>
0

>  <SCORE.SYSTEM.norm>
0

>  <SCORE.heavy>
13

>  <SCORE.norm>
0.274653

>  <RMSD>
33.600

$$$$
ligand
 OpenBabel02271912143D
libRbt.so/2013.1/901 2013/11/27
 13 14  0  0  0  0  0  0  0  0999 V2000
    7.6663   29.2661   21.1053 N   0  0  0  0  0  0  0  0  0  0  0  0
    6.6657   28.2869   20.9945 C   0  0  0  0  0  0  0  0  0  0  0  0
    6.0489   28.0429   19.7109 N   0  0  0  0  0  0  0  0  0  0  0  0
    6.2834   27.5580   22.0976 N   0  0  0  0  0  0  0  0  0  0  0  0
    6.8676   27.7704   23.3729 C   0  0  0  0  0  0  0  0  0  0  0  0
    7.8791   28.7806   23.5253 C   0  0  0  0  0  0  0  0  0  0  0  0
    8.2505   29.5320   22.3482 C   0  0  0  0  0  0  0  0  0  0  0  0
    9.2203   30.4831   22.5024 O   0  0  0  0  0  0  0  0  0  0  0  0
    8.3079   28.7929   24.9049 C   0  0  0  0  0  0  0  0  0  0  0  0
    7.5312   27.8145   25.5275 C   0  0  0  0  0  0  0  0  0  0  0  0
    6.6892   27.2092   24.6123 N   0  0  0  0  0  0  0  0  0  0  0  0
    9.3374   29.7047   25.5433 C   0  0  0  0  0  0  0  0  0  0  0  0
   10.4511   30.0305   24.6553 N   0  0  0  0  0  0  0  0  0  0  0  0
  1  2  1  0  0  0  0
  1  7  1  0  0  0  0
  2  3  1  0  0  0  0
  2  4  2  0  0  0  0
  4  5  1  0  0  0  0
  5  6  2  0  0  0  0
  5 11  1  0  0  0  0
  6  7  1  0  0  0  0
  6  9  1  0  0  0  0
  7  8  2  0  0  0  0
  9 10  2  0  0  0  0
  9 12  1  0  0  0  0
 10 11  1  0  0  0  0
 12 13  1  0  0  0  0
M  END
>  <CHROM.1>
-35.51389684,7.81528092,28.74891596,23.11817676,-2.34622278,0.72028720,1.86322434

>  <Name>
ligand

>  <RI>
-1

>  <Rbt.Current_Directory>
/home/itssahil/PROJECTS/Mol_Feturizer/Test_systems_manuscript/rnas/4jf2

>  <Rbt.Executable>
rbdock ($Id: //depot/dev/client3/rdock/2013.1/src/exe/rbdock.cxx#4 $)

>  <Rbt.Library>
libRbt.so (2013.1, Build901 2013/11/27)

>  <Rbt.Parameter_File>
/export/apps/rDock/src/rDock_2013.1_src/data/scripts/dock_solv.prm

>  <Rbt.Receptor>
prm/blind_docking_40.prm

>  <SCORE>
0.62009

>  <SCORE.INTER>
-3.06204

>  <SCORE.INTER.CONST>
1

>  <SCORE.INTER.POLAR>
0

>  <SCORE.INTER.ROT>
1

>  <SCORE.INTER.SOLV>
11.7439

>  <SCORE.INTER.VDW>
-10.2227

>  <SCORE.INTER.norm>
-0.235541

>  <SCORE.INTRA>
0.95041

>  <SCORE.INTRA.DIHEDRAL>
-0.185089

>  <SCORE.INTRA.DIHEDRAL.0>
1.75624

>  <SCORE.INTRA.POLAR>
0

>  <SCORE.INTRA.POLAR.0>
0

>  <SCORE.INTRA.REPUL>
0

>  <SCORE.INTRA.REPUL.0>
0

>  <SCORE.INTRA.SOLV>
1.05411

>  <SCORE.INTRA.SOLV.lig_0>
-46.5296

>  <SCORE.INTRA.VDW>
0.515898

>  <SCORE.INTRA.VDW.0>
-0.381873

>  <SCORE.INTRA.norm>
0.0731085

>  <SCORE.RESTR>
2.73172

>  <SCORE.RESTR.CAVITY>
2.73172

>  <SCORE.RESTR.norm>
0.210132

>  <SCORE.SYSTEM>
0

>  <SCORE.SYSTEM.CONST>
0

>  <SCORE.SYSTEM.DIHEDRAL>
0

>  <SCORE.SYSTEM.SOLV>
0

>  <SCORE.SYSTEM.norm>
0

>  <SCORE.heavy>
13

>  <SCORE.norm>
0.0476993

>  <RMSD>
33.642

$$$$
ligand
 OpenBabel02271912143D
libRbt.so/2013.1/901 2013/11/27
 13 14  0  0  0  0  0  0  0  0999 V2000
    8.8282   28.0239   24.7163 N   0  0  0  0  0  0  0  0  0  0  0  0
    7.6637   27.3374   25.0966 C   0  0  0  0  0  0  0  0  0  0  0  0
    7.6542   26.5813   26.3278 N   0  0  0  0  0  0  0  0  0  0  0  0
    6.5369   27.3933   24.3082 N   0  0  0  0  0  0  0  0  0  0  0  0
    6.5101   28.1260   23.0936 C   0  0  0  0  0  0  0  0  0  0  0  0
    7.6926   28.8219   22.6643 C   0  0  0  0  0  0  0  0  0  0  0  0
    8.8595   28.7354   23.5123 C   0  0  0  0  0  0  0  0  0  0  0  0
    9.9751   29.4090   23.0995 O   0  0  0  0  0  0  0  0  0  0  0  0
    7.4035   29.4848   21.4135 C   0  0  0  0  0  0  0  0  0  0  0  0
    6.0787   29.1483   21.1306 C   0  0  0  0  0  0  0  0  0  0  0  0
    5.5560   28.3524   22.1338 N   0  0  0  0  0  0  0  0  0  0  0  0
    8.3489   30.3179   20.5704 C   0  0  0  0  0  0  0  0  0  0  0  0
    9.7351   29.8601   20.6326 N   0  0  0  0  0  0  0  0  0  0  0  0
  1  2  1  0  0  0  0
  1  7  1  0  0  0  0
  2  3  1  0  0  0  0
  2  4  2  0  0  0  0
  4  5  1  0  0  0  0
  5  6  2  0  0  0  0
  5 11  1  0  0  0  0
  6  7  1  0  0  0  0
  6  9  1  0  0  0  0
  7  8  2  0  0  0  0
  9 10  2  0  0  0  0
  9 12  1  0  0  0  0
 10 11  1  0  0  0  0
 12 13  1  0  0  0  0
M  END
>  <CHROM.1>
32.96391570,7.80992848,28.59198699,22.98905195,-1.72331630,-0.25405645,-1.06649379

>  <Name>
ligand

>  <RI>
-1

>  <Rbt.Current_Directory>
/home/itssahil/PROJECTS/Mol_Feturizer/Test_systems_manuscript/rnas/4jf2

>  <Rbt.Executable>
rbdock ($Id: //depot/dev/client3/rdock/2013.1/src/exe/rbdock.cxx#4 $)

>  <Rbt.Library>
libRbt.so (2013.1, Build901 2013/11/27)

>  <Rbt.Parameter_File>
/export/apps/rDock/src/rDock_2013.1_src/data/scripts/dock_solv.prm

>  <Rbt.Receptor>
prm/blind_docking_40.prm

>  <SCORE>
0.491007

>  <SCORE.INTER>
-2.19039

>  <SCORE.INTER.CONST>
1

>  <SCORE.INTER.POLAR>
0

>  <SCORE.INTER.ROT>
1

>  <SCORE.INTER.SOLV>
16.8262

>  <SCORE.INTER.VDW>
-11.3357

>  <SCORE.INTER.norm>
-0.168491

>  <SCORE.INTRA>
1.07852

>  <SCORE.INTRA.DIHEDRAL>
0.0326194

>  <SCORE.INTRA.DIHEDRAL.0>
1.75624

>  <SCORE.INTRA.POLAR>
0

>  <SCORE.INTRA.POLAR.0>
0

>  <SCORE.INTRA.REPUL>
0

>  <SCORE.INTRA.REPUL.0>
0

>  <SCORE.INTRA.SOLV>
1.07746

>  <SCORE.INTRA.SOLV.lig_0>
-46.5296

>  <SCORE.INTRA.VDW>
0.523477

>  <SCORE.INTRA.VDW.0>
-0.381873

>  <SCORE.INTRA.norm>
0.0829629

>  <SCORE.RESTR>
1.60288

>  <SCORE.RESTR.CAVITY>
1.60288

>  <SCORE.RESTR.norm>
0.123298

>  <SCORE.SYSTEM>
0

>  <SCORE.SYSTEM.CONST>
0

>  <SCORE.SYSTEM.DIHEDRAL>
0

>  <SCORE.SYSTEM.SOLV>
0

>  <SCORE.SYSTEM.norm>
0

>  <SCORE.heavy>
13

>  <SCORE.norm>
0.0377697

>  <RMSD>
33.705

$$$$
ligand
 OpenBabel02271912143D
libRbt.so/2013.1/901 2013/11/27
 13 14  0  0  0  0  0  0  0  0999 V2000
    8.8554   28.0940   24.7257 N   0  0  0  0  0  0  0  0  0  0  0  0
    7.7046   27.3893   25.1143 C   0  0  0  0  0  0  0  0  0  0  0  0
    7.7103   26.6467   26.3537 N   0  0  0  0  0  0  0  0  0  0  0  0
    6.5765   27.4147   24.3262 N   0  0  0  0  0  0  0  0  0  0  0  0
    6.5350   28.1335   23.1036 C   0  0  0  0  0  0  0  0  0  0  0  0
    7.7035   28.8474   22.6659 C   0  0  0  0  0  0  0  0  0  0  0  0
    8.8723   28.7927   23.5139 C   0  0  0  0  0  0  0  0  0  0  0  0
    9.9745   29.4833   23.0931 O   0  0  0  0  0  0  0  0  0  0  0  0
    7.4011   29.4909   21.4082 C   0  0  0  0  0  0  0  0  0  0  0  0
    6.0829   29.1258   21.1299 C   0  0  0  0  0  0  0  0  0  0  0  0
    5.5762   28.3309   22.1420 N   0  0  0  0  0  0  0  0  0  0  0  0
    8.3297   30.3329   20.5554 C   0  0  0  0  0  0  0  0  0  0  0  0
    9.7134   29.8634   20.5707 N   0  0  0  0  0  0  0  0  0  0  0  0
  1  2  1  0  0  0  0
  1  7  1  0  0  0  0
  2  3  1  0  0  0  0
  2  4  2  0  0  0  0
  4  5  1  0  0  0  0
  5  6  2  0  0  0  0
  5 11  1  0  0  0  0
  6  7  1  0  0  0  0
  6  9  1  0  0  0  0
  7  8  2  0  0  0  0
  9 10  2  0  0  0  0
  9 12  1  0  0  0  0
 10 11  1  0  0  0  0
 12 13  1  0  0  0  0
M  END
>  <CHROM.1>
35.74800386,7.82457175,28.62018983,22.98892537,-1.71190144,-0.26761994,-1.07790763

>  <Name>
ligand

>  <RI>
-1

>  <Rbt.Current_Directory>
/home/itssahil/PROJECTS/Mol_Feturizer/Test_systems_manuscript/rnas/4jf2

>  <Rbt.Executable>
rbdock ($Id: //depot/dev/client3/rdock/2013.1/src/exe/rbdock.cxx#4 $)

>  <Rbt.Library>
libRbt.so (2013.1, Build901 2013/11/27)

>  <Rbt.Parameter_File>
/export/apps/rDock/src/rDock_2013.1_src/data/scripts/dock_solv.prm

>  <Rbt.Receptor>
prm/blind_docking_40.prm

>  <SCORE>
0.140363

>  <SCORE.INTER>
-2.45943

>  <SCORE.INTER.CONST>
1

>  <SCORE.INTER.POLAR>
0

>  <SCORE.INTER.ROT>
1

>  <SCORE.INTER.SOLV>
16.5934

>  <SCORE.INTER.VDW>
-11.4374

>  <SCORE.INTER.norm>
-0.189187

>  <SCORE.INTRA>
0.897617

>  <SCORE.INTRA.DIHEDRAL>
0.0279011

>  <SCORE.INTRA.DIHEDRAL.0>
1.75624

>  <SCORE.INTRA.POLAR>
0

>  <SCORE.INTRA.POLAR.0>
0

>  <SCORE.INTRA.REPUL>
0

>  <SCORE.INTRA.REPUL.0>
0

>  <SCORE.INTRA.SOLV>
1.01991

>  <SCORE.INTRA.SOLV.lig_0>
-46.5296

>  <SCORE.INTRA.VDW>
0.37371

>  <SCORE.INTRA.VDW.0>
-0.381873

>  <SCORE.INTRA.norm>
0.0690475

>  <SCORE.RESTR>
1.70218

>  <SCORE.RESTR.CAVITY>
1.70218

>  <SCORE.RESTR.norm>
0.130937

>  <SCORE.SYSTEM>
0

>  <SCORE.SYSTEM.CONST>
0

>  <SCORE.SYSTEM.DIHEDRAL>
0

>  <SCORE.SYSTEM.SOLV>
0

>  <SCORE.SYSTEM.norm>
0

>  <SCORE.heavy>
13

>  <SCORE.norm>
0.0107972

>  <RMSD>
33.707

$$$$
ligand
 OpenBabel02271912143D
libRbt.so/2013.1/901 2013/11/27
 13 14  0  0  0  0  0  0  0  0999 V2000
    8.8339   28.0257   24.7180 N   0  0  0  0  0  0  0  0  0  0  0  0
    7.6649   27.3504   25.1049 C   0  0  0  0  0  0  0  0  0  0  0  0
    7.6531   26.5995   26.3392 N   0  0  0  0  0  0  0  0  0  0  0  0
    6.5361   27.4124   24.3198 N   0  0  0  0  0  0  0  0  0  0  0  0
    6.5115   28.1402   23.1023 C   0  0  0  0  0  0  0  0  0  0  0  0
    7.6983   28.8246   22.6663 C   0  0  0  0  0  0  0  0  0  0  0  0
    8.8671   28.7319   23.5109 C   0  0  0  0  0  0  0  0  0  0  0  0
    9.9870   29.3946   23.0919 O   0  0  0  0  0  0  0  0  0  0  0  0
    7.4107   29.4847   21.4137 C   0  0  0  0  0  0  0  0  0  0  0  0
    6.0823   29.1581   21.1365 C   0  0  0  0  0  0  0  0  0  0  0  0
    5.5562   28.3706   22.1445 N   0  0  0  0  0  0  0  0  0  0  0  0
    8.3602   30.3065   20.5642 C   0  0  0  0  0  0  0  0  0  0  0  0
    9.7360   29.8151   20.5947 N   0  0  0  0  0  0  0  0  0  0  0  0
  1  2  1  0  0  0  0
  1  7  1  0  0  0  0
  2  3  1  0  0  0  0
  2  4  2  0  0  0  0
  4  5  1  0  0  0  0
  5  6  2  0  0  0  0
  5 11  1  0  0  0  0
  6  7  1  0  0  0  0
  6  9  1  0  0  0  0
  7  8  2  0  0  0  0
  9 10  2  0  0  0  0
  9 12  1  0  0  0  0
 10 11  1  0  0  0  0
 12 13  1  0  0  0  0
M  END
>  <CHROM.1>
34.55933620,7.81424050,28.59323736,22.98928197,-1.72379014,-0.24342240,-1.07268050

>  <Name>
ligand

>  <RI>
-1

>  <Rbt.Current_Directory>
/home/itssahil/PROJECTS/Mol_Feturizer/Test_systems_manuscript/rnas/4jf2

>  <Rbt.Executable>
rbdock ($Id: //depot/dev/client3/rdock/2013.1/src/exe/rbdock.cxx#4 $)

>  <Rbt.Library>
libRbt.so (2013.1, Build901 2013/11/27)

>  <Rbt.Parameter_File>
/export/apps/rDock/src/rDock_2013.1_src/data/scripts/dock_solv.prm

>  <Rbt.Receptor>
prm/blind_docking_40.prm

>  <SCORE>
0.320258

>  <SCORE.INTER>
-2.29491

>  <SCORE.INTER.CONST>
1

>  <SCORE.INTER.POLAR>
0

>  <SCORE.INTER.ROT>
1

>  <SCORE.INTER.SOLV>
16.6965

>  <SCORE.INTER.VDW>
-11.3621

>  <SCORE.INTER.norm>
-0.176531

>  <SCORE.INTRA>
0.971

>  <SCORE.INTRA.DIHEDRAL>
0.0301928

>  <SCORE.INTRA.DIHEDRAL.0>
1.75624

>  <SCORE.INTRA.POLAR>
0

>  <SCORE.INTRA.POLAR.0>
0

>  <SCORE.INTRA.REPUL>
0

>  <SCORE.INTRA.REPUL.0>
0

>  <SCORE.INTRA.SOLV>
1.04489

>  <SCORE.INTRA.SOLV.lig_0>
-46.5296

>  <SCORE.INTRA.VDW>
0.43346

>  <SCORE.INTRA.VDW.0>
-0.381873

>  <SCORE.INTRA.norm>
0.0746923

>  <SCORE.RESTR>
1.64417

>  <SCORE.RESTR.CAVITY>
1.64417

>  <SCORE.RESTR.norm>
0.126474

>  <SCORE.SYSTEM>
0

>  <SCORE.SYSTEM.CONST>
0

>  <SCORE.SYSTEM.DIHEDRAL>
0

>  <SCORE.SYSTEM.SOLV>
0

>  <SCORE.SYSTEM.norm>
0

>  <SCORE.heavy>
13

>  <SCORE.norm>
0.0246352

>  <RMSD>
33.707

$$$$
ligand
 OpenBabel02271912143D
libRbt.so/2013.1/901 2013/11/27
 13 14  0  0  0  0  0  0  0  0999 V2000
    8.8189   28.0200   24.7284 N   0  0  0  0  0  0  0  0  0  0  0  0
    7.6482   27.3394   25.1004 C   0  0  0  0  0  0  0  0  0  0  0  0
    7.6256   26.5845   26.3321 N   0  0  0  0  0  0  0  0  0  0  0  0
    6.5277   27.4000   24.3034 N   0  0  0  0  0  0  0  0  0  0  0  0
    6.5138   28.1318   23.0880 C   0  0  0  0  0  0  0  0  0  0  0  0
    7.7028   28.8216   22.6672 C   0  0  0  0  0  0  0  0  0  0  0  0
    8.8628   28.7302   23.5241 C   0  0  0  0  0  0  0  0  0  0  0  0
    9.9847   29.3981   23.1193 O   0  0  0  0  0  0  0  0  0  0  0  0
    7.4265   29.4848   21.4136 C   0  0  0  0  0  0  0  0  0  0  0  0
    6.1023   29.1545   21.1209 C   0  0  0  0  0  0  0  0  0  0  0  0
    5.5681   28.3619   22.1207 N   0  0  0  0  0  0  0  0  0  0  0  0
    8.3823   30.3126   20.5771 C   0  0  0  0  0  0  0  0  0  0  0  0
    9.7570   29.8185   20.6108 N   0  0  0  0  0  0  0  0  0  0  0  0
  1  2  1  0  0  0  0
  1  7  1  0  0  0  0
  2  3  1  0  0  0  0
  2  4  2  0  0  0  0
  4  5  1  0  0  0  0
  5  6  2  0  0  0  0
  5 11  1  0  0  0  0
  6  7  1  0  0  0  0
  6  9  1  0  0  0  0
  7  8  2  0  0  0  0
  9 10  2  0  0  0  0
  9 12  1  0  0  0  0
 10 11  1  0  0  0  0
 12 13  1  0  0  0  0
M  END
>  <CHROM.1>
35.10609920,7.81585702,28.58901643,22.98976650,-1.73162050,-0.25105004,-1.07203464

>  <Name>
ligand

>  <RI>
-1

>  <Rbt.Current_Directory>
/home/itssahil/PROJECTS/Mol_Feturizer/Test_systems_manuscript/rnas/4jf2

>  <Rbt.Executable>
rbdock ($Id: //depot/dev/client3/rdock/2013.1/src/exe/rbdock.cxx#4 $)

>  <Rbt.Library>
libRbt.so (2013.1, Build901 2013/11/27)

>  <Rbt.Parameter_File>
/export/apps/rDock/src/rDock_2013.1_src/data/scripts/dock_solv.prm

>  <Rbt.Receptor>
prm/blind_docking_40.prm

>  <SCORE>
0.435343

>  <SCORE.INTER>
-2.11603

>  <SCORE.INTER.CONST>
1

>  <SCORE.INTER.POLAR>
0

>  <SCORE.INTER.ROT>
1

>  <SCORE.INTER.SOLV>
16.7927

>  <SCORE.INTER.VDW>
-11.2749

>  <SCORE.INTER.norm>
-0.162772

>  <SCORE.INTRA>
0.936556

>  <SCORE.INTRA.DIHEDRAL>
0.0291893

>  <SCORE.INTRA.DIHEDRAL.0>
1.75624

>  <SCORE.INTRA.POLAR>
0

>  <SCORE.INTRA.POLAR.0>
0

>  <SCORE.INTRA.REPUL>
0

>  <SCORE.INTRA.REPUL.0>
0

>  <SCORE.INTRA.SOLV>
1.03347

>  <SCORE.INTRA.SOLV.lig_0>
-46.5296

>  <SCORE.INTRA.VDW>
0.405225

>  <SCORE.INTRA.VDW.0>
-0.381873

>  <SCORE.INTRA.norm>
0.0720428

>  <SCORE.RESTR>
1.61482

>  <SCORE.RESTR.CAVITY>
1.61482

>  <SCORE.RESTR.norm>
0.124217

>  <SCORE.SYSTEM>
0

>  <SCORE.SYSTEM.CONST>
0

>  <SCORE.SYSTEM.DIHEDRAL>
0

>  <SCORE.SYSTEM.SOLV>
0

>  <SCORE.SYSTEM.norm>
0

>  <SCORE.heavy>
13

>  <SCORE.norm>
0.0334879

>  <RMSD>
33.708

$$$$
ligand
 OpenBabel02271912143D
libRbt.so/2013.1/901 2013/11/27
 13 14  0  0  0  0  0  0  0  0999 V2000
    8.8255   28.0472   24.7165 N   0  0  0  0  0  0  0  0  0  0  0  0
    7.6643   27.3547   25.0963 C   0  0  0  0  0  0  0  0  0  0  0  0
    7.6569   26.6015   26.3292 N   0  0  0  0  0  0  0  0  0  0  0  0
    6.5387   27.4021   24.3056 N   0  0  0  0  0  0  0  0  0  0  0  0
    6.5099   28.1318   23.0892 C   0  0  0  0  0  0  0  0  0  0  0  0
    7.6891   28.8337   22.6605 C   0  0  0  0  0  0  0  0  0  0  0  0
    8.8548   28.7560   23.5109 C   0  0  0  0  0  0  0  0  0  0  0  0
    9.9672   29.4353   23.0987 O   0  0  0  0  0  0  0  0  0  0  0  0
    7.3984   29.4919   21.4076 C   0  0  0  0  0  0  0  0  0  0  0  0
    6.0762   29.1470   21.1231 C   0  0  0  0  0  0  0  0  0  0  0  0
    5.5563   28.3504   22.1271 N   0  0  0  0  0  0  0  0  0  0  0  0
    8.3405   30.3286   20.5644 C   0  0  0  0  0  0  0  0  0  0  0  0
    9.7222   29.8546   20.5980 N   0  0  0  0  0  0  0  0  0  0  0  0
  1  2  1  0  0  0  0
  1  7  1  0  0  0  0
  2  3  1  0  0  0  0
  2  4  2  0  0  0  0
  4  5  1  0  0  0  0
  5  6  2  0  0  0  0
  5 11  1  0  0  0  0
  6  7  1  0  0  0  0
  6  9  1  0  0  0  0
  7  8  2  0  0  0  0
  9 10  2  0  0  0  0
  9 12  1  0  0  0  0
 10 11  1  0  0  0  0
 12 13  1  0  0  0  0
M  END
>  <CHROM.1>
34.71985695,7.80656228,28.60323208,22.98340992,-1.72128576,-0.25811419,-1.07048049

>  <Name>
ligand

>  <RI>
-1

>  <Rbt.Current_Directory>
/home/itssahil/PROJECTS/Mol_Feturizer/Test_systems_manuscript/rnas/4jf2

>  <Rbt.Executable>
rbdock ($Id: //depot/dev/client3/rdock/2013.1/src/exe/rbdock.cxx#4 $)

>  <Rbt.Library>
libRbt.so (2013.1, Build901 2013/11/27)

>  <Rbt.Parameter_File>
/export/apps/rDock/src/rDock_2013.1_src/data/scripts/dock_solv.prm

>  <Rbt.Receptor>
prm/blind_docking_40.prm

>  <SCORE>
0.330499

>  <SCORE.INTER>
-2.27404

>  <SCORE.INTER.CONST>
1

>  <SCORE.INTER.POLAR>
0

>  <SCORE.INTER.ROT>
1

>  <SCORE.INTER.SOLV>
16.7439

>  <SCORE.INTER.VDW>
-11.364

>  <SCORE.INTER.norm>
-0.174926

>  <SCORE.INTRA>
0.960764

>  <SCORE.INTRA.DIHEDRAL>
0.0299072

>  <SCORE.INTRA.DIHEDRAL.0>
1.75624

>  <SCORE.INTRA.POLAR>
0

>  <SCORE.INTRA.POLAR.0>
0

>  <SCORE.INTRA.REPUL>
0

>  <SCORE.INTRA.REPUL.0>
0

>  <SCORE.INTRA.SOLV>
1.04155

>  <SCORE.INTRA.SOLV.lig_0>
-46.5296

>  <SCORE.INTRA.VDW>
0.425036

>  <SCORE.INTRA.VDW.0>
-0.381873

>  <SCORE.INTRA.norm>
0.0739049

>  <SCORE.RESTR>
1.64378

>  <SCORE.RESTR.CAVITY>
1.64378

>  <SCORE.RESTR.norm>
0.126444

>  <SCORE.SYSTEM>
0

>  <SCORE.SYSTEM.CONST>
0

>  <SCORE.SYSTEM.DIHEDRAL>
0

>  <SCORE.SYSTEM.SOLV>
0

>  <SCORE.SYSTEM.norm>
0

>  <SCORE.heavy>
13

>  <SCORE.norm>
0.025423

>  <RMSD>
33.708

$$$$
ligand
 OpenBabel02271912143D
libRbt.so/2013.1/901 2013/11/27
 13 14  0  0  0  0  0  0  0  0999 V2000
    8.8367   28.0451   24.7069 N   0  0  0  0  0  0  0  0  0  0  0  0
    7.6745   27.3570   25.0918 C   0  0  0  0  0  0  0  0  0  0  0  0
    7.6696   26.6040   26.3248 N   0  0  0  0  0  0  0  0  0  0  0  0
    6.5457   27.4086   24.3060 N   0  0  0  0  0  0  0  0  0  0  0  0
    6.5144   28.1383   23.0896 C   0  0  0  0  0  0  0  0  0  0  0  0
    7.6944   28.8356   22.6558 C   0  0  0  0  0  0  0  0  0  0  0  0
    8.8635   28.7536   23.5011 C   0  0  0  0  0  0  0  0  0  0  0  0
    9.9767   29.4286   23.0840 O   0  0  0  0  0  0  0  0  0  0  0  0
    7.4008   29.4948   21.4040 C   0  0  0  0  0  0  0  0  0  0  0  0
    6.0761   29.1549   21.1252 C   0  0  0  0  0  0  0  0  0  0  0  0
    5.5575   28.3603   22.1316 N   0  0  0  0  0  0  0  0  0  0  0  0
    8.3424   30.3279   20.5566 C   0  0  0  0  0  0  0  0  0  0  0  0
    9.7258   29.8591   20.5983 N   0  0  0  0  0  0  0  0  0  0  0  0
  1  2  1  0  0  0  0
  1  7  1  0  0  0  0
  2  3  1  0  0  0  0
  2  4  2  0  0  0  0
  4  5  1  0  0  0  0
  5  6  2  0  0  0  0
  5 11  1  0  0  0  0
  6  7  1  0  0  0  0
  6  9  1  0  0  0  0
  7  8  2  0  0  0  0
  9 10  2  0  0  0  0
  9 12  1  0  0  0  0
 10 11  1  0  0  0  0
 12 13  1  0  0  0  0
M  END
>  <CHROM.1>
33.95754657,7.81267892,28.60562179,22.97929478,-1.71960828,-0.25357443,-1.06923758

>  <Name>
ligand

>  <RI>
-1

>  <Rbt.Current_Directory>
/home/itssahil/PROJECTS/Mol_Feturizer/Test_systems_manuscript/rnas/4jf2

>  <Rbt.Executable>
rbdock ($Id: //depot/dev/client3/rdock/2013.1/src/exe/rbdock.cxx#4 $)

>  <Rbt.Library>
libRbt.so (2013.1, Build901 2013/11/27)

>  <Rbt.Parameter_File>
/export/apps/rDock/src/rDock_2013.1_src/data/scripts/dock_solv.prm

>  <Rbt.Receptor>
prm/blind_docking_40.prm

>  <SCORE>
0.315719

>  <SCORE.INTER>
-2.3389

>  <SCORE.INTER.CONST>
1

>  <SCORE.INTER.POLAR>
0

>  <SCORE.INTER.ROT>
1

>  <SCORE.INTER.SOLV>
16.6987

>  <SCORE.INTER.VDW>
-11.3922

>  <SCORE.INTER.norm>
-0.179915

>  <SCORE.INTRA>
1.01031

>  <SCORE.INTRA.DIHEDRAL>
0.0311963

>  <SCORE.INTRA.DIHEDRAL.0>
1.75624

>  <SCORE.INTRA.POLAR>
0

>  <SCORE.INTRA.POLAR.0>
0

>  <SCORE.INTRA.REPUL>
0

>  <SCORE.INTRA.REPUL.0>
0

>  <SCORE.INTRA.SOLV>
1.0573

>  <SCORE.INTRA.SOLV.lig_0>
-46.5296

>  <SCORE.INTRA.VDW>
0.466059

>  <SCORE.INTRA.VDW.0>
-0.381873

>  <SCORE.INTRA.norm>
0.077716

>  <SCORE.RESTR>
1.64431

>  <SCORE.RESTR.CAVITY>
1.64431

>  <SCORE.RESTR.norm>
0.126485

>  <SCORE.SYSTEM>
0

>  <SCORE.SYSTEM.CONST>
0

>  <SCORE.SYSTEM.DIHEDRAL>
0

>  <SCORE.SYSTEM.SOLV>
0

>  <SCORE.SYSTEM.norm>
0

>  <SCORE.heavy>
13

>  <SCORE.norm>
0.0242861

>  <RMSD>
33.714

$$$$
ligand
 OpenBabel02271912143D
libRbt.so/2013.1/901 2013/11/27
 13 14  0  0  0  0  0  0  0  0999 V2000
    8.8175   28.0161   24.7175 N   0  0  0  0  0  0  0  0  0  0  0  0
    7.6402   27.3462   25.0878 C   0  0  0  0  0  0  0  0  0  0  0  0
    7.6095   26.5905   26.3189 N   0  0  0  0  0  0  0  0  0  0  0  0
    6.5211   27.4180   24.2899 N   0  0  0  0  0  0  0  0  0  0  0  0
    6.5150   28.1509   23.0751 C   0  0  0  0  0  0  0  0  0  0  0  0
    7.7108   28.8299   22.6559 C   0  0  0  0  0  0  0  0  0  0  0  0
    8.8691   28.7270   23.5138 C   0  0  0  0  0  0  0  0  0  0  0  0
    9.9976   29.3847   23.1106 O   0  0  0  0  0  0  0  0  0  0  0  0
    7.4418   29.4967   21.4027 C   0  0  0  0  0  0  0  0  0  0  0  0
    6.1149   29.1791   21.1085 C   0  0  0  0  0  0  0  0  0  0  0  0
    5.5724   28.3907   22.1071 N   0  0  0  0  0  0  0  0  0  0  0  0
    8.4061   30.3163   20.5677 C   0  0  0  0  0  0  0  0  0  0  0  0
    9.7825   29.8299   20.6299 N   0  0  0  0  0  0  0  0  0  0  0  0
  1  2  1  0  0  0  0
  1  7  1  0  0  0  0
  2  3  1  0  0  0  0
  2  4  2  0  0  0  0
  4  5  1  0  0  0  0
  5  6  2  0  0  0  0
  5 11  1  0  0  0  0
  6  7  1  0  0  0  0
  6  9  1  0  0  0  0
  7  8  2  0  0  0  0
  9 10  2  0  0  0  0
  9 12  1  0  0  0  0
 10 11  1  0  0  0  0
 12 13  1  0  0  0  0
M  END
>  <CHROM.1>
33.60655173,7.82192748,28.59769723,22.98066635,-1.73776771,-0.24498119,-1.07087126

>  <Name>
ligand

>  <RI>
-1

>  <Rbt.Current_Directory>
/home/itssahil/PROJECTS/Mol_Feturizer/Test_systems_manuscript/rnas/4jf2

>  <Rbt.Executable>
rbdock ($Id: //depot/dev/client3/rdock/2013.1/src/exe/rbdock.cxx#4 $)

>  <Rbt.Library>
libRbt.so (2013.1, Build901 2013/11/27)

>  <Rbt.Parameter_File>
/export/apps/rDock/src/rDock_2013.1_src/data/scripts/dock_solv.prm

>  <Rbt.Receptor>
prm/blind_docking_40.prm

>  <SCORE>
0.497245

>  <SCORE.INTER>
-2.12733

>  <SCORE.INTER.CONST>
1

>  <SCORE.INTER.POLAR>
0

>  <SCORE.INTER.ROT>
1

>  <SCORE.INTER.SOLV>
16.8031

>  <SCORE.INTER.VDW>
-11.2859

>  <SCORE.INTER.norm>
-0.163641

>  <SCORE.INTRA>
1.03393

>  <SCORE.INTRA.DIHEDRAL>
0.0317324

>  <SCORE.INTRA.DIHEDRAL.0>
1.75624

>  <SCORE.INTRA.POLAR>
0

>  <SCORE.INTRA.POLAR.0>
0

>  <SCORE.INTRA.REPUL>
0

>  <SCORE.INTRA.REPUL.0>
0

>  <SCORE.INTRA.SOLV>
1.06447

>  <SCORE.INTRA.SOLV.lig_0>
-46.5296

>  <SCORE.INTRA.VDW>
0.485823

>  <SCORE.INTRA.VDW.0>
-0.381873

>  <SCORE.INTRA.norm>
0.0795328

>  <SCORE.RESTR>
1.59065

>  <SCORE.RESTR.CAVITY>
1.59065

>  <SCORE.RESTR.norm>
0.122357

>  <SCORE.SYSTEM>
0

>  <SCORE.SYSTEM.CONST>
0

>  <SCORE.SYSTEM.DIHEDRAL>
0

>  <SCORE.SYSTEM.SOLV>
0

>  <SCORE.SYSTEM.norm>
0

>  <SCORE.heavy>
13

>  <SCORE.norm>
0.0382496

>  <RMSD>
33.720

$$$$
ligand
 OpenBabel02271912143D
libRbt.so/2013.1/901 2013/11/27
 13 14  0  0  0  0  0  0  0  0999 V2000
    8.8139   28.0144   24.7152 N   0  0  0  0  0  0  0  0  0  0  0  0
    7.6362   27.3428   25.0818 C   0  0  0  0  0  0  0  0  0  0  0  0
    7.6035   26.5847   26.3112 N   0  0  0  0  0  0  0  0  0  0  0  0
    6.5188   27.4153   24.2816 N   0  0  0  0  0  0  0  0  0  0  0  0
    6.5147   28.1506   23.0682 C   0  0  0  0  0  0  0  0  0  0  0  0
    7.7109   28.8314   22.6529 C   0  0  0  0  0  0  0  0  0  0  0  0
    8.8674   28.7276   23.5130 C   0  0  0  0  0  0  0  0  0  0  0  0
    9.9963   29.3870   23.1135 O   0  0  0  0  0  0  0  0  0  0  0  0
    7.4440   29.5004   21.4004 C   0  0  0  0  0  0  0  0  0  0  0  0
    6.1179   29.1823   21.1028 C   0  0  0  0  0  0  0  0  0  0  0  0
    5.5740   28.3916   22.0988 N   0  0  0  0  0  0  0  0  0  0  0  0
    8.4094   30.3223   20.5691 C   0  0  0  0  0  0  0  0  0  0  0  0
    9.7843   29.8307   20.6250 N   0  0  0  0  0  0  0  0  0  0  0  0
  1  2  1  0  0  0  0
  1  7  1  0  0  0  0
  2  3  1  0  0  0  0
  2  4  2  0  0  0  0
  4  5  1  0  0  0  0
  5  6  2  0  0  0  0
  5 11  1  0  0  0  0
  6  7  1  0  0  0  0
  6  9  1  0  0  0  0
  7  8  2  0  0  0  0
  9 10  2  0  0  0  0
  9 12  1  0  0  0  0
 10 11  1  0  0  0  0
 12 13  1  0  0  0  0
M  END
>  <CHROM.1>
34.05016348,7.82133058,28.59805655,22.97675786,-1.73908775,-0.24614060,-1.06977648

>  <Name>
ligand

>  <RI>
-1

>  <Rbt.Current_Directory>
/home/itssahil/PROJECTS/Mol_Feturizer/Test_systems_manuscript/rnas/4jf2

>  <Rbt.Executable>
rbdock ($Id: //depot/dev/client3/rdock/2013.1/src/exe/rbdock.cxx#4 $)

>  <Rbt.Library>
libRbt.so (2013.1, Build901 2013/11/27)

>  <Rbt.Parameter_File>
/export/apps/rDock/src/rDock_2013.1_src/data/scripts/dock_solv.prm

>  <Rbt.Receptor>
prm/blind_docking_40.prm

>  <SCORE>
0.49812

>  <SCORE.INTER>
-2.0945

>  <SCORE.INTER.CONST>
1

>  <SCORE.INTER.POLAR>
0

>  <SCORE.INTER.ROT>
1

>  <SCORE.INTER.SOLV>
16.8156

>  <SCORE.INTER.VDW>
-11.2682

>  <SCORE.INTER.norm>
-0.161115

>  <SCORE.INTRA>
1.00416

>  <SCORE.INTRA.DIHEDRAL>
0.0310488

>  <SCORE.INTRA.DIHEDRAL.0>
1.75624

>  <SCORE.INTRA.POLAR>
0

>  <SCORE.INTRA.POLAR.0>
0

>  <SCORE.INTRA.REPUL>
0

>  <SCORE.INTRA.REPUL.0>
0

>  <SCORE.INTRA.SOLV>
1.0554

>  <SCORE.INTRA.SOLV.lig_0>
-46.5296

>  <SCORE.INTRA.VDW>
0.460936

>  <SCORE.INTRA.VDW.0>
-0.381873

>  <SCORE.INTRA.norm>
0.0772432

>  <SCORE.RESTR>
1.58846

>  <SCORE.RESTR.CAVITY>
1.58846

>  <SCORE.RESTR.norm>
0.122189

>  <SCORE.SYSTEM>
0

>  <SCORE.SYSTEM.CONST>
0

>  <SCORE.SYSTEM.DIHEDRAL>
0

>  <SCORE.SYSTEM.SOLV>
0

>  <SCORE.SYSTEM.norm>
0

>  <SCORE.heavy>
13

>  <SCORE.norm>
0.038317

>  <RMSD>
33.723

$$$$
ligand
 OpenBabel02271912143D
libRbt.so/2013.1/901 2013/11/27
 13 14  0  0  0  0  0  0  0  0999 V2000
    8.8150   28.0101   24.7122 N   0  0  0  0  0  0  0  0  0  0  0  0
    7.6388   27.3366   25.0798 C   0  0  0  0  0  0  0  0  0  0  0  0
    7.6089   26.5769   26.3083 N   0  0  0  0  0  0  0  0  0  0  0  0
    6.5200   27.4086   24.2814 N   0  0  0  0  0  0  0  0  0  0  0  0
    6.5131   28.1453   23.0689 C   0  0  0  0  0  0  0  0  0  0  0  0
    7.7078   28.8282   22.6526 C   0  0  0  0  0  0  0  0  0  0  0  0
    8.8658   28.7249   23.5108 C   0  0  0  0  0  0  0  0  0  0  0  0
    9.9932   29.3863   23.1104 O   0  0  0  0  0  0  0  0  0  0  0  0
    7.4381   29.4985   21.4014 C   0  0  0  0  0  0  0  0  0  0  0  0
    6.1120   29.1790   21.1054 C   0  0  0  0  0  0  0  0  0  0  0  0
    5.5706   28.3863   22.1012 N   0  0  0  0  0  0  0  0  0  0  0  0
    8.4011   30.3227   20.5696 C   0  0  0  0  0  0  0  0  0  0  0  0
    9.7755   29.8288   20.6174 N   0  0  0  0  0  0  0  0  0  0  0  0
  1  2  1  0  0  0  0
  1  7  1  0  0  0  0
  2  3  1  0  0  0  0
  2  4  2  0  0  0  0
  4  5  1  0  0  0  0
  5  6  2  0  0  0  0
  5 11  1  0  0  0  0
  6  7  1  0  0  0  0
  6  9  1  0  0  0  0
  7  8  2  0  0  0  0
  9 10  2  0  0  0  0
  9 12  1  0  0  0  0
 10 11  1  0  0  0  0
 12 13  1  0  0  0  0
M  END
>  <CHROM.1>
34.34379775,7.81893142,28.59435176,22.97559386,-1.73691566,-0.24623359,-1.06835053

>  <Name>
ligand

>  <RI>
-1

>  <Rbt.Current_Directory>
/home/itssahil/PROJECTS/Mol_Feturizer/Test_systems_manuscript/rnas/4jf2

>  <Rbt.Executable>
rbdock ($Id: //depot/dev/client3/rdock/2013.1/src/exe/rbdock.cxx#4 $)

>  <Rbt.Library>
libRbt.so (2013.1, Build901 2013/11/27)

>  <Rbt.Parameter_File>
/export/apps/rDock/src/rDock_2013.1_src/data/scripts/dock_solv.prm

>  <Rbt.Receptor>
prm/blind_docking_40.prm

>  <SCORE>
0.486869

>  <SCORE.INTER>
-2.09072

>  <SCORE.INTER.CONST>
1

>  <SCORE.INTER.POLAR>
0

>  <SCORE.INTER.ROT>
1

>  <SCORE.INTER.SOLV>
16.8052

>  <SCORE.INTER.VDW>
-11.2622

>  <SCORE.INTER.norm>
-0.160824

>  <SCORE.INTRA>
0.984909

>  <SCORE.INTRA.DIHEDRAL>
0.0305644

>  <SCORE.INTRA.DIHEDRAL.0>
1.75624

>  <SCORE.INTRA.POLAR>
0

>  <SCORE.INTRA.POLAR.0>
0

>  <SCORE.INTRA.REPUL>
0

>  <SCORE.INTRA.REPUL.0>
0

>  <SCORE.INTRA.SOLV>
1.04935

>  <SCORE.INTRA.SOLV.lig_0>
-46.5296

>  <SCORE.INTRA.VDW>
0.444951

>  <SCORE.INTRA.VDW.0>
-0.381873

>  <SCORE.INTRA.norm>
0.0757622

>  <SCORE.RESTR>
1.59268

>  <SCORE.RESTR.CAVITY>
1.59268

>  <SCORE.RESTR.norm>
0.122514

>  <SCORE.SYSTEM>
0

>  <SCORE.SYSTEM.CONST>
0

>  <SCORE.SYSTEM.DIHEDRAL>
0

>  <SCORE.SYSTEM.SOLV>
0

>  <SCORE.SYSTEM.norm>
0

>  <SCORE.heavy>
13

>  <SCORE.norm>
0.0374515

>  <RMSD>
33.723

$$$$
ligand
 OpenBabel02271912143D
libRbt.so/2013.1/901 2013/11/27
 13 14  0  0  0  0  0  0  0  0999 V2000
    8.8180   28.0134   24.7124 N   0  0  0  0  0  0  0  0  0  0  0  0
    7.6406   27.3431   25.0820 C   0  0  0  0  0  0  0  0  0  0  0  0
    7.6100   26.5854   26.3118 N   0  0  0  0  0  0  0  0  0  0  0  0
    6.5213   27.4164   24.2844 N   0  0  0  0  0  0  0  0  0  0  0  0
    6.5152   28.1512   23.0708 C   0  0  0  0  0  0  0  0  0  0  0  0
    7.7110   28.8307   22.6524 C   0  0  0  0  0  0  0  0  0  0  0  0
    8.8695   28.7261   23.5098 C   0  0  0  0  0  0  0  0  0  0  0  0
    9.9981   29.3842   23.1074 O   0  0  0  0  0  0  0  0  0  0  0  0
    7.4419   29.4995   21.4003 C   0  0  0  0  0  0  0  0  0  0  0  0
    6.1148   29.1826   21.1060 C   0  0  0  0  0  0  0  0  0  0  0  0
    5.5724   28.3928   22.1035 N   0  0  0  0  0  0  0  0  0  0  0  0
    8.4061   30.3202   20.5664 C   0  0  0  0  0  0  0  0  0  0  0  0
    9.7816   29.8306   20.6238 N   0  0  0  0  0  0  0  0  0  0  0  0
  1  2  1  0  0  0  0
  1  7  1  0  0  0  0
  2  3  1  0  0  0  0
  2  4  2  0  0  0  0
  4  5  1  0  0  0  0
  5  6  2  0  0  0  0
  5 11  1  0  0  0  0
  6  7  1  0  0  0  0
  6  9  1  0  0  0  0
  7  8  2  0  0  0  0
  9 10  2  0  0  0  0
  9 12  1  0  0  0  0
 10 11  1  0  0  0  0
 12 13  1  0  0  0  0
M  END
>  <CHROM.1>
33.81007251,7.82207161,28.59766540,22.97647702,-1.73756428,-0.24443945,-1.06947881

>  <Name>
ligand

>  <RI>
-1

>  <Rbt.Current_Directory>
/home/itssahil/PROJECTS/Mol_Feturizer/Test_systems_manuscript/rnas/4jf2

>  <Rbt.Executable>
rbdock ($Id: //depot/dev/client3/rdock/2013.1/src/exe/rbdock.cxx#4 $)

>  <Rbt.Library>
libRbt.so (2013.1, Build901 2013/11/27)

>  <Rbt.Parameter_File>
/export/apps/rDock/src/rDock_2013.1_src/data/scripts/dock_solv.prm

>  <Rbt.Receptor>
prm/blind_docking_40.prm

>  <SCORE>
0.486196

>  <SCORE.INTER>
-2.12534

>  <SCORE.INTER.CONST>
1

>  <SCORE.INTER.POLAR>
0

>  <SCORE.INTER.ROT>
1

>  <SCORE.INTER.SOLV>
16.7949

>  <SCORE.INTER.VDW>
-11.2819

>  <SCORE.INTER.norm>
-0.163488

>  <SCORE.INTRA>
1.02017

>  <SCORE.INTRA.DIHEDRAL>
0.031426

>  <SCORE.INTRA.DIHEDRAL.0>
1.75624

>  <SCORE.INTRA.POLAR>
0

>  <SCORE.INTRA.POLAR.0>
0

>  <SCORE.INTRA.REPUL>
0

>  <SCORE.INTRA.REPUL.0>
0

>  <SCORE.INTRA.SOLV>
1.06032

>  <SCORE.INTRA.SOLV.lig_0>
-46.5296

>  <SCORE.INTRA.VDW>
0.474295

>  <SCORE.INTRA.VDW.0>
-0.381873

>  <SCORE.INTRA.norm>
0.0784745

>  <SCORE.RESTR>
1.59137

>  <SCORE.RESTR.CAVITY>
1.59137

>  <SCORE.RESTR.norm>
0.122413

>  <SCORE.SYSTEM>
0

>  <SCORE.SYSTEM.CONST>
0

>  <SCORE.SYSTEM.DIHEDRAL>
0

>  <SCORE.SYSTEM.SOLV>
0

>  <SCORE.SYSTEM.norm>
0

>  <SCORE.heavy>
13

>  <SCORE.norm>
0.0373997

>  <RMSD>
33.724

$$$$
ligand
 OpenBabel02271912143D
libRbt.so/2013.1/901 2013/11/27
 13 14  0  0  0  0  0  0  0  0999 V2000
    8.8290   28.0159   24.7050 N   0  0  0  0  0  0  0  0  0  0  0  0
    7.6518   27.3505   25.0839 C   0  0  0  0  0  0  0  0  0  0  0  0
    7.6268   26.5954   26.3154 N   0  0  0  0  0  0  0  0  0  0  0  0
    6.5274   27.4262   24.2938 N   0  0  0  0  0  0  0  0  0  0  0  0
    6.5156   28.1586   23.0788 C   0  0  0  0  0  0  0  0  0  0  0  0
    7.7110   28.8331   22.6510 C   0  0  0  0  0  0  0  0  0  0  0  0
    8.8748   28.7261   23.5008 C   0  0  0  0  0  0  0  0  0  0  0  0
   10.0030   29.3794   23.0894 O   0  0  0  0  0  0  0  0  0  0  0  0
    7.4357   29.5004   21.3994 C   0  0  0  0  0  0  0  0  0  0  0  0
    6.1055   29.1876   21.1147 C   0  0  0  0  0  0  0  0  0  0  0  0
    5.5671   28.4017   22.1174 N   0  0  0  0  0  0  0  0  0  0  0  0
    8.3971   30.3161   20.5574 C   0  0  0  0  0  0  0  0  0  0  0  0
    9.7738   29.8301   20.6174 N   0  0  0  0  0  0  0  0  0  0  0  0
  1  2  1  0  0  0  0
  1  7  1  0  0  0  0
  2  3  1  0  0  0  0
  2  4  2  0  0  0  0
  4  5  1  0  0  0  0
  5  6  2  0  0  0  0
  5 11  1  0  0  0  0
  6  7  1  0  0  0  0
  6  9  1  0  0  0  0
  7  8  2  0  0  0  0
  9 10  2  0  0  0  0
  9 12  1  0  0  0  0
 10 11  1  0  0  0  0
 12 13  1  0  0  0  0
M  END
>  <CHROM.1>
33.21054419,7.82358871,28.60097395,22.97562823,-1.73348337,-0.23880388,-1.06974975

>  <Name>
ligand

>  <RI>
-1

>  <Rbt.Current_Directory>
/home/itssahil/PROJECTS/Mol_Feturizer/Test_systems_manuscript/rnas/4jf2

>  <Rbt.Executable>
rbdock ($Id: //depot/dev/client3/rdock/2013.1/src/exe/rbdock.cxx#4 $)

>  <Rbt.Library>
libRbt.so (2013.1, Build901 2013/11/27)

>  <Rbt.Parameter_File>
/export/apps/rDock/src/rDock_2013.1_src/data/scripts/dock_solv.prm

>  <Rbt.Receptor>
prm/blind_docking_40.prm

>  <SCORE>
0.447138

>  <SCORE.INTER>
-2.2201

>  <SCORE.INTER.CONST>
1

>  <SCORE.INTER.POLAR>
0

>  <SCORE.INTER.ROT>
1

>  <SCORE.INTER.SOLV>
16.7308

>  <SCORE.INTER.VDW>
-11.3237

>  <SCORE.INTER.norm>
-0.170777

>  <SCORE.INTRA>
1.0612

>  <SCORE.INTRA.DIHEDRAL>
0.0322935

>  <SCORE.INTRA.DIHEDRAL.0>
1.75624

>  <SCORE.INTRA.POLAR>
0

>  <SCORE.INTRA.POLAR.0>
0

>  <SCORE.INTRA.REPUL>
0

>  <SCORE.INTRA.REPUL.0>
0

>  <SCORE.INTRA.SOLV>
1.0725

>  <SCORE.INTRA.SOLV.lig_0>
-46.5296

>  <SCORE.INTRA.VDW>
0.5088

>  <SCORE.INTRA.VDW.0>
-0.381873

>  <SCORE.INTRA.norm>
0.0816305

>  <SCORE.RESTR>
1.60604

>  <SCORE.RESTR.CAVITY>
1.60604

>  <SCORE.RESTR.norm>
0.123542

>  <SCORE.SYSTEM>
0

>  <SCORE.SYSTEM.CONST>
0

>  <SCORE.SYSTEM.DIHEDRAL>
0

>  <SCORE.SYSTEM.SOLV>
0

>  <SCORE.SYSTEM.norm>
0

>  <SCORE.heavy>
13

>  <SCORE.norm>
0.0343952

>  <RMSD>
33.724

$$$$
ligand
 OpenBabel02271912143D
libRbt.so/2013.1/901 2013/11/27
 13 14  0  0  0  0  0  0  0  0999 V2000
    8.8162   28.0104   24.7115 N   0  0  0  0  0  0  0  0  0  0  0  0
    7.6405   27.3361   25.0792 C   0  0  0  0  0  0  0  0  0  0  0  0
    7.6113   26.5764   26.3078 N   0  0  0  0  0  0  0  0  0  0  0  0
    6.5216   27.4074   24.2809 N   0  0  0  0  0  0  0  0  0  0  0  0
    6.5141   28.1442   23.0685 C   0  0  0  0  0  0  0  0  0  0  0  0
    7.7083   28.8278   22.6520 C   0  0  0  0  0  0  0  0  0  0  0  0
    8.8664   28.7253   23.5101 C   0  0  0  0  0  0  0  0  0  0  0  0
    9.9933   29.3874   23.1096 O   0  0  0  0  0  0  0  0  0  0  0  0
    7.4380   29.4979   21.4009 C   0  0  0  0  0  0  0  0  0  0  0  0
    6.1121   29.1776   21.1050 C   0  0  0  0  0  0  0  0  0  0  0  0
    5.5713   28.3846   22.1009 N   0  0  0  0  0  0  0  0  0  0  0  0
    8.4004   30.3228   20.5690 C   0  0  0  0  0  0  0  0  0  0  0  0
    9.7750   29.8293   20.6160 N   0  0  0  0  0  0  0  0  0  0  0  0
  1  2  1  0  0  0  0
  1  7  1  0  0  0  0
  2  3  1  0  0  0  0
  2  4  2  0  0  0  0
  4  5  1  0  0  0  0
  5  6  2  0  0  0  0
  5 11  1  0  0  0  0
  6  7  1  0  0  0  0
  6  9  1  0  0  0  0
  7  8  2  0  0  0  0
  9 10  2  0  0  0  0
  9 12  1  0  0  0  0
 10 11  1  0  0  0  0
 12 13  1  0  0  0  0
M  END
>  <CHROM.1>
34.37840530,7.81957165,28.59399262,22.97495315,-1.73647976,-0.24669981,-1.06828490

>  <Name>
ligand

>  <RI>
-1

>  <Rbt.Current_Directory>
/home/itssahil/PROJECTS/Mol_Feturizer/Test_systems_manuscript/rnas/4jf2

>  <Rbt.Executable>
rbdock ($Id: //depot/dev/client3/rdock/2013.1/src/exe/rbdock.cxx#4 $)

>  <Rbt.Library>
libRbt.so (2013.1, Build901 2013/11/27)

>  <Rbt.Parameter_File>
/export/apps/rDock/src/rDock_2013.1_src/data/scripts/dock_solv.prm

>  <Rbt.Receptor>
prm/blind_docking_40.prm

>  <SCORE>
0.478762

>  <SCORE.INTER>
-2.09882

>  <SCORE.INTER.CONST>
1

>  <SCORE.INTER.POLAR>
0

>  <SCORE.INTER.ROT>
1

>  <SCORE.INTER.SOLV>
16.7982

>  <SCORE.INTER.VDW>
-11.2653

>  <SCORE.INTER.norm>
-0.161448

>  <SCORE.INTRA>
0.982663

>  <SCORE.INTRA.DIHEDRAL>
0.0305056

>  <SCORE.INTRA.DIHEDRAL.0>
1.75624

>  <SCORE.INTRA.POLAR>
0

>  <SCORE.INTRA.POLAR.0>
0

>  <SCORE.INTRA.REPUL>
0

>  <SCORE.INTRA.REPUL.0>
0

>  <SCORE.INTRA.SOLV>
1.04864

>  <SCORE.INTRA.SOLV.lig_0>
-46.5296

>  <SCORE.INTRA.VDW>
0.443092

>  <SCORE.INTRA.VDW.0>
-0.381873

>  <SCORE.INTRA.norm>
0.0755894

>  <SCORE.RESTR>
1.59492

>  <SCORE.RESTR.CAVITY>
1.59492

>  <SCORE.RESTR.norm>
0.122686

>  <SCORE.SYSTEM>
0

>  <SCORE.SYSTEM.CONST>
0

>  <SCORE.SYSTEM.DIHEDRAL>
0

>  <SCORE.SYSTEM.SOLV>
0

>  <SCORE.SYSTEM.norm>
0

>  <SCORE.heavy>
13

>  <SCORE.norm>
0.0368278

>  <RMSD>
33.724

$$$$
ligand
 OpenBabel02271912143D
libRbt.so/2013.1/901 2013/11/27
 13 14  0  0  0  0  0  0  0  0999 V2000
    8.8326   28.0205   24.7040 N   0  0  0  0  0  0  0  0  0  0  0  0
    7.6528   27.3641   25.0906 C   0  0  0  0  0  0  0  0  0  0  0  0
    7.6286   26.6139   26.3252 N   0  0  0  0  0  0  0  0  0  0  0  0
    6.5255   27.4438   24.3051 N   0  0  0  0  0  0  0  0  0  0  0  0
    6.5130   28.1716   23.0873 C   0  0  0  0  0  0  0  0  0  0  0  0
    7.7107   28.8368   22.6517 C   0  0  0  0  0  0  0  0  0  0  0  0
    8.8776   28.7258   23.4968 C   0  0  0  0  0  0  0  0  0  0  0  0
   10.0080   29.3704   23.0780 O   0  0  0  0  0  0  0  0  0  0  0  0
    7.4342   29.5010   21.3988 C   0  0  0  0  0  0  0  0  0  0  0  0
    6.1008   29.1955   21.1210 C   0  0  0  0  0  0  0  0  0  0  0  0
    5.5619   28.4169   22.1291 N   0  0  0  0  0  0  0  0  0  0  0  0
    8.3970   30.3073   20.5494 C   0  0  0  0  0  0  0  0  0  0  0  0
    9.7635   29.7906   20.5758 N   0  0  0  0  0  0  0  0  0  0  0  0
  1  2  1  0  0  0  0
  1  7  1  0  0  0  0
  2  3  1  0  0  0  0
  2  4  2  0  0  0  0
  4  5  1  0  0  0  0
  5  6  2  0  0  0  0
  5 11  1  0  0  0  0
  6  7  1  0  0  0  0
  6  9  1  0  0  0  0
  7  8  2  0  0  0  0
  9 10  2  0  0  0  0
  9 12  1  0  0  0  0
 10 11  1  0  0  0  0
 12 13  1  0  0  0  0
M  END
>  <CHROM.1>
34.81922043,7.82270267,28.60346494,22.97434753,-1.73184025,-0.22931752,-1.07519306

>  <Name>
ligand

>  <RI>
-1

>  <Rbt.Current_Directory>
/home/itssahil/PROJECTS/Mol_Feturizer/Test_systems_manuscript/rnas/4jf2

>  <Rbt.Executable>
rbdock ($Id: //depot/dev/client3/rdock/2013.1/src/exe/rbdock.cxx#4 $)

>  <Rbt.Library>
libRbt.so (2013.1, Build901 2013/11/27)

>  <Rbt.Parameter_File>
/export/apps/rDock/src/rDock_2013.1_src/data/scripts/dock_solv.prm

>  <Rbt.Receptor>
prm/blind_docking_40.prm

>  <SCORE>
0.287048

>  <SCORE.INTER>
-2.3201

>  <SCORE.INTER.CONST>
1

>  <SCORE.INTER.POLAR>
0

>  <SCORE.INTER.ROT>
1

>  <SCORE.INTER.SOLV>
16.618

>  <SCORE.INTER.VDW>
-11.3527

>  <SCORE.INTER.norm>
-0.178469

>  <SCORE.INTRA>
0.95448

>  <SCORE.INTRA.DIHEDRAL>
0.0297266

>  <SCORE.INTRA.DIHEDRAL.0>
1.75624

>  <SCORE.INTRA.POLAR>
0

>  <SCORE.INTRA.POLAR.0>
0

>  <SCORE.INTRA.REPUL>
0

>  <SCORE.INTRA.REPUL.0>
0

>  <SCORE.INTRA.SOLV>
1.03948

>  <SCORE.INTRA.SOLV.lig_0>
-46.5296

>  <SCORE.INTRA.VDW>
0.419878

>  <SCORE.INTRA.VDW.0>
-0.381873

>  <SCORE.INTRA.norm>
0.0734215

>  <SCORE.RESTR>
1.65267

>  <SCORE.RESTR.CAVITY>
1.65267

>  <SCORE.RESTR.norm>
0.127128

>  <SCORE.SYSTEM>
0

>  <SCORE.SYSTEM.CONST>
0

>  <SCORE.SYSTEM.DIHEDRAL>
0

>  <SCORE.SYSTEM.SOLV>
0

>  <SCORE.SYSTEM.norm>
0

>  <SCORE.heavy>
13

>  <SCORE.norm>
0.0220806

>  <RMSD>
33.725

$$$$
ligand
 OpenBabel02271912143D
libRbt.so/2013.1/901 2013/11/27
 13 14  0  0  0  0  0  0  0  0999 V2000
    8.8153   28.0102   24.7100 N   0  0  0  0  0  0  0  0  0  0  0  0
    7.6388   27.3368   25.0769 C   0  0  0  0  0  0  0  0  0  0  0  0
    7.6082   26.5768   26.3052 N   0  0  0  0  0  0  0  0  0  0  0  0
    6.5204   27.4094   24.2780 N   0  0  0  0  0  0  0  0  0  0  0  0
    6.5142   28.1465   23.0658 C   0  0  0  0  0  0  0  0  0  0  0  0
    7.7092   28.8292   22.6502 C   0  0  0  0  0  0  0  0  0  0  0  0
    8.8668   28.7254   23.5089 C   0  0  0  0  0  0  0  0  0  0  0  0
    9.9945   29.3866   23.1092 O   0  0  0  0  0  0  0  0  0  0  0  0
    7.4402   29.4999   21.3991 C   0  0  0  0  0  0  0  0  0  0  0  0
    6.1142   29.1808   21.1024 C   0  0  0  0  0  0  0  0  0  0  0  0
    5.5722   28.3880   22.0977 N   0  0  0  0  0  0  0  0  0  0  0  0
    8.4038   30.3241   20.5679 C   0  0  0  0  0  0  0  0  0  0  0  0
    9.7788   29.8322   20.6193 N   0  0  0  0  0  0  0  0  0  0  0  0
  1  2  1  0  0  0  0
  1  7  1  0  0  0  0
  2  3  1  0  0  0  0
  2  4  2  0  0  0  0
  4  5  1  0  0  0  0
  5  6  2  0  0  0  0
  5 11  1  0  0  0  0
  6  7  1  0  0  0  0
  6  9  1  0  0  0  0
  7  8  2  0  0  0  0
  9 10  2  0  0  0  0
  9 12  1  0  0  0  0
 10 11  1  0  0  0  0
 12 13  1  0  0  0  0
M  END
>  <CHROM.1>
34.17543570,7.82019262,28.59538402,22.97340824,-1.73751213,-0.24642389,-1.06800168

>  <Name>
ligand

>  <RI>
-1

>  <Rbt.Current_Directory>
/home/itssahil/PROJECTS/Mol_Feturizer/Test_systems_manuscript/rnas/4jf2

>  <Rbt.Executable>
rbdock ($Id: //depot/dev/client3/rdock/2013.1/src/exe/rbdock.cxx#4 $)

>  <Rbt.Library>
libRbt.so (2013.1, Build901 2013/11/27)

>  <Rbt.Parameter_File>
/export/apps/rDock/src/rDock_2013.1_src/data/scripts/dock_solv.prm

>  <Rbt.Receptor>
prm/blind_docking_40.prm

>  <SCORE>
0.492742

>  <SCORE.INTER>
-2.09371

>  <SCORE.INTER.CONST>
1

>  <SCORE.INTER.POLAR>
0

>  <SCORE.INTER.ROT>
1

>  <SCORE.INTER.SOLV>
16.8053

>  <SCORE.INTER.VDW>
-11.2642

>  <SCORE.INTER.norm>
-0.161055

>  <SCORE.INTRA>
0.995905

>  <SCORE.INTRA.DIHEDRAL>
0.0308452

>  <SCORE.INTRA.DIHEDRAL.0>
1.75624

>  <SCORE.INTRA.POLAR>
0

>  <SCORE.INTRA.POLAR.0>
0

>  <SCORE.INTRA.REPUL>
0

>  <SCORE.INTRA.REPUL.0>
0

>  <SCORE.INTRA.SOLV>
1.05283

>  <SCORE.INTRA.SOLV.lig_0>
-46.5296

>  <SCORE.INTRA.VDW>
0.454069

>  <SCORE.INTRA.VDW.0>
-0.381873

>  <SCORE.INTRA.norm>
0.0766081

>  <SCORE.RESTR>
1.59055

>  <SCORE.RESTR.CAVITY>
1.59055

>  <SCORE.RESTR.norm>
0.12235

>  <SCORE.SYSTEM>
0

>  <SCORE.SYSTEM.CONST>
0

>  <SCORE.SYSTEM.DIHEDRAL>
0

>  <SCORE.SYSTEM.SOLV>
0

>  <SCORE.SYSTEM.norm>
0

>  <SCORE.heavy>
13

>  <SCORE.norm>
0.0379032

>  <RMSD>
33.726

$$$$
ligand
 OpenBabel02271912143D
libRbt.so/2013.1/901 2013/11/27
 13 14  0  0  0  0  0  0  0  0999 V2000
    8.8273   27.9862   24.7015 N   0  0  0  0  0  0  0  0  0  0  0  0
    7.6446   27.3295   25.0788 C   0  0  0  0  0  0  0  0  0  0  0  0
    7.6143   26.5695   26.3072 N   0  0  0  0  0  0  0  0  0  0  0  0
    6.5203   27.4181   24.2899 N   0  0  0  0  0  0  0  0  0  0  0  0
    6.5138   28.1557   23.0780 C   0  0  0  0  0  0  0  0  0  0  0  0
    7.7146   28.8215   22.6518 C   0  0  0  0  0  0  0  0  0  0  0  0
    8.8782   28.7009   23.5001 C   0  0  0  0  0  0  0  0  0  0  0  0
   10.0116   29.3461   23.0904 O   0  0  0  0  0  0  0  0  0  0  0  0
    7.4440   29.4963   21.4033 C   0  0  0  0  0  0  0  0  0  0  0  0
    6.1109   29.1962   21.1185 C   0  0  0  0  0  0  0  0  0  0  0  0
    5.5666   28.4109   22.1184 N   0  0  0  0  0  0  0  0  0  0  0  0
    8.4117   30.3070   20.5637 C   0  0  0  0  0  0  0  0  0  0  0  0
    9.7785   29.7912   20.5968 N   0  0  0  0  0  0  0  0  0  0  0  0
  1  2  1  0  0  0  0
  1  7  1  0  0  0  0
  2  3  1  0  0  0  0
  2  4  2  0  0  0  0
  4  5  1  0  0  0  0
  5  6  2  0  0  0  0
  5 11  1  0  0  0  0
  6  7  1  0  0  0  0
  6  9  1  0  0  0  0
  7  8  2  0  0  0  0
  9 10  2  0  0  0  0
  9 12  1  0  0  0  0
 10 11  1  0  0  0  0
 12 13  1  0  0  0  0
M  END
>  <CHROM.1>
34.49633727,7.82500942,28.58562332,22.97350978,-1.73633934,-0.22927319,-1.06785447

>  <Name>
ligand

>  <RI>
-1

>  <Rbt.Current_Directory>
/home/itssahil/PROJECTS/Mol_Feturizer/Test_systems_manuscript/rnas/4jf2

>  <Rbt.Executable>
rbdock ($Id: //depot/dev/client3/rdock/2013.1/src/exe/rbdock.cxx#4 $)

>  <Rbt.Library>
libRbt.so (2013.1, Build901 2013/11/27)

>  <Rbt.Parameter_File>
/export/apps/rDock/src/rDock_2013.1_src/data/scripts/dock_solv.prm

>  <Rbt.Receptor>
prm/blind_docking_40.prm

>  <SCORE>
0.489939

>  <SCORE.INTER>
-2.08889

>  <SCORE.INTER.CONST>
1

>  <SCORE.INTER.POLAR>
0

>  <SCORE.INTER.ROT>
1

>  <SCORE.INTER.SOLV>
16.7111

>  <SCORE.INTER.VDW>
-11.2296

>  <SCORE.INTER.norm>
-0.160683

>  <SCORE.INTRA>
0.975046

>  <SCORE.INTRA.DIHEDRAL>
0.0303028

>  <SCORE.INTRA.DIHEDRAL.0>
1.75624

>  <SCORE.INTRA.POLAR>
0

>  <SCORE.INTRA.POLAR.0>
0

>  <SCORE.INTRA.REPUL>
0

>  <SCORE.INTRA.REPUL.0>
0

>  <SCORE.INTRA.SOLV>
1.04619

>  <SCORE.INTRA.SOLV.lig_0>
-46.5296

>  <SCORE.INTRA.VDW>
0.436798

>  <SCORE.INTRA.VDW.0>
-0.381873

>  <SCORE.INTRA.norm>
0.0750035

>  <SCORE.RESTR>
1.60378

>  <SCORE.RESTR.CAVITY>
1.60378

>  <SCORE.RESTR.norm>
0.123368

>  <SCORE.SYSTEM>
0

>  <SCORE.SYSTEM.CONST>
0

>  <SCORE.SYSTEM.DIHEDRAL>
0

>  <SCORE.SYSTEM.SOLV>
0

>  <SCORE.SYSTEM.norm>
0

>  <SCORE.heavy>
13

>  <SCORE.norm>
0.0376876

>  <RMSD>
33.728

$$$$
ligand
 OpenBabel02271912143D
libRbt.so/2013.1/901 2013/11/27
 13 14  0  0  0  0  0  0  0  0999 V2000
    8.8357   27.9737   24.6814 N   0  0  0  0  0  0  0  0  0  0  0  0
    7.6473   27.3349   25.0710 C   0  0  0  0  0  0  0  0  0  0  0  0
    7.6180   26.5761   26.3001 N   0  0  0  0  0  0  0  0  0  0  0  0
    6.5164   27.4400   24.2936 N   0  0  0  0  0  0  0  0  0  0  0  0
    6.5086   28.1770   23.0813 C   0  0  0  0  0  0  0  0  0  0  0  0
    7.7149   28.8246   22.6426 C   0  0  0  0  0  0  0  0  0  0  0  0
    8.8851   28.6870   23.4791 C   0  0  0  0  0  0  0  0  0  0  0  0
   10.0238   29.3150   23.0575 O   0  0  0  0  0  0  0  0  0  0  0  0
    7.4417   29.5027   21.3964 C   0  0  0  0  0  0  0  0  0  0  0  0
    6.1015   29.2225   21.1253 C   0  0  0  0  0  0  0  0  0  0  0  0
    5.5557   28.4459   22.1312 N   0  0  0  0  0  0  0  0  0  0  0  0
    8.4129   30.2986   20.5465 C   0  0  0  0  0  0  0  0  0  0  0  0
    9.7624   29.7383   20.5325 N   0  0  0  0  0  0  0  0  0  0  0  0
  1  2  1  0  0  0  0
  1  7  1  0  0  0  0
  2  3  1  0  0  0  0
  2  4  2  0  0  0  0
  4  5  1  0  0  0  0
  5  6  2  0  0  0  0
  5 11  1  0  0  0  0
  6  7  1  0  0  0  0
  6  9  1  0  0  0  0
  7  8  2  0  0  0  0
  9 10  2  0  0  0  0
  9 12  1  0  0  0  0
 10 11  1  0  0  0  0
 12 13  1  0  0  0  0
M  END
>  <CHROM.1>
36.30763749,7.82421674,28.58529595,22.96050114,-1.73361595,-0.20927916,-1.06998243

>  <Name>
ligand

>  <RI>
-1

>  <Rbt.Current_Directory>
/home/itssahil/PROJECTS/Mol_Feturizer/Test_systems_manuscript/rnas/4jf2

>  <Rbt.Executable>
rbdock ($Id: //depot/dev/client3/rdock/2013.1/src/exe/rbdock.cxx#4 $)

>  <Rbt.Library>
libRbt.so (2013.1, Build901 2013/11/27)

>  <Rbt.Parameter_File>
/export/apps/rDock/src/rDock_2013.1_src/data/scripts/dock_solv.prm

>  <Rbt.Receptor>
prm/blind_docking_40.prm

>  <SCORE>
0.256294

>  <SCORE.INTER>
-2.27

>  <SCORE.INTER.CONST>
1

>  <SCORE.INTER.POLAR>
0

>  <SCORE.INTER.ROT>
1

>  <SCORE.INTER.SOLV>
16.5251

>  <SCORE.INTER.VDW>
-11.2884

>  <SCORE.INTER.norm>
-0.174615

>  <SCORE.INTRA>
0.864953

>  <SCORE.INTRA.DIHEDRAL>
0.0266819

>  <SCORE.INTRA.DIHEDRAL.0>
1.75624

>  <SCORE.INTRA.POLAR>
0

>  <SCORE.INTRA.POLAR.0>
0

>  <SCORE.INTRA.REPUL>
0

>  <SCORE.INTRA.REPUL.0>
0

>  <SCORE.INTRA.SOLV>
1.00796

>  <SCORE.INTRA.SOLV.lig_0>
-46.5296

>  <SCORE.INTRA.VDW>
0.347635

>  <SCORE.INTRA.VDW.0>
-0.381873

>  <SCORE.INTRA.norm>
0.0665349

>  <SCORE.RESTR>
1.66134

>  <SCORE.RESTR.CAVITY>
1.66134

>  <SCORE.RESTR.norm>
0.127795

>  <SCORE.SYSTEM>
0

>  <SCORE.SYSTEM.CONST>
0

>  <SCORE.SYSTEM.DIHEDRAL>
0

>  <SCORE.SYSTEM.SOLV>
0

>  <SCORE.SYSTEM.norm>
0

>  <SCORE.heavy>
13

>  <SCORE.norm>
0.0197149

>  <RMSD>
33.740

$$$$
ligand
 OpenBabel02271912143D
libRbt.so/2013.1/901 2013/11/27
 13 14  0  0  0  0  0  0  0  0999 V2000
    9.6824   30.3593   22.2112 N   0  0  0  0  0  0  0  0  0  0  0  0
   10.4577   30.0121   23.3295 C   0  0  0  0  0  0  0  0  0  0  0  0
   11.7769   30.5805   23.4842 N   0  0  0  0  0  0  0  0  0  0  0  0
    9.9604   29.1455   24.2761 N   0  0  0  0  0  0  0  0  0  0  0  0
    8.6695   28.5689   24.1569 C   0  0  0  0  0  0  0  0  0  0  0  0
    7.8589   28.8864   23.0128 C   0  0  0  0  0  0  0  0  0  0  0  0
    8.4153   29.7932   22.0350 C   0  0  0  0  0  0  0  0  0  0  0  0
    7.6321   30.0959   20.9562 O   0  0  0  0  0  0  0  0  0  0  0  0
    6.6040   28.1806   23.1324 C   0  0  0  0  0  0  0  0  0  0  0  0
    6.7149   27.4566   24.3207 C   0  0  0  0  0  0  0  0  0  0  0  0
    7.9356   27.6995   24.9239 N   0  0  0  0  0  0  0  0  0  0  0  0
    5.4451   28.1860   22.1548 C   0  0  0  0  0  0  0  0  0  0  0  0
    5.7442   27.5000   20.8997 N   0  0  0  0  0  0  0  0  0  0  0  0
  1  2  1  0  0  0  0
  1  7  1  0  0  0  0
  2  3  1  0  0  0  0
  2  4  2  0  0  0  0
  4  5  1  0  0  0  0
  5  6  2  0  0  0  0
  5 11  1  0  0  0  0
  6  7  1  0  0  0  0
  6  9  1  0  0  0  0
  7  8  2  0  0  0  0
  9 10  2  0  0  0  0
  9 12  1  0  0  0  0
 10 11  1  0  0  0  0
 12 13  1  0  0  0  0
M  END
>  <CHROM.1>
69.05502720,8.22284115,28.98180967,22.94451713,0.00039705,-0.48837859,-1.06783706

>  <Name>
ligand

>  <RI>
-1

>  <Rbt.Current_Directory>
/home/itssahil/PROJECTS/Mol_Feturizer/Test_systems_manuscript/rnas/4jf2

>  <Rbt.Executable>
rbdock ($Id: //depot/dev/client3/rdock/2013.1/src/exe/rbdock.cxx#4 $)

>  <Rbt.Library>
libRbt.so (2013.1, Build901 2013/11/27)

>  <Rbt.Parameter_File>
/export/apps/rDock/src/rDock_2013.1_src/data/scripts/dock_solv.prm

>  <Rbt.Receptor>
prm/blind_docking_40.prm

>  <SCORE>
-1.1168

>  <SCORE.INTER>
-2.47148

>  <SCORE.INTER.CONST>
1

>  <SCORE.INTER.POLAR>
0

>  <SCORE.INTER.ROT>
1

>  <SCORE.INTER.SOLV>
16.3617

>  <SCORE.INTER.VDW>
-11.3682

>  <SCORE.INTER.norm>
-0.190113

>  <SCORE.INTRA>
-0.00496956

>  <SCORE.INTRA.DIHEDRAL>
-0.133671

>  <SCORE.INTRA.DIHEDRAL.0>
1.75624

>  <SCORE.INTRA.POLAR>
0

>  <SCORE.INTRA.POLAR.0>
0

>  <SCORE.INTRA.REPUL>
0

>  <SCORE.INTRA.REPUL.0>
0

>  <SCORE.INTRA.SOLV>
0.155296

>  <SCORE.INTRA.SOLV.lig_0>
-46.5296

>  <SCORE.INTRA.VDW>
-0.0157819

>  <SCORE.INTRA.VDW.0>
-0.381873

>  <SCORE.INTRA.norm>
-0.000382274

>  <SCORE.RESTR>
1.35964

>  <SCORE.RESTR.CAVITY>
1.35964

>  <SCORE.RESTR.norm>
0.104588

>  <SCORE.SYSTEM>
0

>  <SCORE.SYSTEM.CONST>
0

>  <SCORE.SYSTEM.DIHEDRAL>
0

>  <SCORE.SYSTEM.SOLV>
0

>  <SCORE.SYSTEM.norm>
0

>  <SCORE.heavy>
13

>  <SCORE.norm>
-0.0859078

>  <RMSD>
33.740

$$$$
ligand
 OpenBabel02271912143D
libRbt.so/2013.1/901 2013/11/27
 13 14  0  0  0  0  0  0  0  0999 V2000
    8.8125   27.9483   24.6814 N   0  0  0  0  0  0  0  0  0  0  0  0
    7.6180   27.3152   25.0613 C   0  0  0  0  0  0  0  0  0  0  0  0
    7.5768   26.5514   26.2869 N   0  0  0  0  0  0  0  0  0  0  0  0
    6.4923   27.4305   24.2777 N   0  0  0  0  0  0  0  0  0  0  0  0
    6.4962   28.1727   23.0685 C   0  0  0  0  0  0  0  0  0  0  0  0
    7.7089   28.8147   22.6397 C   0  0  0  0  0  0  0  0  0  0  0  0
    8.8733   28.6665   23.4824 C   0  0  0  0  0  0  0  0  0  0  0  0
   10.0183   29.2893   23.0702 O   0  0  0  0  0  0  0  0  0  0  0  0
    7.4473   29.4999   21.3949 C   0  0  0  0  0  0  0  0  0  0  0  0
    6.1070   29.2290   21.1147 C   0  0  0  0  0  0  0  0  0  0  0  0
    5.5505   28.4514   22.1141 N   0  0  0  0  0  0  0  0  0  0  0  0
    8.4283   30.2933   20.5542 C   0  0  0  0  0  0  0  0  0  0  0  0
    9.7781   29.7338   20.5584 N   0  0  0  0  0  0  0  0  0  0  0  0
  1  2  1  0  0  0  0
  1  7  1  0  0  0  0
  2  3  1  0  0  0  0
  2  4  2  0  0  0  0
  4  5  1  0  0  0  0
  5  6  2  0  0  0  0
  5 11  1  0  0  0  0
  6  7  1  0  0  0  0
  6  9  1  0  0  0  0
  7  8  2  0  0  0  0
  9 10  2  0  0  0  0
  9 12  1  0  0  0  0
 10 11  1  0  0  0  0
 12 13  1  0  0  0  0
M  END
>  <CHROM.1>
35.62258742,7.81524839,28.57416948,22.95828751,-1.74226490,-0.20750095,-1.06667692

>  <Name>
ligand

>  <RI>
-1

>  <Rbt.Current_Directory>
/home/itssahil/PROJECTS/Mol_Feturizer/Test_systems_manuscript/rnas/4jf2

>  <Rbt.Executable>
rbdock ($Id: //depot/dev/client3/rdock/2013.1/src/exe/rbdock.cxx#4 $)

>  <Rbt.Library>
libRbt.so (2013.1, Build901 2013/11/27)

>  <Rbt.Parameter_File>
/export/apps/rDock/src/rDock_2013.1_src/data/scripts/dock_solv.prm

>  <Rbt.Receptor>
prm/blind_docking_40.prm

>  <SCORE>
0.406824

>  <SCORE.INTER>
-2.11553

>  <SCORE.INTER.CONST>
1

>  <SCORE.INTER.POLAR>
0

>  <SCORE.INTER.ROT>
1

>  <SCORE.INTER.SOLV>
16.6509

>  <SCORE.INTER.VDW>
-11.2273

>  <SCORE.INTER.norm>
-0.162733

>  <SCORE.INTRA>
0.9051

>  <SCORE.INTRA.DIHEDRAL>
0.0281621

>  <SCORE.INTRA.DIHEDRAL.0>
1.75624

>  <SCORE.INTRA.POLAR>
0

>  <SCORE.INTRA.POLAR.0>
0

>  <SCORE.INTRA.REPUL>
0

>  <SCORE.INTRA.REPUL.0>
0

>  <SCORE.INTRA.SOLV>
1.02258

>  <SCORE.INTRA.SOLV.lig_0>
-46.5296

>  <SCORE.INTRA.VDW>
0.379731

>  <SCORE.INTRA.VDW.0>
-0.381873

>  <SCORE.INTRA.norm>
0.0696231

>  <SCORE.RESTR>
1.61725

>  <SCORE.RESTR.CAVITY>
1.61725

>  <SCORE.RESTR.norm>
0.124404

>  <SCORE.SYSTEM>
0

>  <SCORE.SYSTEM.CONST>
0

>  <SCORE.SYSTEM.DIHEDRAL>
0

>  <SCORE.SYSTEM.SOLV>
0

>  <SCORE.SYSTEM.norm>
0

>  <SCORE.heavy>
13

>  <SCORE.norm>
0.0312942

>  <RMSD>
33.741

$$$$
ligand
 OpenBabel02271912143D
libRbt.so/2013.1/901 2013/11/27
 13 14  0  0  0  0  0  0  0  0999 V2000
    9.6741   30.3465   22.1953 N   0  0  0  0  0  0  0  0  0  0  0  0
   10.4509   29.9968   23.3117 C   0  0  0  0  0  0  0  0  0  0  0  0
   11.7738   30.5580   23.4614 N   0  0  0  0  0  0  0  0  0  0  0  0
    9.9516   29.1347   24.2614 N   0  0  0  0  0  0  0  0  0  0  0  0
    8.6572   28.5652   24.1473 C   0  0  0  0  0  0  0  0  0  0  0  0
    7.8448   28.8853   23.0051 C   0  0  0  0  0  0  0  0  0  0  0  0
    8.4033   29.7873   22.0240 C   0  0  0  0  0  0  0  0  0  0  0  0
    7.6185   30.0926   20.9472 O   0  0  0  0  0  0  0  0  0  0  0  0
    6.5862   28.1868   23.1299 C   0  0  0  0  0  0  0  0  0  0  0  0
    6.6968   27.4644   24.3190 C   0  0  0  0  0  0  0  0  0  0  0  0
    7.9207   27.7013   24.9181 N   0  0  0  0  0  0  0  0  0  0  0  0
    5.4244   28.1972   22.1558 C   0  0  0  0  0  0  0  0  0  0  0  0
    5.7086   27.4897   20.9093 N   0  0  0  0  0  0  0  0  0  0  0  0
  1  2  1  0  0  0  0
  1  7  1  0  0  0  0
  2  3  1  0  0  0  0
  2  4  2  0  0  0  0
  4  5  1  0  0  0  0
  5  6  2  0  0  0  0
  5 11  1  0  0  0  0
  6  7  1  0  0  0  0
  6  9  1  0  0  0  0
  7  8  2  0  0  0  0
  9 10  2  0  0  0  0
  9 12  1  0  0  0  0
 10 11  1  0  0  0  0
 12 13  1  0  0  0  0
M  END
>  <CHROM.1>
69.94345554,8.20848615,28.97712115,22.93620529,0.00182145,-0.48254306,-1.06924453

>  <Name>
ligand

>  <RI>
-1

>  <Rbt.Current_Directory>
/home/itssahil/PROJECTS/Mol_Feturizer/Test_systems_manuscript/rnas/4jf2

>  <Rbt.Executable>
rbdock ($Id: //depot/dev/client3/rdock/2013.1/src/exe/rbdock.cxx#4 $)

>  <Rbt.Library>
libRbt.so (2013.1, Build901 2013/11/27)

>  <Rbt.Parameter_File>
/export/apps/rDock/src/rDock_2013.1_src/data/scripts/dock_solv.prm

>  <Rbt.Receptor>
prm/blind_docking_40.prm

>  <SCORE>
-1.00635

>  <SCORE.INTER>
-2.32798

>  <SCORE.INTER.CONST>
1

>  <SCORE.INTER.POLAR>
0

>  <SCORE.INTER.ROT>
1

>  <SCORE.INTER.SOLV>
16.4684

>  <SCORE.INTER.VDW>
-11.3081

>  <SCORE.INTER.norm>
-0.179075

>  <SCORE.INTRA>
-0.0177384

>  <SCORE.INTRA.DIHEDRAL>
-0.138058

>  <SCORE.INTRA.DIHEDRAL.0>
1.75624

>  <SCORE.INTRA.POLAR>
0

>  <SCORE.INTRA.POLAR.0>
0

>  <SCORE.INTRA.REPUL>
0

>  <SCORE.INTRA.REPUL.0>
0

>  <SCORE.INTRA.SOLV>
0.129834

>  <SCORE.INTRA.SOLV.lig_0>
-46.5296

>  <SCORE.INTRA.VDW>
-0.0136262

>  <SCORE.INTRA.VDW.0>
-0.381873

>  <SCORE.INTRA.norm>
-0.00136449

>  <SCORE.RESTR>
1.33936

>  <SCORE.RESTR.CAVITY>
1.33936

>  <SCORE.RESTR.norm>
0.103028

>  <SCORE.SYSTEM>
0

>  <SCORE.SYSTEM.CONST>
0

>  <SCORE.SYSTEM.DIHEDRAL>
0

>  <SCORE.SYSTEM.SOLV>
0

>  <SCORE.SYSTEM.norm>
0

>  <SCORE.heavy>
13

>  <SCORE.norm>
-0.0774116

>  <RMSD>
33.742

$$$$
ligand
 OpenBabel02271912143D
libRbt.so/2013.1/901 2013/11/27
 13 14  0  0  0  0  0  0  0  0999 V2000
    9.6875   30.3571   22.2087 N   0  0  0  0  0  0  0  0  0  0  0  0
   10.4635   30.0086   23.3261 C   0  0  0  0  0  0  0  0  0  0  0  0
   11.7834   30.5757   23.4798 N   0  0  0  0  0  0  0  0  0  0  0  0
    9.9663   29.1420   24.2727 N   0  0  0  0  0  0  0  0  0  0  0  0
    8.6748   28.5667   24.1545 C   0  0  0  0  0  0  0  0  0  0  0  0
    7.8634   28.8855   23.0113 C   0  0  0  0  0  0  0  0  0  0  0  0
    8.4198   29.7923   22.0334 C   0  0  0  0  0  0  0  0  0  0  0  0
    7.6359   30.0963   20.9555 O   0  0  0  0  0  0  0  0  0  0  0  0
    6.6079   28.1808   23.1317 C   0  0  0  0  0  0  0  0  0  0  0  0
    6.7193   27.4562   24.3194 C   0  0  0  0  0  0  0  0  0  0  0  0
    7.9407   27.6976   24.9217 N   0  0  0  0  0  0  0  0  0  0  0  0
    5.4482   28.1879   22.1551 C   0  0  0  0  0  0  0  0  0  0  0  0
    5.7441   27.4988   20.9010 N   0  0  0  0  0  0  0  0  0  0  0  0
  1  2  1  0  0  0  0
  1  7  1  0  0  0  0
  2  3  1  0  0  0  0
  2  4  2  0  0  0  0
  4  5  1  0  0  0  0
  5  6  2  0  0  0  0
  5 11  1  0  0  0  0
  6  7  1  0  0  0  0
  6  9  1  0  0  0  0
  7  8  2  0  0  0  0
  9 10  2  0  0  0  0
  9 12  1  0  0  0  0
 10 11  1  0  0  0  0
 12 13  1  0  0  0  0
M  END
>  <CHROM.1>
69.22852379,8.22725078,28.98036329,22.94279751,0.00107394,-0.48722602,-1.06709460

>  <Name>
ligand

>  <RI>
-1

>  <Rbt.Current_Directory>
/home/itssahil/PROJECTS/Mol_Feturizer/Test_systems_manuscript/rnas/4jf2

>  <Rbt.Executable>
rbdock ($Id: //depot/dev/client3/rdock/2013.1/src/exe/rbdock.cxx#4 $)

>  <Rbt.Library>
libRbt.so (2013.1, Build901 2013/11/27)

>  <Rbt.Parameter_File>
/export/apps/rDock/src/rDock_2013.1_src/data/scripts/dock_solv.prm

>  <Rbt.Receptor>
prm/blind_docking_40.prm

>  <SCORE>
-1.13325

>  <SCORE.INTER>
-2.49037

>  <SCORE.INTER.CONST>
1

>  <SCORE.INTER.POLAR>
0

>  <SCORE.INTER.ROT>
1

>  <SCORE.INTER.SOLV>
16.3605

>  <SCORE.INTER.VDW>
-11.3804

>  <SCORE.INTER.norm>
-0.191567

>  <SCORE.INTRA>
-0.00747481

>  <SCORE.INTRA.DIHEDRAL>
-0.134538

>  <SCORE.INTRA.DIHEDRAL.0>
1.75624

>  <SCORE.INTRA.POLAR>
0

>  <SCORE.INTRA.POLAR.0>
0

>  <SCORE.INTRA.REPUL>
0

>  <SCORE.INTRA.REPUL.0>
0

>  <SCORE.INTRA.SOLV>
0.150326

>  <SCORE.INTRA.SOLV.lig_0>
-46.5296

>  <SCORE.INTRA.VDW>
-0.0153689

>  <SCORE.INTRA.VDW.0>
-0.381873

>  <SCORE.INTRA.norm>
-0.000574985

>  <SCORE.RESTR>
1.36459

>  <SCORE.RESTR.CAVITY>
1.36459

>  <SCORE.RESTR.norm>
0.104968

>  <SCORE.SYSTEM>
0

>  <SCORE.SYSTEM.CONST>
0

>  <SCORE.SYSTEM.DIHEDRAL>
0

>  <SCORE.SYSTEM.SOLV>
0

>  <SCORE.SYSTEM.norm>
0

>  <SCORE.heavy>
13

>  <SCORE.norm>
-0.0871734

>  <RMSD>
33.743

$$$$
ligand
 OpenBabel02271912143D
libRbt.so/2013.1/901 2013/11/27
 13 14  0  0  0  0  0  0  0  0999 V2000
    9.6866   30.3522   22.2017 N   0  0  0  0  0  0  0  0  0  0  0  0
   10.4637   30.0031   23.3182 C   0  0  0  0  0  0  0  0  0  0  0  0
   11.7848   30.5680   23.4695 N   0  0  0  0  0  0  0  0  0  0  0  0
    9.9663   29.1383   24.2663 N   0  0  0  0  0  0  0  0  0  0  0  0
    8.6736   28.5652   24.1504 C   0  0  0  0  0  0  0  0  0  0  0  0
    7.8611   28.8845   23.0082 C   0  0  0  0  0  0  0  0  0  0  0  0
    8.4177   29.7895   22.0287 C   0  0  0  0  0  0  0  0  0  0  0  0
    7.6327   30.0940   20.9518 O   0  0  0  0  0  0  0  0  0  0  0  0
    6.6045   28.1822   23.1310 C   0  0  0  0  0  0  0  0  0  0  0  0
    6.7163   27.4583   24.3192 C   0  0  0  0  0  0  0  0  0  0  0  0
    7.9391   27.6980   24.9195 N   0  0  0  0  0  0  0  0  0  0  0  0
    5.4434   28.1905   22.1562 C   0  0  0  0  0  0  0  0  0  0  0  0
    5.7346   27.4958   20.9040 N   0  0  0  0  0  0  0  0  0  0  0  0
  1  2  1  0  0  0  0
  1  7  1  0  0  0  0
  2  3  1  0  0  0  0
  2  4  2  0  0  0  0
  4  5  1  0  0  0  0
  5  6  2  0  0  0  0
  5 11  1  0  0  0  0
  6  7  1  0  0  0  0
  6  9  1  0  0  0  0
  7  8  2  0  0  0  0
  9 10  2  0  0  0  0
  9 12  1  0  0  0  0
 10 11  1  0  0  0  0
 12 13  1  0  0  0  0
M  END
>  <CHROM.1>
69.42672687,8.22488670,28.97829568,22.93925902,0.00188431,-0.48508294,-1.06761011

>  <Name>
ligand

>  <RI>
-1

>  <Rbt.Current_Directory>
/home/itssahil/PROJECTS/Mol_Feturizer/Test_systems_manuscript/rnas/4jf2

>  <Rbt.Executable>
rbdock ($Id: //depot/dev/client3/rdock/2013.1/src/exe/rbdock.cxx#4 $)

>  <Rbt.Library>
libRbt.so (2013.1, Build901 2013/11/27)

>  <Rbt.Parameter_File>
/export/apps/rDock/src/rDock_2013.1_src/data/scripts/dock_solv.prm

>  <Rbt.Receptor>
prm/blind_docking_40.prm

>  <SCORE>
-1.11737

>  <SCORE.INTER>
-2.46821

>  <SCORE.INTER.CONST>
1

>  <SCORE.INTER.POLAR>
0

>  <SCORE.INTER.ROT>
1

>  <SCORE.INTER.SOLV>
16.3854

>  <SCORE.INTER.VDW>
-11.3739

>  <SCORE.INTER.norm>
-0.189862

>  <SCORE.INTRA>
-0.0103298

>  <SCORE.INTRA.DIHEDRAL>
-0.135523

>  <SCORE.INTRA.DIHEDRAL.0>
1.75624

>  <SCORE.INTRA.POLAR>
0

>  <SCORE.INTRA.POLAR.0>
0

>  <SCORE.INTRA.REPUL>
0

>  <SCORE.INTRA.REPUL.0>
0

>  <SCORE.INTRA.SOLV>
0.144647

>  <SCORE.INTRA.SOLV.lig_0>
-46.5296

>  <SCORE.INTRA.VDW>
-0.0148923

>  <SCORE.INTRA.VDW.0>
-0.381873

>  <SCORE.INTRA.norm>
-0.0007946

>  <SCORE.RESTR>
1.36117

>  <SCORE.RESTR.CAVITY>
1.36117

>  <SCORE.RESTR.norm>
0.104705

>  <SCORE.SYSTEM>
0

>  <SCORE.SYSTEM.CONST>
0

>  <SCORE.SYSTEM.DIHEDRAL>
0

>  <SCORE.SYSTEM.SOLV>
0

>  <SCORE.SYSTEM.norm>
0

>  <SCORE.heavy>
13

>  <SCORE.norm>
-0.0859515

>  <RMSD>
33.746

$$$$
ligand
 OpenBabel02271912143D
libRbt.so/2013.1/901 2013/11/27
 13 14  0  0  0  0  0  0  0  0999 V2000
    5.8406   28.2828   21.6035 N   0  0  0  0  0  0  0  0  0  0  0  0
    6.5084   28.9807   20.5841 C   0  0  0  0  0  0  0  0  0  0  0  0
    5.9539   28.9931   19.2500 N   0  0  0  0  0  0  0  0  0  0  0  0
    7.6759   29.6567   20.8563 N   0  0  0  0  0  0  0  0  0  0  0  0
    8.2486   29.6666   22.1544 C   0  0  0  0  0  0  0  0  0  0  0  0
    7.6018   28.9436   23.2154 C   0  0  0  0  0  0  0  0  0  0  0  0
    6.3823   28.2390   22.8924 C   0  0  0  0  0  0  0  0  0  0  0  0
    5.7704   27.5631   23.9111 O   0  0  0  0  0  0  0  0  0  0  0  0
    8.3761   29.1154   24.4231 C   0  0  0  0  0  0  0  0  0  0  0  0
    9.4589   29.9092   24.0414 C   0  0  0  0  0  0  0  0  0  0  0  0
    9.3703   30.2376   22.7008 N   0  0  0  0  0  0  0  0  0  0  0  0
    8.0990   28.5199   25.7896 C   0  0  0  0  0  0  0  0  0  0  0  0
    7.8440   27.0816   25.7527 N   0  0  0  0  0  0  0  0  0  0  0  0
  1  2  1  0  0  0  0
  1  7  1  0  0  0  0
  2  3  1  0  0  0  0
  2  4  2  0  0  0  0
  4  5  1  0  0  0  0
  5  6  2  0  0  0  0
  5 11  1  0  0  0  0
  6  7  1  0  0  0  0
  6  9  1  0  0  0  0
  7  8  2  0  0  0  0
  9 10  2  0  0  0  0
  9 12  1  0  0  0  0
 10 11  1  0  0  0  0
 12 13  1  0  0  0  0
M  END
>  <CHROM.1>
49.56717622,7.43168655,28.82605194,22.87032818,1.97772694,-0.58914554,-1.19652339

>  <Name>
ligand

>  <RI>
-1

>  <Rbt.Current_Directory>
/home/itssahil/PROJECTS/Mol_Feturizer/Test_systems_manuscript/rnas/4jf2

>  <Rbt.Executable>
rbdock ($Id: //depot/dev/client3/rdock/2013.1/src/exe/rbdock.cxx#4 $)

>  <Rbt.Library>
libRbt.so (2013.1, Build901 2013/11/27)

>  <Rbt.Parameter_File>
/export/apps/rDock/src/rDock_2013.1_src/data/scripts/dock_solv.prm

>  <Rbt.Receptor>
prm/blind_docking_40.prm

>  <SCORE>
-0.937087

>  <SCORE.INTER>
-3.47598

>  <SCORE.INTER.CONST>
1

>  <SCORE.INTER.POLAR>
0

>  <SCORE.INTER.ROT>
1

>  <SCORE.INTER.SOLV>
10.4325

>  <SCORE.INTER.VDW>
-10.0615

>  <SCORE.INTER.norm>
-0.267383

>  <SCORE.INTRA>
0.350862

>  <SCORE.INTRA.DIHEDRAL>
-0.0247319

>  <SCORE.INTRA.DIHEDRAL.0>
1.75624

>  <SCORE.INTRA.POLAR>
0

>  <SCORE.INTRA.POLAR.0>
0

>  <SCORE.INTRA.REPUL>
0

>  <SCORE.INTRA.REPUL.0>
0

>  <SCORE.INTRA.SOLV>
0.692211

>  <SCORE.INTRA.SOLV.lig_0>
-46.5296

>  <SCORE.INTRA.VDW>
0.0171227

>  <SCORE.INTRA.VDW.0>
-0.381873

>  <SCORE.INTRA.norm>
0.0269894

>  <SCORE.RESTR>
2.18803

>  <SCORE.RESTR.CAVITY>
2.18803

>  <SCORE.RESTR.norm>
0.16831

>  <SCORE.SYSTEM>
0

>  <SCORE.SYSTEM.CONST>
0

>  <SCORE.SYSTEM.DIHEDRAL>
0

>  <SCORE.SYSTEM.SOLV>
0

>  <SCORE.SYSTEM.norm>
0

>  <SCORE.heavy>
13

>  <SCORE.norm>
-0.0720836

>  <RMSD>
33.796

$$$$
ligand
 OpenBabel02271912143D
libRbt.so/2013.1/901 2013/11/27
 13 14  0  0  0  0  0  0  0  0999 V2000
    7.1440   28.5861   21.0881 N   0  0  0  0  0  0  0  0  0  0  0  0
    6.1511   27.8597   21.7654 C   0  0  0  0  0  0  0  0  0  0  0  0
    5.0583   27.2816   21.0177 N   0  0  0  0  0  0  0  0  0  0  0  0
    6.2244   27.6906   23.1294 N   0  0  0  0  0  0  0  0  0  0  0  0
    7.2830   28.2434   23.8953 C   0  0  0  0  0  0  0  0  0  0  0  0
    8.3037   29.0113   23.2354 C   0  0  0  0  0  0  0  0  0  0  0  0
    8.1913   29.1753   21.8042 C   0  0  0  0  0  0  0  0  0  0  0  0
    9.1725   29.8987   21.1857 O   0  0  0  0  0  0  0  0  0  0  0  0
    9.2559   29.4535   24.2281 C   0  0  0  0  0  0  0  0  0  0  0  0
    8.7652   28.9578   25.4371 C   0  0  0  0  0  0  0  0  0  0  0  0
    7.6037   28.2362   25.2294 N   0  0  0  0  0  0  0  0  0  0  0  0
   10.4869   30.3109   24.0087 C   0  0  0  0  0  0  0  0  0  0  0  0
   11.2010   29.9924   22.7743 N   0  0  0  0  0  0  0  0  0  0  0  0
  1  2  1  0  0  0  0
  1  7  1  0  0  0  0
  2  3  1  0  0  0  0
  2  4  2  0  0  0  0
  4  5  1  0  0  0  0
  5  6  2  0  0  0  0
  5 11  1  0  0  0  0
  6  7  1  0  0  0  0
  6  9  1  0  0  0  0
  7  8  2  0  0  0  0
  9 10  2  0  0  0  0
  9 12  1  0  0  0  0
 10 11  1  0  0  0  0
 12 13  1  0  0  0  0
M  END
>  <CHROM.1>
-39.03651881,8.08288009,28.83824928,22.93531138,-2.79194917,0.50618397,1.69427594

>  <Name>
ligand

>  <RI>
-1

>  <Rbt.Current_Directory>
/home/itssahil/PROJECTS/Mol_Feturizer/Test_systems_manuscript/rnas/4jf2

>  <Rbt.Executable>
rbdock ($Id: //depot/dev/client3/rdock/2013.1/src/exe/rbdock.cxx#4 $)

>  <Rbt.Library>
libRbt.so (2013.1, Build901 2013/11/27)

>  <Rbt.Parameter_File>
/export/apps/rDock/src/rDock_2013.1_src/data/scripts/dock_solv.prm

>  <Rbt.Receptor>
prm/blind_docking_40.prm

>  <SCORE>
4.70389

>  <SCORE.INTER>
2.72144

>  <SCORE.INTER.CONST>
1

>  <SCORE.INTER.POLAR>
0

>  <SCORE.INTER.ROT>
1

>  <SCORE.INTER.SOLV>
17.9209

>  <SCORE.INTER.VDW>
-8.42601

>  <SCORE.INTER.norm>
0.209341

>  <SCORE.INTRA>
0.73425

>  <SCORE.INTRA.DIHEDRAL>
-0.178731

>  <SCORE.INTRA.DIHEDRAL.0>
1.75624

>  <SCORE.INTRA.POLAR>
0

>  <SCORE.INTRA.POLAR.0>
0

>  <SCORE.INTRA.REPUL>
0

>  <SCORE.INTRA.REPUL.0>
0

>  <SCORE.INTRA.SOLV>
0.978716

>  <SCORE.INTRA.SOLV.lig_0>
-46.5296

>  <SCORE.INTRA.VDW>
0.334257

>  <SCORE.INTRA.VDW.0>
-0.381873

>  <SCORE.INTRA.norm>
0.0564807

>  <SCORE.RESTR>
1.2482

>  <SCORE.RESTR.CAVITY>
1.2482

>  <SCORE.RESTR.norm>
0.0960153

>  <SCORE.SYSTEM>
0

>  <SCORE.SYSTEM.CONST>
0

>  <SCORE.SYSTEM.DIHEDRAL>
0

>  <SCORE.SYSTEM.SOLV>
0

>  <SCORE.SYSTEM.norm>
0

>  <SCORE.heavy>
13

>  <SCORE.norm>
0.361837

>  <RMSD>
33.935

$$$$
ligand
 OpenBabel02271912143D
libRbt.so/2013.1/901 2013/11/27
 13 14  0  0  0  0  0  0  0  0999 V2000
    8.2497   26.8887   24.4942 N   0  0  0  0  0  0  0  0  0  0  0  0
    6.8516   27.0166   24.5294 C   0  0  0  0  0  0  0  0  0  0  0  0
    6.0982   26.3088   25.5388 N   0  0  0  0  0  0  0  0  0  0  0  0
    6.2053   27.8184   23.6164 N   0  0  0  0  0  0  0  0  0  0  0  0
    6.9129   28.5282   22.6121 C   0  0  0  0  0  0  0  0  0  0  0  0
    8.3428   28.4015   22.5347 C   0  0  0  0  0  0  0  0  0  0  0  0
    8.9877   27.5456   23.5040 C   0  0  0  0  0  0  0  0  0  0  0  0
   10.3486   27.4402   23.4274 O   0  0  0  0  0  0  0  0  0  0  0  0
    8.8150   29.2186   21.4406 C   0  0  0  0  0  0  0  0  0  0  0  0
    7.6611   29.7828   20.8944 C   0  0  0  0  0  0  0  0  0  0  0  0
    6.5425   29.3762   21.5989 N   0  0  0  0  0  0  0  0  0  0  0  0
   10.2439   29.3832   20.9614 C   0  0  0  0  0  0  0  0  0  0  0  0
   11.2096   29.5005   22.0517 N   0  0  0  0  0  0  0  0  0  0  0  0
  1  2  1  0  0  0  0
  1  7  1  0  0  0  0
  2  3  1  0  0  0  0
  2  4  2  0  0  0  0
  4  5  1  0  0  0  0
  5  6  2  0  0  0  0
  5 11  1  0  0  0  0
  6  7  1  0  0  0  0
  6  9  1  0  0  0  0
  7  8  2  0  0  0  0
  9 10  2  0  0  0  0
  9 12  1  0  0  0  0
 10 11  1  0  0  0  0
 12 13  1  0  0  0  0
M  END
>  <CHROM.1>
-41.63391420,8.23332176,28.22591613,22.88737428,-2.25304394,0.02897227,-0.89572780

>  <Name>
ligand

>  <RI>
-1

>  <Rbt.Current_Directory>
/home/itssahil/PROJECTS/Mol_Feturizer/Test_systems_manuscript/rnas/4jf2

>  <Rbt.Executable>
rbdock ($Id: //depot/dev/client3/rdock/2013.1/src/exe/rbdock.cxx#4 $)

>  <Rbt.Library>
libRbt.so (2013.1, Build901 2013/11/27)

>  <Rbt.Parameter_File>
/export/apps/rDock/src/rDock_2013.1_src/data/scripts/dock_solv.prm

>  <Rbt.Receptor>
prm/blind_docking_40.prm

>  <SCORE>
5.08466

>  <SCORE.INTER>
3.20494

>  <SCORE.INTER.CONST>
1

>  <SCORE.INTER.POLAR>
0

>  <SCORE.INTER.ROT>
1

>  <SCORE.INTER.SOLV>
22.4281

>  <SCORE.INTER.VDW>
-9.60608

>  <SCORE.INTER.norm>
0.246534

>  <SCORE.INTRA>
0.606587

>  <SCORE.INTRA.DIHEDRAL>
-0.1718

>  <SCORE.INTRA.DIHEDRAL.0>
1.75624

>  <SCORE.INTRA.POLAR>
0

>  <SCORE.INTRA.POLAR.0>
0

>  <SCORE.INTRA.REPUL>
0

>  <SCORE.INTRA.REPUL.0>
0

>  <SCORE.INTRA.SOLV>
0.919973

>  <SCORE.INTRA.SOLV.lig_0>
-46.5296

>  <SCORE.INTRA.VDW>
0.2325

>  <SCORE.INTRA.VDW.0>
-0.381873

>  <SCORE.INTRA.norm>
0.0466605

>  <SCORE.RESTR>
1.27313

>  <SCORE.RESTR.CAVITY>
1.27313

>  <SCORE.RESTR.norm>
0.097933

>  <SCORE.SYSTEM>
0

>  <SCORE.SYSTEM.CONST>
0

>  <SCORE.SYSTEM.DIHEDRAL>
0

>  <SCORE.SYSTEM.SOLV>
0

>  <SCORE.SYSTEM.norm>
0

>  <SCORE.heavy>
13

>  <SCORE.norm>
0.391128

>  <RMSD>
34.075

$$$$
ligand
 OpenBabel02271912143D
libRbt.so/2013.1/901 2013/11/27
 13 14  0  0  0  0  0  0  0  0999 V2000
   10.9767   27.9186   22.6680 N   0  0  0  0  0  0  0  0  0  0  0  0
   10.8310   28.9825   21.7630 C   0  0  0  0  0  0  0  0  0  0  0  0
   11.9932   29.4934   21.0733 N   0  0  0  0  0  0  0  0  0  0  0  0
    9.5892   29.5270   21.5270 N   0  0  0  0  0  0  0  0  0  0  0  0
    8.4265   29.0504   22.1858 C   0  0  0  0  0  0  0  0  0  0  0  0
    8.5445   27.9770   23.1348 C   0  0  0  0  0  0  0  0  0  0  0  0
    9.8640   27.4343   23.3639 C   0  0  0  0  0  0  0  0  0  0  0  0
    9.9632   26.4074   24.2608 O   0  0  0  0  0  0  0  0  0  0  0  0
    7.2296   27.6809   23.6551 C   0  0  0  0  0  0  0  0  0  0  0  0
    6.3830   28.5922   23.0216 C   0  0  0  0  0  0  0  0  0  0  0  0
    7.0979   29.3915   22.1481 N   0  0  0  0  0  0  0  0  0  0  0  0
    6.8616   26.6439   24.6981 C   0  0  0  0  0  0  0  0  0  0  0  0
    7.5914   26.8028   25.9540 N   0  0  0  0  0  0  0  0  0  0  0  0
  1  2  1  0  0  0  0
  1  7  1  0  0  0  0
  2  3  1  0  0  0  0
  2  4  2  0  0  0  0
  4  5  1  0  0  0  0
  5  6  2  0  0  0  0
  5 11  1  0  0  0  0
  6  7  1  0  0  0  0
  6  9  1  0  0  0  0
  7  8  2  0  0  0  0
  9 10  2  0  0  0  0
  9 12  1  0  0  0  0
 10 11  1  0  0  0  0
 12 13  1  0  0  0  0
M  END
>  <CHROM.1>
55.92750672,8.90834396,28.11626071,23.06184312,-0.74707112,-0.15964162,2.31205880

>  <Name>
ligand

>  <RI>
-1

>  <Rbt.Current_Directory>
/home/itssahil/PROJECTS/Mol_Feturizer/Test_systems_manuscript/rnas/4jf2

>  <Rbt.Executable>
rbdock ($Id: //depot/dev/client3/rdock/2013.1/src/exe/rbdock.cxx#4 $)

>  <Rbt.Library>
libRbt.so (2013.1, Build901 2013/11/27)

>  <Rbt.Parameter_File>
/export/apps/rDock/src/rDock_2013.1_src/data/scripts/dock_solv.prm

>  <Rbt.Receptor>
prm/blind_docking_40.prm

>  <SCORE>
0.325169

>  <SCORE.INTER>
-1.28845

>  <SCORE.INTER.CONST>
1

>  <SCORE.INTER.POLAR>
0

>  <SCORE.INTER.ROT>
1

>  <SCORE.INTER.SOLV>
14.1209

>  <SCORE.INTER.VDW>
-9.8326

>  <SCORE.INTER.norm>
-0.0991117

>  <SCORE.INTRA>
0.210142

>  <SCORE.INTRA.DIHEDRAL>
-0.0599229

>  <SCORE.INTRA.DIHEDRAL.0>
1.75624

>  <SCORE.INTRA.POLAR>
0

>  <SCORE.INTRA.POLAR.0>
0

>  <SCORE.INTRA.REPUL>
0

>  <SCORE.INTRA.REPUL.0>
0

>  <SCORE.INTRA.SOLV>
0.523512

>  <SCORE.INTRA.SOLV.lig_0>
-46.5296

>  <SCORE.INTRA.VDW>
-0.0216529

>  <SCORE.INTRA.VDW.0>
-0.381873

>  <SCORE.INTRA.norm>
0.0161647

>  <SCORE.RESTR>
1.40348

>  <SCORE.RESTR.CAVITY>
1.40348

>  <SCORE.RESTR.norm>
0.10796

>  <SCORE.SYSTEM>
0

>  <SCORE.SYSTEM.CONST>
0

>  <SCORE.SYSTEM.DIHEDRAL>
0

>  <SCORE.SYSTEM.SOLV>
0

>  <SCORE.SYSTEM.norm>
0

>  <SCORE.heavy>
13

>  <SCORE.norm>
0.025013

>  <RMSD>
34.078

$$$$
ligand
 OpenBabel02271912143D
libRbt.so/2013.1/901 2013/11/27
 13 14  0  0  0  0  0  0  0  0999 V2000
   10.9747   27.9253   22.6649 N   0  0  0  0  0  0  0  0  0  0  0  0
   10.8265   28.9882   21.7591 C   0  0  0  0  0  0  0  0  0  0  0  0
   11.9872   29.4999   21.0675 N   0  0  0  0  0  0  0  0  0  0  0  0
    9.5837   29.5308   21.5240 N   0  0  0  0  0  0  0  0  0  0  0  0
    8.4225   29.0533   22.1846 C   0  0  0  0  0  0  0  0  0  0  0  0
    8.5430   27.9810   23.1345 C   0  0  0  0  0  0  0  0  0  0  0  0
    9.8635   27.4403   23.3626 C   0  0  0  0  0  0  0  0  0  0  0  0
    9.9650   26.4144   24.2603 O   0  0  0  0  0  0  0  0  0  0  0  0
    7.2290   27.6837   23.6566 C   0  0  0  0  0  0  0  0  0  0  0  0
    6.3805   28.5932   23.0232 C   0  0  0  0  0  0  0  0  0  0  0  0
    7.0934   29.3926   22.1482 N   0  0  0  0  0  0  0  0  0  0  0  0
    6.8636   26.6472   24.7010 C   0  0  0  0  0  0  0  0  0  0  0  0
    7.5995   26.8042   25.9536 N   0  0  0  0  0  0  0  0  0  0  0  0
  1  2  1  0  0  0  0
  1  7  1  0  0  0  0
  2  3  1  0  0  0  0
  2  4  2  0  0  0  0
  4  5  1  0  0  0  0
  5  6  2  0  0  0  0
  5 11  1  0  0  0  0
  6  7  1  0  0  0  0
  6  9  1  0  0  0  0
  7  8  2  0  0  0  0
  9 10  2  0  0  0  0
  9 12  1  0  0  0  0
 10 11  1  0  0  0  0
 12 13  1  0  0  0  0
M  END
>  <CHROM.1>
55.64085061,8.90692810,28.12033570,23.06080950,-0.74913751,-0.15929313,2.31104707

>  <Name>
ligand

>  <RI>
-1

>  <Rbt.Current_Directory>
/home/itssahil/PROJECTS/Mol_Feturizer/Test_systems_manuscript/rnas/4jf2

>  <Rbt.Executable>
rbdock ($Id: //depot/dev/client3/rdock/2013.1/src/exe/rbdock.cxx#4 $)

>  <Rbt.Library>
libRbt.so (2013.1, Build901 2013/11/27)

>  <Rbt.Parameter_File>
/export/apps/rDock/src/rDock_2013.1_src/data/scripts/dock_solv.prm

>  <Rbt.Receptor>
prm/blind_docking_40.prm

>  <SCORE>
0.313068

>  <SCORE.INTER>
-1.30979

>  <SCORE.INTER.CONST>
1

>  <SCORE.INTER.POLAR>
0

>  <SCORE.INTER.ROT>
1

>  <SCORE.INTER.SOLV>
14.1055

>  <SCORE.INTER.VDW>
-9.84169

>  <SCORE.INTER.norm>
-0.100753

>  <SCORE.INTRA>
0.215721

>  <SCORE.INTRA.DIHEDRAL>
-0.0582679

>  <SCORE.INTRA.DIHEDRAL.0>
1.75624

>  <SCORE.INTRA.POLAR>
0

>  <SCORE.INTRA.POLAR.0>
0

>  <SCORE.INTRA.REPUL>
0

>  <SCORE.INTRA.REPUL.0>
0

>  <SCORE.INTRA.SOLV>
0.531292

>  <SCORE.INTRA.SOLV.lig_0>
-46.5296

>  <SCORE.INTRA.VDW>
-0.0207911

>  <SCORE.INTRA.VDW.0>
-0.381873

>  <SCORE.INTRA.norm>
0.0165939

>  <SCORE.RESTR>
1.40713

>  <SCORE.RESTR.CAVITY>
1.40713

>  <SCORE.RESTR.norm>
0.108241

>  <SCORE.SYSTEM>
0

>  <SCORE.SYSTEM.CONST>
0

>  <SCORE.SYSTEM.DIHEDRAL>
0

>  <SCORE.SYSTEM.SOLV>
0

>  <SCORE.SYSTEM.norm>
0

>  <SCORE.heavy>
13

>  <SCORE.norm>
0.0240822

>  <RMSD>
34.078

$$$$
ligand
 OpenBabel02271912143D
libRbt.so/2013.1/901 2013/11/27
 13 14  0  0  0  0  0  0  0  0999 V2000
   10.9788   27.9232   22.6635 N   0  0  0  0  0  0  0  0  0  0  0  0
   10.8310   28.9844   21.7557 C   0  0  0  0  0  0  0  0  0  0  0  0
   11.9919   29.4946   21.0633 N   0  0  0  0  0  0  0  0  0  0  0  0
    9.5884   29.5270   21.5194 N   0  0  0  0  0  0  0  0  0  0  0  0
    8.4269   29.0510   22.1807 C   0  0  0  0  0  0  0  0  0  0  0  0
    8.5470   27.9804   23.1326 C   0  0  0  0  0  0  0  0  0  0  0  0
    9.8673   27.4398   23.3619 C   0  0  0  0  0  0  0  0  0  0  0  0
    9.9684   26.4155   24.2616 O   0  0  0  0  0  0  0  0  0  0  0  0
    7.2328   27.6844   23.6551 C   0  0  0  0  0  0  0  0  0  0  0  0
    6.3847   28.5930   23.0199 C   0  0  0  0  0  0  0  0  0  0  0  0
    7.0979   29.3906   22.1435 N   0  0  0  0  0  0  0  0  0  0  0  0
    6.8670   26.6499   24.7014 C   0  0  0  0  0  0  0  0  0  0  0  0
    7.5721   26.8342   25.9680 N   0  0  0  0  0  0  0  0  0  0  0  0
  1  2  1  0  0  0  0
  1  7  1  0  0  0  0
  2  3  1  0  0  0  0
  2  4  2  0  0  0  0
  4  5  1  0  0  0  0
  5  6  2  0  0  0  0
  5 11  1  0  0  0  0
  6  7  1  0  0  0  0
  6  9  1  0  0  0  0
  7  8  2  0  0  0  0
  9 10  2  0  0  0  0
  9 12  1  0  0  0  0
 10 11  1  0  0  0  0
 12 13  1  0  0  0  0
M  END
>  <CHROM.1>
57.43964160,8.90846534,28.12153780,23.05989816,-0.74690065,-0.16046973,2.30781488

>  <Name>
ligand

>  <RI>
-1

>  <Rbt.Current_Directory>
/home/itssahil/PROJECTS/Mol_Feturizer/Test_systems_manuscript/rnas/4jf2

>  <Rbt.Executable>
rbdock ($Id: //depot/dev/client3/rdock/2013.1/src/exe/rbdock.cxx#4 $)

>  <Rbt.Library>
libRbt.so (2013.1, Build901 2013/11/27)

>  <Rbt.Parameter_File>
/export/apps/rDock/src/rDock_2013.1_src/data/scripts/dock_solv.prm

>  <Rbt.Receptor>
prm/blind_docking_40.prm

>  <SCORE>
0.2635

>  <SCORE.INTER>
-1.33405

>  <SCORE.INTER.CONST>
1

>  <SCORE.INTER.POLAR>
0

>  <SCORE.INTER.ROT>
1

>  <SCORE.INTER.SOLV>
14.1511

>  <SCORE.INTER.VDW>
-9.87306

>  <SCORE.INTER.norm>
-0.102619

>  <SCORE.INTRA>
0.181603

>  <SCORE.INTRA.DIHEDRAL>
-0.0687051

>  <SCORE.INTRA.DIHEDRAL.0>
1.75624

>  <SCORE.INTRA.POLAR>
0

>  <SCORE.INTRA.POLAR.0>
0

>  <SCORE.INTRA.REPUL>
0

>  <SCORE.INTRA.REPUL.0>
0

>  <SCORE.INTRA.SOLV>
0.48223

>  <SCORE.INTRA.SOLV.lig_0>
-46.5296

>  <SCORE.INTRA.VDW>
-0.0251592

>  <SCORE.INTRA.VDW.0>
-0.381873

>  <SCORE.INTRA.norm>
0.0139695

>  <SCORE.RESTR>
1.41594

>  <SCORE.RESTR.CAVITY>
1.41594

>  <SCORE.RESTR.norm>
0.108919

>  <SCORE.SYSTEM>
0

>  <SCORE.SYSTEM.CONST>
0

>  <SCORE.SYSTEM.DIHEDRAL>
0

>  <SCORE.SYSTEM.SOLV>
0

>  <SCORE.SYSTEM.norm>
0

>  <SCORE.heavy>
13

>  <SCORE.norm>
0.0202693

>  <RMSD>
34.080

$$$$
ligand
 OpenBabel02271912143D
libRbt.so/2013.1/901 2013/11/27
 13 14  0  0  0  0  0  0  0  0999 V2000
   10.9805   27.9249   22.6698 N   0  0  0  0  0  0  0  0  0  0  0  0
   10.8324   28.9869   21.7629 C   0  0  0  0  0  0  0  0  0  0  0  0
   11.9937   29.5001   21.0734 N   0  0  0  0  0  0  0  0  0  0  0  0
    9.5892   29.5273   21.5248 N   0  0  0  0  0  0  0  0  0  0  0  0
    8.4274   29.0483   22.1833 C   0  0  0  0  0  0  0  0  0  0  0  0
    8.5477   27.9768   23.1342 C   0  0  0  0  0  0  0  0  0  0  0  0
    9.8686   27.4384   23.3654 C   0  0  0  0  0  0  0  0  0  0  0  0
    9.9700   26.4133   24.2641 O   0  0  0  0  0  0  0  0  0  0  0  0
    7.2331   27.6777   23.6538 C   0  0  0  0  0  0  0  0  0  0  0  0
    6.3845   28.5853   23.0180 C   0  0  0  0  0  0  0  0  0  0  0  0
    7.0978   29.3853   22.1440 N   0  0  0  0  0  0  0  0  0  0  0  0
    6.8673   26.6412   24.6982 C   0  0  0  0  0  0  0  0  0  0  0  0
    7.5948   26.8049   25.9548 N   0  0  0  0  0  0  0  0  0  0  0  0
  1  2  1  0  0  0  0
  1  7  1  0  0  0  0
  2  3  1  0  0  0  0
  2  4  2  0  0  0  0
  4  5  1  0  0  0  0
  5  6  2  0  0  0  0
  5 11  1  0  0  0  0
  6  7  1  0  0  0  0
  6  9  1  0  0  0  0
  7  8  2  0  0  0  0
  9 10  2  0  0  0  0
  9 12  1  0  0  0  0
 10 11  1  0  0  0  0
 12 13  1  0  0  0  0
M  END
>  <CHROM.1>
55.96971929,8.91111233,28.11706739,23.06141892,-0.74838040,-0.15684981,2.31017658

>  <Name>
ligand

>  <RI>
-1

>  <Rbt.Current_Directory>
/home/itssahil/PROJECTS/Mol_Feturizer/Test_systems_manuscript/rnas/4jf2

>  <Rbt.Executable>
rbdock ($Id: //depot/dev/client3/rdock/2013.1/src/exe/rbdock.cxx#4 $)

>  <Rbt.Library>
libRbt.so (2013.1, Build901 2013/11/27)

>  <Rbt.Parameter_File>
/export/apps/rDock/src/rDock_2013.1_src/data/scripts/dock_solv.prm

>  <Rbt.Receptor>
prm/blind_docking_40.prm

>  <SCORE>
0.319146

>  <SCORE.INTER>
-1.29406

>  <SCORE.INTER.CONST>
1

>  <SCORE.INTER.POLAR>
0

>  <SCORE.INTER.ROT>
1

>  <SCORE.INTER.SOLV>
14.1434

>  <SCORE.INTER.VDW>
-9.84385

>  <SCORE.INTER.norm>
-0.0995434

>  <SCORE.INTRA>
0.209325

>  <SCORE.INTRA.DIHEDRAL>
-0.0601669

>  <SCORE.INTRA.DIHEDRAL.0>
1.75624

>  <SCORE.INTRA.POLAR>
0

>  <SCORE.INTRA.POLAR.0>
0

>  <SCORE.INTRA.REPUL>
0

>  <SCORE.INTRA.REPUL.0>
0

>  <SCORE.INTRA.SOLV>
0.522365

>  <SCORE.INTRA.SOLV.lig_0>
-46.5296

>  <SCORE.INTRA.VDW>
-0.0217742

>  <SCORE.INTRA.VDW.0>
-0.381873

>  <SCORE.INTRA.norm>
0.0161019

>  <SCORE.RESTR>
1.40389

>  <SCORE.RESTR.CAVITY>
1.40389

>  <SCORE.RESTR.norm>
0.107991

>  <SCORE.SYSTEM>
0

>  <SCORE.SYSTEM.CONST>
0

>  <SCORE.SYSTEM.DIHEDRAL>
0

>  <SCORE.SYSTEM.SOLV>
0

>  <SCORE.SYSTEM.norm>
0

>  <SCORE.heavy>
13

>  <SCORE.norm>
0.0245497

>  <RMSD>
34.080

$$$$
ligand
 OpenBabel02271912143D
libRbt.so/2013.1/901 2013/11/27
 13 14  0  0  0  0  0  0  0  0999 V2000
   10.9779   27.9255   22.6655 N   0  0  0  0  0  0  0  0  0  0  0  0
   10.8289   28.9870   21.7581 C   0  0  0  0  0  0  0  0  0  0  0  0
   11.9893   29.4989   21.0662 N   0  0  0  0  0  0  0  0  0  0  0  0
    9.5856   29.5280   21.5217 N   0  0  0  0  0  0  0  0  0  0  0  0
    8.4246   29.0502   22.1825 C   0  0  0  0  0  0  0  0  0  0  0  0
    8.5459   27.9793   23.1340 C   0  0  0  0  0  0  0  0  0  0  0  0
    9.8669   27.4403   23.3634 C   0  0  0  0  0  0  0  0  0  0  0  0
    9.9692   26.4158   24.2627 O   0  0  0  0  0  0  0  0  0  0  0  0
    7.2321   27.6814   23.6561 C   0  0  0  0  0  0  0  0  0  0  0  0
    6.3829   28.5891   23.0211 C   0  0  0  0  0  0  0  0  0  0  0  0
    7.0952   29.3880   22.1452 N   0  0  0  0  0  0  0  0  0  0  0  0
    6.8674   26.6460   24.7019 C   0  0  0  0  0  0  0  0  0  0  0  0
    7.6048   26.8038   25.9535 N   0  0  0  0  0  0  0  0  0  0  0  0
  1  2  1  0  0  0  0
  1  7  1  0  0  0  0
  2  3  1  0  0  0  0
  2  4  2  0  0  0  0
  4  5  1  0  0  0  0
  5  6  2  0  0  0  0
  5 11  1  0  0  0  0
  6  7  1  0  0  0  0
  6  9  1  0  0  0  0
  7  8  2  0  0  0  0
  9 10  2  0  0  0  0
  9 12  1  0  0  0  0
 10 11  1  0  0  0  0
 12 13  1  0  0  0  0
M  END
>  <CHROM.1>
55.51344012,8.90991545,28.11880243,23.06021590,-0.74972180,-0.15818609,2.30964416

>  <Name>
ligand

>  <RI>
-1

>  <Rbt.Current_Directory>
/home/itssahil/PROJECTS/Mol_Feturizer/Test_systems_manuscript/rnas/4jf2

>  <Rbt.Executable>
rbdock ($Id: //depot/dev/client3/rdock/2013.1/src/exe/rbdock.cxx#4 $)

>  <Rbt.Library>
libRbt.so (2013.1, Build901 2013/11/27)

>  <Rbt.Parameter_File>
/export/apps/rDock/src/rDock_2013.1_src/data/scripts/dock_solv.prm

>  <Rbt.Receptor>
prm/blind_docking_40.prm

>  <SCORE>
0.296011

>  <SCORE.INTER>
-1.3325

>  <SCORE.INTER.CONST>
1

>  <SCORE.INTER.POLAR>
0

>  <SCORE.INTER.ROT>
1

>  <SCORE.INTER.SOLV>
14.0959

>  <SCORE.INTER.VDW>
-9.85363

>  <SCORE.INTER.norm>
-0.1025

>  <SCORE.INTRA>
0.21822

>  <SCORE.INTRA.DIHEDRAL>
-0.0575335

>  <SCORE.INTRA.DIHEDRAL.0>
1.75624

>  <SCORE.INTRA.POLAR>
0

>  <SCORE.INTRA.POLAR.0>
0

>  <SCORE.INTRA.REPUL>
0

>  <SCORE.INTRA.REPUL.0>
0

>  <SCORE.INTRA.SOLV>
0.534746

>  <SCORE.INTRA.SOLV.lig_0>
-46.5296

>  <SCORE.INTRA.VDW>
-0.0203865

>  <SCORE.INTRA.VDW.0>
-0.381873

>  <SCORE.INTRA.norm>
0.0167861

>  <SCORE.RESTR>
1.41029

>  <SCORE.RESTR.CAVITY>
1.41029

>  <SCORE.RESTR.norm>
0.108484

>  <SCORE.SYSTEM>
0

>  <SCORE.SYSTEM.CONST>
0

>  <SCORE.SYSTEM.DIHEDRAL>
0

>  <SCORE.SYSTEM.SOLV>
0

>  <SCORE.SYSTEM.norm>
0

>  <SCORE.heavy>
13

>  <SCORE.norm>
0.0227701

>  <RMSD>
34.080

$$$$
ligand
 OpenBabel02271912143D
libRbt.so/2013.1/901 2013/11/27
 13 14  0  0  0  0  0  0  0  0999 V2000
   10.9784   27.9218   22.6588 N   0  0  0  0  0  0  0  0  0  0  0  0
   10.8307   28.9845   21.7527 C   0  0  0  0  0  0  0  0  0  0  0  0
   11.9916   29.4948   21.0602 N   0  0  0  0  0  0  0  0  0  0  0  0
    9.5884   29.5283   21.5181 N   0  0  0  0  0  0  0  0  0  0  0  0
    8.4270   29.0523   22.1796 C   0  0  0  0  0  0  0  0  0  0  0  0
    8.5470   27.9801   23.1298 C   0  0  0  0  0  0  0  0  0  0  0  0
    9.8671   27.4382   23.3573 C   0  0  0  0  0  0  0  0  0  0  0  0
    9.9681   26.4125   24.2554 O   0  0  0  0  0  0  0  0  0  0  0  0
    7.2330   27.6844   23.6528 C   0  0  0  0  0  0  0  0  0  0  0  0
    6.3851   28.5945   23.0196 C   0  0  0  0  0  0  0  0  0  0  0  0
    7.0983   29.3929   22.1438 N   0  0  0  0  0  0  0  0  0  0  0  0
    6.8672   26.6486   24.6978 C   0  0  0  0  0  0  0  0  0  0  0  0
    7.5707   26.8326   25.9653 N   0  0  0  0  0  0  0  0  0  0  0  0
  1  2  1  0  0  0  0
  1  7  1  0  0  0  0
  2  3  1  0  0  0  0
  2  4  2  0  0  0  0
  4  5  1  0  0  0  0
  5  6  2  0  0  0  0
  5 11  1  0  0  0  0
  6  7  1  0  0  0  0
  6  9  1  0  0  0  0
  7  8  2  0  0  0  0
  9 10  2  0  0  0  0
  9 12  1  0  0  0  0
 10 11  1  0  0  0  0
 12 13  1  0  0  0  0
M  END
>  <CHROM.1>
57.59222217,8.90832028,28.12129972,23.05710586,-0.74676212,-0.16162804,2.30919910

>  <Name>
ligand

>  <RI>
-1

>  <Rbt.Current_Directory>
/home/itssahil/PROJECTS/Mol_Feturizer/Test_systems_manuscript/rnas/4jf2

>  <Rbt.Executable>
rbdock ($Id: //depot/dev/client3/rdock/2013.1/src/exe/rbdock.cxx#4 $)

>  <Rbt.Library>
libRbt.so (2013.1, Build901 2013/11/27)

>  <Rbt.Parameter_File>
/export/apps/rDock/src/rDock_2013.1_src/data/scripts/dock_solv.prm

>  <Rbt.Receptor>
prm/blind_docking_40.prm

>  <SCORE>
0.244661

>  <SCORE.INTER>
-1.35472

>  <SCORE.INTER.CONST>
1

>  <SCORE.INTER.POLAR>
0

>  <SCORE.INTER.ROT>
1

>  <SCORE.INTER.SOLV>
14.1335

>  <SCORE.INTER.VDW>
-9.88098

>  <SCORE.INTER.norm>
-0.104209

>  <SCORE.INTRA>
0.178801

>  <SCORE.INTRA.DIHEDRAL>
-0.0695948

>  <SCORE.INTRA.DIHEDRAL.0>
1.75624

>  <SCORE.INTRA.POLAR>
0

>  <SCORE.INTRA.POLAR.0>
0

>  <SCORE.INTRA.REPUL>
0

>  <SCORE.INTRA.REPUL.0>
0

>  <SCORE.INTRA.SOLV>
0.478043

>  <SCORE.INTRA.SOLV.lig_0>
-46.5296

>  <SCORE.INTRA.VDW>
-0.0254227

>  <SCORE.INTRA.VDW.0>
-0.381873

>  <SCORE.INTRA.norm>
0.0137539

>  <SCORE.RESTR>
1.42058

>  <SCORE.RESTR.CAVITY>
1.42058

>  <SCORE.RESTR.norm>
0.109275

>  <SCORE.SYSTEM>
0

>  <SCORE.SYSTEM.CONST>
0

>  <SCORE.SYSTEM.DIHEDRAL>
0

>  <SCORE.SYSTEM.SOLV>
0

>  <SCORE.SYSTEM.norm>
0

>  <SCORE.heavy>
13

>  <SCORE.norm>
0.01882

>  <RMSD>
34.082

$$$$
ligand
 OpenBabel02271912143D
libRbt.so/2013.1/901 2013/11/27
 13 14  0  0  0  0  0  0  0  0999 V2000
   10.9809   27.9282   22.6559 N   0  0  0  0  0  0  0  0  0  0  0  0
   10.8311   28.9882   21.7469 C   0  0  0  0  0  0  0  0  0  0  0  0
   11.9907   29.4982   21.0522 N   0  0  0  0  0  0  0  0  0  0  0  0
    9.5878   29.5295   21.5116 N   0  0  0  0  0  0  0  0  0  0  0  0
    8.4276   29.0536   22.1752 C   0  0  0  0  0  0  0  0  0  0  0  0
    8.5497   27.9843   23.1284 C   0  0  0  0  0  0  0  0  0  0  0  0
    9.8708   27.4449   23.3565 C   0  0  0  0  0  0  0  0  0  0  0  0
    9.9739   26.4219   24.2573 O   0  0  0  0  0  0  0  0  0  0  0  0
    7.2366   27.6881   23.6531 C   0  0  0  0  0  0  0  0  0  0  0  0
    6.3869   28.5952   23.0179 C   0  0  0  0  0  0  0  0  0  0  0  0
    7.0983   29.3922   22.1394 N   0  0  0  0  0  0  0  0  0  0  0  0
    6.8730   26.6548   24.7012 C   0  0  0  0  0  0  0  0  0  0  0  0
    7.5821   26.8393   25.9655 N   0  0  0  0  0  0  0  0  0  0  0  0
  1  2  1  0  0  0  0
  1  7  1  0  0  0  0
  2  3  1  0  0  0  0
  2  4  2  0  0  0  0
  4  5  1  0  0  0  0
  5  6  2  0  0  0  0
  5 11  1  0  0  0  0
  6  7  1  0  0  0  0
  6  9  1  0  0  0  0
  7  8  2  0  0  0  0
  9 10  2  0  0  0  0
  9 12  1  0  0  0  0
 10 11  1  0  0  0  0
 12 13  1  0  0  0  0
M  END
>  <CHROM.1>
57.30164199,8.91123671,28.12547518,23.05483278,-0.74859327,-0.16081671,2.30636762

>  <Name>
ligand

>  <RI>
-1

>  <Rbt.Current_Directory>
/home/itssahil/PROJECTS/Mol_Feturizer/Test_systems_manuscript/rnas/4jf2

>  <Rbt.Executable>
rbdock ($Id: //depot/dev/client3/rdock/2013.1/src/exe/rbdock.cxx#4 $)

>  <Rbt.Library>
libRbt.so (2013.1, Build901 2013/11/27)

>  <Rbt.Parameter_File>
/export/apps/rDock/src/rDock_2013.1_src/data/scripts/dock_solv.prm

>  <Rbt.Receptor>
prm/blind_docking_40.prm

>  <SCORE>
0.20039

>  <SCORE.INTER>
-1.41442

>  <SCORE.INTER.CONST>
1

>  <SCORE.INTER.POLAR>
0

>  <SCORE.INTER.ROT>
1

>  <SCORE.INTER.SOLV>
14.1014

>  <SCORE.INTER.VDW>
-9.91008

>  <SCORE.INTER.norm>
-0.108801

>  <SCORE.INTRA>
0.184149

>  <SCORE.INTRA.DIHEDRAL>
-0.0679009

>  <SCORE.INTRA.DIHEDRAL.0>
1.75624

>  <SCORE.INTRA.POLAR>
0

>  <SCORE.INTRA.POLAR.0>
0

>  <SCORE.INTRA.REPUL>
0

>  <SCORE.INTRA.REPUL.0>
0

>  <SCORE.INTRA.SOLV>
0.486013

>  <SCORE.INTRA.SOLV.lig_0>
-46.5296

>  <SCORE.INTRA.VDW>
-0.0249074

>  <SCORE.INTRA.VDW.0>
-0.381873

>  <SCORE.INTRA.norm>
0.0141653

>  <SCORE.RESTR>
1.43066

>  <SCORE.RESTR.CAVITY>
1.43066

>  <SCORE.RESTR.norm>
0.11005

>  <SCORE.SYSTEM>
0

>  <SCORE.SYSTEM.CONST>
0

>  <SCORE.SYSTEM.DIHEDRAL>
0

>  <SCORE.SYSTEM.SOLV>
0

>  <SCORE.SYSTEM.norm>
0

>  <SCORE.heavy>
13

>  <SCORE.norm>
0.0154146

>  <RMSD>
34.085

$$$$
ligand
 OpenBabel02271912143D
libRbt.so/2013.1/901 2013/11/27
 13 14  0  0  0  0  0  0  0  0999 V2000
   10.9820   27.9263   22.6362 N   0  0  0  0  0  0  0  0  0  0  0  0
   10.8281   28.9846   21.7260 C   0  0  0  0  0  0  0  0  0  0  0  0
   11.9848   29.4941   21.0260 N   0  0  0  0  0  0  0  0  0  0  0  0
    9.5836   29.5248   21.4944 N   0  0  0  0  0  0  0  0  0  0  0  0
    8.4262   29.0494   22.1632 C   0  0  0  0  0  0  0  0  0  0  0  0
    8.5525   27.9818   23.1178 C   0  0  0  0  0  0  0  0  0  0  0  0
    9.8747   27.4436   23.3418 C   0  0  0  0  0  0  0  0  0  0  0  0
    9.9819   26.4222   24.2441 O   0  0  0  0  0  0  0  0  0  0  0  0
    7.2415   27.6858   23.6479 C   0  0  0  0  0  0  0  0  0  0  0  0
    6.3889   28.5913   23.0144 C   0  0  0  0  0  0  0  0  0  0  0  0
    7.0966   29.3871   22.1318 N   0  0  0  0  0  0  0  0  0  0  0  0
    6.8825   26.6541   24.6993 C   0  0  0  0  0  0  0  0  0  0  0  0
    7.5942   26.8428   25.9614 N   0  0  0  0  0  0  0  0  0  0  0  0
  1  2  1  0  0  0  0
  1  7  1  0  0  0  0
  2  3  1  0  0  0  0
  2  4  2  0  0  0  0
  4  5  1  0  0  0  0
  5  6  2  0  0  0  0
  5 11  1  0  0  0  0
  6  7  1  0  0  0  0
  6  9  1  0  0  0  0
  7  8  2  0  0  0  0
  9 10  2  0  0  0  0
  9 12  1  0  0  0  0
 10 11  1  0  0  0  0
 12 13  1  0  0  0  0
M  END
>  <CHROM.1>
57.41631276,8.91352155,28.12320491,23.04270187,-0.75168698,-0.16297927,2.30400558

>  <Name>
ligand

>  <RI>
-1

>  <Rbt.Current_Directory>
/home/itssahil/PROJECTS/Mol_Feturizer/Test_systems_manuscript/rnas/4jf2

>  <Rbt.Executable>
rbdock ($Id: //depot/dev/client3/rdock/2013.1/src/exe/rbdock.cxx#4 $)

>  <Rbt.Library>
libRbt.so (2013.1, Build901 2013/11/27)

>  <Rbt.Parameter_File>
/export/apps/rDock/src/rDock_2013.1_src/data/scripts/dock_solv.prm

>  <Rbt.Receptor>
prm/blind_docking_40.prm

>  <SCORE>
0.0674399

>  <SCORE.INTER>
-1.57823

>  <SCORE.INTER.CONST>
1

>  <SCORE.INTER.POLAR>
0

>  <SCORE.INTER.ROT>
1

>  <SCORE.INTER.SOLV>
13.9736

>  <SCORE.INTER.VDW>
-9.9767

>  <SCORE.INTER.norm>
-0.121402

>  <SCORE.INTRA>
0.182033

>  <SCORE.INTRA.DIHEDRAL>
-0.0685691

>  <SCORE.INTRA.DIHEDRAL.0>
1.75624

>  <SCORE.INTRA.POLAR>
0

>  <SCORE.INTRA.POLAR.0>
0

>  <SCORE.INTRA.REPUL>
0

>  <SCORE.INTRA.REPUL.0>
0

>  <SCORE.INTRA.SOLV>
0.482869

>  <SCORE.INTRA.SOLV.lig_0>
-46.5296

>  <SCORE.INTRA.VDW>
-0.0251175

>  <SCORE.INTRA.VDW.0>
-0.381873

>  <SCORE.INTRA.norm>
0.0140025

>  <SCORE.RESTR>
1.46364

>  <SCORE.RESTR.CAVITY>
1.46364

>  <SCORE.RESTR.norm>
0.112587

>  <SCORE.SYSTEM>
0

>  <SCORE.SYSTEM.CONST>
0

>  <SCORE.SYSTEM.DIHEDRAL>
0

>  <SCORE.SYSTEM.SOLV>
0

>  <SCORE.SYSTEM.norm>
0

>  <SCORE.heavy>
13

>  <SCORE.norm>
0.00518769

>  <RMSD>
34.098

$$$$
ligand
 OpenBabel02271912143D
libRbt.so/2013.1/901 2013/11/27
 13 14  0  0  0  0  0  0  0  0999 V2000
    8.2261   27.0647   24.6149 N   0  0  0  0  0  0  0  0  0  0  0  0
    6.8506   27.2602   24.4103 C   0  0  0  0  0  0  0  0  0  0  0  0
    5.9017   26.5870   25.2670 N   0  0  0  0  0  0  0  0  0  0  0  0
    6.4102   28.0950   23.4086 N   0  0  0  0  0  0  0  0  0  0  0  0
    7.3131   28.7724   22.5492 C   0  0  0  0  0  0  0  0  0  0  0  0
    8.7274   28.5767   22.7177 C   0  0  0  0  0  0  0  0  0  0  0  0
    9.1542   27.6877   23.7739 C   0  0  0  0  0  0  0  0  0  0  0  0
   10.5013   27.5167   23.9316 O   0  0  0  0  0  0  0  0  0  0  0  0
    9.4194   29.3730   21.7305 C   0  0  0  0  0  0  0  0  0  0  0  0
    8.4050   29.9941   21.0000 C   0  0  0  0  0  0  0  0  0  0  0  0
    7.1637   29.6403   21.4969 N   0  0  0  0  0  0  0  0  0  0  0  0
   10.9157   29.4693   21.5062 C   0  0  0  0  0  0  0  0  0  0  0  0
   11.5841   28.1700   21.4984 N   0  0  0  0  0  0  0  0  0  0  0  0
  1  2  1  0  0  0  0
  1  7  1  0  0  0  0
  2  3  1  0  0  0  0
  2  4  2  0  0  0  0
  4  5  1  0  0  0  0
  5  6  2  0  0  0  0
  5 11  1  0  0  0  0
  6  7  1  0  0  0  0
  6  9  1  0  0  0  0
  7  8  2  0  0  0  0
  9 10  2  0  0  0  0
  9 12  1  0  0  0  0
 10 11  1  0  0  0  0
 12 13  1  0  0  0  0
M  END
>  <CHROM.1>
45.76792666,8.54245059,28.29444226,22.94262447,-2.40985132,0.11352569,-0.88145344

>  <Name>
ligand

>  <RI>
-1

>  <Rbt.Current_Directory>
/home/itssahil/PROJECTS/Mol_Feturizer/Test_systems_manuscript/rnas/4jf2

>  <Rbt.Executable>
rbdock ($Id: //depot/dev/client3/rdock/2013.1/src/exe/rbdock.cxx#4 $)

>  <Rbt.Library>
libRbt.so (2013.1, Build901 2013/11/27)

>  <Rbt.Parameter_File>
/export/apps/rDock/src/rDock_2013.1_src/data/scripts/dock_solv.prm

>  <Rbt.Receptor>
prm/blind_docking_40.prm

>  <SCORE>
5.0888

>  <SCORE.INTER>
3.44411

>  <SCORE.INTER.CONST>
1

>  <SCORE.INTER.POLAR>
0

>  <SCORE.INTER.ROT>
1

>  <SCORE.INTER.SOLV>
22.1844

>  <SCORE.INTER.VDW>
-9.3654

>  <SCORE.INTER.norm>
0.264932

>  <SCORE.INTRA>
0.474464

>  <SCORE.INTRA.DIHEDRAL>
-0.00618513

>  <SCORE.INTRA.DIHEDRAL.0>
1.75624

>  <SCORE.INTRA.POLAR>
0

>  <SCORE.INTRA.POLAR.0>
0

>  <SCORE.INTRA.REPUL>
0

>  <SCORE.INTRA.REPUL.0>
0

>  <SCORE.INTRA.SOLV>
0.788341

>  <SCORE.INTRA.SOLV.lig_0>
-46.5296

>  <SCORE.INTRA.VDW>
0.083386

>  <SCORE.INTRA.VDW.0>
-0.381873

>  <SCORE.INTRA.norm>
0.0364972

>  <SCORE.RESTR>
1.17023

>  <SCORE.RESTR.CAVITY>
1.17023

>  <SCORE.RESTR.norm>
0.0900175

>  <SCORE.SYSTEM>
0

>  <SCORE.SYSTEM.CONST>
0

>  <SCORE.SYSTEM.DIHEDRAL>
0

>  <SCORE.SYSTEM.SOLV>
0

>  <SCORE.SYSTEM.norm>
0

>  <SCORE.heavy>
13

>  <SCORE.norm>
0.391446

>  <RMSD>
34.161

$$$$
ligand
 OpenBabel02271912143D
libRbt.so/2013.1/901 2013/11/27
 13 14  0  0  0  0  0  0  0  0999 V2000
   14.4206   30.1747   23.2356 N   0  0  0  0  0  0  0  0  0  0  0  0
   15.3561   29.4463   22.4830 C   0  0  0  0  0  0  0  0  0  0  0  0
   14.9661   28.8942   21.2060 N   0  0  0  0  0  0  0  0  0  0  0  0
   16.6374   29.2692   22.9531 N   0  0  0  0  0  0  0  0  0  0  0  0
   17.0552   29.7974   24.2018 C   0  0  0  0  0  0  0  0  0  0  0  0
   16.1155   30.5291   25.0072 C   0  0  0  0  0  0  0  0  0  0  0  0
   14.7771   30.6893   24.4865 C   0  0  0  0  0  0  0  0  0  0  0  0
   13.8947   31.3952   25.2559 O   0  0  0  0  0  0  0  0  0  0  0  0
   16.7848   30.9576   26.2138 C   0  0  0  0  0  0  0  0  0  0  0  0
   18.0817   30.4544   26.0990 C   0  0  0  0  0  0  0  0  0  0  0  0
   18.2349   29.7779   24.9024 N   0  0  0  0  0  0  0  0  0  0  0  0
   16.1916   31.7367   27.3713 C   0  0  0  0  0  0  0  0  0  0  0  0
   16.1843   30.9902   28.6274 N   0  0  0  0  0  0  0  0  0  0  0  0
  1  2  1  0  0  0  0
  1  7  1  0  0  0  0
  2  3  1  0  0  0  0
  2  4  2  0  0  0  0
  4  5  1  0  0  0  0
  5  6  2  0  0  0  0
  5 11  1  0  0  0  0
  6  7  1  0  0  0  0
  6  9  1  0  0  0  0
  7  8  2  0  0  0  0
  9 10  2  0  0  0  0
  9 12  1  0  0  0  0
 10 11  1  0  0  0  0
 12 13  1  0  0  0  0
M  END
>  <CHROM.1>
116.33211901,16.00743923,30.32925214,24.78009680,1.81419283,0.27488688,-1.96634342

>  <Name>
ligand

>  <RI>
0

>  <Rbt.Current_Directory>
/home/itssahil/PROJECTS/Mol_Feturizer/Test_systems_manuscript/rnas/4jf2

>  <Rbt.Executable>
rbdock ($Id: //depot/dev/client3/rdock/2013.1/src/exe/rbdock.cxx#4 $)

>  <Rbt.Library>
libRbt.so (2013.1, Build901 2013/11/27)

>  <Rbt.Parameter_File>
/export/apps/rDock/src/rDock_2013.1_src/data/scripts/dock_solv.prm

>  <Rbt.Receptor>
prm/blind_docking_60.prm

>  <SCORE>
-9.75581

>  <SCORE.INTER>
-9.3885

>  <SCORE.INTER.CONST>
1

>  <SCORE.INTER.POLAR>
0

>  <SCORE.INTER.ROT>
1

>  <SCORE.INTER.SOLV>
7.12146

>  <SCORE.INTER.VDW>
-12.8995

>  <SCORE.INTER.norm>
-0.722193

>  <SCORE.INTRA>
-0.367309

>  <SCORE.INTRA.DIHEDRAL>
-0.0902181

>  <SCORE.INTRA.DIHEDRAL.0>
1.75624

>  <SCORE.INTRA.POLAR>
0

>  <SCORE.INTRA.POLAR.0>
0

>  <SCORE.INTRA.REPUL>
0

>  <SCORE.INTRA.REPUL.0>
0

>  <SCORE.INTRA.SOLV>
-0.841877

>  <SCORE.INTRA.SOLV.lig_0>
-46.5296

>  <SCORE.INTRA.VDW>
0.0987386

>  <SCORE.INTRA.VDW.0>
-0.381873

>  <SCORE.INTRA.norm>
-0.0282545

>  <SCORE.RESTR>
0

>  <SCORE.RESTR.CAVITY>
0

>  <SCORE.RESTR.norm>
0

>  <SCORE.SYSTEM>
0

>  <SCORE.SYSTEM.CONST>
0

>  <SCORE.SYSTEM.DIHEDRAL>
0

>  <SCORE.SYSTEM.SOLV>
0

>  <SCORE.SYSTEM.norm>
0

>  <SCORE.heavy>
13

>  <SCORE.norm>
-0.750447

>  <RMSD>
36.179

$$$$
ligand
 OpenBabel02271912143D
libRbt.so/2013.1/901 2013/11/27
 13 14  0  0  0  0  0  0  0  0999 V2000
   14.4503   30.8732   24.7034 N   0  0  0  0  0  0  0  0  0  0  0  0
   15.4102   30.9360   25.7265 C   0  0  0  0  0  0  0  0  0  0  0  0
   15.0941   31.6244   26.9568 N   0  0  0  0  0  0  0  0  0  0  0  0
   16.6386   30.3370   25.5627 N   0  0  0  0  0  0  0  0  0  0  0  0
   16.9830   29.6524   24.3688 C   0  0  0  0  0  0  0  0  0  0  0  0
   16.0311   29.5888   23.2933 C   0  0  0  0  0  0  0  0  0  0  0  0
   14.7546   30.2350   23.4964 C   0  0  0  0  0  0  0  0  0  0  0  0
   13.8534   30.1597   22.4713 O   0  0  0  0  0  0  0  0  0  0  0  0
   16.6196   28.8409   22.2062 C   0  0  0  0  0  0  0  0  0  0  0  0
   17.8974   28.5051   22.6564 C   0  0  0  0  0  0  0  0  0  0  0  0
   18.1000   28.9811   23.9391 N   0  0  0  0  0  0  0  0  0  0  0  0
   16.0023   28.5353   20.8556 C   0  0  0  0  0  0  0  0  0  0  0  0
   15.5198   27.1611   20.7380 N   0  0  0  0  0  0  0  0  0  0  0  0
  1  2  1  0  0  0  0
  1  7  1  0  0  0  0
  2  3  1  0  0  0  0
  2  4  2  0  0  0  0
  4  5  1  0  0  0  0
  5  6  2  0  0  0  0
  5 11  1  0  0  0  0
  6  7  1  0  0  0  0
  6  9  1  0  0  0  0
  7  8  2  0  0  0  0
  9 10  2  0  0  0  0
  9 12  1  0  0  0  0
 10 11  1  0  0  0  0
 12 13  1  0  0  0  0
M  END
>  <CHROM.1>
-103.65123777,15.90294764,29.65579293,23.59910070,1.73203849,-0.34704662
1.05603019

>  <Name>
ligand

>  <RI>
0

>  <Rbt.Current_Directory>
/home/itssahil/PROJECTS/Mol_Feturizer/Test_systems_manuscript/rnas/4jf2

>  <Rbt.Executable>
rbdock ($Id: //depot/dev/client3/rdock/2013.1/src/exe/rbdock.cxx#4 $)

>  <Rbt.Library>
libRbt.so (2013.1, Build901 2013/11/27)

>  <Rbt.Parameter_File>
/export/apps/rDock/src/rDock_2013.1_src/data/scripts/dock_solv.prm

>  <Rbt.Receptor>
prm/blind_docking_100.prm

>  <SCORE>
-8.2989

>  <SCORE.INTER>
-8.05671

>  <SCORE.INTER.CONST>
1

>  <SCORE.INTER.POLAR>
0

>  <SCORE.INTER.ROT>
1

>  <SCORE.INTER.SOLV>
8.01523

>  <SCORE.INTER.VDW>
-12.3095

>  <SCORE.INTER.norm>
-0.619747

>  <SCORE.INTRA>
-0.242198

>  <SCORE.INTRA.DIHEDRAL>
0.0127088

>  <SCORE.INTRA.DIHEDRAL.0>
1.75624

>  <SCORE.INTRA.POLAR>
0

>  <SCORE.INTRA.POLAR.0>
0

>  <SCORE.INTRA.REPUL>
0

>  <SCORE.INTRA.REPUL.0>
0

>  <SCORE.INTRA.SOLV>
-0.64242

>  <SCORE.INTRA.SOLV.lig_0>
-46.5296

>  <SCORE.INTRA.VDW>
0.0726575

>  <SCORE.INTRA.VDW.0>
-0.381873

>  <SCORE.INTRA.norm>
-0.0186306

>  <SCORE.RESTR>
0

>  <SCORE.RESTR.CAVITY>
0

>  <SCORE.RESTR.norm>
0

>  <SCORE.SYSTEM>
0

>  <SCORE.SYSTEM.CONST>
0

>  <SCORE.SYSTEM.DIHEDRAL>
0

>  <SCORE.SYSTEM.SOLV>
0

>  <SCORE.SYSTEM.norm>
0

>  <SCORE.heavy>
13

>  <SCORE.norm>
-0.638377

>  <RMSD>
36.984

$$$$
