@<TRIPOS>MOLECULE
4jf2_rdock.pdb
 1644 1835 0 0 0
SMALL
GASTEIGER

@<TRIPOS>ATOM
      1  PA        12.3560   24.4670   28.6410 P.3     1  GTP1        0.2189
      2  PB        11.6930   26.8840   27.3290 P.3     1  GTP1        0.2246
      3  PG        13.3510   27.4090   25.1030 P.3     1  GTP1        0.3052
      4  C5'       10.5420   22.5780   28.5780 C.3     1  GTP1        0.1812
      5  O5'       11.5190   23.2720   29.3040 O.3     1  GTP1       -0.3112
      6  C4'        9.2340   22.4810   29.3530 C.3     1  GTP1        0.1773
      7  O4'        9.2670   22.9680   30.6830 O.3     1  GTP1       -0.3307
      8  C3'        8.1370   23.2830   28.6930 C.3     1  GTP1        0.1860
      9  O3'        7.6240   22.5200   27.6400 O.3     1  GTP1       -0.3112
     10  C2'        7.1310   23.4080   29.8040 C.3     1  GTP1        0.2309
     11  O2'        6.3710   22.2220   29.8190 O.3     1  GTP1       -0.2156
     12  C1'        7.9990   23.5210   31.0430 C.3     1  GTP1        0.2408
     13  N1         5.9630   28.3390   31.7460 N.ar    1  GTP1       -0.1709
     14  O1A       13.3050   23.9230   27.5960 O.co2   1  GTP1       -0.5170
     15  O1B       11.8840   27.8700   28.4590 O.co2   1  GTP1       -0.5168
     16  O1G       14.8460   27.6440   24.9960 O.2     1  GTP1       -0.2719
     17  C2         5.2940   27.1300   31.6270 C.ar    1  GTP1        0.2606
     18  N2         3.9620   27.0510   31.6770 N.pl3   1  GTP1       -0.0859
     19  O2A       13.0880   25.1450   29.7670 O.3     1  GTP1       -0.4371
     20  O2B       10.6010   27.3630   26.4000 O.3     1  GTP1       -0.4369
     21  O2G       12.9260   26.5330   23.9420 O.co2   1  GTP1       -0.7576
     22  N3         5.9900   25.9590   31.4510 N.ar    1  GTP1       -0.1918
     23  O3A       11.2930   25.4290   27.9050 O.3     1  GTP1       -0.2701
     24  O3B       13.0670   26.6530   26.5040 O.3     1  GTP1       -0.2585
     25  O3G       12.6540   28.7490   25.0370 O.3     1  GTP1       -0.1531
     26  C4         7.3370   25.9680   31.3750 C.ar    1  GTP1        0.1723
     27  C5         8.0380   27.1690   31.4720 C.ar    1  GTP1        0.1748
     28  C6         7.3450   28.3700   31.6600 C.ar    1  GTP1        0.3023
     29  O6         7.9730   29.4410   31.7400 O.2     1  GTP1       -0.2633
     30  N7         9.3530   26.8820   31.3600 N.ar    1  GTP1       -0.2173
     31  C8         9.5030   25.5440   31.2120 C.ar    1  GTP1        0.1817
     32  N9         8.2570   24.9620   31.2140 N.ar    1  GTP1       -0.2693
     33  P          7.3620   23.1690   26.2010 P.3     2  G2          0.2141
     34  C5'        4.7850   23.1550   26.6130 C.3     2  G2          0.1812
     35  O5'        5.9460   23.9000   26.3100 O.3     2  G2         -0.3114
     36  C4'        3.5830   24.0430   26.7020 C.3     2  G2          0.1773
     37  O4'        3.5870   24.7280   27.9800 O.3     2  G2         -0.3307
     38  C3'        3.4940   25.1720   25.6820 C.3     2  G2          0.1860
     39  O3'        3.0090   24.7570   24.4130 O.3     2  G2         -0.3112
     40  C2'        2.5760   26.1520   26.3860 C.3     2  G2          0.2309
     41  O2'        1.2650   25.6350   26.3680 O.3     2  G2         -0.2156
     42  C1'        3.0870   26.0400   27.8200 C.3     2  G2          0.2408
     43  N1         4.3240   30.8960   28.6640 N.ar    2  G2         -0.1709
     44  C2         3.0890   30.3380   28.4340 C.ar    2  G2          0.2606
     45  N2         2.0530   31.1820   28.4310 N.pl3   2  G2         -0.0859
     46  N3         2.8850   29.0470   28.2330 N.ar    2  G2         -0.1918
     47  C4         4.0460   28.3530   28.2630 C.ar    2  G2          0.1723
     48  C5         5.3280   28.8120   28.4700 C.ar    2  G2          0.1748
     49  C6         5.5250   30.1900   28.6950 C.ar    2  G2          0.3023
     50  O6         6.5990   30.7720   28.8870 O.2     2  G2         -0.2633
     51  N7         6.2570   27.7780   28.4160 N.ar    2  G2         -0.2173
     52  C8         5.5350   26.7180   28.1850 C.ar    2  G2          0.1817
     53  N9         4.1840   26.9970   28.0860 N.ar    2  G2         -0.2693
     54  OP1        7.2270   22.0480   25.2210 O.2     2  G2         -0.5172
     55  OP2        8.3990   24.1950   25.9490 O.co2   2  G2         -0.4373
     56  P          3.5560   25.4340   23.0590 P.3     3  A3          0.2141
     57  C5'        1.5940   27.1560   23.1820 C.3     3  A3          0.1812
     58  O5'        2.9910   26.9170   23.1340 O.3     3  A3         -0.3114
     59  C4'        1.2890   28.6300   23.2120 C.3     3  A3          0.1773
     60  O4'        1.5880   29.1870   24.5220 O.3     3  A3         -0.3307
     61  C3'        2.0760   29.5040   22.2490 C.3     3  A3          0.1860
     62  O3'        1.5530   29.4700   20.9370 O.3     3  A3         -0.3112
     63  C2'        1.9640   30.8700   22.8950 C.3     3  A3          0.2309
     64  O2'        0.6750   31.4200   22.6700 O.3     3  A3         -0.2156
     65  C1'        2.0760   30.5030   24.3780 C.3     3  A3          0.2408
     66  N1         5.9630   33.4700   25.8720 N.ar    3  A3         -0.2040
     67  C2         4.7000   33.7510   25.5160 C.ar    3  A3          0.2016
     68  N3         3.7460   32.9060   25.1260 N.ar    3  A3         -0.2048
     69  C4         4.1900   31.6410   25.1330 C.ar    3  A3          0.1692
     70  C5         5.4510   31.1960   25.5030 C.ar    3  A3          0.1518
     71  C6         6.3770   32.1820   25.8790 C.ar    3  A3          0.1919
     72  N6         7.6290   31.9240   26.2460 N.pl3   3  A3         -0.1054
     73  N7         5.5290   29.8170   25.4070 N.ar    3  A3         -0.2193
     74  C8         4.3310   29.4620   24.9880 C.ar    3  A3          0.1816
     75  N9         3.4790   30.5230   24.8200 N.ar    3  A3         -0.2693
     76  OP1        2.8880   24.7360   21.9280 O.2     3  A3         -0.5172
     77  OP2        5.0310   25.5150   23.0300 O.co2   3  A3         -0.4373
     78  P          2.4980   29.6370   19.6490 P.3     4  A4          0.2141
     79  C5'        1.9270   32.1750   19.5290 C.3     4  A4          0.1812
     80  O5'        2.9090   31.1710   19.6610 O.3     4  A4         -0.3114
     81  C4'        2.4690   33.5360   19.8790 C.3     4  A4          0.1773
     82  O4'        2.9650   33.5460   21.2470 O.3     4  A4         -0.3307
     83  C3'        3.6590   34.0260   19.0710 C.3     4  A4          0.1860
     84  O3'        3.3220   34.4990   17.7840 O.3     4  A4         -0.3112
     85  C2'        4.2290   35.1070   19.9760 C.3     4  A4          0.2309
     86  O2'        3.4570   36.2950   19.8780 O.3     4  A4         -0.2156
     87  C1'        4.0190   34.4800   21.3550 C.3     4  A4          0.2408
     88  N1         8.4660   35.0960   23.6690 N.ar    4  A4         -0.2040
     89  C2         7.4840   35.9520   23.3670 C.ar    4  A4          0.2016
     90  N3         6.3490   35.6950   22.7460 N.ar    4  A4         -0.2048
     91  C4         6.2630   34.3930   22.4300 C.ar    4  A4          0.1692
     92  C5         7.1730   33.3960   22.6820 C.ar    4  A4          0.1518
     93  C6         8.3450   33.7950   23.3350 C.ar    4  A4          0.1919
     94  N6         9.3240   32.9450   23.6350 N.pl3   4  A4         -0.1054
     95  N7         6.7300   32.1610   22.2080 N.ar    4  A4         -0.2193
     96  C8         5.5540   32.4430   21.6800 C.ar    4  A4          0.1816
     97  N9         5.2250   33.7730   21.7990 N.ar    4  A4         -0.2693
     98  OP1        1.6040   29.4200   18.4920 O.2     4  A4         -0.5172
     99  OP2        3.7350   28.8310   19.7750 O.co2   4  A4         -0.4373
    100  P          4.4010   34.4390   16.5890 P.3     5  C5          0.2141
    101  C5'        5.6630   36.6590   17.1100 C.3     5  C5          0.1812
    102  O5'        5.6640   35.2450   17.1350 O.3     5  C5         -0.3114
    103  C4'        6.7500   37.2740   17.9620 C.3     5  C5          0.1773
    104  O4'        6.9080   36.5890   19.2340 O.3     5  C5         -0.3307
    105  C3'        8.1640   37.3110   17.4120 C.3     5  C5          0.1860
    106  O3'        8.3130   38.2420   16.3480 O.3     5  C5         -0.3112
    107  C2'        8.9500   37.6690   18.6720 C.3     5  C5          0.2309
    108  O2'        8.7870   39.0470   18.9900 O.3     5  C5         -0.2156
    109  C1'        8.2010   36.8480   19.7370 C.3     5  C5          0.2420
    110  N1         8.9050   35.5750   20.0170 N.ar    5  C5         -0.2535
    111  C2        10.0150   35.6800   20.8600 C.ar    5  C5          0.3532
    112  O2        10.2690   36.8050   21.3320 O.2     5  C5         -0.2443
    113  N3        10.7600   34.5820   21.1410 N.ar    5  C5         -0.1739
    114  C4        10.4330   33.4050   20.6070 C.ar    5  C5          0.1759
    115  N4        11.1850   32.3480   20.9360 N.pl3   5  C5         -0.1070
    116  C5         9.3080   33.2640   19.7370 C.ar    5  C5          0.0566
    117  C6         8.5840   34.3660   19.4620 C.ar    5  C5          0.0850
    118  OP1        3.7690   35.2160   15.4820 O.2     5  C5         -0.5172
    119  OP2        4.8970   33.0460   16.4320 O.co2   5  C5         -0.4373
    120  P          9.5730   38.1880   15.3340 P.3     6  C6          0.2141
    121  C5'       10.8200   39.9920   16.7360 C.3     6  C6          0.1812
    122  O5'       10.7710   38.6590   16.2560 O.3     6  C6         -0.3114
    123  C4'       12.1170   40.2510   17.4490 C.3     6  C6          0.1773
    124  O4'       12.1560   39.5050   18.6940 O.3     6  C6         -0.3307
    125  C3'       13.3840   39.8060   16.7280 C.3     6  C6          0.1860
    126  O3'       13.7770   40.6910   15.6890 O.3     6  C6         -0.3112
    127  C2'       14.3700   39.7160   17.8800 C.3     6  C6          0.2309
    128  O2'       14.7430   41.0200   18.3000 O.3     6  C6         -0.2156
    129  C1'       13.4860   39.1180   18.9710 C.3     6  C6          0.2420
    130  N1        13.5770   37.6360   19.0120 N.ar    6  C6         -0.2535
    131  C2        14.6500   37.0760   19.7330 C.ar    6  C6          0.3532
    132  O2        15.4620   37.8250   20.2960 O.2     6  C6         -0.2443
    133  N3        14.7870   35.7320   19.8090 N.ar    6  C6         -0.1739
    134  C4        13.8990   34.9570   19.1880 C.ar    6  C6          0.1759
    135  N4        14.0830   33.6450   19.2970 N.pl3   6  C6         -0.1070
    136  C5        12.8000   35.4830   18.4400 C.ar    6  C6          0.0566
    137  C6        12.6780   36.8190   18.3770 C.ar    6  C6          0.0850
    138  OP1        9.3670   39.2190   14.2920 O.2     6  C6         -0.5172
    139  OP2        9.8830   36.8280   14.8730 O.co2   6  C6         -0.4373
    140  P         14.7680   40.2160   14.5030 P.3     7  G7          0.2141
    141  C5'       16.9580   40.7530   15.8410 C.3     7  G7          0.1812
    142  O5'       16.1030   39.7760   15.2630 O.3     7  G7         -0.3114
    143  C4'       18.1490   40.1470   16.5530 C.3     7  G7          0.1773
    144  O4'       17.7400   39.3470   17.6960 O.3     7  G7         -0.3307
    145  C3'       19.0300   39.2080   15.7490 C.3     7  G7          0.1860
    146  O3'       19.8750   39.9080   14.8480 O.3     7  G7         -0.3112
    147  C2'       19.7700   38.4590   16.8560 C.3     7  G7          0.2309
    148  O2'       20.7590   39.2900   17.4410 O.3     7  G7         -0.2156
    149  C1'       18.6540   38.2880   17.8930 C.3     7  G7          0.2408
    150  N1        18.8430   33.1900   18.5310 N.ar    7  G7         -0.1709
    151  C2        19.7780   34.1570   18.8170 C.ar    7  G7          0.2606
    152  N2        20.9280   33.7290   19.3540 N.pl3   7  G7         -0.0859
    153  N3        19.6050   35.4490   18.6150 N.ar    7  G7         -0.1918
    154  C4        18.4030   35.7330   18.0740 C.ar    7  G7          0.1723
    155  C5        17.3970   34.8410   17.7340 C.ar    7  G7          0.1748
    156  C6        17.5930   33.4420   17.9680 C.ar    7  G7          0.3023
    157  O6        16.8340   32.4870   17.7380 O.2     7  G7         -0.2633
    158  N7        16.3240   35.5260   17.1930 N.ar    7  G7         -0.2173
    159  C8        16.6880   36.7840   17.2130 C.ar    7  G7          0.1817
    160  N9        17.9410   36.9960   17.7420 N.ar    7  G7         -0.2693
    161  OP1       15.0520   41.4330   13.7220 O.2     7  G7         -0.5172
    162  OP2       14.2250   39.0540   13.7580 O.co2   7  G7         -0.4373
    163  P         20.4650   39.2230   13.5060 P.3     8  C8          0.2141
    164  C5'       22.7110   38.4780   14.6520 C.3     8  C8          0.1812
    165  O5'       21.4860   38.1160   14.0270 O.3     8  C8         -0.3114
    166  C4'       23.4970   37.2620   15.0860 C.3     8  C8          0.1773
    167  O4'       22.7590   36.5400   16.1050 O.3     8  C8         -0.3307
    168  C3'       23.7480   36.2000   14.0270 C.3     8  C8          0.1860
    169  O3'       24.7540   36.5200   13.0830 O.3     8  C8         -0.3112
    170  C2'       24.0400   34.9700   14.8710 C.3     8  C8          0.2309
    171  O2'       25.3380   35.0420   15.4400 O.3     8  C8         -0.2156
    172  C1'       23.0280   35.1530   15.9980 C.3     8  C8          0.2420
    173  N1        21.7710   34.4140   15.7390 N.ar    8  C8         -0.2535
    174  C2        21.7610   33.0320   15.9370 C.ar    8  C8          0.3532
    175  O2        22.8070   32.4720   16.3120 O.2     8  C8         -0.2443
    176  N3        20.6130   32.3340   15.7120 N.ar    8  C8         -0.1739
    177  C4        19.5150   32.9630   15.3140 C.ar    8  C8          0.1759
    178  N4        18.4140   32.2280   15.1110 N.pl3   8  C8         -0.1070
    179  C5        19.4910   34.3720   15.1090 C.ar    8  C8          0.0566
    180  C6        20.6250   35.0470   15.3300 C.ar    8  C8          0.0850
    181  OP1       21.2250   40.3130   12.8460 O.3     8  C8         -0.4373
    182  OP2       19.4120   38.5320   12.7270 O.co2   8  C8         -0.5172
    183  P         24.5620   36.0540   11.5570 P.3     9  G9          0.2141
    184  C5'       25.7040   33.7300   11.9700 C.3     9  G9          0.1812
    185  O5'       24.5390   34.4640   11.6510 O.3     9  G9         -0.3114
    186  C4'       25.4190   32.2560   11.9480 C.3     9  G9          0.1773
    187  O4'       24.5370   31.9170   13.0420 O.3     9  G9         -0.3307
    188  C3'       24.7020   31.7310   10.7180 C.3     9  G9          0.1860
    189  O3'       25.5800   31.5240    9.6180 O.3     9  G9         -0.3112
    190  C2'       24.0530   30.4560   11.2480 C.3     9  G9          0.2309
    191  O2'       24.9950   29.4030   11.3530 O.3     9  G9         -0.2156
    192  C1'       23.6440   30.8980   12.6490 C.3     9  G9          0.2408
    193  N1        18.8420   29.5460   12.3830 N.ar    9  G9         -0.1709
    194  C2        19.9590   28.7730   12.5860 C.ar    9  G9          0.2606
    195  N2        19.8140   27.4320   12.6960 N.pl3   9  G9         -0.0859
    196  N3        21.1520   29.3050   12.6530 N.ar    9  G9         -0.1918
    197  C4        21.1620   30.6440   12.5150 C.ar    9  G9          0.1723
    198  C5        20.1200   31.4940   12.3110 C.ar    9  G9          0.1748
    199  C6        18.8170   30.9330   12.2380 C.ar    9  G9          0.3023
    200  O6        17.7420   31.5150   12.0740 O.2     9  G9         -0.2633
    201  N7        20.5730   32.8030   12.2250 N.ar    9  G9         -0.2173
    202  C8        21.8620   32.7270   12.3620 C.ar    9  G9          0.1817
    203  N9        22.2720   31.4390   12.5700 N.ar    9  G9         -0.2693
    204  OP1       25.7980   36.3970   10.8060 O.2     9  G9         -0.5172
    205  OP2       23.2090   36.4420   11.0600 O.co2   9  G9         -0.4373
    206  P         25.1580   31.9780    8.1290 P.3    10  A10         0.2141
    207  C5'       23.1760   31.1690    6.5990 C.3    10  A10         0.1812
    208  O5'       23.8340   31.1370    7.8510 O.3    10  A10        -0.3114
    209  C4'       22.8650   29.7660    6.1400 C.3    10  A10         0.1773
    210  O4'       24.1090   29.0860    5.8240 O.3    10  A10        -0.3307
    211  C3'       22.1880   28.8640    7.1710 C.3    10  A10         0.1860
    212  O3'       20.7800   29.0170    7.1860 O.3    10  A10        -0.3112
    213  C2'       22.6250   27.4720    6.7400 C.3    10  A10         0.2309
    214  O2'       21.8340   27.0300    5.6430 O.3    10  A10        -0.2156
    215  C1'       24.0360   27.7370    6.2110 C.3    10  A10         0.2408
    216  N1        26.8740   24.1370    8.6400 N.ar   10  A10        -0.2040
    217  C2        25.8140   24.0650    7.8050 C.ar   10  A10         0.2016
    218  N3        25.1190   25.0460    7.2290 N.ar   10  A10        -0.2048
    219  C4        25.5940   26.2400    7.5820 C.ar   10  A10         0.1692
    220  C5        26.6720   26.4810    8.4290 C.ar   10  A10         0.1518
    221  C6        27.3270   25.3550    8.9660 C.ar   10  A10         0.1919
    222  N6        28.3530   25.3860    9.7880 N.pl3  10  A10        -0.1054
    223  N7        26.8860   27.8480    8.5440 N.ar   10  A10        -0.2193
    224  C8        25.9650   28.3850    7.7710 C.ar   10  A10         0.1816
    225  N9        25.1280   27.4640    7.1750 N.ar   10  A10        -0.2693
    226  OP1       26.2500   31.4980    7.2490 O.2    10  A10        -0.5172
    227  OP2       24.7700   33.4180    8.0770 O.co2  10  A10        -0.4373
    228  P         19.9550   29.0930    8.5760 P.3    11  A11         0.2141
    229  C5'       19.2260   26.5730    8.2340 C.3    11  A11         0.1812
    230  O5'       19.8130   27.5740    9.0590 O.3    11  A11        -0.3114
    231  C4'       19.7760   25.1900    8.5340 C.3    11  A11         0.1773
    232  O4'       21.2070   25.1660    8.2850 O.3    11  A11        -0.3307
    233  C3'       19.6160   24.6740    9.9630 C.3    11  A11         0.1860
    234  O3'       18.3390   24.0680   10.1820 O.3    11  A11        -0.3112
    235  C2'       20.7770   23.6890   10.1020 C.3    11  A11         0.2309
    236  O2'       20.4300   22.4340    9.5270 O.3    11  A11        -0.2156
    237  C1'       21.8520   24.3230    9.2060 C.3    11  A11         0.2408
    238  N1        26.2020   24.1390   11.9450 N.ar   11  A11        -0.2040
    239  C2        25.4270   23.1900   11.4130 C.ar   11  A11         0.2016
    240  N3        24.3120   23.3100   10.7120 N.ar   11  A11        -0.2048
    241  C4        23.9840   24.6080   10.5870 C.ar   11  A11         0.1692
    242  C5        24.6750   25.7020   11.0920 C.ar   11  A11         0.1518
    243  C6        25.8550   25.4300   11.8180 C.ar   11  A11         0.1919
    244  N6        26.6620   26.3310   12.3770 N.pl3  11  A11        -0.1054
    245  N7        24.0220   26.8820   10.7530 N.ar   11  A11        -0.2193
    246  C8        22.9830   26.4720   10.0740 C.ar   11  A11         0.1816
    247  N9        22.8800   25.1070    9.9360 N.ar   11  A11        -0.2693
    248  OP1       18.5960   29.5830    8.2610 O.2    11  A11        -0.5172
    249  OP2       20.7730   29.8350    9.5690 O.co2  11  A11        -0.4373
    250  P         17.5950   24.1090   11.6240 P.3    12  A12         0.2141
    251  C5'       18.6510   21.8060   12.3570 C.3    12  A12         0.1812
    252  O5'       18.5020   23.2070   12.5960 O.3    12  A12        -0.3114
    253  C4'       19.7430   21.1800   13.1970 C.3    12  A12         0.1773
    254  O4'       21.0380   21.6660   12.7480 O.3    12  A12        -0.3307
    255  C3'       19.7050   21.5000   14.6860 C.3    12  A12         0.1860
    256  O3'       18.8610   20.6280   15.4250 O.3    12  A12        -0.3112
    257  C2'       21.1720   21.4250   15.1070 C.3    12  A12         0.2309
    258  O2'       21.5830   20.0870   15.3570 O.3    12  A12        -0.2156
    259  C1'       21.8810   21.9220   13.8540 C.3    12  A12         0.2408
    260  N1        25.3000   25.6080   14.9440 N.ar   12  A12        -0.2040
    261  C2        25.3960   24.2780   14.9590 C.ar   12  A12         0.2016
    262  N3        24.4780   23.3700   14.6710 N.ar   12  A12        -0.2048
    263  C4        23.3140   23.9680   14.3330 C.ar   12  A12         0.1692
    264  C5        23.0620   25.3240   14.2740 C.ar   12  A12         0.1518
    265  C6        24.1240   26.1840   14.6030 C.ar   12  A12         0.1919
    266  N6        24.0210   27.5200   14.5910 N.pl3  12  A12        -0.1054
    267  N7        21.7700   25.5700   13.8740 N.ar   12  A12        -0.2193
    268  C8        21.2520   24.3890   13.6980 C.ar   12  A12         0.1816
    269  N9        22.1370   23.3720   13.9420 N.ar   12  A12        -0.2693
    270  OP1       16.3390   23.3660   11.4420 O.2    12  A12        -0.5172
    271  OP2       17.5500   25.4930   12.1100 O.co2  12  A12        -0.4373
    272  P         18.2970   21.0880   16.8680 P.3    13  G13         0.2141
    273  C5'       19.6230   22.3350   18.7150 C.3    13  G13         0.1812
    274  O5'       19.5900   21.3030   17.7500 O.3    13  G13        -0.3114
    275  C4'       20.9940   22.9450   18.8620 C.3    13  G13         0.1773
    276  O4'       21.4340   23.4630   17.5830 O.3    13  G13        -0.3307
    277  C3'       21.0300   24.1410   19.8020 C.3    13  G13         0.1860
    278  O3'       21.2530   23.7510   21.1470 O.3    13  G13        -0.3112
    279  C2'       22.1390   25.0070   19.2290 C.3    13  G13         0.2309
    280  O2'       23.4020   24.5190   19.6440 O.3    13  G13        -0.2156
    281  C1'       21.9740   24.7580   17.7370 C.3    13  G13         0.2408
    282  N1        20.8160   29.5810   16.3480 N.ar   13  G13        -0.1709
    283  C2        21.9580   29.1020   16.9130 C.ar   13  G13         0.2606
    284  N2        22.8890   30.0330   17.1290 N.pl3  13  G13        -0.0859
    285  N3        22.1750   27.8340   17.2290 N.ar   13  G13        -0.1918
    286  C4        21.1190   27.0590   16.9450 C.ar   13  G13         0.1723
    287  C5        19.9270   27.4360   16.3790 C.ar   13  G13         0.1748
    288  C6        19.7210   28.8010   16.0270 C.ar   13  G13         0.3023
    289  O6        18.7320   29.3470   15.5220 O.2    13  G13        -0.2633
    290  N7        19.0950   26.3370   16.2240 N.ar   13  G13        -0.2173
    291  C8        19.7750   25.3380   16.6870 C.ar   13  G13         0.1817
    292  N9        21.0090   25.7020   17.1460 N.ar   13  G13        -0.2693
    293  OP1       17.5340   19.9830   17.4850 O.3    13  G13        -0.4373
    294  OP2       17.6940   22.4330   16.7080 O.co2  13  G13        -0.5172
    295  P         20.5740   24.5630   22.3500 P.3    14  C14         0.2141
    296  C5'       22.7020   26.0430   22.5400 C.3    14  C14         0.1812
    297  O5'       21.3010   25.9750   22.3100 O.3    14  C14        -0.3114
    298  C4'       23.2220   27.4420   22.3670 C.3    14  C14         0.1773
    299  O4'       23.0940   27.8550   20.9800 O.3    14  C14        -0.3307
    300  C3'       22.4730   28.5100   23.1370 C.3    14  C14         0.1860
    301  O3'       22.8460   28.5740   24.4960 O.3    14  C14        -0.3112
    302  C2'       22.7850   29.7710   22.3400 C.3    14  C14         0.2309
    303  O2'       24.0910   30.2560   22.6090 O.3    14  C14        -0.2156
    304  C1'       22.7550   29.2260   20.9170 C.3    14  C14         0.2420
    305  N1        21.4000   29.3450   20.3420 N.ar   14  C14        -0.2535
    306  C2        21.0250   30.6120   19.9280 C.ar   14  C14         0.3532
    307  O2        21.8450   31.5380   20.0640 O.2    14  C14        -0.2443
    308  N3        19.7990   30.7900   19.3970 N.ar   14  C14        -0.1739
    309  C4        18.9730   29.7560   19.3000 C.ar   14  C14         0.1759
    310  N4        17.7750   29.9980   18.7790 N.pl3  14  C14        -0.1070
    311  C5        19.3200   28.4430   19.7180 C.ar   14  C14         0.0566
    312  C6        20.5390   28.2900   20.2490 C.ar   14  C14         0.0850
    313  OP1       21.0610   23.9470   23.6110 O.3    14  C14        -0.4373
    314  OP2       19.1210   24.6660   22.0410 O.co2  14  C14        -0.5172
    315  P         21.7180   28.7940   25.6220 P.3    15  G15         0.2141
    316  C5'       22.6470   31.2170   25.7660 C.3    15  G15         0.1812
    317  O5'       21.5250   30.3730   25.6180 O.3    15  G15        -0.3114
    318  C4'       22.3480   32.6280   25.3480 C.3    15  G15         0.1773
    319  O4'       22.1290   32.7000   23.9130 O.3    15  G15        -0.3307
    320  C3'       21.0960   33.2410   25.9240 C.3    15  G15         0.1860
    321  O3'       21.2400   33.6430   27.2670 O.3    15  G15        -0.3112
    322  C2'       20.8370   34.3840   24.9590 C.3    15  G15         0.2309
    323  O2'       21.7330   35.4570   25.1960 O.3    15  G15        -0.2156
    324  C1'       21.1990   33.7230   23.6310 C.3    15  G15         0.2408
    325  N1        16.9480   34.6710   21.1150 N.ar   15  G15        -0.1709
    326  C2        17.9530   35.5290   21.5350 C.ar   15  G15         0.2606
    327  N2        17.8280   36.8380   21.2680 N.pl3  15  G15        -0.0859
    328  N3        19.0180   35.1370   22.2020 N.ar   15  G15        -0.1918
    329  C4        19.0130   33.8020   22.4110 C.ar   15  G15         0.1723
    330  C5        18.0770   32.8550   22.0520 C.ar   15  G15         0.1748
    331  C6        16.9310   33.2800   21.3450 C.ar   15  G15         0.3023
    332  O6        16.0050   32.5650   20.9420 O.2    15  G15        -0.2633
    333  N7        18.4670   31.5930   22.4740 N.ar   15  G15        -0.2173
    334  C8        19.6180   31.7840   23.0740 C.ar   15  G15         0.1817
    335  N9        20.0050   33.1020   23.0420 N.ar   15  G15        -0.2693
    336  OP1       22.3310   28.4170   26.9130 O.3    15  G15        -0.4373
    337  OP2       20.4230   28.1810   25.2250 O.co2  15  G15        -0.5172
    338  P         19.9590   33.6190   28.2420 P.3    16  G16         0.2141
    339  C5'       19.5270   36.1090   27.6010 C.3    16  G16         0.1812
    340  O5'       19.0350   34.7810   27.6760 O.3    16  G16        -0.3114
    341  C4'       18.6040   37.0020   26.8140 C.3    16  G16         0.1773
    342  O4'       18.4490   36.5080   25.4560 O.3    16  G16        -0.3307
    343  C3'       17.1780   37.1270   27.3270 C.3    16  G16         0.1860
    344  O3'       17.0840   38.0030   28.4370 O.3    16  G16        -0.3112
    345  C2'       16.4350   37.6140   26.0850 C.3    16  G16         0.2309
    346  O2'       16.6480   39.0040   25.8770 O.3    16  G16        -0.2156
    347  C1'       17.1650   36.8470   24.9710 C.3    16  G16         0.2408
    348  N1        13.0820   35.0170   22.6230 N.ar   16  G16        -0.1709
    349  C2        13.5030   36.3130   22.7810 C.ar   16  G16         0.2606
    350  N2        12.7410   37.2740   22.2400 N.pl3  16  G16        -0.0859
    351  N3        14.6080   36.6540   23.4170 N.ar   16  G16        -0.1918
    352  C4        15.2670   35.5800   23.8860 C.ar   16  G16         0.1723
    353  C5        14.9340   34.2490   23.7890 C.ar   16  G16         0.1748
    354  C6        13.7510   33.8950   23.1090 C.ar   16  G16         0.3023
    355  O6        13.3140   32.7520   22.9240 O.2    16  G16        -0.2633
    356  N7        15.8650   33.4480   24.4280 N.ar   16  G16        -0.2173
    357  C8        16.7400   34.3040   24.9000 C.ar   16  G16         0.1817
    358  N9        16.4410   35.6130   24.5980 N.ar   16  G16        -0.2693
    359  OP1       20.4440   34.0100   29.5890 O.3    16  G16        -0.4373
    360  OP2       19.1980   32.3600   28.0700 O.co2  16  G16        -0.5172
    361  P         15.8710   37.9210   29.5110 P.3    17  U17         0.2141
    362  C5'       14.7940   39.9490   28.3150 C.3    17  U17         0.1812
    363  O5'       14.6610   38.6090   28.7610 O.3    17  U17        -0.3114
    364  C4'       13.5760   40.3730   27.5540 C.3    17  U17         0.1773
    365  O4'       13.5490   39.6720   26.2900 O.3    17  U17        -0.3307
    366  C3'       12.2450   40.0030   28.1990 C.3    17  U17         0.1860
    367  O3'       11.8520   40.8790   29.2390 O.3    17  U17        -0.3112
    368  C2'       11.3050   39.9970   27.0100 C.3    17  U17         0.2309
    369  O2'       10.9930   41.3250   26.6300 O.3    17  U17        -0.2156
    370  C1'       12.2080   39.4000   25.9270 C.3    17  U17         0.2420
    371  N1        12.0150   37.9380   25.7780 N.ar   17  U17        -0.2534
    372  C2        10.8960   37.5490   25.0540 C.ar   17  U17         0.3546
    373  O2        10.1200   38.3460   24.5660 O.2    17  U17        -0.2443
    374  N3        10.7070   36.1970   24.9130 N.ar   17  U17        -0.1530
    375  C4        11.5200   35.2140   25.4110 C.ar   17  U17         0.2846
    376  O4        11.2100   34.0560   25.1890 O.2    17  U17        -0.2650
    377  C5        12.6610   35.6810   26.1430 C.ar   17  U17         0.0814
    378  C6        12.8640   36.9990   26.2980 C.ar   17  U17         0.0870
    379  OP1       16.2360   38.9020   30.5560 O.3    17  U17        -0.4373
    380  OP2       15.4950   36.5420   29.9240 O.co2  17  U17        -0.5172
    381  P         10.9130   40.3510   30.4350 P.3    18  U18         0.2141
    382  C5'        8.7560   41.3320   29.3270 C.3    18  U18         0.1812
    383  O5'        9.4870   40.2000   29.7520 O.3    18  U18        -0.3114
    384  C4'        7.4580   40.9180   28.6860 C.3    18  U18         0.1773
    385  O4'        7.7280   40.1620   27.4720 O.3    18  U18        -0.3307
    386  C3'        6.5680   39.9860   29.4940 C.3    18  U18         0.1860
    387  O3'        5.8260   40.6610   30.4870 O.3    18  U18        -0.3112
    388  C2'        5.7040   39.3670   28.4060 C.3    18  U18         0.2309
    389  O2'        4.7500   40.3100   27.9290 O.3    18  U18        -0.2156
    390  C1'        6.7370   39.1710   27.3030 C.3    18  U18         0.2420
    391  N1         7.3800   37.8450   27.3920 N.ar   18  U18        -0.2534
    392  C2         6.6680   36.8270   26.7970 C.ar   18  U18         0.3546
    393  O2         5.6000   37.0240   26.2500 O.2    18  U18        -0.2443
    394  N3         7.2540   35.5890   26.8580 N.ar   18  U18        -0.1530
    395  C4         8.4550   35.2770   27.4500 C.ar   18  U18         0.2846
    396  O4         8.8170   34.1040   27.4110 O.2    18  U18        -0.2650
    397  C5         9.1430   36.3860   28.0590 C.ar   18  U18         0.0814
    398  C6         8.5940   37.6130   28.0030 C.ar   18  U18         0.0870
    399  OP1       10.8600   41.4380   31.4370 O.3    18  U18        -0.4373
    400  OP2       11.2760   38.9910   30.8900 O.co2  18  U18        -0.5172
    401  P          5.4410   39.9640   31.8810 P.3    19  C19         0.2141
    402  C5'        3.0130   39.4120   31.1370 C.3    19  C19         0.1812
    403  O5'        4.2890   38.9460   31.5120 O.3    19  C19        -0.3114
    404  C4'        2.2080   38.3010   30.5310 C.3    19  C19         0.1773
    405  O4'        2.9070   37.7400   29.3900 O.3    19  C19        -0.3307
    406  C3'        1.9780   37.1000   31.4190 C.3    19  C19         0.1860
    407  O3'        0.9800   37.3130   32.3870 O.3    19  C19        -0.3112
    408  C2'        1.6340   36.0230   30.4040 C.3    19  C19         0.2309
    409  O2'        0.3360   36.2160   29.8650 O.3    19  C19        -0.2156
    410  C1'        2.6260   36.3520   29.3020 C.3    19  C19         0.2420
    411  N1         3.8720   35.5670   29.4540 N.ar   19  C19        -0.2535
    412  C2         3.7770   34.2040   29.1480 C.ar   19  C19         0.3532
    413  O2         2.6870   33.7360   28.7750 O.2    19  C19        -0.2443
    414  N3         4.8700   33.4160   29.2520 N.ar   19  C19        -0.1739
    415  C4         6.0320   33.9380   29.6450 C.ar   19  C19         0.1759
    416  N4         7.0610   33.0900   29.7350 N.pl3  19  C19        -0.1070
    417  C5         6.1660   35.3310   29.9770 C.ar   19  C19         0.0566
    418  C6         5.0650   36.1030   29.8650 C.ar   19  C19         0.0850
    419  OP1        4.8070   41.0490   32.6520 O.3    19  C19        -0.4373
    420  OP2        6.5320   39.1470   32.4840 O.co2  19  C19        -0.5172
    421  P          1.1910   36.7850   33.8860 P.3    20  C20         0.2141
    422  C5'       -0.3950   34.8510   33.1670 C.3    20  C20         0.1812
    423  O5'        0.8060   35.2480   33.8000 O.3    20  C20        -0.3114
    424  C4'       -0.4210   33.3730   32.9110 C.3    20  C20         0.1773
    425  O4'        0.4460   33.0410   31.8000 O.3    20  C20        -0.3307
    426  C3'        0.1050   32.4890   34.0240 C.3    20  C20         0.1860
    427  O3'       -0.7650   32.3820   35.1290 O.3    20  C20        -0.3112
    428  C2'        0.3680   31.1880   33.2680 C.3    20  C20         0.2309
    429  O2'       -0.8480   30.5590   32.8900 O.3    20  C20        -0.2156
    430  C1'        0.9870   31.7410   31.9960 C.3    20  C20         0.2420
    431  N1         2.4590   31.8460   32.1120 N.ar   20  C20        -0.2535
    432  C2         3.2040   30.6780   31.9530 C.ar   20  C20         0.3532
    433  O2         2.6070   29.6170   31.7380 O.2    20  C20        -0.2443
    434  N3         4.5490   30.7270   32.0380 N.ar   20  C20        -0.1739
    435  C4         5.1470   31.8840   32.2800 C.ar   20  C20         0.1759
    436  N4         6.4710   31.8550   32.3540 N.pl3  20  C20        -0.1070
    437  C5         4.4230   33.1030   32.4560 C.ar   20  C20         0.0566
    438  C6         3.0870   33.0410   32.3610 C.ar   20  C20         0.0850
    439  OP1        0.1880   37.5090   34.6890 O.3    20  C20        -0.4373
    440  OP2        2.6370   36.8660   34.2590 O.co2  20  C20        -0.5172
    441  P         -0.1980   31.9630   36.5770 P.3    21  A21         0.2141
    442  C5'       -0.6080   29.3980   36.3010 C.3    21  A21         0.1812
    443  O5'        0.3040   30.4750   36.3680 O.3    21  A21        -0.3114
    444  C4'        0.1410   28.1230   36.0500 C.3    21  A21         0.1773
    445  O4'        1.0190   28.3110   34.9130 O.3    21  A21        -0.3307
    446  C3'        1.0880   27.7080   37.1580 C.3    21  A21         0.1860
    447  O3'        0.4390   27.0860   38.2510 O.3    21  A21        -0.3112
    448  C2'        2.0780   26.8230   36.4240 C.3    21  A21         0.2309
    449  O2'        1.5200   25.5460   36.1560 O.3    21  A21        -0.2156
    450  C1'        2.2080   27.5720   35.1000 C.3    21  A21         0.2408
    451  N1         7.3100   27.8680   34.8400 N.ar   21  A21        -0.2040
    452  C2         6.4360   26.8430   34.7970 C.ar   21  A21         0.2016
    453  N3         5.1050   26.8360   34.8730 N.ar   21  A21        -0.2048
    454  C4         4.6720   28.1030   35.0040 C.ar   21  A21         0.1692
    455  C5         5.4410   29.2650   35.0660 C.ar   21  A21         0.1518
    456  C6         6.8450   29.1210   34.9690 C.ar   21  A21         0.1919
    457  N6         7.7400   30.1230   34.9980 N.pl3  21  A21        -0.1054
    458  N7         4.6110   30.3770   35.2040 N.ar   21  A21        -0.2193
    459  C8         3.3940   29.8670   35.2410 C.ar   21  A21         0.1816
    460  N9         3.3620   28.4980   35.1140 N.ar   21  A21        -0.2693
    461  OP1       -1.2970   31.9280   37.5390 O.3    21  A21        -0.4373
    462  OP2        1.0210   32.7450   36.8870 O.co2  21  A21        -0.5172
    463  P          0.8980   27.4470   39.7420 P.3    22  C22         0.2141
    464  C5'        2.1690   25.1940   39.6910 C.3    22  C22         0.1812
    465  O5'        2.2180   26.5880   39.9120 O.3    22  C22        -0.3114
    466  C4'        3.5290   24.6390   39.4130 C.3    22  C22         0.1773
    467  O4'        4.1010   25.2910   38.2450 O.3    22  C22        -0.3307
    468  C3'        4.5810   24.8500   40.4880 C.3    22  C22         0.1860
    469  O3'        4.4400   23.9600   41.5820 O.3    22  C22        -0.3112
    470  C2'        5.8530   24.6350   39.6980 C.3    22  C22         0.2309
    471  O2'        5.9740   23.2560   39.4150 O.3    22  C22        -0.2156
    472  C1'        5.5020   25.3450   38.3800 C.3    22  C22         0.2420
    473  N1         5.9400   26.7690   38.3610 N.ar   22  C22        -0.2535
    474  C2         7.2810   27.0710   38.0600 C.ar   22  C22         0.3532
    475  O2         8.0120   26.1090   37.8080 O.2    22  C22        -0.2443
    476  N3         7.7360   28.3640   38.0420 N.ar   22  C22        -0.1739
    477  C4         6.8630   29.3390   38.3110 C.ar   22  C22         0.1759
    478  N4         7.2630   30.6060   38.2970 N.pl3  22  C22        -0.1070
    479  C5         5.4980   29.0510   38.6220 C.ar   22  C22         0.0566
    480  C6         5.0760   27.7820   38.6290 C.ar   22  C22         0.0850
    481  OP1       -0.0950   26.8580   40.6720 O.3    22  C22        -0.4373
    482  OP2        1.2220   28.9040   39.8110 O.co2  22  C22        -0.5172
    483  P          4.9990   24.3390   43.0500 P.3    23  G23         0.2141
    484  C5'        7.2320   23.0280   42.7450 C.3    23  G23         0.1812
    485  O5'        6.5880   24.2720   42.9120 O.3    23  G23        -0.3114
    486  C4'        8.7270   23.1880   42.5880 C.3    23  G23         0.1773
    487  O4'        9.0410   23.9860   41.4150 O.3    23  G23        -0.3307
    488  C3'        9.4510   23.8920   43.7190 C.3    23  G23         0.1860
    489  O3'        9.6900   23.0140   44.7940 O.3    23  G23        -0.3112
    490  C2'       10.7260   24.3660   43.0420 C.3    23  G23         0.2309
    491  O2'       11.6680   23.2970   42.9230 O.3    23  G23        -0.2156
    492  C1'       10.2130   24.7220   41.6390 C.3    23  G23         0.2408
    493  N1        12.2140   29.3240   40.8640 N.ar   23  G23        -0.1709
    494  C2        12.8170   28.1050   40.9980 C.ar   23  G23         0.2606
    495  N2        14.1610   28.0810   40.9380 N.pl3  23  G23        -0.0859
    496  N3        12.1580   26.9760   41.1770 N.ar   23  G23        -0.1918
    497  C4        10.8320   27.1490   41.2540 C.ar   23  G23         0.1723
    498  C5        10.1100   28.3130   41.1320 C.ar   23  G23         0.1748
    499  C6        10.8330   29.5230   40.9090 C.ar   23  G23         0.3023
    500  O6        10.3900   30.6660   40.7590 O.2    23  G23        -0.2633
    501  N7         8.7430   28.0480   41.2550 N.ar   23  G23        -0.2173
    502  C8         8.6680   26.7630   41.4440 C.ar   23  G23         0.1817
    503  N9         9.9030   26.1550   41.4760 N.ar   23  G23        -0.2693
    504  OP1        4.5680   23.2480   43.9680 O.3    23  G23        -0.4373
    505  OP2        4.7440   25.7580   43.3610 O.co2  23  G23        -0.5172
    506  P          9.7870   23.5480   46.3020 P.3    24  A24         0.2141
    507  C5'       12.4160   23.2980   46.1660 C.3    24  A24         0.1812
    508  O5'       11.2890   24.1170   46.4060 O.3    24  A24        -0.3114
    509  C4'       13.7130   24.0880   46.2190 C.3    24  A24         0.1773
    510  O4'       13.9180   24.8190   44.9750 O.3    24  A24        -0.3307
    511  C3'       13.8260   25.1570   47.2980 C.3    24  A24         0.1860
    512  O3'       14.1580   24.6350   48.5730 O.3    24  A24        -0.3112
    513  C2'       14.8960   26.0680   46.7220 C.3    24  A24         0.2309
    514  O2'       16.1570   25.4380   46.8250 O.3    24  A24        -0.2156
    515  C1'       14.5170   26.0670   45.2450 C.3    24  A24         0.2408
    516  N1        13.7190   31.0190   43.8460 N.ar   24  A24        -0.2040
    517  C2        14.8470   30.3130   44.0610 C.ar   24  A24         0.2016
    518  N3        14.9860   29.0340   44.4200 N.ar   24  A24        -0.2048
    519  C4        13.7830   28.4420   44.5810 C.ar   24  A24         0.1692
    520  C5        12.5370   29.0350   44.3970 C.ar   24  A24         0.1518
    521  C6        12.5120   30.3950   44.0150 C.ar   24  A24         0.1919
    522  N6        11.3920   31.0920   43.8010 N.pl3  24  A24        -0.1054
    523  N7        11.5290   28.1290   44.6650 N.ar   24  A24        -0.2193
    524  C8        12.1650   27.0210   44.9570 C.ar   24  A24         0.1816
    525  N9        13.5340   27.1300   44.9310 N.ar   24  A24        -0.2693
    526  OP1        9.6420   22.3350   47.1430 O.3    24  A24        -0.4373
    527  OP2        8.9570   24.7380   46.5540 O.co2  24  A24        -0.5172
    528  P         13.5480   25.2810   49.9190 P.3    25  C25         0.2141
    529  C5'       15.7610   26.6830   50.1060 C.3    25  C25         0.1812
    530  O5'       14.3380   26.6540   50.0700 O.3    25  C25        -0.3114
    531  C4'       16.2640   28.0930   49.9660 C.3    25  C25         0.1773
    532  O4'       16.0390   28.5450   48.6000 O.3    25  C25        -0.3307
    533  C3'       15.5250   29.1240   50.8000 C.3    25  C25         0.1860
    534  O3'       15.8800   29.1350   52.1690 O.3    25  C25        -0.3112
    535  C2'       15.8290   30.4070   50.0500 C.3    25  C25         0.2309
    536  O2'       17.1580   30.8260   50.2910 O.3    25  C25        -0.2156
    537  C1'       15.7350   29.9220   48.6040 C.3    25  C25         0.2420
    538  N1        14.3640   30.1140   48.0960 N.ar   25  C25        -0.2535
    539  C2        14.0910   31.3510   47.5320 C.ar   25  C25         0.3532
    540  O2        15.0430   32.1570   47.4600 O.2    25  C25        -0.2443
    541  N3        12.8390   31.6150   47.0850 N.ar   25  C25        -0.1739
    542  C4        11.9020   30.6940   47.1950 C.ar   25  C25         0.1759
    543  N4        10.6680   30.9620   46.7380 N.pl3  25  C25        -0.1070
    544  C5        12.1740   29.4300   47.7790 C.ar   25  C25         0.0566
    545  C6        13.3920   29.1720   48.2290 C.ar   25  C25         0.0850
    546  OP1       13.9640   24.3650   51.0110 O.3    25  C25        -0.4373
    547  OP2       12.1120   25.5970   49.7580 O.co2  25  C25        -0.5172
    548  P         14.7880   29.5220   53.2900 P.3    26  G26         0.2141
    549  C5'       15.8360   31.9250   53.1600 C.3    26  G26         0.1812
    550  O5'       14.6780   31.1080   53.1970 O.3    26  G26        -0.3114
    551  C4'       15.5160   33.3210   52.6790 C.3    26  G26         0.1773
    552  O4'       15.2300   33.3200   51.2460 O.3    26  G26        -0.3307
    553  C3'       14.2880   34.0010   53.2710 C.3    26  G26         0.1860
    554  O3'       14.4330   34.4710   54.6080 O.3    26  G26        -0.3112
    555  C2'       14.0460   35.1080   52.2570 C.3    26  G26         0.2309
    556  O2'       15.0250   36.1370   52.3920 O.3    26  G26        -0.2156
    557  C1'       14.3100   34.3560   50.9510 C.3    26  G26         0.2408
    558  N1         9.9930   35.4580   48.4960 N.ar   26  G26        -0.1709
    559  C2        11.0830   36.2330   48.8050 C.ar   26  G26         0.2606
    560  N2        11.0620   37.5180   48.4310 N.pl3  26  G26        -0.0859
    561  N3        12.1540   35.7970   49.4490 N.ar   26  G26        -0.1918
    562  C4        12.0710   34.5060   49.7960 C.ar   26  G26         0.1723
    563  C5        11.0420   33.6380   49.5440 C.ar   26  G26         0.1748
    564  C6         9.8960   34.1120   48.8370 C.ar   26  G26         0.3023
    565  O6         8.8890   33.4760   48.5420 O.2    26  G26        -0.2633
    566  N7        11.3560   32.3880   50.0460 N.ar   26  G26        -0.2173
    567  C8        12.5400   32.5180   50.5860 C.ar   26  G26         0.1817
    568  N9        13.0420   33.7840   50.4500 N.ar   26  G26        -0.2693
    569  OP1       15.3570   29.1720   54.6010 O.3    26  G26        -0.4373
    570  OP2       13.4430   28.9900   52.9400 O.co2  26  G26        -0.5172
    571  P         13.1570   34.4990   55.6240 P.3    27  A27         0.2141
    572  C5'       12.9420   37.0460   54.9940 C.3    27  A27         0.1812
    573  O5'       12.3110   35.7760   55.1820 O.3    27  A27        -0.3114
    574  C4'       12.0710   38.0060   54.2100 C.3    27  A27         0.1773
    575  O4'       11.8450   37.4950   52.8630 O.3    27  A27        -0.3307
    576  C3'       10.6610   38.2450   54.7490 C.3    27  A27         0.1860
    577  O3'       10.6210   39.1470   55.8480 O.3    27  A27        -0.3112
    578  C2'        9.9210   38.7510   53.5080 C.3    27  A27         0.2309
    579  O2'       10.2150   40.1210   53.2720 O.3    27  A27        -0.2156
    580  C1'       10.5650   37.9040   52.4030 C.3    27  A27         0.2408
    581  N1         6.3070   35.8960   50.2410 N.ar   27  A27        -0.2040
    582  C2         6.7530   37.1480   50.3260 C.ar   27  A27         0.2016
    583  N3         7.8630   37.5960   50.8860 N.ar   27  A27        -0.2048
    584  C4         8.5630   36.6020   51.4400 C.ar   27  A27         0.1692
    585  C5         8.2210   35.2670   51.4310 C.ar   27  A27         0.1518
    586  C6         7.0230   34.9020   50.7880 C.ar   27  A27         0.1919
    587  N6         6.5390   33.6560   50.6980 N.pl3  27  A27        -0.1054
    588  N7         9.1900   34.5250   52.0820 N.ar   27  A27        -0.2193
    589  C8        10.0830   35.4160   52.4600 C.ar   27  A27         0.1816
    590  N9         9.7710   36.6950   52.1090 N.ar   27  A27        -0.2693
    591  OP1       13.7170   34.7630   56.9690 O.3    27  A27        -0.4373
    592  OP2       12.3230   33.2910   55.4020 O.co2  27  A27        -0.5172
    593  P          9.4230   39.1070   56.9410 P.3    28  U28         0.2141
    594  C5'        8.0910   41.0020   55.6680 C.3    28  U28         0.1812
    595  O5'        8.1460   39.6760   56.1610 O.3    28  U28        -0.3114
    596  C4'        6.8150   41.2420   54.8930 C.3    28  U28         0.1773
    597  O4'        6.7990   40.4790   53.6530 O.3    28  U28        -0.3307
    598  C3'        5.5250   40.8280   55.5930 C.3    28  U28         0.1860
    599  O3'        5.1120   41.8020   56.5270 O.3    28  U28        -0.3112
    600  C2'        4.5670   40.6990   54.4210 C.3    28  U28         0.2309
    601  O2'        4.2560   41.9980   53.9570 O.3    28  U28        -0.2156
    602  C1'        5.4740   40.0610   53.3700 C.3    28  U28         0.2420
    603  N1         5.3870   38.5700   53.3870 N.ar   28  U28        -0.2534
    604  C2         4.3260   38.0000   52.6860 C.ar   28  U28         0.3546
    605  O2         3.5180   38.6610   52.0670 O.2    28  U28        -0.2443
    606  N3         4.2260   36.6380   52.6930 N.ar   28  U28        -0.1530
    607  C4         5.0620   35.7700   53.3420 C.ar   28  U28         0.2846
    608  O4         4.8330   34.5600   53.2580 O.2    28  U28        -0.2650
    609  C5         6.1320   36.4130   54.0650 C.ar   28  U28         0.0814
    610  C6         6.2580   37.7560   54.0650 C.ar   28  U28         0.0870
    611  OP1        9.8640   40.0300   58.0190 O.3    28  U28        -0.4373
    612  OP2        9.0300   37.7320   57.3280 O.co2  28  U28        -0.5172
    613  P          4.3650   41.4160   57.8820 P.3    29  A29         0.2141
    614  C5'        2.1420   42.2930   56.8620 C.3    29  A29         0.1812
    615  O5'        2.8630   41.2040   57.4070 O.3    29  A29        -0.3114
    616  C4'        0.9040   41.8310   56.1470 C.3    29  A29         0.1773
    617  O4'        1.2760   41.0440   54.9860 O.3    29  A29        -0.3307
    618  C3'       -0.0130   40.8970   56.9140 C.3    29  A29         0.1860
    619  O3'       -0.8100   41.5430   57.8870 O.3    29  A29        -0.3112
    620  C2'       -0.8050   40.2580   55.7880 C.3    29  A29         0.2309
    621  O2'       -1.7110   41.1950   55.2400 O.3    29  A29        -0.2156
    622  C1'        0.2970   40.0530   54.7560 C.3    29  A29         0.2408
    623  N1        -0.1240   35.0810   53.5570 N.ar   29  A29        -0.2040
    624  C2        -0.8790   36.1530   53.2740 C.ar   29  A29         0.2016
    625  N3        -0.7030   37.4250   53.6180 N.ar   29  A29        -0.2048
    626  C4         0.4100   37.5680   54.3680 C.ar   29  A29         0.1692
    627  C5         1.2960   36.5790   54.7470 C.ar   29  A29         0.1518
    628  C6         0.9930   35.2720   54.3030 C.ar   29  A29         0.1919
    629  N6         1.7490   34.2090   54.5680 N.pl3  29  A29        -0.1054
    630  N7         2.3170   37.1190   55.5390 N.ar   29  A29        -0.2193
    631  C8         2.0600   38.4030   55.5880 C.ar   29  A29         0.1816
    632  N9         0.9200   38.7310   54.9000 N.ar   29  A29        -0.2693
    633  OP1        4.4260   42.6630   58.6920 O.3    29  A29        -0.4373
    634  OP2        4.8490   40.1460   58.4690 O.co2  29  A29        -0.5172
    635  P         -1.1850   40.7880   59.2610 P.3    30  C30         0.2141
    636  C5'       -3.3480   39.8060   58.1510 C.3    30  C30         0.1812
    637  O5'       -2.1130   39.5760   58.7980 O.3    30  C30        -0.3114
    638  C4'       -3.9190   38.5490   57.5210 C.3    30  C30         0.1773
    639  O4'       -2.9870   37.9760   56.5620 O.3    30  C30        -0.3307
    640  C3'       -4.2460   37.3710   58.4270 C.3    30  C30         0.1860
    641  O3'       -5.4090   37.5550   59.2230 O.3    30  C30        -0.3112
    642  C2'       -4.3680   36.2420   57.4070 C.3    30  C30         0.2309
    643  O2'       -5.5820   36.3440   56.6850 O.3    30  C30        -0.2156
    644  C1'       -3.2320   36.5900   56.4420 C.3    30  C30         0.2420
    645  N1        -2.0130   35.8200   56.7730 N.ar   30  C30        -0.2535
    646  C2        -1.9590   34.5210   56.2480 C.ar   30  C30         0.3532
    647  O2        -2.8950   34.1690   55.5360 O.2    30  C30        -0.2443
    648  N3        -0.9090   33.7140   56.5050 N.ar   30  C30        -0.1739
    649  C4         0.0620   34.1930   57.3060 C.ar   30  C30         0.1759
    650  N4         1.0930   33.3980   57.5890 N.pl3  30  C30        -0.1070
    651  C5         0.0280   35.4930   57.8650 C.ar   30  C30         0.0566
    652  C6        -1.0230   36.2810   57.5910 C.ar   30  C30         0.0850
    653  OP1       -1.9600   41.7680   60.0400 O.3    30  C30        -0.4373
    654  OP2        0.0170   40.1830   59.8770 O.co2  30  C30        -0.5172
    655  P         -5.7580   36.5510   60.4460 P.3    31  U31         0.2141
    656  C5'       -7.9230   36.0240   59.0970 C.3    31  U31         0.1812
    657  O5'       -6.8020   35.5430   59.8210 O.3    31  U31        -0.3114
    658  C4'       -8.6180   34.8910   58.4010 C.3    31  U31         0.1773
    659  O4'       -7.7650   34.3770   57.3430 O.3    31  U31        -0.3307
    660  C3'       -8.8840   33.6700   59.2610 C.3    31  U31         0.1860
    661  O3'      -10.0000   33.8070   60.1190 O.3    31  U31        -0.3112
    662  C2'       -9.0230   32.5720   58.2260 C.3    31  U31         0.2309
    663  O2'      -10.2680   32.6810   57.5650 O.3    31  U31        -0.2156
    664  C1'       -7.9430   32.9790   57.2270 C.3    31  U31         0.2420
    665  N1        -6.6540   32.2830   57.4750 N.ar   31  U31        -0.2534
    666  C2        -6.6060   30.9620   57.0710 C.ar   31  U31         0.3546
    667  O2        -7.5400   30.3860   56.5400 O.2    31  U31        -0.2443
    668  N3        -5.4070   30.3370   57.2980 N.ar   31  U31        -0.1530
    669  C4        -4.2760   30.8640   57.8870 C.ar   31  U31         0.2846
    670  O4        -3.3030   30.1270   58.0090 O.2    31  U31        -0.2650
    671  C5        -4.4000   32.2330   58.3000 C.ar   31  U31         0.0814
    672  C6        -5.5600   32.8790   58.0750 C.ar   31  U31         0.0870
    673  OP1       -6.5100   37.3250   61.4560 O.3    31  U31        -0.4373
    674  OP2       -4.5500   35.7860   60.8600 O.co2  31  U31        -0.5172
    675  P         -9.9310   33.2300   61.6220 P.3    32  U32         0.2141
    676  C5'      -10.9790   31.0070   60.7040 C.3    32  U32         0.1812
    677  O5'       -9.9290   31.6460   61.4130 O.3    32  U32        -0.3114
    678  C4'      -10.6260   29.5870   60.3420 C.3    32  U32         0.1773
    679  O4'       -9.4660   29.5440   59.4650 O.3    32  U32        -0.3307
    680  C3'      -10.2300   28.6790   61.4830 C.3    32  U32         0.1860
    681  O3'      -11.3300   28.2570   62.2790 O.3    32  U32        -0.3112
    682  C2'       -9.5070   27.5450   60.7660 C.3    32  U32         0.2309
    683  O2'      -10.4200   26.5930   60.2440 O.3    32  U32        -0.2156
    684  C1'       -8.8240   28.2940   59.6070 C.3    32  U32         0.2420
    685  N1        -7.3920   28.4950   59.9000 N.ar   32  U32        -0.2534
    686  C2        -6.5720   27.4360   59.6020 C.ar   32  U32         0.3546
    687  O2        -6.9820   26.4090   59.0670 O.2    32  U32        -0.2443
    688  N3        -5.2600   27.6300   59.9410 N.ar   32  U32        -0.1530
    689  C4        -4.7110   28.7490   60.5140 C.ar   32  U32         0.2846
    690  O4        -3.5120   28.7710   60.7490 O.2    32  U32        -0.2650
    691  C5        -5.6420   29.7920   60.8130 C.ar   32  U32         0.0814
    692  C6        -6.9240   29.6290   60.5110 C.ar   32  U32         0.0870
    693  OP1      -11.1880   33.6470   62.3190 O.3    32  U32        -0.4373
    694  OP2       -8.6130   33.5830   62.2110 O.co2  32  U32        -0.5172
    695  P        -11.1030   27.9710   63.8390 P.3    33  A33         0.2141
    696  C5'      -11.3850   30.5240   64.3550 C.3    33  A33         0.1812
    697  O5'      -10.5770   29.3580   64.4140 O.3    33  A33        -0.3114
    698  C4'      -11.5230   31.1610   65.7120 C.3    33  A33         0.1773
    699  O4'      -12.4780   30.3990   66.5100 O.3    33  A33        -0.3307
    700  C3'      -10.2280   31.2240   66.5300 C.3    33  A33         0.1860
    701  O3'      -10.1280   32.4800   67.2060 O.3    33  A33        -0.3112
    702  C2'      -10.4030   30.0850   67.5410 C.3    33  A33         0.2309
    703  O2'       -9.7000   30.2330   68.7560 O.3    33  A33        -0.2156
    704  C1'      -11.9050   30.0980   67.7670 C.3    33  A33         0.2408
    705  N1       -14.0680   27.8040   71.7870 N.ar   33  A33        -0.2040
    706  C2       -13.6660   29.0630   71.5620 C.ar   33  A33         0.2016
    707  N3       -13.1060   29.5840   70.4710 N.ar   33  A33        -0.2048
    708  C4       -12.9640   28.6470   69.5160 C.ar   33  A33         0.1692
    709  C5       -13.3240   27.3130   69.5910 C.ar   33  A33         0.1518
    710  C6       -13.9090   26.8890   70.8040 C.ar   33  A33         0.1919
    711  N6       -14.3150   25.6430   71.0500 N.pl3  33  A33        -0.1054
    712  N7       -13.0130   26.6620   68.3980 N.ar   33  A33        -0.2193
    713  C8       -12.4850   27.6000   67.6490 C.ar   33  A33         0.1816
    714  N9       -12.4310   28.8250   68.2640 N.ar   33  A33        -0.2693
    715  OP1      -10.0030   26.9810   63.9410 O.2    33  A33        -0.5172
    716  OP2      -12.4070   27.6870   64.5020 O.co2  33  A33        -0.4373
    717  P         -8.8600   33.4310   66.9300 P.3    34  U34         0.2141
    718  C5'       -8.6840   33.0870   69.5250 C.3    34  U34         0.1812
    719  O5'       -8.3770   33.8720   68.3830 O.3    34  U34        -0.3114
    720  C4'       -7.5000   32.2570   69.9570 C.3    34  U34         0.1773
    721  O4'       -7.5500   30.9440   69.3410 O.3    34  U34        -0.3307
    722  C3'       -6.1370   32.7940   69.5580 C.3    34  U34         0.1860
    723  O3'       -5.6790   33.8340   70.4030 O.3    34  U34        -0.3112
    724  C2'       -5.2520   31.5510   69.5900 C.3    34  U34         0.2309
    725  O2'       -4.7910   31.2890   70.9080 O.3    34  U34        -0.2156
    726  C1'       -6.2370   30.4430   69.1860 C.3    34  U34         0.2420
    727  N1        -6.0380   29.9080   67.8110 N.ar   34  U34        -0.2534
    728  C2        -4.7930   29.4130   67.4320 C.ar   34  U34         0.3546
    729  O2        -3.7970   29.4110   68.1450 O.2    34  U34        -0.2443
    730  N3        -4.7370   28.9190   66.1430 N.ar   34  U34        -0.1530
    731  C4        -5.7560   28.8470   65.2090 C.ar   34  U34         0.2846
    732  O4        -5.5320   28.3640   64.0940 O.2    34  U34        -0.2650
    733  C5        -7.0070   29.3520   65.6830 C.ar   34  U34         0.0814
    734  C6        -7.0910   29.8330   66.9290 C.ar   34  U34         0.0870
    735  OP1       -9.3360   34.6480   66.2190 O.2    34  U34        -0.5172
    736  OP2       -7.8060   32.6040   66.3030 O.co2  34  U34        -0.4373
    737  P         -4.5850   34.8630   69.8440 P.3    35  U35         0.2141
    738  C5'       -4.5250   37.3320   70.7030 C.3    35  U35         0.1812
    739  O5'       -4.4270   35.9480   70.9950 O.3    35  U35        -0.3114
    740  C4'       -3.3510   38.0790   71.2750 C.3    35  U35         0.1773
    741  O4'       -3.0600   37.5660   72.6020 O.3    35  U35        -0.3307
    742  C3'       -2.0420   37.9160   70.5260 C.3    35  U35         0.1860
    743  O3'       -1.9430   38.7680   69.4030 O.3    35  U35        -0.3112
    744  C2'       -1.0070   38.2050   71.6030 C.3    35  U35         0.2309
    745  O2'       -0.8820   39.6010   71.8280 O.3    35  U35        -0.2156
    746  C1'       -1.6670   37.5770   72.8290 C.3    35  U35         0.2420
    747  N1        -1.2050   36.1880   73.0580 N.ar   35  U35        -0.2534
    748  C2         0.0000   36.0240   73.5900 C.ar   35  U35         0.3546
    749  O2         0.7880   36.9590   73.8960 O.2    35  U35        -0.2443
    750  N3         0.4470   34.7230   73.8000 N.ar   35  U35        -0.1530
    751  C4        -0.2840   33.5930   73.5130 C.ar   35  U35         0.2846
    752  O4         0.2110   32.4950   73.7480 O.2    35  U35        -0.2650
    753  C5        -1.5780   33.8400   72.9520 C.ar   35  U35         0.0814
    754  C6        -1.9870   35.0980   72.7480 C.ar   35  U35         0.0870
    755  OP1       -5.2110   35.5470   68.6830 O.2    35  U35        -0.5172
    756  OP2       -3.3220   34.1050   69.6670 O.co2  35  U35        -0.4373
    757  P         -1.0970   38.2830   68.1220 P.3    36  U36         0.2141
    758  C5'        0.7180   36.4720   68.6000 C.3    36  U36         0.1812
    759  O5'        0.3050   37.8230   68.7240 O.3    36  U36        -0.3114
    760  C4'        1.9330   36.1490   69.4340 C.3    36  U36         0.1773
    761  O4'        1.5270   35.3520   70.5710 O.3    36  U36        -0.3307
    762  C3'        2.9560   35.3020   68.7030 C.3    36  U36         0.1860
    763  O3'        3.9050   36.0960   68.0240 O.3    36  U36        -0.3112
    764  C2'        3.5550   34.4020   69.7790 C.3    36  U36         0.2309
    765  O2'        4.6680   35.0130   70.4170 O.3    36  U36        -0.2156
    766  C1'        2.4000   34.2670   70.7630 C.3    36  U36         0.2420
    767  N1         1.6050   33.0350   70.5810 N.ar   36  U36        -0.2534
    768  C2         2.1310   31.7800   70.8150 C.ar   36  U36         0.3546
    769  O2         3.2940   31.5880   71.1470 O.2    36  U36        -0.2443
    770  N3         1.2360   30.7450   70.6350 N.ar   36  U36        -0.1530
    771  C4        -0.1030   30.8210   70.2730 C.ar   36  U36         0.2846
    772  O4        -0.8140   29.8050   70.1480 O.2    36  U36        -0.2650
    773  C5        -0.5500   32.1580   70.0750 C.ar   36  U36         0.0814
    774  C6         0.2900   33.1790   70.2370 C.ar   36  U36         0.0870
    775  OP1       -0.8270   39.4490   67.2380 O.2    36  U36        -0.5172
    776  OP2       -1.7710   37.0640   67.6020 O.co2  36  U36        -0.4373
    777  P          4.1540   35.8320   66.4670 P.3    37  C37         0.2141
    778  C5'        6.3220   34.5200   67.0930 C.3    37  C37         0.1812
    779  O5'        5.0500   34.5180   66.4630 O.3    37  C37        -0.3114
    780  C4'        6.7900   33.1180   67.3690 C.3    37  C37         0.1773
    781  O4'        5.8790   32.4820   68.3050 O.3    37  C37        -0.3307
    782  C3'        6.7770   32.1730   66.1810 C.3    37  C37         0.1860
    783  O3'        7.8440   32.3640   65.2690 O.3    37  C37        -0.3112
    784  C2'        6.7350   30.8090   66.8600 C.3    37  C37         0.2309
    785  O2'        7.9990   30.4950   67.4280 O.3    37  C37        -0.2156
    786  C1'        5.7860   31.1000   68.0190 C.3    37  C37         0.2420
    787  N1         4.3760   30.7490   67.7190 N.ar   37  C37        -0.2535
    788  C2         4.0270   29.3990   67.8200 C.ar   37  C37         0.3532
    789  O2         4.9210   28.5980   68.1320 O.2    37  C37        -0.2443
    790  N3         2.7560   28.9980   67.5660 N.ar   37  C37        -0.1739
    791  C4         1.8260   29.8960   67.2230 C.ar   37  C37         0.1759
    792  N4         0.5770   29.4640   66.9970 N.pl3  37  C37        -0.1070
    793  C5         2.1560   31.2830   67.1180 C.ar   37  C37         0.0566
    794  C6         3.4250   31.6700   67.3750 C.ar   37  C37         0.0850
    795  OP1        5.0090   36.9190   65.9180 O.3    37  C37        -0.4373
    796  OP2        2.8200   35.5140   65.8840 O.co2  37  C37        -0.5172
    797  P          7.6270   31.9360   63.7290 P.3    38  C38         0.2141
    798  C5'        8.8200   29.6700   64.3190 C.3    38  C38         0.1812
    799  O5'        7.6910   30.3480   63.7960 O.3    38  C38        -0.3114
    800  C4'        8.6160   28.1820   64.2380 C.3    38  C38         0.1773
    801  O4'        7.5310   27.7880   65.1240 O.3    38  C38        -0.3307
    802  C3'        8.1800   27.6500   62.8810 C.3    38  C38         0.1860
    803  O3'        9.2500   27.5050   61.9670 O.3    38  C38        -0.3112
    804  C2'        7.5160   26.3310   63.2440 C.3    38  C38         0.2309
    805  O2'        8.4970   25.3370   63.4990 O.3    38  C38        -0.2156
    806  C1'        6.8420   26.6870   64.5750 C.3    38  C38         0.2420
    807  N1         5.4070   27.0300   64.4240 N.ar   38  C38        -0.2535
    808  C2         4.5130   25.9740   64.3040 C.ar   38  C38         0.3532
    809  O2         4.9750   24.8160   64.3210 O.2    38  C38        -0.2443
    810  N3         3.1830   26.2510   64.1940 N.ar   38  C38        -0.1739
    811  C4         2.7460   27.5210   64.2010 C.ar   38  C38         0.1759
    812  N4         1.4400   27.7550   64.1050 N.pl3  38  C38        -0.1070
    813  C5         3.6490   28.6100   64.3170 C.ar   38  C38         0.0566
    814  C6         4.9580   28.3210   64.4240 C.ar   38  C38         0.0850
    815  OP1        8.7100   32.4830   62.8820 O.2    38  C38        -0.5172
    816  OP2        6.2350   32.2490   63.3370 O.co2  38  C38        -0.4373
    817  P          9.0020   27.6930   60.3840 P.3    39  U39         0.2141
    818  C5'        8.8550   25.1040   60.2080 C.3    39  U39         0.1812
    819  O5'        8.2780   26.3600   59.9430 O.3    39  U39        -0.3114
    820  C4'        7.8480   24.0170   59.9730 C.3    39  U39         0.1773
    821  O4'        6.8060   24.0740   60.9800 O.3    39  U39        -0.3307
    822  C3'        7.0770   24.0800   58.6640 C.3    39  U39         0.1860
    823  O3'        7.8400   23.6490   57.5510 O.3    39  U39        -0.3112
    824  C2'        5.8750   23.2060   58.9810 C.3    39  U39         0.2309
    825  O2'        6.2410   21.8330   59.0450 O.3    39  U39        -0.2156
    826  C1'        5.5850   23.6390   60.4170 C.3    39  U39         0.2420
    827  N1         4.5910   24.7330   60.4980 N.ar   39  U39        -0.2534
    828  C2         3.2770   24.3340   60.4220 C.ar   39  U39         0.3546
    829  O2         2.9720   23.1590   60.3000 O.2    39  U39        -0.2443
    830  N3         2.3620   25.3460   60.5090 N.ar   39  U39        -0.1530
    831  C4         2.6350   26.6800   60.6710 C.ar   39  U39         0.2846
    832  O4         1.6950   27.4660   60.7520 O.2    39  U39        -0.2650
    833  C5         4.0320   27.0180   60.7380 C.ar   39  U39         0.0814
    834  C6         4.9470   26.0540   60.6530 C.ar   39  U39         0.0870
    835  OP1       10.3110   27.6790   59.6870 O.2    39  U39        -0.5172
    836  OP2        8.0480   28.8130   60.1740 O.co2  39  U39        -0.4373
    837  P          7.6940   24.3450   56.1080 P.3    40  U40         0.2141
    838  C5'        6.2500   22.3380   55.1760 C.3    40  U40         0.1812
    839  O5'        6.3350   23.7170   55.5120 O.3    40  U40        -0.3114
    840  C4'        4.8410   21.9020   54.8330 C.3    40  U40         0.1773
    841  O4'        3.9520   22.0490   55.9740 O.3    40  U40        -0.3307
    842  C3'        4.1190   22.6660   53.7370 C.3    40  U40         0.1860
    843  O3'        4.5860   22.3790   52.4270 O.3    40  U40        -0.3112
    844  C2'        2.6610   22.2760   53.9990 C.3    40  U40         0.2309
    845  O2'        2.4030   20.9340   53.6070 O.3    40  U40        -0.2156
    846  C1'        2.6320   22.2920   55.5200 C.3    40  U40         0.2420
    847  N1         2.1380   23.5750   56.0700 N.ar   40  U40        -0.2534
    848  C2         0.7670   23.8190   56.0030 C.ar   40  U40         0.3546
    849  O2        -0.0290   23.0560   55.4870 O.2    40  U40        -0.2443
    850  N3         0.3590   25.0050   56.5500 N.ar   40  U40        -0.1530
    851  C4         1.1750   25.9550   57.1590 C.ar   40  U40         0.2846
    852  O4         0.6750   26.9840   57.6140 O.2    40  U40        -0.2650
    853  C5         2.5640   25.6380   57.1980 C.ar   40  U40         0.0814
    854  C6         2.9800   24.4830   56.6780 C.ar   40  U40         0.0870
    855  OP1        8.8930   23.8210   55.3870 O.2    40  U40        -0.5172
    856  OP2        7.4770   25.8080   56.1770 O.co2  40  U40        -0.4373
    857  P          4.6200   23.5420   51.3310 P.3    41  U41         0.2141
    858  C5'        2.2680   22.7100   50.5890 C.3    41  U41         0.1812
    859  O5'        3.0810   23.7860   51.0130 O.3    41  U41        -0.3114
    860  C4'        0.8180   23.0750   50.7080 C.3    41  U41         0.1773
    861  O4'        0.4500   23.2420   52.1060 O.3    41  U41        -0.3307
    862  C3'        0.4040   24.3960   50.0880 C.3    41  U41         0.1860
    863  O3'        0.3410   24.3780   48.6710 O.3    41  U41        -0.3112
    864  C2'       -0.9270   24.6440   50.7870 C.3    41  U41         0.2309
    865  O2'       -1.8930   23.7140   50.3380 O.3    41  U41        -0.2156
    866  C1'       -0.5680   24.2300   52.2070 C.3    41  U41         0.2420
    867  N1        -0.1040   25.4060   52.9830 N.ar   41  U41        -0.2534
    868  C2        -1.1520   26.2170   53.3950 C.ar   41  U41         0.3546
    869  O2        -2.3220   25.9550   53.1730 O.2    41  U41        -0.2443
    870  N3        -0.8070   27.3390   54.0910 N.ar   41  U41        -0.1530
    871  C4         0.4730   27.7300   54.4080 C.ar   41  U41         0.2846
    872  O4         0.5730   28.7670   55.0490 O.2    41  U41        -0.2650
    873  C5         1.5310   26.8660   53.9470 C.ar   41  U41         0.0814
    874  C6         1.2140   25.7520   53.2610 C.ar   41  U41         0.0870
    875  OP1        5.3030   23.0260   50.1220 O.2    41  U41        -0.5172
    876  OP2        5.0790   24.8030   51.9520 O.co2  41  U41        -0.4373
    877  P          0.5140   25.7510   47.8430 P.3    42  G42         0.2141
    878  C5'       -2.0930   26.2880   47.7460 C.3    42  G42         0.1812
    879  O5'       -0.7850   26.6050   48.2120 O.3    42  G42        -0.3114
    880  C4'       -3.0580   27.4020   48.1170 C.3    42  G42         0.1773
    881  O4'       -3.1530   27.5100   49.5610 O.3    42  G42        -0.3307
    882  C3'       -2.6350   28.7960   47.6780 C.3    42  G42         0.1860
    883  O3'       -3.0040   29.0750   46.3480 O.3    42  G42        -0.3112
    884  C2'       -3.3360   29.6980   48.6790 C.3    42  G42         0.2309
    885  O2'       -4.6950   29.8840   48.3290 O.3    42  G42        -0.2156
    886  C1'       -3.2600   28.8670   49.9450 C.3    42  G42         0.2408
    887  N1        -1.1450   32.6000   52.5830 N.ar   42  G42        -0.1709
    888  C2        -2.3830   32.5370   51.9870 C.ar   42  G42         0.2606
    889  N2        -3.1470   33.6360   52.1030 N.pl3  42  G42        -0.0859
    890  N3        -2.8320   31.4840   51.3260 N.ar   42  G42        -0.1918
    891  C4        -1.9170   30.4800   51.3070 C.ar   42  G42         0.1723
    892  C5        -0.6650   30.4370   51.8660 C.ar   42  G42         0.1748
    893  C6        -0.2210   31.5640   52.5750 C.ar   42  G42         0.3023
    894  O6         0.8500   31.6900   53.1520 O.2    42  G42        -0.2633
    895  N7        -0.0440   29.2180   51.6400 N.ar   42  G42        -0.2173
    896  C8        -0.9100   28.5510   50.9430 C.ar   42  G42         0.1817
    897  N9        -2.0650   29.2550   50.7080 N.ar   42  G42        -0.2693
    898  OP1        0.6060   25.3770   46.4360 O.2    42  G42        -0.5172
    899  OP2        1.6200   26.6010   48.2910 O.co2  42  G42        -0.4373
    900  P         -2.0590   29.9650   45.4160 P.3    43  A43         0.2141
    901  C5'       -3.4370   32.0750   46.1980 C.3    43  A43         0.1812
    902  O5'       -2.1800   31.4320   46.0260 O.3    43  A43        -0.3114
    903  C4'       -3.2560   33.4740   46.7410 C.3    43  A43         0.1773
    904  O4'       -3.0150   33.4510   48.1840 O.3    43  A43        -0.3307
    905  C3'       -2.0760   34.2580   46.1870 C.3    43  A43         0.1860
    906  O3'       -2.3220   34.7760   44.8790 O.3    43  A43        -0.3112
    907  C2'       -1.8840   35.3250   47.2610 C.3    43  A43         0.2309
    908  O2'       -2.8770   36.3330   47.1460 O.3    43  A43        -0.2156
    909  C1'       -2.1650   34.5200   48.5400 C.3    43  A43         0.2408
    910  N1         2.2100   35.4780   51.1900 N.ar   43  A43        -0.2040
    911  C2         1.2060   36.2590   50.8350 C.ar   43  A43         0.2016
    912  N3         0.1170   35.9390   50.1560 N.ar   43  A43        -0.2048
    913  C4         0.0720   34.6450   49.8130 C.ar   43  A43         0.1692
    914  C5         1.0470   33.7120   50.1160 C.ar   43  A43         0.1518
    915  C6         2.1620   34.1880   50.8310 C.ar   43  A43         0.1919
    916  N6         3.1830   33.4640   51.2260 N.pl3  43  A43        -0.1054
    917  N7         0.6770   32.4670   49.6080 N.ar   43  A43        -0.2193
    918  C8        -0.4750   32.6690   49.0060 C.ar   43  A43         0.1816
    919  N9        -0.9210   33.9660   49.1140 N.ar   43  A43        -0.2693
    920  OP1       -2.6570   29.9490   44.0640 O.2    43  A43        -0.5172
    921  OP2       -0.6630   29.4930   45.5580 O.co2  43  A43        -0.4373
    922  P         -1.1540   34.8950   43.7590 P.3    44  U44         0.2141
    923  C5'       -0.7570   37.3690   44.4810 C.3    44  U44         0.1812
    924  O5'       -0.2230   36.0770   44.2750 O.3    44  U44        -0.3114
    925  C4'        0.2090   38.2180   45.2540 C.3    44  U44         0.1773
    926  O4'        0.3960   37.6820   46.5900 O.3    44  U44        -0.3307
    927  C3'        1.6170   38.2780   44.7030 C.3    44  U44         0.1860
    928  O3'        1.7220   39.1260   43.5770 O.3    44  U44        -0.3112
    929  C2'        2.4080   38.7430   45.9190 C.3    44  U44         0.2309
    930  O2'        2.1930   40.1250   46.1490 O.3    44  U44        -0.2156
    931  C1'        1.7050   37.9740   47.0360 C.3    44  U44         0.2420
    932  N1         2.3950   36.7090   47.3760 N.ar   44  U44        -0.2534
    933  C2         3.5050   36.7950   48.2150 C.ar   44  U44         0.3546
    934  O2         3.9210   37.8420   48.6480 O.2    44  U44        -0.2443
    935  N3         4.1260   35.6160   48.5320 N.ar   44  U44        -0.1530
    936  C4         3.7400   34.3870   48.0600 C.ar   44  U44         0.2846
    937  O4         4.3880   33.4220   48.4230 O.2    44  U44        -0.2650
    938  C5         2.5850   34.3560   47.1870 C.ar   44  U44         0.0814
    939  C6         1.9580   35.4980   46.8940 C.ar   44  U44         0.0870
    940  OP1       -1.8530   35.3500   42.5480 O.2    44  U44        -0.5172
    941  OP2       -0.2830   33.7050   43.6770 O.co2  44  U44        -0.4373
    942  P          2.8380   38.8650   42.4540 P.3    45  C45         0.2141
    943  C5'        4.3060   40.7340   43.5250 C.3    45  C45         0.1812
    944  O5'        4.1880   39.3740   43.1350 O.3    45  C45        -0.3114
    945  C4'        5.5220   40.9960   44.3640 C.3    45  C45         0.1773
    946  O4'        5.4150   40.3350   45.6500 O.3    45  C45        -0.3307
    947  C3'        6.8480   40.5050   43.8050 C.3    45  C45         0.1860
    948  O3'        7.3700   41.3570   42.8120 O.3    45  C45        -0.3112
    949  C2'        7.7200   40.4200   45.0510 C.3    45  C45         0.2309
    950  O2'        8.2160   41.6980   45.4240 O.3    45  C45        -0.2156
    951  C1'        6.7040   39.9560   46.1030 C.3    45  C45         0.2420
    952  N1         6.7480   38.4820   46.2610 N.ar   45  C45        -0.2535
    953  C2         7.7250   37.9000   47.0910 C.ar   45  C45         0.3532
    954  O2         8.5440   38.5970   47.7210 O.2    45  C45        -0.2443
    955  N3         7.7730   36.5600   47.2100 N.ar   45  C45        -0.1739
    956  C4         6.9260   35.7910   46.5530 C.ar   45  C45         0.1759
    957  N4         7.0350   34.4840   46.7470 N.pl3  45  C45        -0.1070
    958  C5         5.9240   36.3350   45.6840 C.ar   45  C45         0.0566
    959  C6         5.8890   37.6760   45.5650 C.ar   45  C45         0.0850
    960  OP1        2.5490   39.8040   41.3460 O.2    45  C45        -0.5172
    961  OP2        2.9330   37.4280   42.1480 O.co2  45  C45        -0.4373
    962  P          8.3940   40.7800   41.7210 P.3    46  G46         0.2141
    963  C5'       10.4740   41.6880   43.0650 C.3    46  G46         0.1812
    964  O5'        9.7540   40.5880   42.5320 O.3    46  G46        -0.3114
    965  C4'       11.7240   41.2180   43.7620 C.3    46  G46         0.1773
    966  O4'       11.3440   40.4240   44.9160 O.3    46  G46        -0.3307
    967  C3'       12.6270   40.2800   42.9500 C.3    46  G46         0.1860
    968  O3'       13.4890   40.9520   42.0490 O.3    46  G46        -0.3112
    969  C2'       13.3530   39.5010   44.0340 C.3    46  G46         0.2309
    970  O2'       14.3570   40.3020   44.6180 O.3    46  G46        -0.2156
    971  C1'       12.2480   39.3400   45.0760 C.3    46  G46         0.2408
    972  N1        12.2560   34.3640   46.0670 N.ar   46  G46        -0.1709
    973  C2        13.1980   35.3350   46.3420 C.ar   46  G46         0.2606
    974  N2        14.3200   34.9520   46.9840 N.pl3  46  G46        -0.0859
    975  N3        13.0610   36.6060   46.0150 N.ar   46  G46        -0.1918
    976  C4        11.9030   36.8500   45.3810 C.ar   46  G46         0.1723
    977  C5        10.9000   35.9660   45.0420 C.ar   46  G46         0.1748
    978  C6        11.0490   34.5940   45.4010 C.ar   46  G46         0.3023
    979  O6        10.2760   33.6520   45.2090 O.2    46  G46        -0.2633
    980  N7         9.8750   36.6460   44.3950 N.ar   46  G46        -0.2173
    981  C8        10.2680   37.8950   44.3430 C.ar   46  G46         0.1817
    982  N9        11.5040   38.0780   44.9200 N.ar   46  G46        -0.2693
    983  OP1        8.5580   41.8090   40.6710 O.2    46  G46        -0.5172
    984  OP2        7.9710   39.3930   41.3740 O.co2  46  G46        -0.4373
    985  P         13.8840   40.3080   40.6130 P.3    47  U47         0.2141
    986  C5'       16.1960   39.6670   41.6510 C.3    47  U47         0.1812
    987  O5'       15.0160   39.2540   40.9820 O.3    47  U47        -0.3114
    988  C4'       17.0070   38.4820   42.1070 C.3    47  U47         0.1773
    989  O4'       16.3220   37.8230   43.2020 O.3    47  U47        -0.3307
    990  C3'       17.2100   37.3680   41.0920 C.3    47  U47         0.1860
    991  O3'       18.2270   37.6440   40.1430 O.3    47  U47        -0.3112
    992  C2'       17.5180   36.1770   41.9870 C.3    47  U47         0.2309
    993  O2'       18.8360   36.2690   42.4990 O.3    47  U47        -0.2156
    994  C1'       16.5650   36.4320   43.1480 C.3    47  U47         0.2420
    995  N1        15.2720   35.7480   42.9780 N.ar   47  U47        -0.2534
    996  C2        15.2250   34.4040   43.2540 C.ar   47  U47         0.3546
    997  O2        16.2240   33.7980   43.6050 O.2    47  U47        -0.2443
    998  N3        13.9820   33.8220   43.0890 N.ar   47  U47        -0.1530
    999  C4        12.8380   34.4760   42.6990 C.ar   47  U47         0.2846
   1000  O4        11.7830   33.8650   42.6080 O.2    47  U47        -0.2650
   1001  C5        12.9890   35.8660   42.4280 C.ar   47  U47         0.0814
   1002  C6        14.1680   36.4440   42.5730 C.ar   47  U47         0.0870
   1003  OP1       14.4510   41.4000   39.7940 O.2    47  U47        -0.5172
   1004  OP2       12.7650   39.5170   40.0090 O.co2  47  U47        -0.4373
   1005  P         18.0750   37.1580   38.6180 P.3    48  C48         0.2141
   1006  C5'       19.5170   35.0780   39.2760 C.3    48  C48         0.1812
   1007  O5'       18.3490   35.5960   38.6650 O.3    48  C48        -0.3114
   1008  C4'       19.3640   33.5990   39.5070 C.3    48  C48         0.1773
   1009  O4'       18.4060   33.3390   40.5660 O.3    48  C48        -0.3307
   1010  C3'       18.8030   32.8430   38.3310 C.3    48  C48         0.1860
   1011  O3'       19.7900   32.6340   37.3490 O.3    48  C48        -0.3112
   1012  C2'       18.2470   31.5820   38.9860 C.3    48  C48         0.2309
   1013  O2'       19.2760   30.6620   39.3050 O.3    48  C48        -0.2156
   1014  C1'       17.7080   32.1420   40.2940 C.3    48  C48         0.2420
   1015  N1        16.2670   32.4220   40.1890 N.ar   48  C48        -0.2535
   1016  C2        15.3860   31.3560   40.4190 C.ar   48  C48         0.3532
   1017  O2        15.8560   30.2630   40.7300 O.2    48  C48        -0.2443
   1018  N3        14.0450   31.5530   40.3010 N.ar   48  C48        -0.1739
   1019  C4        13.5950   32.7670   39.9590 C.ar   48  C48         0.1759
   1020  N4        12.2790   32.9560   39.8500 N.pl3  48  C48        -0.1070
   1021  C5        14.4880   33.8530   39.7000 C.ar   48  C48         0.0566
   1022  C6        15.8030   33.6480   39.8280 C.ar   48  C48         0.0850
   1023  OP1       19.1770   37.7820   37.8500 O.2    48  C48        -0.5172
   1024  OP2       16.6630   37.2870   38.1600 O.co2  48  C48        -0.4373
   1025  P         19.4080   32.0940   35.8870 P.3    49  G49         0.2141
   1026  C5'       17.9620   29.9460   35.5080 C.3    49  G49         0.1812
   1027  O5'       18.9830   30.6050   36.2030 O.3    49  G49        -0.3114
   1028  C4'       17.5420   28.7500   36.3100 C.3    49  G49         0.1773
   1029  O4'       16.7860   29.1900   37.4690 O.3    49  G49        -0.3307
   1030  C3'       16.6370   27.7880   35.5800 C.3    49  G49         0.1860
   1031  O3'       17.4280   26.8170   34.9370 O.3    49  G49        -0.3112
   1032  C2'       15.7630   27.2130   36.6880 C.3    49  G49         0.2309
   1033  O2'       16.4440   26.1640   37.3600 O.3    49  G49        -0.2156
   1034  C1'       15.6560   28.3870   37.6470 C.3    49  G49         0.2408
   1035  N1        10.5450   28.6840   37.6930 N.ar   49  G49        -0.1709
   1036  C2        11.3570   27.6030   37.9000 C.ar   49  G49         0.2606
   1037  N2        10.7530   26.4380   38.1730 N.pl3  49  G49        -0.0859
   1038  N3        12.6710   27.6550   37.8490 N.ar   49  G49        -0.1918
   1039  C4        13.1400   28.8830   37.5700 C.ar   49  G49         0.1723
   1040  C5        12.4220   30.0290   37.3300 C.ar   49  G49         0.1748
   1041  C6        11.0010   29.9560   37.3850 C.ar   49  G49         0.3023
   1042  O6        10.1710   30.8530   37.2070 O.2    49  G49        -0.2633
   1043  N7        13.2850   31.0940   37.0590 N.ar   49  G49        -0.2173
   1044  C8        14.4940   30.5820   37.1500 C.ar   49  G49         0.1817
   1045  N9        14.4700   29.2360   37.4310 N.ar   49  G49        -0.2693
   1046  OP1       20.7120   32.0460   35.1760 O.2    49  G49        -0.5172
   1047  OP2       18.2660   32.8160   35.2850 O.co2  49  G49        -0.4373
   1048  P         16.9610   26.0680   33.5920 P.3    50  U50         0.2141
   1049  C5'       15.7440   24.1970   34.9360 C.3    50  U50         0.1812
   1050  O5'       15.6610   25.2920   34.0370 O.3    50  U50        -0.3114
   1051  C4'       14.4090   23.5130   35.0800 C.3    50  U50         0.1773
   1052  O4'       13.4030   24.4980   35.4370 O.3    50  U50        -0.3307
   1053  C3'       13.8950   22.8250   33.8120 C.3    50  U50         0.1860
   1054  O3'       13.1400   21.6800   34.2000 O.3    50  U50        -0.3112
   1055  C2'       12.9490   23.8630   33.2130 C.3    50  U50         0.2309
   1056  O2'       11.9380   23.3060   32.4000 O.3    50  U50        -0.2156
   1057  C1'       12.3580   24.4850   34.4740 C.3    50  U50         0.2420
   1058  N1        11.8550   25.8620   34.3540 N.ar   50  U50        -0.2534
   1059  C2        10.4830   26.0410   34.5030 C.ar   50  U50         0.3546
   1060  O2         9.6860   25.1290   34.6450 O.2    50  U50        -0.2443
   1061  N3        10.0690   27.3380   34.4660 N.ar   50  U50        -0.1530
   1062  C4        10.8570   28.4480   34.3130 C.ar   50  U50         0.2846
   1063  O4        10.3020   29.5370   34.2990 O.2    50  U50        -0.2650
   1064  C5        12.2640   28.1960   34.1940 C.ar   50  U50         0.0814
   1065  C6        12.7100   26.9340   34.2330 C.ar   50  U50         0.0870
   1066  OP1       17.9570   24.9930   33.3860 O.3    50  U50        -0.4373
   1067  OP2       16.6730   26.9800   32.4560 O.co2  50  U50        -0.5172
   1068  P         13.7690   20.2180   34.0320 P.3    51  U51         0.2141
   1069  C5'       13.3020   19.5030   36.5030 C.3    51  U51         0.1812
   1070  O5'       12.9840   19.3710   35.1260 O.3    51  U51        -0.3114
   1071  C4'       12.2510   18.8690   37.3770 C.3    51  U51         0.1773
   1072  O4'       11.0690   19.7050   37.3570 O.3    51  U51        -0.3307
   1073  C3'       11.7920   17.4660   36.9630 C.3    51  U51         0.1860
   1074  O3'       11.4290   16.7180   38.1320 O.3    51  U51        -0.3112
   1075  C2'       10.5340   17.7590   36.1440 C.3    51  U51         0.2309
   1076  O2'        9.6010   16.6980   36.0960 O.3    51  U51        -0.2156
   1077  C1'        9.9600   18.9620   36.8900 C.3    51  U51         0.2420
   1078  N1         9.1510   19.8810   36.0810 N.ar   51  U51        -0.2534
   1079  C2         7.7900   19.9340   36.3440 C.ar   51  U51         0.3546
   1080  O2         7.2270   19.2280   37.1670 O.2    51  U51        -0.2443
   1081  N3         7.1090   20.8490   35.5820 N.ar   51  U51        -0.1530
   1082  C4         7.6310   21.7040   34.6380 C.ar   51  U51         0.2846
   1083  O4         6.8580   22.4650   34.0640 O.2    51  U51        -0.2650
   1084  C5         9.0490   21.6080   34.4340 C.ar   51  U51         0.0814
   1085  C6         9.7460   20.7240   35.1610 C.ar   51  U51         0.0870
   1086  OP1       15.2000   20.2940   34.4690 O.3    51  U51        -0.4373
   1087  OP2       13.4350   19.7240   32.6700 O.co2  51  U51        -0.5172
   1088  P         12.5320   16.1880   39.1900 P.3    52  A52         0.2141
   1089  C5'       14.1920   17.4630   40.7770 C.3    52  A52         0.1812
   1090  O5'       13.0300   17.5050   39.9500 O.3    52  A52        -0.3114
   1091  C4'       14.4590   18.7720   41.4900 C.3    52  A52         0.1773
   1092  O4'       14.6860   19.8390   40.5270 O.3    52  A52        -0.3307
   1093  C3'       13.3500   19.2990   42.3910 C.3    52  A52         0.1860
   1094  O3'       13.3820   18.7050   43.6830 O.3    52  A52        -0.3112
   1095  C2'       13.6290   20.8050   42.4370 C.3    52  A52         0.2309
   1096  O2'       14.6010   21.1070   43.4340 O.3    52  A52        -0.2156
   1097  C1'       14.2390   21.0700   41.0500 C.3    52  A52         0.2408
   1098  N1         9.3440   21.6900   39.2190 N.ar   52  A52        -0.2040
   1099  C2         9.8260   20.9770   40.2400 C.ar   52  A52         0.2016
   1100  N3        11.0730   20.8410   40.6800 N.ar   52  A52        -0.2048
   1101  C4        11.9280   21.5570   39.9330 C.ar   52  A52         0.1692
   1102  C5        11.5750   22.3460   38.8430 C.ar   52  A52         0.1518
   1103  C6        10.2140   22.4080   38.4760 C.ar   52  A52         0.1919
   1104  N6         9.7300   23.1230   37.4430 N.pl3  52  A52        -0.1054
   1105  N7        12.6970   22.9470   38.3020 N.ar   52  A52        -0.2193
   1106  C8        13.6860   22.5250   39.0600 C.ar   52  A52         0.1816
   1107  N9        13.3050   21.6830   40.0780 N.ar   52  A52        -0.2693
   1108  OP1       13.6560   15.5710   38.4400 O.2    52  A52        -0.5172
   1109  OP2       11.8400   15.3640   40.2200 O.co2  52  A52        -0.4373
   1110  P         12.2340   17.6990   44.2020 P.3    53  U53         0.2141
   1111  C5'       10.4720   19.6770   44.0940 C.3    53  U53         0.1812
   1112  O5'       11.0810   18.6260   44.8100 O.3    53  U53        -0.3114
   1113  C4'        9.0070   19.8000   44.4330 C.3    53  U53         0.1773
   1114  O4'        8.3130   20.1740   43.2210 O.3    53  U53        -0.3307
   1115  C3'        8.3210   18.5180   44.9030 C.3    53  U53         0.1860
   1116  O3'        8.3990   18.3530   46.3110 O.3    53  U53        -0.3112
   1117  C2'        6.8950   18.6640   44.3740 C.3    53  U53         0.2309
   1118  O2'        6.0970   19.4680   45.2380 O.3    53  U53        -0.2156
   1119  C1'        7.1300   19.4330   43.0750 C.3    53  U53         0.2420
   1120  N1         7.3050   18.5390   41.9100 N.ar   53  U53        -0.2534
   1121  C2         6.1540   18.2040   41.2510 C.ar   53  U53         0.3546
   1122  O2         5.0740   18.6400   41.6310 O.2    53  U53        -0.2443
   1123  N3         6.3290   17.3640   40.1700 N.ar   53  U53        -0.1530
   1124  C4         7.5210   16.8580   39.7150 C.ar   53  U53         0.2846
   1125  O4         7.5370   16.1180   38.7440 O.2    53  U53        -0.2650
   1126  C5         8.6710   17.2570   40.4640 C.ar   53  U53         0.0814
   1127  C6         8.5180   18.0750   41.5100 C.ar   53  U53         0.0870
   1128  OP1       12.6890   17.1770   45.5020 O.3    53  U53        -0.4373
   1129  OP2       11.7360   16.7910   43.1360 O.co2  53  U53        -0.5172
   1130  P          8.1830   16.9180   47.0010 P.3    54  U54         0.2141
   1131  C5'        5.6610   17.2250   47.7030 C.3    54  U54         0.1812
   1132  O5'        6.6330   16.6150   46.8560 O.3    54  U54        -0.3114
   1133  C4'        4.2680   16.9180   47.2090 C.3    54  U54         0.1773
   1134  O4'        4.2570   15.5560   46.7080 O.3    54  U54        -0.3307
   1135  C3'        3.1520   16.9830   48.2550 C.3    54  U54         0.1860
   1136  O3'        1.9160   17.3120   47.6090 O.3    54  U54        -0.3112
   1137  C2'        3.0680   15.5420   48.7130 C.3    54  U54         0.2309
   1138  O2'        1.8450   15.1950   49.3190 O.3    54  U54        -0.2156
   1139  C1'        3.2560   14.8220   47.3840 C.3    54  U54         0.2420
   1140  N1         3.6680   13.4180   47.4910 N.ar   54  U54        -0.2534
   1141  C2         2.9480   12.5200   46.7070 C.ar   54  U54         0.3546
   1142  O2         2.0410   12.8790   45.9670 O.2    54  U54        -0.2443
   1143  N3         3.3390   11.2020   46.8120 N.ar   54  U54        -0.1530
   1144  C4         4.3560   10.7280   47.6210 C.ar   54  U54         0.2846
   1145  O4         4.5980    9.5230   47.6320 O.2    54  U54        -0.2650
   1146  C5         5.0440   11.7220   48.3990 C.ar   54  U54         0.0814
   1147  C6         4.6880   13.0070   48.3160 C.ar   54  U54         0.0870
   1148  OP1        8.4180   17.1040   48.4540 O.3    54  U54        -0.4373
   1149  OP2        8.8720   15.8530   46.2150 O.co2  54  U54        -0.5172
   1150  P          1.3760   18.8250   47.6090 P.3    55  A55         0.2141
   1151  C5'        0.3300   18.4580   49.9860 C.3    55  A55         0.1812
   1152  O5'        1.2000   19.1890   49.1440 O.3    55  A55        -0.3114
   1153  C4'        0.3430   19.0460   51.3670 C.3    55  A55         0.1773
   1154  O4'       -0.3590   20.3110   51.3430 O.3    55  A55        -0.3307
   1155  C3'       -0.3790   18.2260   52.4090 C.3    55  A55         0.1860
   1156  O3'        0.4640   17.2470   52.9760 O.3    55  A55        -0.3112
   1157  C2'       -0.8720   19.2710   53.4070 C.3    55  A55         0.2309
   1158  O2'        0.1590   19.6500   54.3000 O.3    55  A55        -0.2156
   1159  C1'       -1.1460   20.4580   52.5010 C.3    55  A55         0.2408
   1160  N1        -5.9120   21.6360   54.0410 N.ar   55  A55        -0.2040
   1161  C2        -4.7390   21.5570   54.6810 C.ar   55  A55         0.2016
   1162  N3        -3.5420   21.2320   54.2050 N.ar   55  A55        -0.2048
   1163  C4        -3.6080   20.9540   52.9050 C.ar   55  A55         0.1692
   1164  C5        -4.7460   20.9720   52.1060 C.ar   55  A55         0.1518
   1165  C6        -5.9690   21.3340   52.7240 C.ar   55  A55         0.1919
   1166  N6        -7.1640   21.4050   52.1350 N.pl3  55  A55        -0.1054
   1167  N7        -4.3990   20.6240   50.8170 N.ar   55  A55        -0.2193
   1168  C8        -3.1000   20.3980   50.8530 C.ar   55  A55         0.1816
   1169  N9        -2.5590   20.5800   52.1000 N.ar   55  A55        -0.2693
   1170  OP1        0.0230   18.8870   46.9990 O.2    55  A55        -0.5172
   1171  OP2        2.4740   19.7080   47.1920 O.co2  55  A55        -0.4373
   1172  P         -0.0510   15.7480   53.2360 P.3    56  C56         0.2141
   1173  C5'       -0.8410   16.3300   55.6890 C.3    56  C56         0.1812
   1174  O5'       -1.1830   15.9470   54.3560 O.3    56  C56        -0.3114
   1175  C4'       -2.0670   16.5030   56.5510 C.3    56  C56         0.1773
   1176  O4'       -2.7790   17.7130   56.1760 O.3    56  C56        -0.3307
   1177  C3'       -3.1180   15.4070   56.4350 C.3    56  C56         0.1860
   1178  O3'       -2.8100   14.2990   57.2420 O.3    56  C56        -0.3112
   1179  C2'       -4.3860   16.1110   56.8800 C.3    56  C56         0.2309
   1180  O2'       -4.4150   16.1790   58.2970 O.3    56  C56        -0.2156
   1181  C1'       -4.1690   17.5190   56.3140 C.3    56  C56         0.2420
   1182  N1        -4.8160   17.6980   54.9880 N.ar   56  C56        -0.2535
   1183  C2        -6.1680   18.0420   54.9960 C.ar   56  C56         0.3532
   1184  O2        -6.7180   18.1690   56.0940 O.2    56  C56        -0.2443
   1185  N3        -6.8360   18.2240   53.8380 N.ar   56  C56        -0.1739
   1186  C4        -6.1900   18.0800   52.6890 C.ar   56  C56         0.1759
   1187  N4        -6.8960   18.2620   51.5800 N.pl3  56  C56        -0.1070
   1188  C5        -4.8050   17.7320   52.6290 C.ar   56  C56         0.0566
   1189  C6        -4.1700   17.5380   53.7870 C.ar   56  C56         0.0850
   1190  OP1        1.0920   14.9540   53.8000 O.3    56  C56        -0.4373
   1191  OP2       -0.7060   15.2110   52.0250 O.co2  56  C56        -0.5172
   1192  P         -3.0120   12.8260   56.6760 P.3    57  U57         0.2141
   1193  C5'       -5.5790   12.7460   57.1990 C.3    57  U57         0.1812
   1194  O5'       -4.5540   12.7980   56.2290 O.3    57  U57        -0.3114
   1195  C4'       -6.9260   12.9840   56.5900 C.3    57  U57         0.1773
   1196  O4'       -6.9440   14.2720   55.9100 O.3    57  U57        -0.3307
   1197  C3'       -7.3440   12.0100   55.5070 C.3    57  U57         0.1860
   1198  O3'       -7.7760   10.7600   55.9960 O.3    57  U57        -0.3112
   1199  C2'       -8.4090   12.8010   54.7650 C.3    57  U57         0.2309
   1200  O2'       -9.6030   12.8430   55.5420 O.3    57  U57        -0.2156
   1201  C1'       -7.7770   14.1970   54.7690 C.3    57  U57         0.2420
   1202  N1        -6.9190   14.4370   53.5750 N.ar   57  U57        -0.2534
   1203  C2        -7.5030   14.8700   52.3930 C.ar   57  U57         0.3546
   1204  O2        -8.6910   15.0440   52.2810 O.2    57  U57        -0.2443
   1205  N3        -6.6480   15.0800   51.3440 N.ar   57  U57        -0.1530
   1206  C4        -5.2860   14.8830   51.3580 C.ar   57  U57         0.2846
   1207  O4        -4.6340   15.1110   50.3530 O.2    57  U57        -0.2650
   1208  C5        -4.7470   14.4380   52.6120 C.ar   57  U57         0.0814
   1209  C6        -5.5640   14.2490   53.6470 C.ar   57  U57         0.0870
   1210  OP1       -2.7190   11.9320   57.8150 O.3    57  U57        -0.4373
   1211  OP2       -2.2590   12.6730   55.3960 O.co2  57  U57        -0.5172
   1212  P         -7.5370    9.4440   55.1020 P.3    58  G58         0.2141
   1213  C5'       -9.8220    9.8430   53.8350 C.3    58  G58         0.1812
   1214  O5'       -8.4120    9.6770   53.7750 O.3    58  G58        -0.3114
   1215  C4'      -10.4030   10.1990   52.4830 C.3    58  G58         0.1773
   1216  O4'       -9.9420   11.4960   52.0280 O.3    58  G58        -0.3307
   1217  C3'      -10.0660    9.2470   51.3440 C.3    58  G58         0.1860
   1218  O3'      -10.9700    8.1780   51.3710 O.3    58  G58        -0.3112
   1219  C2'      -10.2250   10.1120   50.1020 C.3    58  G58         0.2309
   1220  O2'      -11.5870   10.1400   49.6680 O.3    58  G58        -0.2156
   1221  C1'       -9.8190   11.4980   50.6180 C.3    58  G58         0.2408
   1222  N1        -6.7790   13.4030   47.0280 N.ar   58  G58        -0.1709
   1223  C2        -8.1430   13.2710   47.0620 C.ar   58  G58         0.2606
   1224  N2        -8.7880   13.6920   45.9760 N.pl3  58  G58        -0.0859
   1225  N3        -8.8170   12.7430   48.0640 N.ar   58  G58        -0.1918
   1226  C4        -8.0150   12.3740   49.0720 C.ar   58  G58         0.1723
   1227  C5        -6.6330   12.4630   49.1490 C.ar   58  G58         0.1748
   1228  C6        -5.9300   13.0250   48.0480 C.ar   58  G58         0.3023
   1229  O6        -4.7290   13.2270   47.8960 O.2    58  G58        -0.2633
   1230  N7        -6.1890   11.9580   50.3620 N.ar   58  G58        -0.2173
   1231  C8        -7.2830   11.5870   50.9880 C.ar   58  G58         0.1817
   1232  N9        -8.4330   11.8180   50.2570 N.ar   58  G58        -0.2693
   1233  OP1       -8.1450    8.3080   55.8460 O.3    58  G58        -0.4373
   1234  OP2       -6.0990    9.4740   54.6860 O.co2  58  G58        -0.5172
   1235  P        -10.7900    6.8540   50.5010 P.3    59  G59         0.2141
   1236  C5'       -9.9600    7.1490   48.0740 C.3    59  G59         0.1812
   1237  O5'      -10.9960    7.3370   49.0040 O.3    59  G59        -0.3114
   1238  C4'      -10.2450    7.8970   46.8160 C.3    59  G59         0.1773
   1239  O4'       -9.8910    9.2900   47.0000 O.3    59  G59        -0.3307
   1240  C3'       -9.4160    7.4380   45.6270 C.3    59  G59         0.1860
   1241  O3'      -10.0060    6.3440   44.9520 O.3    59  G59        -0.3112
   1242  C2'       -9.3130    8.6890   44.7860 C.3    59  G59         0.2309
   1243  O2'      -10.5010    8.8760   44.0400 O.3    59  G59        -0.2156
   1244  C1'       -9.1970    9.7610   45.8710 C.3    59  G59         0.2408
   1245  N1        -4.6240   11.4470   44.4060 N.ar   59  G59        -0.1709
   1246  C2        -5.8290   11.4550   43.7350 C.ar   59  G59         0.2606
   1247  N2        -5.8630   11.9640   42.4930 N.pl3  59  G59        -0.0859
   1248  N3        -6.9540   10.9840   44.2530 N.ar   59  G59        -0.1918
   1249  C4        -6.7940   10.4880   45.4950 C.ar   59  G59         0.1723
   1250  C5        -5.6460   10.4200   46.2480 C.ar   59  G59         0.1748
   1251  C6        -4.4360   10.9250   45.6910 C.ar   59  G59         0.3023
   1252  O6        -3.3160   10.9420   46.2110 O.2    59  G59        -0.2633
   1253  N7        -5.9110    9.8180   47.4770 N.ar   59  G59        -0.2173
   1254  C8        -7.1860    9.5410   47.4450 C.ar   59  G59         0.1817
   1255  N9        -7.7840    9.9350   46.2700 N.ar   59  G59        -0.2693
   1256  OP1      -12.0190    6.0490   50.8050 O.3    59  G59        -0.4373
   1257  OP2       -9.3780    6.3690   50.6230 O.co2  59  G59        -0.5172
   1258  P         -9.0750    5.1670   44.3710 P.3    60  C60         0.2141
   1259  C5'       -9.3290    6.1650   42.0050 C.3    60  C60         0.1812
   1260  O5'       -8.4550    5.8120   43.0620 O.3    60  C60        -0.3114
   1261  C4'       -8.6200    6.9590   40.9530 C.3    60  C60         0.1773
   1262  O4'       -8.0430    8.1560   41.5480 O.3    60  C60        -0.3307
   1263  C3'       -7.4310    6.2540   40.3330 C.3    60  C60         0.1860
   1264  O3'       -7.7890    5.2790   39.3630 O.3    60  C60        -0.3112
   1265  C2'       -6.6000    7.4180   39.8120 C.3    60  C60         0.2309
   1266  O2'       -7.1670    7.9600   38.6280 O.3    60  C60        -0.2156
   1267  C1'       -6.7980    8.4390   40.9320 C.3    60  C60         0.2420
   1268  N1        -5.7190    8.3600   41.9430 N.ar   60  C60        -0.2535
   1269  C2        -4.4570    8.8860   41.6070 C.ar   60  C60         0.3532
   1270  O2        -4.2960    9.3870   40.4730 O.2    60  C60        -0.2443
   1271  N3        -3.4540    8.8350   42.5270 N.ar   60  C60        -0.1739
   1272  C4        -3.6940    8.2870   43.7250 C.ar   60  C60         0.1759
   1273  N4        -2.6890    8.2430   44.6010 N.pl3  60  C60        -0.1070
   1274  C5        -4.9690    7.7530   44.0960 C.ar   60  C60         0.0566
   1275  C6        -5.9380    7.8050   43.1780 C.ar   60  C60         0.0850
   1276  OP1       -9.9780    4.0610   43.9890 O.2    60  C60        -0.5172
   1277  OP2       -7.9530    4.9260   45.3010 O.co2  60  C60        -0.4373
   1278  P         -6.9260    3.9250   39.2580 P.3    61  U61         0.2141
   1279  C5'       -5.2790    5.1260   37.6000 C.3    61  U61         0.1812
   1280  O5'       -5.4770    4.4410   38.8310 O.3    61  U61        -0.3114
   1281  C4'       -3.8620    5.6260   37.4550 C.3    61  U61         0.1773
   1282  O4'       -3.5400    6.5440   38.5340 O.3    61  U61        -0.3307
   1283  C3'       -2.7740    4.5710   37.5300 C.3    61  U61         0.1860
   1284  O3'       -2.6110    3.8700   36.3060 O.3    61  U61        -0.3112
   1285  C2'       -1.5430    5.3810   37.9380 C.3    61  U61         0.2309
   1286  O2'       -0.9370    6.0020   36.8120 O.3    61  U61        -0.2156
   1287  C1'       -2.1590    6.4600   38.8430 C.3    61  U61         0.2420
   1288  N1        -1.9920    6.1500   40.2880 N.ar   61  U61        -0.2534
   1289  C2        -0.7710    6.4070   40.8990 C.ar   61  U61         0.3546
   1290  O2         0.1890    6.8880   40.3200 O.2    61  U61        -0.2443
   1291  N3        -0.6980    6.0850   42.2360 N.ar   61  U61        -0.1530
   1292  C4        -1.7000    5.5390   43.0130 C.ar   61  U61         0.2846
   1293  O4        -1.4910    5.3020   44.2050 O.2    61  U61        -0.2650
   1294  C5        -2.9220    5.2980   42.3150 C.ar   61  U61         0.0814
   1295  C6        -3.0180    5.6020   41.0190 C.ar   61  U61         0.0870
   1296  OP1       -7.4480    3.0810   38.1590 O.2    61  U61        -0.5172
   1297  OP2       -6.8240    3.3470   40.6220 O.co2  61  U61        -0.4373
   1298  P         -2.4740    2.2650   36.2740 P.3    62  U62         0.2141
   1299  C5'        0.1310    2.0960   35.9390 C.3    62  U62         0.1812
   1300  O5'       -1.1770    2.0130   35.3790 O.3    62  U62        -0.3114
   1301  C4'        1.1870    2.3130   34.8810 C.3    62  U62         0.1773
   1302  O4'        0.5320    2.5780   33.6140 O.3    62  U62        -0.3307
   1303  C3'        2.1150    3.4940   35.1350 C.3    62  U62         0.1860
   1304  O3'        3.4020    3.2280   34.5750 O.3    62  U62        -0.3112
   1305  C2'        1.4380    4.6220   34.3640 C.3    62  U62         0.2309
   1306  O2'        2.3110    5.6600   33.9680 O.3    62  U62        -0.2156
   1307  C1'        0.8550    3.8790   33.1610 C.3    62  U62         0.2420
   1308  N1        -0.3860    4.4740   32.6440 N.ar   62  U62        -0.2534
   1309  C2        -0.3040    5.5330   31.7630 C.ar   62  U62         0.3546
   1310  O2         0.7610    6.0040   31.4040 O.2    62  U62        -0.2443
   1311  N3        -1.5140    6.0240   31.3290 N.ar   62  U62        -0.1530
   1312  C4        -2.7720    5.5620   31.6750 C.ar   62  U62         0.2846
   1313  O4        -3.7770    6.1000   31.2030 O.2    62  U62        -0.2650
   1314  C5        -2.7710    4.4570   32.5860 C.ar   62  U62         0.0814
   1315  C6        -1.6070    3.9640   33.0240 C.ar   62  U62         0.0870
   1316  OP1       -3.6520    1.7240   35.5430 O.2    62  U62        -0.5172
   1317  OP2       -2.1650    1.7720   37.6400 O.co2  62  U62        -0.4373
   1318  P          4.5440    2.5410   35.4750 P.3    63  C63         0.2141
   1319  C5'        5.5220    4.4190   37.0420 C.3    63  C63         0.1812
   1320  O5'        4.5560    3.3990   36.8150 O.3    63  C63        -0.3114
   1321  C4'        5.6360    4.7530   38.5120 C.3    63  C63         0.1773
   1322  O4'        4.3060    4.9690   39.0620 O.3    63  C63        -0.3307
   1323  C3'        6.2760    3.6730   39.3830 C.3    63  C63         0.1860
   1324  O3'        6.9350    4.3080   40.4780 O.3    63  C63        -0.3112
   1325  C2'        5.0620    2.9210   39.9160 C.3    63  C63         0.2309
   1326  O2'        5.3010    2.1900   41.1020 O.3    63  C63        -0.2156
   1327  C1'        4.0880    4.0730   40.1380 C.3    63  C63         0.2420
   1328  N1         2.6610    3.7110   40.1570 N.ar   63  C63        -0.2535
   1329  C2         2.0280    3.6560   41.3990 C.ar   63  C63         0.3532
   1330  O2         2.7100    3.8750   42.4070 O.2    63  C63        -0.2443
   1331  N3         0.7070    3.3590   41.4780 N.ar   63  C63        -0.1739
   1332  C4         0.0240    3.1280   40.3560 C.ar   63  C63         0.1759
   1333  N4        -1.2750    2.8380   40.4640 N.pl3  63  C63        -0.1070
   1334  C5         0.6510    3.1860   39.0750 C.ar   63  C63         0.0566
   1335  C6         1.9540    3.4890   39.0120 C.ar   63  C63         0.0850
   1336  OP1        5.8530    2.7230   34.7900 O.2    63  C63        -0.5172
   1337  OP2        4.0680    1.1840   35.8510 O.co2  63  C63        -0.4373
   1338  P          8.5090    4.6070   40.4130 P.3    64  G64         0.2141
   1339  C5'        8.1480    7.1790   40.0160 C.3    64  G64         0.1812
   1340  O5'        8.6210    5.9310   39.5310 O.3    64  G64        -0.3114
   1341  C4'        8.2440    8.2440   38.9520 C.3    64  G64         0.1773
   1342  O4'        7.6460    7.7660   37.7220 O.3    64  G64        -0.3307
   1343  C3'        7.5270    9.5540   39.2480 C.3    64  G64         0.1860
   1344  O3'        8.3350   10.4180   40.0270 O.3    64  G64        -0.3112
   1345  C2'        7.2290   10.1090   37.8580 C.3    64  G64         0.2309
   1346  O2'        8.3490   10.8220   37.3600 O.3    64  G64        -0.2156
   1347  C1'        7.0480    8.8330   37.0270 C.3    64  G64         0.2408
   1348  N1         2.4540    7.4340   38.8900 N.ar   64  G64        -0.1709
   1349  C2         3.6050    7.7230   39.5800 C.ar   64  G64         0.2606
   1350  N2         3.5400    7.6160   40.9180 N.pl3  64  G64        -0.0859
   1351  N3         4.7410    8.0710   39.0010 N.ar   64  G64        -0.1918
   1352  C4         4.6440    8.1270   37.6560 C.ar   64  G64         0.1723
   1353  C5         3.5330    7.8630   36.8770 C.ar   64  G64         0.1748
   1354  C6         2.3200    7.4850   37.5080 C.ar   64  G64         0.3023
   1355  O6         1.2370    7.2100   36.9800 O.2    64  G64        -0.2633
   1356  N7         3.8170    8.0250   35.5280 N.ar   64  G64        -0.2173
   1357  C8         5.0730    8.3800   35.5110 C.ar   64  G64         0.1817
   1358  N9         5.6390    8.4770   36.7620 N.ar   64  G64        -0.2693
   1359  OP1        9.1480    3.5110   39.6360 O.2    64  G64        -0.5172
   1360  OP2        8.9560    4.9230   41.7960 O.co2  64  G64        -0.4373
   1361  P          7.6920   11.4700   41.0480 P.3    65  G65         0.2141
   1362  C5'        6.0870   13.4130   40.2790 C.3    65  G65         0.1812
   1363  O5'        7.3270   12.7290   40.1300 O.3    65  G65        -0.3114
   1364  C4'        5.0830   13.0260   39.2110 C.3    65  G65         0.1773
   1365  O4'        4.7890   11.6040   39.3040 O.3    65  G65        -0.3307
   1366  C3'        3.7130   13.6950   39.3040 C.3    65  G65         0.1860
   1367  O3'        3.6690   14.9990   38.7400 O.3    65  G65        -0.3112
   1368  C2'        2.7980   12.6980   38.6050 C.3    65  G65         0.2309
   1369  O2'        2.8920   12.8190   37.1930 O.3    65  G65        -0.2156
   1370  C1'        3.4220   11.3700   39.0300 C.3    65  G65         0.2408
   1371  N1        -0.8290    9.8100   41.4330 N.ar   65  G65        -0.1709
   1372  C2        -0.6950   10.2320   40.1280 C.ar   65  G65         0.2606
   1373  N2        -1.8220   10.2290   39.3930 N.pl3  65  G65        -0.0859
   1374  N3         0.4610   10.6140   39.5900 N.ar   65  G65        -0.1918
   1375  C4         1.4830   10.5490   40.4810 C.ar   65  G65         0.1723
   1376  C5         1.4460   10.1510   41.8090 C.ar   65  G65         0.1748
   1377  C6         0.2040    9.7440   42.3640 C.ar   65  G65         0.3023
   1378  O6        -0.0140    9.3560   43.5130 O.2    65  G65        -0.2633
   1379  N7         2.7050   10.2220   42.4000 N.ar   65  G65        -0.2173
   1380  C8         3.4710   10.6550   41.4490 C.ar   65  G65         0.1817
   1381  N9         2.8050   10.8660   40.2640 N.ar   65  G65        -0.2693
   1382  OP1        8.7620   11.8510   42.0110 O.3    65  G65        -0.4373
   1383  OP2        6.4410   10.8600   41.5640 O.co2  65  G65        -0.5172
   1384  P          3.0050   16.2010   39.5740 P.3    66  C66         0.2141
   1385  C5'        0.8290   15.8140   38.1420 C.3    66  C66         0.1812
   1386  O5'        1.4230   15.9660   39.4280 O.3    66  C66        -0.3114
   1387  C4'       -0.5990   15.3150   38.1990 C.3    66  C66         0.1773
   1388  O4'       -0.6580   13.9510   38.7060 O.3    66  C66        -0.3307
   1389  C3'       -1.5640   16.0700   39.0940 C.3    66  C66         0.1860
   1390  O3'       -2.0100   17.2960   38.5370 O.3    66  C66        -0.3112
   1391  C2'       -2.6820   15.0520   39.2840 C.3    66  C66         0.2309
   1392  O2'       -3.4940   14.9990   38.1210 O.3    66  C66        -0.2156
   1393  C1'       -1.8860   13.7460   39.3870 C.3    66  C66         0.2420
   1394  N1        -1.6140   13.3840   40.8090 N.ar   66  C66        -0.2535
   1395  C2        -2.6620   12.8980   41.6060 C.ar   66  C66         0.3532
   1396  O2        -3.7880   12.7570   41.1120 O.2    66  C66        -0.2443
   1397  N3        -2.4390   12.5610   42.8980 N.ar   66  C66        -0.1739
   1398  C4        -1.2440   12.6970   43.4540 C.ar   66  C66         0.1759
   1399  N4        -1.1130   12.3490   44.7500 N.pl3  66  C66        -0.1070
   1400  C5        -0.1450   13.1900   42.6770 C.ar   66  C66         0.0566
   1401  C6        -0.3740   13.5200   41.3930 C.ar   66  C66         0.0850
   1402  OP1        3.4080   17.4660   38.9070 O.2    66  C66        -0.5172
   1403  OP2        3.3610   15.9930   40.9990 O.co2  66  C66        -0.4373
   1404  P         -2.6630   18.4280   39.4860 P.3    67  C67         0.2141
   1405  C5'       -5.0930   17.5990   38.9480 C.3    67  C67         0.1812
   1406  O5'       -4.0760   17.8240   39.9140 O.3    67  C67        -0.3114
   1407  C4'       -6.3500   17.0340   39.5730 C.3    67  C67         0.1773
   1408  O4'       -6.0770   15.7480   40.1890 O.3    67  C67        -0.3307
   1409  C3'       -6.9750   17.8610   40.6900 C.3    67  C67         0.1860
   1410  O3'       -7.7820   18.9010   40.1860 O.3    67  C67        -0.3112
   1411  C2'       -7.7630   16.8210   41.4780 C.3    67  C67         0.2309
   1412  O2'       -8.9750   16.5050   40.8080 O.3    67  C67        -0.2156
   1413  C1'       -6.8450   15.6050   41.3690 C.3    67  C67         0.2420
   1414  N1        -5.9260   15.4540   42.5280 N.ar   67  C67        -0.2535
   1415  C2        -6.4140   14.8550   43.6860 C.ar   67  C67         0.3532
   1416  O2        -7.5940   14.5010   43.6980 O.2    67  C67        -0.2443
   1417  N3        -5.5990   14.6600   44.7450 N.ar   67  C67        -0.1739
   1418  C4        -4.3310   15.0500   44.6940 C.ar   67  C67         0.1759
   1419  N4        -3.5570   14.8360   45.7650 N.pl3  67  C67        -0.1070
   1420  C5        -3.8010   15.6630   43.5230 C.ar   67  C67         0.0566
   1421  C6        -4.6250   15.8350   42.4780 C.ar   67  C67         0.0850
   1422  OP1       -2.9500   19.6200   38.6460 O.2    67  C67        -0.5172
   1423  OP2       -1.8220   18.5750   40.6990 O.co2  67  C67        -0.4373
   1424  P         -8.1590   20.1550   41.0980 P.3    68  A68         0.2141
   1425  C5'      -10.4710   19.0730   41.6830 C.3    68  A68         0.1812
   1426  O5'       -9.2210   19.5770   42.1400 O.3    68  A68        -0.3114
   1427  C4'      -11.3030   18.5580   42.8330 C.3    68  A68         0.1773
   1428  O4'      -10.6930   17.3680   43.3910 O.3    68  A68        -0.3307
   1429  C3'      -11.4370   19.4980   44.0170 C.3    68  A68         0.1860
   1430  O3'      -12.4630   20.4460   43.8210 O.3    68  A68        -0.3112
   1431  C2'      -11.7020   18.5450   45.1770 C.3    68  A68         0.2309
   1432  O2'      -13.0540   18.0950   45.1580 O.3    68  A68        -0.2156
   1433  C1'      -10.8290   17.3620   44.7890 C.3    68  A68         0.2408
   1434  N1        -7.8560   16.2970   48.8690 N.ar   68  A68        -0.2040
   1435  C2        -9.1710   16.1440   48.6420 C.ar   68  A68         0.2016
   1436  N3        -9.8730   16.4530   47.5610 N.ar   68  A68        -0.2048
   1437  C4        -9.0970   16.9770   46.6070 C.ar   68  A68         0.1692
   1438  C5        -7.7390   17.2100   46.6760 C.ar   68  A68         0.1518
   1439  C6        -7.0970   16.8350   47.8760 C.ar   68  A68         0.1919
   1440  N6        -5.7980   16.9820   48.0890 N.pl3  68  A68        -0.1054
   1441  N7        -7.2860   17.7650   45.4890 N.ar   68  A68        -0.2193
   1442  C8        -8.3460   17.8770   44.7470 C.ar   68  A68         0.1816
   1443  N9        -9.4800   17.4270   45.3660 N.ar   68  A68        -0.2693
   1444  OP1       -8.9160   21.1230   40.2530 O.2    68  A68        -0.5172
   1445  OP2       -6.9110   20.5550   41.7750 O.co2  68  A68        -0.4373
   1446  P        -12.2300   21.9600   44.2650 P.3    69  C69         0.2141
   1447  C5'      -13.5620   21.4580   46.4680 C.3    69  C69         0.1812
   1448  O5'      -12.3660   21.9180   45.8560 O.3    69  C69        -0.3114
   1449  C4'      -13.3530   21.1240   47.9250 C.3    69  C69         0.1773
   1450  O4'      -12.4040   20.0350   48.0630 O.3    69  C69        -0.3307
   1451  C3'      -12.7780   22.2420   48.7820 C.3    69  C69         0.1860
   1452  O3'      -13.7830   23.1430   49.1940 O.3    69  C69        -0.3112
   1453  C2'      -12.1250   21.4880   49.9330 C.3    69  C69         0.2309
   1454  O2'      -13.0780   21.1530   50.9400 O.3    69  C69        -0.2156
   1455  C1'      -11.6420   20.2060   49.2360 C.3    69  C69         0.2420
   1456  N1       -10.2070   20.2900   48.8620 N.ar   69  C69        -0.2535
   1457  C2        -9.2590   20.0430   49.8690 C.ar   69  C69         0.3532
   1458  O2        -9.6580   19.7560   51.0050 O.2    69  C69        -0.2443
   1459  N3        -7.9420   20.1260   49.5790 N.ar   69  C69        -0.1739
   1460  C4        -7.5490   20.4420   48.3500 C.ar   69  C69         0.1759
   1461  N4        -6.2220   20.5090   48.1260 N.pl3  69  C69        -0.1070
   1462  C5        -8.4950   20.6970   47.3070 C.ar   69  C69         0.0566
   1463  C6        -9.7960   20.6180   47.6050 C.ar   69  C69         0.0850
   1464  OP1      -13.3540   22.7460   43.7100 O.2    69  C69        -0.5172
   1465  OP2      -10.8250   22.2760   43.9410 O.co2  69  C69        -0.4373
   1466  P        -13.4930   24.7220   49.2290 P.3    70  A70         0.2141
   1467  C5'      -12.6000   24.8800   51.7040 C.3    70  A70         0.1812
   1468  O5'      -12.3240   24.8520   50.3050 O.3    70  A70        -0.3114
   1469  C4'      -11.4000   25.4140   52.4530 C.3    70  A70         0.1773
   1470  O4'      -10.2190   24.6270   52.0800 O.3    70  A70        -0.3307
   1471  C3'      -11.0500   26.8750   52.1330 C.3    70  A70         0.1860
   1472  O3'      -10.4350   27.4800   53.2760 O.3    70  A70        -0.3112
   1473  C2'       -9.9920   26.7080   51.0440 C.3    70  A70         0.2309
   1474  O2'       -9.1430   27.8120   50.8440 O.3    70  A70        -0.2156
   1475  C1'       -9.2270   25.4990   51.5690 C.3    70  A70         0.2408
   1476  N1        -4.5160   23.9670   50.4030 N.ar   70  A70        -0.2040
   1477  C2        -5.0490   24.5100   51.5020 C.ar   70  A70         0.2016
   1478  N3        -6.3080   24.8670   51.7140 N.ar   70  A70        -0.2048
   1479  C4        -7.0620   24.6180   50.6430 C.ar   70  A70         0.1692
   1480  C5        -6.6540   24.0700   49.4380 C.ar   70  A70         0.1518
   1481  C6        -5.2880   23.7440   49.3210 C.ar   70  A70         0.1919
   1482  N6        -4.6770   23.2270   48.2440 N.pl3  70  A70        -0.1054
   1483  N7        -7.7410   23.9750   48.5790 N.ar   70  A70        -0.2193
   1484  C8        -8.7490   24.4780   49.2610 C.ar   70  A70         0.1816
   1485  N9        -8.4080   24.8580   50.5420 N.ar   70  A70        -0.2693
   1486  OP1      -14.7380   25.3440   49.7740 O.3    70  A70        -0.4373
   1487  OP2      -12.9200   25.1340   47.9400 O.co2  70  A70        -0.5172
   1488  P        -11.3020   27.9140   54.5590 P.3    71  A71         0.2141
   1489  C5'      -10.3510   26.2700   56.3890 C.3    71  A71         0.1812
   1490  O5'      -11.3870   26.6030   55.4640 O.3    71  A71        -0.3114
   1491  C4'       -9.5030   25.1260   55.8910 C.3    71  A71         0.1773
   1492  O4'       -8.4730   25.6320   54.9910 O.3    71  A71        -0.3307
   1493  C3'       -8.7300   24.3710   56.9550 C.3    71  A71         0.1860
   1494  O3'       -9.5230   23.3850   57.6030 O.3    71  A71        -0.3112
   1495  C2'       -7.5560   23.7850   56.1670 C.3    71  A71         0.2309
   1496  O2'       -7.9680   22.6290   55.4590 O.3    71  A71        -0.2156
   1497  C1'       -7.2720   24.8970   55.1630 C.3    71  A71         0.2408
   1498  N1        -2.2360   25.4900   56.4390 N.ar   71  A71        -0.2040
   1499  C2        -2.9170   24.4460   55.9390 C.ar   71  A71         0.2016
   1500  N3        -4.2160   24.3570   55.6280 N.ar   71  A71        -0.2048
   1501  C4        -4.8820   25.5110   55.8620 C.ar   71  A71         0.1692
   1502  C5        -4.3100   26.6580   56.3710 C.ar   71  A71         0.1518
   1503  C6        -2.9190   26.6240   56.6690 C.ar   71  A71         0.1919
   1504  N6        -2.2570   27.6710   57.1580 N.pl3  71  A71        -0.1054
   1505  N7        -5.2650   27.6560   56.4960 N.ar   71  A71        -0.2193
   1506  C8        -6.3730   27.1070   56.0610 C.ar   71  A71         0.1816
   1507  N9        -6.2200   25.8040   55.6660 N.ar   71  A71        -0.2693
   1508  OP1      -12.6880   28.1760   54.1270 O.2    71  A71        -0.5172
   1509  OP2      -10.5040   28.9620   55.2390 O.co2  71  A71        -0.4373
   1510  P         -9.3310   23.0640   59.1690 P.3    72  A72         0.2141
   1511  C5'       -7.7110   21.0990   58.5760 C.3    72  A72         0.1812
   1512  O5'       -7.9190   22.3320   59.2340 O.3    72  A72        -0.3114
   1513  C4'       -6.2830   20.6590   58.7100 C.3    72  A72         0.1773
   1514  O4'       -5.4100   21.6070   58.0290 O.3    72  A72        -0.3307
   1515  C3'       -5.7090   20.6330   60.1120 C.3    72  A72         0.1860
   1516  O3'       -6.1400   19.5350   60.8990 O.3    72  A72        -0.3112
   1517  C2'       -4.2070   20.6390   59.8260 C.3    72  A72         0.2309
   1518  O2'       -3.7900   19.3730   59.3540 O.3    72  A72        -0.2156
   1519  C1'       -4.1350   21.5970   58.6420 C.3    72  A72         0.2408
   1520  N1        -0.2860   24.5930   60.2650 N.ar   72  A72        -0.2040
   1521  C2        -0.3600   23.2870   59.9360 C.ar   72  A72         0.2016
   1522  N3        -1.4070   22.5520   59.5110 N.ar   72  A72        -0.2048
   1523  C4        -2.5050   23.3350   59.4430 C.ar   72  A72         0.1692
   1524  C5        -2.5870   24.6890   59.7470 C.ar   72  A72         0.1518
   1525  C6        -1.4150   25.3400   60.1720 C.ar   72  A72         0.1919
   1526  N6        -1.3780   26.6390   60.4780 N.pl3  72  A72        -0.1054
   1527  N7        -3.8630   25.1530   59.5510 N.ar   72  A72        -0.2193
   1528  C8        -4.5290   24.0930   59.1350 C.ar   72  A72         0.1816
   1529  N9        -3.7630   22.9570   59.0530 N.ar   72  A72        -0.2693
   1530  OP1      -10.3840   22.0920   59.5460 O.2    72  A72        -0.5172
   1531  OP2       -9.2370   24.3180   59.9440 O.co2  72  A72        -0.4373
   1532  P         -5.9210   19.5710   62.4960 P.3    73  G73         0.2141
   1533  C5'       -3.8270   17.9930   62.3170 C.3    73  G73         0.1812
   1534  O5'       -4.3680   19.2390   62.7280 O.3    73  G73        -0.3114
   1535  C4'       -2.3330   17.9400   62.5300 C.3    73  G73         0.1773
   1536  O4'       -1.6600   18.9530   61.7280 O.3    73  G73        -0.3307
   1537  C3'       -1.8280   18.2110   63.9420 C.3    73  G73         0.1860
   1538  O3'       -1.9440   17.0920   64.8010 O.3    73  G73        -0.3112
   1539  C2'       -0.3780   18.6060   63.6870 C.3    73  G73         0.2309
   1540  O2'        0.4050   17.4520   63.3870 O.3    73  G73        -0.2156
   1541  C1'       -0.5180   19.4270   62.4140 C.3    73  G73         0.2408
   1542  N1         1.7430   23.8760   63.5520 N.ar   73  G73        -0.1709
   1543  C2         2.3030   22.6440   63.3840 C.ar   73  G73         0.2606
   1544  N2         3.6330   22.5770   63.5520 N.pl3  73  G73        -0.0859
   1545  N3         1.6200   21.5530   63.0940 N.ar   73  G73        -0.1918
   1546  C4         0.2870   21.7910   62.9910 C.ar   73  G73         0.1723
   1547  C5        -0.3760   22.9880   63.1470 C.ar   73  G73         0.1748
   1548  C6         0.3860   24.1470   63.4600 C.ar   73  G73         0.3023
   1549  O6        -0.0040   25.3050   63.6280 O.2    73  G73        -0.2633
   1550  N7        -1.7470   22.8250   62.9740 N.ar   73  G73        -0.2173
   1551  C8        -1.8850   21.5610   62.6920 C.ar   73  G73         0.1817
   1552  N9        -0.6990   20.8630   62.6940 N.ar   73  G73        -0.2693
   1553  OP1       -6.7180   18.4670   63.0660 O.3    73  G73        -0.4373
   1554  OP2       -6.1290   20.9700   62.9470 O.co2  73  G73        -0.5172
   1555  P         -1.8200   17.2830   66.3940 P.3    74  G74         0.2141
   1556  C5'        0.0810   18.6610   67.5950 C.3    74  G74         0.1812
   1557  O5'       -0.3040   17.7010   66.6190 O.3    74  G74        -0.3114
   1558  C4'        1.4720   19.1880   67.3070 C.3    74  G74         0.1773
   1559  O4'        1.4270   20.1140   66.1850 O.3    74  G74        -0.3307
   1560  C3'        2.1320   19.9830   68.4260 C.3    74  G74         0.1860
   1561  O3'        2.7590   19.1540   69.3770 O.3    74  G74        -0.3112
   1562  C2'        3.1020   20.8810   67.6760 C.3    74  G74         0.2309
   1563  O2'        4.2370   20.1490   67.2530 O.3    74  G74        -0.2156
   1564  C1'        2.2940   21.2040   66.4220 C.3    74  G74         0.2408
   1565  N1         2.2280   26.2870   67.2850 N.ar   74  G74        -0.1709
   1566  C2         3.2910   25.4300   67.2670 C.ar   74  G74         0.2606
   1567  N2         4.4800   25.9910   67.5000 N.pl3  74  G74        -0.0859
   1568  N3         3.1900   24.1250   67.0370 N.ar   74  G74        -0.1918
   1569  C4         1.9220   23.7260   66.8100 C.ar   74  G74         0.1723
   1570  C5         0.7890   24.5020   66.8020 C.ar   74  G74         0.1748
   1571  C6         0.9100   25.8990   67.0510 C.ar   74  G74         0.3023
   1572  O6         0.0350   26.7770   67.0770 O.2    74  G74        -0.2633
   1573  N7        -0.3300   23.7160   66.5330 N.ar   74  G74        -0.2173
   1574  C8         0.1210   22.5070   66.3930 C.ar   74  G74         0.1817
   1575  N9         1.4870   22.4370   66.5560 N.ar   74  G74        -0.2693
   1576  OP1       -2.0300   15.9460   67.0000 O.3    74  G74        -0.4373
   1577  OP2       -2.6310   18.4260   66.8080 O.co2  74  G74        -0.5172
   1578  P          2.5910   19.4290   70.9640 P.3    75  A75         0.2141
   1579  C5'        4.8900   20.6090   70.8360 C.3    75  A75         0.1812
   1580  O5'        3.5380   20.6700   71.2320 O.3    75  A75        -0.3114
   1581  C4'        5.5820   21.9050   71.1120 C.3    75  A75         0.1773
   1582  O4'        5.1860   22.8950   70.1310 O.3    75  A75        -0.3307
   1583  C3'        5.2410   22.5320   72.4450 C.3    75  A75         0.1860
   1584  O3'        6.0000   21.9550   73.5030 O.3    75  A75        -0.3112
   1585  C2'        5.5180   24.0080   72.1940 C.3    75  A75         0.2309
   1586  O2'        6.9140   24.2620   72.2390 O.3    75  A75        -0.2156
   1587  C1'        5.0700   24.1560   70.7420 C.3    75  A75         0.2408
   1588  N1         1.7810   28.1330   70.6630 N.ar   75  A75        -0.2040
   1589  C2         3.1080   28.0710   70.8510 C.ar   75  A75         0.2016
   1590  N3         3.9060   27.0060   70.8600 N.ar   75  A75        -0.2048
   1591  C4         3.1970   25.8810   70.6500 C.ar   75  A75         0.1692
   1592  C5         1.8350   25.7790   70.4520 C.ar   75  A75         0.1518
   1593  C6         1.1050   26.9790   70.4530 C.ar   75  A75         0.1919
   1594  N6        -0.2080   27.0380   70.2710 N.pl3  75  A75        -0.1054
   1595  N7         1.4590   24.4610   70.2750 N.ar   75  A75        -0.2193
   1596  C8         2.5770   23.7970   70.3700 C.ar   75  A75         0.1816
   1597  N9         3.6680   24.5940   70.6020 N.ar   75  A75        -0.2693
   1598  OP1        3.2060   18.2480   71.6060 O.3    75  A75        -0.4373
   1599  OP2        1.1980   19.8340   71.3050 O.co2  75  A75        -0.5172
   1600  P          5.4550   21.9690   75.0100 P.3    76  G76         0.2141
   1601  C5'        4.5800   24.3050   75.8200 C.3    76  G76         0.1812
   1602  O5'        5.6910   23.4850   75.4300 O.3    76  G76        -0.3114
   1603  C4'        4.9770   25.7590   75.8250 C.3    76  G76         0.1773
   1604  O4'        4.8210   26.2970   74.4850 O.3    76  G76        -0.3307
   1605  C3'        4.1370   26.6440   76.7440 C.3    76  G76         0.1860
   1606  O3'        4.8740   26.9500   77.9240 O.3    76  G76        -0.3112
   1607  C2'        3.8410   27.8710   75.8830 C.3    76  G76         0.2309
   1608  O2'        4.8550   28.8530   75.9440 O.3    76  G76        -0.2156
   1609  C1'        3.7890   27.2550   74.4880 C.3    76  G76         0.2408
   1610  N1        -1.1370   27.7600   73.3570 N.ar   76  G76        -0.1709
   1611  C2        -0.1930   28.7300   73.5840 C.ar   76  G76         0.2606
   1612  N2        -0.6170   29.9990   73.4990 N.pl3  76  G76        -0.0859
   1613  N3         1.0720   28.4770   73.8730 N.ar   76  G76        -0.1918
   1614  C4         1.3230   27.1510   73.9180 C.ar   76  G76         0.1723
   1615  C5         0.4530   26.1030   73.7070 C.ar   76  G76         0.1748
   1616  C6        -0.9020   26.3900   73.3980 C.ar   76  G76         0.3023
   1617  O6        -1.8260   25.5990   73.1770 O.2    76  G76        -0.2633
   1618  N7         1.1050   24.8860   73.8450 N.ar   76  G76        -0.2173
   1619  C8         2.3360   25.2100   74.1330 C.ar   76  G76         0.1817
   1620  N9         2.5360   26.5680   74.1950 N.ar   76  G76        -0.2693
   1621  OP1        6.3470   21.1130   75.8280 O.3    76  G76        -0.4373
   1622  OP2        3.9950   21.7120   75.0040 O.co2  76  G76        -0.5172
   1623  P          5.0120   25.8260   79.0720 P.3    77  A77         0.2141
   1624  C5'        6.1740   23.4670   79.0690 C.3    77  A77         0.1813
   1625  O5'        6.1550   24.8130   78.5900 O.3    77  A77        -0.3114
   1626  C4'        7.3810   23.1550   79.9330 C.3    77  A77         0.1801
   1627  O4'        8.5250   22.8840   79.0850 O.3    77  A77        -0.3306
   1628  C3'        7.8170   24.2460   80.9050 C.3    77  A77         0.2161
   1629  O3'        8.3510   23.6440   82.0850 O.3    77  A77        -0.2175
   1630  C2'        8.9380   24.9470   80.1460 C.3    77  A77         0.2337
   1631  O2'        9.8740   25.6020   80.9770 O.3    77  A77        -0.2155
   1632  C1'        9.5750   23.7900   79.3730 C.3    77  A77         0.2409
   1633  N1        10.0080   27.1380   75.3210 N.ar   77  A77        -0.2040
   1634  C2         9.2840   27.2170   76.4450 C.ar   77  A77         0.2016
   1635  N3         9.2000   26.3530   77.4600 N.ar   77  A77        -0.2048
   1636  C4         9.9770   25.2650   77.2590 C.ar   77  A77         0.1692
   1637  C5        10.7790   25.0550   76.1400 C.ar   77  A77         0.1518
   1638  C6        10.7830   26.0460   75.1360 C.ar   77  A77         0.1919
   1639  N6        11.5070   25.9630   74.0160 N.pl3  77  A77        -0.1054
   1640  N7        11.4510   23.8470   76.2350 N.ar   77  A77        -0.2193
   1641  C8        11.0570   23.3590   77.3880 C.ar   77  A77         0.1816
   1642  N9        10.1790   24.1590   78.0820 N.ar   77  A77        -0.2693
   1643  OP1        3.7280   25.0760   79.1170 O.2    77  A77        -0.5172
   1644  OP2        5.4860   26.4990   80.3060 O.co2  77  A77        -0.4373
@<TRIPOS>BOND
     1     1     5    1
     2     1    14    2
     3     1    19    1
     4     1    23    1
     5     2    15    2
     6     2    20    1
     7     2    23    1
     8     2    24    1
     9     3    16    2
    10     3    21    1
    11     3    24    1
    12     3    25    1
    13     4     6    1
    14     4     5    1
    15     6     7    1
    16     6     8    1
    17     7    12    1
    18     8     9    1
    19     8    10    1
    20     9    33    1
    21    10    11    1
    22    10    12    1
    23    12    32    1
    24    13    17   ar
    25    13    28   ar
    26    17    18    1
    27    17    22   ar
    28    22    26   ar
    29    26    27   ar
    30    26    32   ar
    31    27    28   ar
    32    27    30   ar
    33    28    29    2
    34    30    31   ar
    35    31    32   ar
    36   214   213    1
    37   210   209    1
    38   210   215    1
    39   209   207    1
    40   209   211    1
    41   215   213    1
    42   215   225    1
    43   207   208    1
    44   213   211    1
    45   211   212    1
    46   225   219   ar
    47   225   224   ar
    48   212   228    1
    49   218   219   ar
    50   218   217   ar
    51   226   206    2
    52   219   220   ar
    53   224   223   ar
    54   217   216   ar
    55   208   206    1
    56   227   206    1
    57   206   189    1
    58   229   231    1
    59   229   230    1
    60   248   228    2
    61   232   231    1
    62   232   237    1
    63   220   223   ar
    64   220   221   ar
    65   231   233    1
    66   228   230    1
    67   228   249    1
    68   216   221   ar
    69   221   222    1
    70   237   247    1
    71   237   235    1
    72   236   235    1
    73   189   188    1
    74   247   246   ar
    75   247   241   ar
    76   233   235    1
    77   233   234    1
    78   246   245   ar
    79   234   250    1
    80   241   240   ar
    81   241   242   ar
    82   240   239   ar
    83   188   190    1
    84   188   186    1
    85   245   242   ar
    86   204   183    2
    87   205   183    1
    88   242   243   ar
    89   190   191    1
    90   190   192    1
    91   239   238   ar
    92   270   250    2
    93   183   185    1
    94   183   169    1
    95   250   271    1
    96   250   252    1
    97   185   184    1
    98   243   238   ar
    99   243   244    1
   100   186   184    1
   101   186   187    1
   102   200   199    2
   103   201   198   ar
   104   201   202   ar
   105   199   198   ar
   106   199   193   ar
   107   198   197   ar
   108   251   252    1
   109   251   253    1
   110   202   203   ar
   111   193   194   ar
   112   197   203   ar
   113   197   196   ar
   114   203   192    1
   115   194   196   ar
   116   194   195    1
   117   192   187    1
   118   182   163    2
   119   254   253    1
   120   254   259    1
   121   181   163    1
   122   169   168    1
   123   253   255    1
   124   163   165    1
   125   163   146    1
   126   268   267   ar
   127   268   269   ar
   128   161   140    2
   129   162   140    1
   130   259   269    1
   131   259   257    1
   132   267   264   ar
   133   269   263   ar
   134   165   164    1
   135   168   170    1
   136   168   166    1
   137   264   263   ar
   138   264   265   ar
   139   138   120    2
   140   263   262   ar
   141   140   142    1
   142   140   126    1
   143   266   265    1
   144   265   260   ar
   145   164   166    1
   146   262   261   ar
   147   255   257    1
   148   255   256    1
   149   146   145    1
   150   170   171    1
   151   170   172    1
   152   139   120    1
   153   260   261   ar
   154   166   167    1
   155   257   258    1
   156   179   177   ar
   157   179   180   ar
   158   178   177    1
   159   142   141    1
   160   177   176   ar
   161   180   173   ar
   162   120   122    1
   163   120   106    1
   164   256   272    1
   165   118   100    2
   166   289   288    2
   167   126   125    1
   168   176   174   ar
   169   173   174   ar
   170   173   172    1
   171   145   143    1
   172   145   147    1
   173   141   143    1
   174   174   175    2
   175   172   167    1
   176   288   282   ar
   177   288   287   ar
   178   290   287   ar
   179   290   291   ar
   180   122   121    1
   181   282   283   ar
   182   106   105    1
   183   287   286   ar
   184   119   100    1
   185   143   144    1
   186   100   102    1
   187   100    84    1
   188   291   292   ar
   189   294   272    2
   190   125   123    1
   191   125   127    1
   192   121   123    1
   193   147   148    1
   194   147   149    1
   195   272   293    1
   196   272   274    1
   197   283   284    1
   198   283   285   ar
   199   286   292   ar
   200   286   285   ar
   201   101   102    1
   202   101   103    1
   203   292   281    1
   204   158   159   ar
   205   158   155   ar
   206   159   160   ar
   207   105   103    1
   208   105   107    1
   209   123   124    1
   210   276   281    1
   211   276   275    1
   212   144   149    1
   213   155   156   ar
   214   155   154   ar
   215   281   279    1
   216   157   156    2
   217   160   149    1
   218   160   154   ar
   219   274   273    1
   220    84    83    1
   221   127   128    1
   222   127   129    1
   223   103   104    1
   224   156   150   ar
   225   154   153   ar
   226   137   136   ar
   227   137   130   ar
   228   136   134   ar
   229    98    78    2
   230   150   151   ar
   231   153   151   ar
   232   107   108    1
   233   107   109    1
   234   124   129    1
   235   273   275    1
   236   310   309    1
   237   151   152    1
   238   275   277    1
   239   129   130    1
   240   130   131   ar
   241    83    81    1
   242    83    85    1
   243   134   135    1
   244   134   133   ar
   245   279   280    1
   246   279   277    1
   247   104   109    1
   248   309   308   ar
   249   309   311   ar
   250   308   306   ar
   251   117   116   ar
   252   117   110   ar
   253    79    80    1
   254    79    81    1
   255    78    80    1
   256    78    99    1
   257    78    62    1
   258   311   312   ar
   259   131   133   ar
   260   131   132    2
   261   109   110    1
   262   116   114   ar
   263   277   278    1
   264    86    85    1
   265    81    82    1
   266   306   307    2
   267   306   305   ar
   268    85    87    1
   269   110   111   ar
   270   312   305   ar
   271   305   304    1
   272   114   115    1
   273   114   113   ar
   274   111   113   ar
   275   111   112    2
   276   304   299    1
   277   304   302    1
   278    62    61    1
   279   332   331    2
   280   299   298    1
   281   325   331   ar
   282   325   326   ar
   283   278   295    1
   284    82    87    1
   285   327   326    1
   286   331   330   ar
   287    87    97    1
   288   326   328   ar
   289    96    97   ar
   290    96    95   ar
   291    97    91   ar
   292    76    56    2
   293   314   295    2
   294   330   329   ar
   295   330   333   ar
   296   328   329   ar
   297    95    92   ar
   298   350   349    1
   299    61    63    1
   300    61    59    1
   301   297   295    1
   302   297   296    1
   303   302   303    1
   304   302   300    1
   305   295   313    1
   306   298   296    1
   307   298   300    1
   308   329   335   ar
   309    91    92   ar
   310    91    90   ar
   311   333   334   ar
   312   348   349   ar
   313   348   354   ar
   314    64    63    1
   315    92    93   ar
   316    90    89   ar
   317   349   351   ar
   318    63    65    1
   319   355   354    2
   320    77    56    1
   321   335   334   ar
   322   335   324    1
   323    56    58    1
   324    56    39    1
   325   354   353   ar
   326    58    57    1
   327   300   301    1
   328    57    59    1
   329    59    60    1
   330    93    94    1
   331    93    88   ar
   332    89    88   ar
   333   351   352   ar
   334   324   319    1
   335   324   322    1
   336   353   352   ar
   337   353   356   ar
   338   352   358   ar
   339   319   318    1
   340    65    60    1
   341    65    75    1
   342    39    38    1
   343   356   357   ar
   344   301   315    1
   345   373   372    2
   346   358   357   ar
   347   358   347    1
   348    75    74   ar
   349    75    69   ar
   350   374   372   ar
   351   374   375   ar
   352   322   323    1
   353   322   320    1
   354   347   342    1
   355   347   345    1
   356    74    73   ar
   357   372   371   ar
   358    68    69   ar
   359    68    67   ar
   360    69    70   ar
   361   376   375    2
   362    54    33    2
   363   337   315    2
   364   318   316    1
   365   318   320    1
   366    73    70   ar
   367   375   377   ar
   368   342   341    1
   369    70    71   ar
   370    67    66   ar
   371   317   315    1
   372   317   316    1
   373   315   336    1
   374    38    40    1
   375    38    36    1
   376   371   370    1
   377   371   378   ar
   378    66    71   ar
   379   346   345    1
   380    71    72    1
   381   320   321    1
   382   370   365    1
   383   370   368    1
   384    55    33    1
   385   345   343    1
   386   377   378   ar
   387    33    35    1
   388   393   392    2
   389   365   364    1
   390    35    34    1
   391    41    40    1
   392    40    42    1
   393    34    36    1
   394   369   368    1
   395    36    37    1
   396   392   394   ar
   397   392   391   ar
   398   341   343    1
   399   341   339    1
   400   394   395   ar
   401   368   366    1
   402   321   338    1
   403   390   391    1
   404   390   385    1
   405   390   388    1
   406   343   344    1
   407   391   398   ar
   408   396   395    2
   409   395   397   ar
   410   385   384    1
   411   364   366    1
   412   364   362    1
   413   339   340    1
   414   340   338    1
   415    42    37    1
   416    42    53    1
   417   389   388    1
   418   398   397   ar
   419   360   338    2
   420    53    52   ar
   421    53    47   ar
   422    52    51   ar
   423   366   367    1
   424    46    47   ar
   425    46    44   ar
   426   338   359    1
   427    47    48   ar
   428   362   363    1
   429   388   386    1
   430    51    48   ar
   431    45    44    1
   432    44    43   ar
   433   344   361    1
   434    48    49   ar
   435    43    49   ar
   436   384   382    1
   437   384   386    1
   438    49    50    2
   439   363   361    1
   440   413   412    2
   441   412   414   ar
   442   412   411   ar
   443   367   381    1
   444   414   415   ar
   445   410   405    1
   446   410   411    1
   447   410   408    1
   448   382   383    1
   449   405   404    1
   450   411   418   ar
   451   386   387    1
   452   361   380    2
   453   361   379    1
   454   415   416    1
   455   415   417   ar
   456   383   381    1
   457   409   408    1
   458   418   417   ar
   459   408   406    1
   460   381   400    2
   461   381   399    1
   462   387   401    1
   463   404   402    1
   464   404   406    1
   465   402   403    1
   466  1313  1312    2
   467  1311  1312   ar
   468  1311  1309   ar
   469  1310  1309    2
   470   406   407    1
   471   403   401    1
   472  1312  1314   ar
   473   433   432    2
   474  1309  1308   ar
   475   425   430    1
   476   425   424    1
   477   401   420    2
   478   401   419    1
   479   432   434   ar
   480   432   431   ar
   481   430   431    1
   482   430   428    1
   483   434   435   ar
   484   431   438   ar
   485   435   436    1
   486   435   437   ar
   487   438   437   ar
   488   407   421    1
   489  1056  1055    1
   490  1067  1048    2
   491  1314  1315   ar
   492  1308  1315   ar
   493  1308  1307    1
   494  1087  1068    2
   495   429   428    1
   496   424   422    1
   497   424   426    1
   498  1307  1302    1
   499  1307  1305    1
   500   422   423    1
   501  1055  1053    1
   502  1055  1057    1
   503   428   426    1
   504  1066  1048    1
   505  1048  1050    1
   506  1048  1031    1
   507  1302  1301    1
   508   423   421    1
   509  1053  1054    1
   510  1053  1051    1
   511   421   440    2
   512   421   439    1
   513  1306  1305    1
   514   426   427    1
   515  1068  1054    1
   516  1068  1086    1
   517  1068  1070    1
   518  1050  1049    1
   519  1083  1082    2
   520  1064  1065   ar
   521  1064  1062   ar
   522  1065  1058   ar
   523  1063  1062    2
   524  1062  1061   ar
   525  1058  1057    1
   526  1058  1059   ar
   527  1305  1303    1
   528  1084  1082   ar
   529  1084  1085   ar
   530  1061  1059   ar
   531  1057  1052    1
   532  1059  1060    2
   533  1304  1303    1
   534  1304  1318    1
   535  1082  1081   ar
   536  1336  1318    2
   537   452   451   ar
   538   452   453   ar
   539   451   456   ar
   540   453   454   ar
   541  1301  1303    1
   542  1301  1299    1
   543   445   450    1
   544   445   444    1
   545  1049  1051    1
   546  1031  1030    1
   547   456   457    1
   548   456   455   ar
   549   454   455   ar
   550   454   460   ar
   551   455   458   ar
   552  1051  1052    1
   553   450   460    1
   554   450   448    1
   555   460   459   ar
   556  1070  1069    1
   557   427   441    1
   558  1085  1078   ar
   559  1046  1025    2
   560   458   459   ar
   561  1047  1025    1
   562  1300  1299    1
   563  1300  1298    1
   564  1318  1337    1
   565  1318  1320    1
   566  1026  1027    1
   567  1026  1028    1
   568  1357  1356   ar
   569  1357  1358   ar
   570  1356  1353   ar
   571  1316  1298    2
   572  1030  1028    1
   573  1030  1032    1
   574  1081  1079   ar
   575  1025  1027    1
   576  1025  1011    1
   577   444   442    1
   578   444   446    1
   579  1078  1079   ar
   580  1078  1077    1
   581  1076  1075    1
   582  1075  1077    1
   583  1075  1073    1
   584   449   448    1
   585  1298  1284    1
   586  1298  1317    1
   587   442   443    1
   588  1284  1283    1
   589  1028  1029    1
   590  1079  1080    2
   591   443   441    1
   592   448   446    1
   593  1069  1071    1
   594   441   462    2
   595   441   461    1
   596  1032  1033    1
   597  1032  1034    1
   598  1358  1347    1
   599  1358  1352   ar
   600  1286  1285    1
   601  1320  1319    1
   602  1353  1354   ar
   603  1353  1352   ar
   604  1077  1072    1
   605  1073  1071    1
   606  1073  1074    1
   607  1355  1354    2
   608  1347  1342    1
   609  1347  1345    1
   610  1319  1321    1
   611  1043  1044   ar
   612  1043  1040   ar
   613  1044  1045   ar
   614   446   447    1
   615  1369  1368    1
   616  1042  1041    2
   617  1040  1041   ar
   618  1040  1039   ar
   619  1011  1010    1
   620  1072  1071    1
   621  1346  1345    1
   622  1041  1035   ar
   623  1045  1039   ar
   624  1045  1034    1
   625  1104  1103    1
   626  1281  1283    1
   627  1281  1279    1
   628  1281  1282    1
   629  1029  1034    1
   630  1354  1348   ar
   631  1283  1285    1
   632  1039  1038   ar
   633  1279  1280    1
   634  1352  1351   ar
   635  1035  1036   ar
   636  1342  1341    1
   637   475   474    2
   638  1038  1036   ar
   639  1023  1005    2
   640  1345  1343    1
   641  1036  1037    1
   642  1285  1287    1
   643   476   474   ar
   644   476   477   ar
   645   474   473   ar
   646  1392  1391    1
   647  1074  1088    1
   648  1385  1387    1
   649  1385  1386    1
   650  1296  1278    2
   651  1024  1005    1
   652  1387  1388    1
   653  1387  1389    1
   654   467   472    1
   655   467   466    1
   656   447   463    1
   657   478   477    1
   658  1105  1102   ar
   659  1105  1106   ar
   660   477   479   ar
   661  1010  1012    1
   662  1010  1008    1
   663   473   472    1
   664   473   480   ar
   665   472   470    1
   666  1108  1088    2
   667  1103  1102   ar
   668  1103  1098   ar
   669  1321  1322    1
   670  1321  1323    1
   671  1282  1287    1
   672  1390  1389    1
   673  1390  1404    1
   674  1368  1370    1
   675  1368  1366    1
   676  1005  1007    1
   677  1005   991    1
   678   479   480   ar
   679  1266  1265    1
   680  1422  1404    2
   681  1007  1006    1
   682  1388  1393    1
   683  1367  1366    1
   684  1367  1384    1
   685  1125  1124    2
   686  1280  1278    1
   687  1102  1101   ar
   688  1287  1288    1
   689  1348  1349   ar
   690  1402  1384    2
   691  1405  1407    1
   692  1405  1406    1
   693  1341  1343    1
   694  1341  1339    1
   695  1012  1013    1
   696  1012  1014    1
   697  1351  1349   ar
   698  1335  1334   ar
   699  1335  1328   ar
   700  1370  1365    1
   701  1370  1381    1
   702  1106  1107   ar
   703  1322  1327    1
   704  1334  1332   ar
   705  1389  1391    1
   706  1088  1090    1
   707  1088  1109    1
   708  1364  1366    1
   709  1364  1365    1
   710  1364  1362    1
   711  1098  1099   ar
   712  1343  1344    1
   713  1278  1264    1
   714  1278  1297    1
   715  1006  1008    1
   716  1391  1393    1
   717  1264  1263    1
   718  1323  1325    1
   719  1323  1324    1
   720  1393  1394    1
   721  1373  1372    1
   722   466   464    1
   723   466   468    1
   724   471   470    1
   725  1386  1384    1
   726  1404  1406    1
   727  1404  1423    1
   728  1008  1009    1
   729  1340  1339    1
   730  1340  1338    1
   731  1407  1408    1
   732  1407  1409    1
   733  1384  1403    1
   734  1349  1350    1
   735  1374  1372   ar
   736  1374  1375   ar
   737  1359  1338    2
   738   464   465    1
   739   470   468    1
   740  1021  1022   ar
   741  1021  1019   ar
   742  1124  1123   ar
   743  1124  1126   ar
   744   463   482    2
   745   463   465    1
   746   463   481    1
   747  1003   985    2
   748  1265  1263    1
   749  1265  1267    1
   750  1022  1015   ar
   751  1020  1019    1
   752  1325  1327    1
   753  1325  1326    1
   754  1101  1107   ar
   755  1101  1100   ar
   756  1090  1089    1
   757  1019  1018   ar
   758  1004   985    1
   759  1344  1361    1
   760  1107  1097    1
   761  1372  1371   ar
   762  1363  1362    1
   763  1363  1361    1
   764  1327  1328    1
   765   991   990    1
   766  1328  1329   ar
   767  1123  1121   ar
   768  1410  1409    1
   769  1410  1424    1
   770  1015  1014    1
   771  1015  1016   ar
   772  1408  1413    1
   773  1099  1100   ar
   774  1444  1424    2
   775  1381  1375   ar
   776  1381  1380   ar
   777  1288  1289   ar
   778  1288  1295   ar
   779  1014  1009    1
   780  1018  1016   ar
   781  1290  1289    2
   782  1263  1261    1
   783  1332  1333    1
   784  1332  1331   ar
   785  1338  1324    1
   786  1338  1360    1
   787  1016  1017    2
   788  1126  1127   ar
   789  1270  1269    2
   790  1375  1376   ar
   791   468   469    1
   792  1092  1097    1
   793  1092  1091    1
   794   985   987    1
   795   985   968    1
   796   983   962    2
   797  1409  1411    1
   798   500   499    2
   799  1089  1091    1
   800  1412  1411    1
   801  1394  1401   ar
   802  1394  1395   ar
   803   493   499   ar
   804   493   494   ar
   805  1289  1291   ar
   806   499   498   ar
   807  1267  1262    1
   808  1267  1268    1
   809   495   494    1
   810  1261  1262    1
   811  1261  1259    1
   812   987   986    1
   813   494   496   ar
   814  1295  1294   ar
   815  1361  1383    2
   816  1361  1382    1
   817  1097  1095    1
   818   990   992    1
   819   990   988    1
   820  1424  1445    1
   821  1424  1426    1
   822  1396  1395    2
   823   498   497   ar
   824   498   501   ar
   825   496   497   ar
   826  1121  1122    2
   827  1121  1120   ar
   828   497   503   ar
   829   501   502   ar
   830   960   942    2
   831  1413  1411    1
   832  1413  1414    1
   833   984   962    1
   834  1401  1400   ar
   835  1329  1331   ar
   836  1329  1330    2
   837   487   492    1
   838   487   486    1
   839  1371  1377   ar
   840   502   503   ar
   841  1380  1379   ar
   842   503   492    1
   843  1091  1093    1
   844  1127  1120   ar
   845   469   483    1
   846  1395  1397   ar
   847  1269  1268   ar
   848  1269  1271   ar
   849   492   490    1
   850   986   988    1
   851  1425  1426    1
   852  1425  1427    1
   853   962   964    1
   854   962   948    1
   855  1376  1377   ar
   856  1376  1379   ar
   857  1120  1119    1
   858  1268  1275   ar
   859   992   993    1
   860   992   994    1
   861  1259  1260    1
   862   968   967    1
   863   988   989    1
   864   961   942    1
   865  1291  1292   ar
   866  1294  1292   ar
   867  1377  1378    2
   868  1093  1095    1
   869  1093  1094    1
   870  1001  1002   ar
   871  1001   999   ar
   872  1095  1096    1
   873   942   944    1
   874   942   928    1
   875  1421  1414   ar
   876  1421  1420   ar
   877  1247  1246    1
   878  1271  1272   ar
   879  1414  1415   ar
   880   964   963    1
   881   940   922    2
   882  1002   995   ar
   883   486   484    1
   884   486   488    1
   885  1000   999    2
   886  1400  1398   ar
   887   999   998   ar
   888   484   485    1
   889   948   947    1
   890  1427  1428    1
   891  1427  1429    1
   892  1397  1398   ar
   893   485   483    1
   894   491   490    1
   895   967   965    1
   896   967   969    1
   897   995   994    1
   898   995   996   ar
   899  1292  1293    2
   900   490   488    1
   901   483   505    2
   902   483   504    1
   903  1260  1258    1
   904   963   965    1
   905  1119  1114    1
   906  1119  1117    1
   907   998   996   ar
   908   944   943    1
   909  1129  1110    2
   910   994   989    1
   911  1275  1274   ar
   912  1114  1113    1
   913   996   997    2
   914  1428  1433    1
   915  1398  1399    1
   916  1420  1418   ar
   917   943   945    1
   918   928   927    1
   919   941   922    1
   920  1094  1110    1
   921  1415  1416    2
   922  1415  1417   ar
   923  1464  1446    2
   924   488   489    1
   925  1272  1274   ar
   926  1272  1273    1
   927  1246  1248   ar
   928  1246  1245   ar
   929   922   924    1
   930   922   906    1
   931   965   966    1
   932   522   521    1
   933   947   945    1
   934   947   949    1
   935  1430  1429    1
   936  1430  1446    1
   937   516   521   ar
   938   516   517   ar
   939  1465  1446    1
   940  1276  1258    2
   941   521   520   ar
   942  1429  1431    1
   943   969   970    1
   944   969   971    1
   945  1243  1242    1
   946   517   518   ar
   947   920   900    2
   948  1111  1113    1
   949  1111  1112    1
   950  1110  1112    1
   951  1110  1128    1
   952  1248  1249   ar
   953  1446  1448    1
   954   924   923    1
   955   981   980   ar
   956   981   982   ar
   957   945   946    1
   958  1258  1241    1
   959  1258  1277    1
   960  1117  1115    1
   961  1117  1118    1
   962   980   977   ar
   963   520   519   ar
   964   520   523   ar
   965  1245  1251   ar
   966   518   519   ar
   967  1113  1115    1
   968   923   925    1
   969   519   525   ar
   970   523   524   ar
   971  1418  1417   ar
   972  1418  1419    1
   973   927   925    1
   974   927   929    1
   975  1442  1443   ar
   976  1442  1441   ar
   977  1242  1240    1
   978  1242  1244    1
   979  1433  1431    1
   980  1433  1443    1
   981   489   506    1
   982   906   905    1
   983  1115  1116    1
   984   966   971    1
   985   982   971    1
   986   982   976   ar
   987   525   524   ar
   988   525   515    1
   989  1241  1240    1
   990   510   515    1
   991   510   509    1
   992   977   976   ar
   993   977   978   ar
   994   949   950    1
   995   949   951    1
   996  1432  1431    1
   997   979   978    2
   998   515   513    1
   999   925   926    1
  1000  1443  1437   ar
  1001   976   975   ar
  1002   978   972   ar
  1003   900   921    1
  1004   900   902    1
  1005   900   883    1
  1006  1441  1438   ar
  1007  1249  1250   ar
  1008  1249  1255   ar
  1009   959   958   ar
  1010   959   952   ar
  1011  1240  1238    1
  1012   946   951    1
  1013   958   956   ar
  1014  1251  1252    2
  1015  1251  1250   ar
  1016  1448  1447    1
  1017  1244  1255    1
  1018  1244  1239    1
  1019   929   930    1
  1020   929   931    1
  1021  1142  1141    2
  1022  1224  1223    1
  1023   975   973   ar
  1024   902   901    1
  1025   972   973   ar
  1026   951   952    1
  1027   507   509    1
  1028   507   508    1
  1029   905   903    1
  1030   905   907    1
  1031   901   903    1
  1032  1149  1130    2
  1033   509   511    1
  1034  1250  1253   ar
  1035   952   953   ar
  1036  1255  1254   ar
  1037   506   508    1
  1038   506   527    2
  1039   506   526    1
  1040  1116  1130    1
  1041   973   974    1
  1042   883   882    1
  1043   898   877    2
  1044  1447  1449    1
  1045   956   957    1
  1046   956   955   ar
  1047   926   931    1
  1048  1437  1438   ar
  1049  1437  1436   ar
  1050  1438  1439   ar
  1051  1141  1143   ar
  1052  1141  1140   ar
  1053  1134  1133    1
  1054  1134  1139    1
  1055   513   514    1
  1056   513   511    1
  1057   543   542    1
  1058   903   904    1
  1059  1143  1144   ar
  1060  1238  1239    1
  1061  1238  1236    1
  1062  1132  1130    1
  1063  1132  1131    1
  1064   939   938   ar
  1065   939   932   ar
  1066  1170  1150    2
  1067  1130  1148    1
  1068  1222  1223   ar
  1069  1222  1228   ar
  1070   931   932    1
  1071  1223  1225   ar
  1072   541   542   ar
  1073   541   539   ar
  1074   953   955   ar
  1075   953   954    2
  1076   908   907    1
  1077   938   936   ar
  1078  1171  1150    1
  1079   542   544   ar
  1080  1133  1131    1
  1081  1133  1135    1
  1082   907   909    1
  1083   511   512    1
  1084  1462  1463   ar
  1085  1462  1460   ar
  1086   932   933   ar
  1087  1139  1140    1
  1088  1139  1137    1
  1089  1254  1253   ar
  1090   540   539    2
  1091  1140  1147   ar
  1092   539   538   ar
  1093  1436  1435   ar
  1094  1463  1456   ar
  1095  1150  1136    1
  1096  1150  1152    1
  1097  1136  1135    1
  1098  1144  1145    2
  1099  1144  1146   ar
  1100   882   880    1
  1101   882   884    1
  1102   878   880    1
  1103   878   879    1
  1104   544   545   ar
  1105   877   879    1
  1106   877   899    1
  1107   877   863    1
  1108  1439  1440    1
  1109  1439  1434   ar
  1110  1229  1228    2
  1111  1449  1450    1
  1112  1449  1451    1
  1113  1487  1466    2
  1114  1228  1227   ar
  1115   936   937    2
  1116   936   935   ar
  1117  1450  1455    1
  1118  1225  1226   ar
  1119  1236  1237    1
  1120   538   545   ar
  1121   538   537    1
  1122   880   881    1
  1123  1461  1460    1
  1124   904   909    1
  1125   933   935   ar
  1126   933   934    2
  1127  1482  1481    1
  1128  1135  1137    1
  1129  1147  1146   ar
  1130   885   884    1
  1131  1460  1459   ar
  1132   560   559    1
  1133   558   559   ar
  1134   558   564   ar
  1135   909   919    1
  1136   565   564    2
  1137   512   528    1
  1138  1483  1484   ar
  1139  1483  1480   ar
  1140   532   537    1
  1141   532   531    1
  1142   537   535    1
  1143  1435  1434   ar
  1144   863   862    1
  1145   884   886    1
  1146  1137  1138    1
  1147  1451  1452    1
  1148  1451  1453    1
  1149   559   561   ar
  1150   564   563   ar
  1151  1456  1455    1
  1152  1456  1457   ar
  1153  1237  1235    1
  1154   918   919   ar
  1155   918   917   ar
  1156  1226  1227   ar
  1157  1226  1232   ar
  1158   919   913   ar
  1159  1152  1151    1
  1160  1227  1230   ar
  1161  1452  1466    1
  1162  1466  1486    1
  1163  1466  1468    1
  1164  1455  1453    1
  1165  1484  1485   ar
  1166  1481  1480   ar
  1167  1481  1476   ar
  1168  1480  1479   ar
  1169   561   562   ar
  1170   563   562   ar
  1171   563   566   ar
  1172   881   886    1
  1173  1459  1457   ar
  1174   917   914   ar
  1175  1220  1219    1
  1176   547   528    2
  1177   562   568   ar
  1178   913   914   ar
  1179   913   912   ar
  1180  1457  1458    2
  1181   528   530    1
  1182   528   546    1
  1183  1453  1454    1
  1184   886   897    1
  1185   531   529    1
  1186   531   533    1
  1187  1151  1153    1
  1188   566   567   ar
  1189   535   536    1
  1190   535   533    1
  1191   530   529    1
  1192   862   860    1
  1193   862   864    1
  1194  1219  1221    1
  1195  1219  1217    1
  1196   914   915   ar
  1197   875   857    2
  1198   912   911   ar
  1199   581   582   ar
  1200   581   586   ar
  1201  1232  1221    1
  1202  1232  1231   ar
  1203  1468  1467    1
  1204   582   583   ar
  1205   865   864    1
  1206  1207  1206    2
  1207  1230  1231   ar
  1208  1476  1477   ar
  1209   568   567   ar
  1210   568   557    1
  1211  1235  1257    2
  1212  1235  1256    1
  1213  1235  1218    1
  1214  1485  1479   ar
  1215  1485  1475    1
  1216   858   860    1
  1217   858   859    1
  1218  1221  1216    1
  1219  1479  1478   ar
  1220   587   586    1
  1221   860   861    1
  1222   897   896   ar
  1223   897   891   ar
  1224   864   866    1
  1225   586   585   ar
  1226   533   534    1
  1227  1167  1168   ar
  1228  1167  1164   ar
  1229   915   910   ar
  1230   915   916    1
  1231   911   910   ar
  1232  1474  1473    1
  1233  1168  1169   ar
  1234   583   584   ar
  1235   896   895   ar
  1236   557   552    1
  1237   557   555    1
  1238   859   857    1
  1239  1473  1475    1
  1240  1473  1471    1
  1241   552   551    1
  1242   891   890   ar
  1243   891   892   ar
  1244   890   888   ar
  1245   857   876    1
  1246   857   843    1
  1247  1154  1153    1
  1248  1154  1159    1
  1249  1205  1206   ar
  1250  1205  1203   ar
  1251  1217  1218    1
  1252  1217  1215    1
  1253  1206  1208   ar
  1254  1153  1155    1
  1255   585   584   ar
  1256   585   588   ar
  1257   584   590   ar
  1258  1477  1478   ar
  1259  1475  1470    1
  1260  1187  1186    1
  1261   895   892   ar
  1262  1467  1469    1
  1263   892   893   ar
  1264   888   889    1
  1265   888   887   ar
  1266  1191  1172    2
  1267  1216  1215    1
  1268   605   604    2
  1269  1470  1469    1
  1270   588   589   ar
  1271  1169  1159    1
  1272  1169  1163   ar
  1273  1164  1165   ar
  1274  1164  1163   ar
  1275   861   866    1
  1276   590   580    1
  1277   590   589   ar
  1278  1471  1469    1
  1279  1471  1472    1
  1280  1166  1165    1
  1281   534   548    1
  1282   866   867    1
  1283   555   556    1
  1284   555   553    1
  1285  1204  1203    2
  1286  1203  1202   ar
  1287   580   575    1
  1288   580   578    1
  1289  1155  1156    1
  1290  1155  1157    1
  1291   843   842    1
  1292  1215  1213    1
  1293  1159  1157    1
  1294   893   887   ar
  1295   893   894    2
  1296  1208  1209   ar
  1297  1188  1186   ar
  1298  1188  1189   ar
  1299   551   549    1
  1300   551   553    1
  1301   604   606   ar
  1302   604   603   ar
  1303  1186  1185   ar
  1304   606   607   ar
  1305  1165  1160   ar
  1306   575   574    1
  1307  1163  1162   ar
  1308   570   548    2
  1309  1156  1172    1
  1310   867   874   ar
  1311   867   868   ar
  1312   549   550    1
  1313   869   868    2
  1314   550   548    1
  1315  1172  1190    1
  1316  1172  1174    1
  1317   608   607    2
  1318   874   873   ar
  1319   553   554    1
  1320   579   578    1
  1321   624   623   ar
  1322   624   625   ar
  1323  1472  1488    1
  1324   548   569    1
  1325   607   609   ar
  1326   602   603    1
  1327   602   597    1
  1328   602   600    1
  1329   603   610   ar
  1330   868   870   ar
  1331  1157  1158    1
  1332   578   576    1
  1333   623   628   ar
  1334  1202  1209   ar
  1335  1202  1201    1
  1336   845   844    1
  1337   625   626   ar
  1338   597   596    1
  1339   842   844    1
  1340   842   840    1
  1341  1214  1213    1
  1342  1214  1212    1
  1343  1189  1182   ar
  1344  1185  1183   ar
  1345   873   871   ar
  1346   601   600    1
  1347   844   846    1
  1348  1160  1161   ar
  1349   609   610   ar
  1350   870   871   ar
  1351  1508  1488    2
  1352  1162  1161   ar
  1353   574   576    1
  1354   574   572    1
  1355   628   629    1
  1356   628   627   ar
  1357  1174  1173    1
  1358   626   627   ar
  1359   626   632   ar
  1360   871   872    2
  1361   600   598    1
  1362  1488  1509    1
  1363  1488  1490    1
  1364   554   571    1
  1365  1234  1212    2
  1366   627   630   ar
  1367   576   577    1
  1368   622   632    1
  1369   622   617    1
  1370   622   620    1
  1371  1199  1201    1
  1372  1199  1197    1
  1373  1199  1200    1
  1374  1201  1196    1
  1375   840   838    1
  1376   840   841    1
  1377   596   598    1
  1378   596   594    1
  1379   632   631   ar
  1380   617   616    1
  1381  1182  1183   ar
  1382  1182  1181    1
  1383  1492  1497    1
  1384  1492  1491    1
  1385   572   573    1
  1386  1183  1184    2
  1387  1212  1233    1
  1388  1212  1198    1
  1389  1497  1507    1
  1390  1497  1495    1
  1391   838   839    1
  1392   573   571    1
  1393   621   620    1
  1394   855   837    2
  1395  1211  1192    2
  1396   592   571    2
  1397  1496  1495    1
  1398  1490  1489    1
  1399   849   848    2
  1400  1197  1198    1
  1401  1197  1195    1
  1402   839   837    1
  1403   846   841    1
  1404   846   847    1
  1405   647   646    2
  1406   630   631   ar
  1407   598   599    1
  1408   571   591    1
  1409  1500  1501   ar
  1410  1500  1499   ar
  1411  1507  1501   ar
  1412  1507  1506   ar
  1413   594   595    1
  1414  1173  1175    1
  1415   620   618    1
  1416   577   593    1
  1417  1501  1502   ar
  1418  1491  1489    1
  1419  1491  1493    1
  1420  1196  1195    1
  1421  1499  1498   ar
  1422   848   847   ar
  1423   848   850   ar
  1424  1506  1505   ar
  1425   847   854   ar
  1426   837   856    1
  1427   837   823    1
  1428   616   614    1
  1429   616   618    1
  1430   595   593    1
  1431  1495  1493    1
  1432  1176  1181    1
  1433  1176  1175    1
  1434  1194  1192    1
  1435  1194  1193    1
  1436   646   648   ar
  1437   646   645   ar
  1438  1181  1179    1
  1439  1502  1505   ar
  1440  1502  1503   ar
  1441  1177  1175    1
  1442  1177  1179    1
  1443  1177  1178    1
  1444  1498  1503   ar
  1445   644   639    1
  1446   644   645    1
  1447   644   642    1
  1448   648   649   ar
  1449   599   613    1
  1450   667   666    2
  1451   850   851   ar
  1452   639   638    1
  1453  1195  1193    1
  1454  1503  1504    1
  1455  1192  1178    1
  1456  1192  1210    1
  1457   854   853   ar
  1458   643   642    1
  1459   645   652   ar
  1460   614   615    1
  1461  1179  1180    1
  1462   618   619    1
  1463   593   612    2
  1464   593   611    1
  1465  1493  1494    1
  1466   666   668   ar
  1467   666   665   ar
  1468   851   853   ar
  1469   851   852    2
  1470   664   659    1
  1471   664   665    1
  1472   664   662    1
  1473   668   669   ar
  1474   649   650    1
  1475   649   651   ar
  1476   659   658    1
  1477   615   613    1
  1478   642   640    1
  1479   665   672   ar
  1480   638   636    1
  1481   638   640    1
  1482   823   822    1
  1483   663   662    1
  1484   652   651   ar
  1485  1494  1510    1
  1486   613   634    2
  1487   613   633    1
  1488   669   670    2
  1489   669   671   ar
  1490   619   635    1
  1491  1514  1519    1
  1492  1514  1513    1
  1493   672   671   ar
  1494   636   637    1
  1495   662   660    1
  1496   658   656    1
  1497   658   660    1
  1498   640   641    1
  1499  1511  1513    1
  1500  1511  1512    1
  1501  1519  1529    1
  1502  1519  1517    1
  1503   822   824    1
  1504   822   820    1
  1505  1513  1515    1
  1506   637   635    1
  1507   824   825    1
  1508   824   826    1
  1509  1529  1528   ar
  1510  1529  1523   ar
  1511   687   686    2
  1512   656   657    1
  1513  1528  1527   ar
  1514  1510  1512    1
  1515  1510  1530    2
  1516  1510  1531    1
  1517   641   655    1
  1518   635   654    2
  1519   635   653    1
  1520   660   661    1
  1521  1518  1517    1
  1522  1523  1522   ar
  1523  1523  1524   ar
  1524   679   684    1
  1525   679   678    1
  1526  1522  1521   ar
  1527  1527  1524   ar
  1528   686   685   ar
  1529   686   688   ar
  1530   684   685    1
  1531   684   682    1
  1532   835   817    2
  1533  1524  1525   ar
  1534   657   655    1
  1535  1517  1515    1
  1536   685   692   ar
  1537  1521  1520   ar
  1538   688   689   ar
  1539   819   818    1
  1540   819   817    1
  1541   820   818    1
  1542   820   821    1
  1543  1515  1516    1
  1544   661   675    1
  1545  1525  1520   ar
  1546  1525  1526    1
  1547   836   817    1
  1548   683   682    1
  1549   829   828    2
  1550   678   676    1
  1551   678   680    1
  1552   817   803    1
  1553   826   827    1
  1554   826   821    1
  1555   828   827   ar
  1556   828   830   ar
  1557   655   674    2
  1558   655   673    1
  1559   827   834   ar
  1560   830   831   ar
  1561   692   691   ar
  1562   689   690    2
  1563   689   691   ar
  1564   834   833   ar
  1565   831   833   ar
  1566   831   832    2
  1567   676   677    1
  1568   682   680    1
  1569  1516  1532    1
  1570   677   675    1
  1571   680   681    1
  1572   675   694    2
  1573   675   693    1
  1574  1536  1541    1
  1575  1536  1535    1
  1576   803   802    1
  1577   681   695    1
  1578  1533  1535    1
  1579  1533  1534    1
  1580  1541  1552    1
  1581  1541  1539    1
  1582  1532  1534    1
  1583  1532  1554    2
  1584  1532  1553    1
  1585  1535  1537    1
  1586  1551  1552   ar
  1587  1551  1550   ar
  1588  1552  1546   ar
  1589   802   804    1
  1590   802   800    1
  1591   815   797    2
  1592  1550  1547   ar
  1593  1546  1545   ar
  1594  1546  1547   ar
  1595  1545  1543   ar
  1596  1547  1548   ar
  1597   804   805    1
  1598   804   806    1
  1599   816   797    1
  1600  1543  1544    1
  1601  1543  1542   ar
  1602  1540  1539    1
  1603  1548  1542   ar
  1604  1548  1549    2
  1605  1539  1537    1
  1606   797   799    1
  1607   797   783    1
  1608   799   798    1
  1609   695   715    2
  1610   695   697    1
  1611   695   716    1
  1612  1537  1538    1
  1613   732   731    2
  1614   812   811    1
  1615   810   811   ar
  1616   810   808   ar
  1617   811   813   ar
  1618   800   798    1
  1619   800   801    1
  1620   808   809    2
  1621   808   807   ar
  1622   813   814   ar
  1623   696   697    1
  1624   696   698    1
  1625   814   807   ar
  1626   807   806    1
  1627   806   801    1
  1628  1538  1555    1
  1629   731   733   ar
  1630   731   730   ar
  1631   783   782    1
  1632   733   734   ar
  1633   698   699    1
  1634   698   700    1
  1635   796   777    2
  1636   795   777    1
  1637   730   728   ar
  1638   782   784    1
  1639   782   780    1
  1640  1559  1564    1
  1641  1559  1558    1
  1642   735   717    2
  1643   736   717    1
  1644  1574  1573   ar
  1645  1574  1575   ar
  1646  1555  1557    1
  1647  1555  1577    2
  1648  1555  1576    1
  1649  1564  1575    1
  1650  1564  1562    1
  1651   779   777    1
  1652   779   778    1
  1653   777   763    1
  1654   699   704    1
  1655   700   701    1
  1656   700   702    1
  1657  1573  1570   ar
  1658  1575  1569   ar
  1659  1557  1556    1
  1660  1570  1569   ar
  1661  1570  1571   ar
  1662  1569  1568   ar
  1663   784   785    1
  1664   784   786    1
  1665   734   727   ar
  1666   717   701    1
  1667   717   719    1
  1668   792   791    1
  1669  1568  1566   ar
  1670  1571  1572    2
  1671  1571  1565   ar
  1672   778   780    1
  1673   793   791   ar
  1674   793   794   ar
  1675   791   790   ar
  1676   775   757    2
  1677  1563  1562    1
  1678  1566  1565   ar
  1679  1566  1567    1
  1680  1558  1556    1
  1681  1558  1560    1
  1682   780   781    1
  1683   794   787   ar
  1684   728   727   ar
  1685   728   729    2
  1686   702   704    1
  1687   702   703    1
  1688   790   788   ar
  1689   776   757    1
  1690   713   714   ar
  1691   713   712   ar
  1692  1562  1560    1
  1693   787   788   ar
  1694   787   786    1
  1695   704   714    1
  1696   727   726    1
  1697   788   789    2
  1698   786   781    1
  1699   763   762    1
  1700   757   759    1
  1701   757   743    1
  1702   714   708   ar
  1703   719   718    1
  1704   712   709   ar
  1705  1560  1561    1
  1706   758   759    1
  1707   758   760    1
  1708   755   737    2
  1709   762   760    1
  1710   762   764    1
  1711   726   721    1
  1712   726   724    1
  1713   721   720    1
  1714  1561  1578    1
  1715   743   742    1
  1716   760   761    1
  1717   708   709   ar
  1718   708   707   ar
  1719   718   720    1
  1720   722   724    1
  1721   722   720    1
  1722   722   723    1
  1723   724   725    1
  1724   709   710   ar
  1725   756   737    1
  1726   764   765    1
  1727   764   766    1
  1728   737   723    1
  1729   737   739    1
  1730   773   774   ar
  1731   773   771   ar
  1732  1582  1587    1
  1733  1582  1581    1
  1734   772   771    2
  1735   774   767   ar
  1736  1594  1593    1
  1737   771   770   ar
  1738  1595  1596   ar
  1739  1595  1592   ar
  1740  1596  1597   ar
  1741  1592  1593   ar
  1742  1592  1591   ar
  1743  1593  1588   ar
  1744   707   706   ar
  1745   742   740    1
  1746   742   744    1
  1747   761   766    1
  1748   767   766    1
  1749   767   768   ar
  1750  1597  1591   ar
  1751  1597  1587    1
  1752   770   768   ar
  1753  1591  1590   ar
  1754  1588  1589   ar
  1755   738   739    1
  1756   738   740    1
  1757  1587  1585    1
  1758   710   711    1
  1759   710   705   ar
  1760   768   769    2
  1761  1579  1581    1
  1762  1579  1580    1
  1763  1589  1590   ar
  1764  1578  1580    1
  1765  1578  1599    2
  1766  1578  1598    1
  1767  1581  1583    1
  1768   740   741    1
  1769   706   705   ar
  1770   744   745    1
  1771   744   746    1
  1772  1585  1586    1
  1773  1585  1583    1
  1774  1583  1584    1
  1775   741   746    1
  1776   754   753   ar
  1777   754   747   ar
  1778   746   747    1
  1779   753   751   ar
  1780   747   748   ar
  1781  1617  1616    2
  1782  1610  1616   ar
  1783  1610  1611   ar
  1784  1616  1615   ar
  1785  1612  1611    1
  1786  1584  1600    1
  1787   751   752    2
  1788   751   750   ar
  1789  1611  1613   ar
  1790   748   750   ar
  1791   748   749    2
  1792  1615  1618   ar
  1793  1615  1614   ar
  1794  1618  1619   ar
  1795  1613  1614   ar
  1796  1614  1620   ar
  1797  1639  1638    1
  1798  1619  1620   ar
  1799  1620  1609    1
  1800  1604  1609    1
  1801  1604  1603    1
  1802  1609  1607    1
  1803  1622  1600    2
  1804  1600  1602    1
  1805  1600  1621    1
  1806  1638  1633   ar
  1807  1638  1637   ar
  1808  1633  1634   ar
  1809  1602  1601    1
  1810  1601  1603    1
  1811  1603  1605    1
  1812  1607  1608    1
  1813  1607  1605    1
  1814  1637  1640   ar
  1815  1637  1636   ar
  1816  1640  1641   ar
  1817  1634  1635   ar
  1818  1605  1606    1
  1819  1636  1635   ar
  1820  1636  1642   ar
  1821  1641  1642   ar
  1822  1606  1623    1
  1823  1642  1632    1
  1824  1625  1624    1
  1825  1625  1623    1
  1826  1624  1626    1
  1827  1623  1643    2
  1828  1623  1644    1
  1829  1627  1632    1
  1830  1627  1626    1
  1831  1632  1630    1
  1832  1626  1628    1
  1833  1630  1628    1
  1834  1630  1631    1
  1835  1628  1629    1
