1nyi_lig
 OpenBabel11021811403D
libRbt.so/2013.1/901 2013/11/27
 20 22  0  0  0  0  0  0  0  0999 V2000
   26.5938   -0.9474   45.1002 C   0  0  0  0  0  0  0  0  0  0  0  0
   25.3261   -1.5877   44.9551 O   0  0  0  0  0  0  0  0  0  0  0  0
   27.7219   -1.9129   44.8114 C   0  0  1  0  0  0  0  0  0  0  0  0
   27.3631   -3.2241   45.3256 O   0  0  0  0  0  0  0  0  0  0  0  0
   27.9610   -2.1028   43.3176 C   0  0  1  0  0  0  0  0  0  0  0  0
   28.9208   -1.1706   42.8177 O   0  0  0  0  0  0  0  0  0  0  0  0
   28.4261   -3.5559   43.2468 C   0  0  1  0  0  0  0  0  0  0  0  0
   29.7888   -3.7237   43.6080 O   0  0  0  0  0  0  0  0  0  0  0  0
   27.5213   -4.1950   44.2980 C   0  0  2  0  0  0  0  0  0  0  0  0
   24.6130   -8.3833   43.5986 N   0  0  0  0  0  0  0  0  0  0  0  0
   25.9090   -8.2845   44.0434 C   0  0  1  0  0  0  0  0  0  0  0  0
   26.5044   -9.4411   44.3380 N   0  0  0  0  0  0  0  0  0  0  0  0
   26.5712   -7.1398   44.1846 N   0  0  0  0  0  0  0  0  0  0  0  0
   25.8185   -6.0587   43.8270 C   0  0  1  0  0  0  0  0  0  0  0  0
   24.5123   -6.0557   43.3702 C   0  0  1  0  0  0  0  0  0  0  0  0
   23.8222   -7.2927   43.2375 C   0  0  0  0  0  0  0  0  0  0  0  0
   22.6630   -7.4916   42.8523 O   0  0  0  0  0  0  0  0  0  0  0  0
   24.0842   -4.7573   43.1252 N   0  0  0  0  0  0  0  0  0  0  0  0
   25.1141   -4.0139   43.4228 C   0  0  0  0  0  0  0  0  0  0  0  0
   26.2129   -4.7263   43.8510 N   0  0  1  0  0  0  0  0  0  0  0  0
  2  1  1  0  0  0  0
  3  1  1  6  0  0  0
  3  4  1  0  0  0  0
  3  5  1  0  0  0  0
  5  6  1  1  0  0  0
  5  7  1  0  0  0  0
  7  8  1  1  0  0  0
  7  9  1  0  0  0  0
  9  4  1  1  0  0  0
  9 20  1  0  0  0  0
 10 11  1  0  0  0  0
 11 12  1  6  0  0  0
 11 13  1  0  0  0  0
 14 13  1  1  0  0  0
 15 14  1  0  0  0  0
 15 16  1  1  0  0  0
 16 10  1  0  0  0  0
 16 17  2  0  0  0  0
 18 15  1  0  0  0  0
 19 18  1  0  0  0  0
 20 14  1  0  0  0  0
 20 19  1  1  0  0  0
M  END
>  <CHROM.1>
-37.25832678,-123.99355876,26.29491489,-4.74205981,43.87319858,1.06978520
-0.04408770,0.06126249

>  <Name>
1nyi_lig

>  <RI>
0

>  <Rbt.Current_Directory>
/home/itssahil/PROJECTS/Mol_Feturizer/New_Systems/rnas/1nyi

>  <Rbt.Executable>
rbdock ($Id: //depot/dev/client3/rdock/2013.1/src/exe/rbdock.cxx#4 $)

>  <Rbt.Library>
libRbt.so (2013.1, Build901 2013/11/27)

>  <Rbt.Parameter_File>
/export/apps/rDock/src/rDock_2013.1_src/data/scripts/dock_solv.prm

>  <Rbt.Receptor>
prm/pocket_docking_2.prm

>  <SCORE>
-8.57226

>  <SCORE.INTER>
-8.2448

>  <SCORE.INTER.CONST>
1

>  <SCORE.INTER.POLAR>
-0.746978

>  <SCORE.INTER.ROT>
2

>  <SCORE.INTER.SOLV>
13.6741

>  <SCORE.INTER.VDW>
-12.498

>  <SCORE.INTER.norm>
-0.41224

>  <SCORE.INTRA>
-0.609904

>  <SCORE.INTRA.DIHEDRAL>
-0.814136

>  <SCORE.INTRA.DIHEDRAL.0>
3.72394

>  <SCORE.INTRA.POLAR>
0

>  <SCORE.INTRA.POLAR.0>
0

>  <SCORE.INTRA.REPUL>
0

>  <SCORE.INTRA.REPUL.0>
0

>  <SCORE.INTRA.SOLV>
0.0824789

>  <SCORE.INTRA.SOLV.lig_0>
-49.4697

>  <SCORE.INTRA.VDW>
-0.244076

>  <SCORE.INTRA.VDW.0>
-0.896538

>  <SCORE.INTRA.norm>
-0.0304952

>  <SCORE.RESTR>
0.282449

>  <SCORE.RESTR.CAVITY>
0.282449

>  <SCORE.RESTR.norm>
0.0141224

>  <SCORE.SYSTEM>
0

>  <SCORE.SYSTEM.CONST>
0

>  <SCORE.SYSTEM.DIHEDRAL>
0

>  <SCORE.SYSTEM.SOLV>
0

>  <SCORE.SYSTEM.norm>
0

>  <SCORE.heavy>
20

>  <SCORE.norm>
-0.428613

>  <RMSD>
0.941

$$$$
1nyi_lig
 OpenBabel11021811403D
libRbt.so/2013.1/901 2013/11/27
 20 22  0  0  0  0  0  0  0  0999 V2000
   27.0213   -0.6141   44.8446 C   0  0  0  0  0  0  0  0  0  0  0  0
   27.5025    0.5031   44.0975 O   0  0  0  0  0  0  0  0  0  0  0  0
   28.0155   -1.7537   44.8114 C   0  0  1  0  0  0  0  0  0  0  0  0
   27.3993   -2.9336   45.3948 O   0  0  0  0  0  0  0  0  0  0  0  0
   28.4066   -2.1473   43.3914 C   0  0  1  0  0  0  0  0  0  0  0  0
   29.5523   -1.4218   42.9429 O   0  0  0  0  0  0  0  0  0  0  0  0
   28.6491   -3.6491   43.5273 C   0  0  1  0  0  0  0  0  0  0  0  0
   29.9145   -3.9612   44.0902 O   0  0  0  0  0  0  0  0  0  0  0  0
   27.5336   -4.0299   44.4983 C   0  0  2  0  0  0  0  0  0  0  0  0
   24.3480   -7.9095   43.3625 N   0  0  0  0  0  0  0  0  0  0  0  0
   25.6078   -7.9456   43.9091 C   0  0  1  0  0  0  0  0  0  0  0  0
   26.0779   -9.1624   44.1876 N   0  0  0  0  0  0  0  0  0  0  0  0
   26.3507   -6.8714   44.1597 N   0  0  0  0  0  0  0  0  0  0  0  0
   25.7231   -5.7130   43.8027 C   0  0  1  0  0  0  0  0  0  0  0  0
   24.4627   -5.5741   43.2487 C   0  0  1  0  0  0  0  0  0  0  0  0
   23.6835   -6.7382   42.9996 C   0  0  0  0  0  0  0  0  0  0  0  0
   22.5464   -6.8165   42.5176 O   0  0  0  0  0  0  0  0  0  0  0  0
   24.1667   -4.2333   43.0397 N   0  0  0  0  0  0  0  0  0  0  0  0
   25.2284   -3.5979   43.4531 C   0  0  0  0  0  0  0  0  0  0  0  0
   26.2252   -4.4230   43.9260 N   0  0  1  0  0  0  0  0  0  0  0  0
  2  1  1  0  0  0  0
  3  1  1  6  0  0  0
  3  4  1  0  0  0  0
  3  5  1  0  0  0  0
  5  6  1  1  0  0  0
  5  7  1  0  0  0  0
  7  8  1  1  0  0  0
  7  9  1  0  0  0  0
  9  4  1  1  0  0  0
  9 20  1  0  0  0  0
 10 11  1  0  0  0  0
 11 12  1  6  0  0  0
 11 13  1  0  0  0  0
 14 13  1  1  0  0  0
 15 14  1  0  0  0  0
 15 16  1  1  0  0  0
 16 10  1  0  0  0  0
 16 17  2  0  0  0  0
 18 15  1  0  0  0  0
 19 18  1  0  0  0  0
 20 14  1  0  0  0  0
 20 19  1  1  0  0  0
M  END
>  <CHROM.1>
-170.93183343,-134.09151638,26.46210025,-4.38024622,43.81416973,0.98308848
-0.18876896,-0.00684045

>  <Name>
1nyi_lig

>  <RI>
0

>  <Rbt.Current_Directory>
/home/itssahil/PROJECTS/Mol_Feturizer/New_Systems/rnas/1nyi

>  <Rbt.Executable>
rbdock ($Id: //depot/dev/client3/rdock/2013.1/src/exe/rbdock.cxx#4 $)

>  <Rbt.Library>
libRbt.so (2013.1, Build901 2013/11/27)

>  <Rbt.Parameter_File>
/export/apps/rDock/src/rDock_2013.1_src/data/scripts/dock_solv.prm

>  <Rbt.Receptor>
prm/pocket_docking_2.prm

>  <SCORE>
-6.16796

>  <SCORE.INTER>
-4.44949

>  <SCORE.INTER.CONST>
1

>  <SCORE.INTER.POLAR>
0

>  <SCORE.INTER.ROT>
2

>  <SCORE.INTER.SOLV>
13.1862

>  <SCORE.INTER.VDW>
-12.2951

>  <SCORE.INTER.norm>
-0.222475

>  <SCORE.INTRA>
-1.72072

>  <SCORE.INTRA.DIHEDRAL>
-2.14172

>  <SCORE.INTRA.DIHEDRAL.0>
3.72394

>  <SCORE.INTRA.POLAR>
0

>  <SCORE.INTRA.POLAR.0>
0

>  <SCORE.INTRA.REPUL>
0

>  <SCORE.INTRA.REPUL.0>
0

>  <SCORE.INTRA.SOLV>
-0.601406

>  <SCORE.INTRA.SOLV.lig_0>
-49.4697

>  <SCORE.INTRA.VDW>
-0.349154

>  <SCORE.INTRA.VDW.0>
-0.896538

>  <SCORE.INTRA.norm>
-0.086036

>  <SCORE.RESTR>
0.00224627

>  <SCORE.RESTR.CAVITY>
0.00224627

>  <SCORE.RESTR.norm>
0.000112314

>  <SCORE.SYSTEM>
0

>  <SCORE.SYSTEM.CONST>
0

>  <SCORE.SYSTEM.DIHEDRAL>
0

>  <SCORE.SYSTEM.SOLV>
0

>  <SCORE.SYSTEM.norm>
0

>  <SCORE.heavy>
20

>  <SCORE.norm>
-0.308398

>  <RMSD>
0.942

$$$$
1nyi_lig
 OpenBabel11021811403D
libRbt.so/2013.1/901 2013/11/27
 20 22  0  0  0  0  0  0  0  0999 V2000
   26.5619   -1.0178   45.1052 C   0  0  0  0  0  0  0  0  0  0  0  0
   25.2746   -1.6073   44.9223 O   0  0  0  0  0  0  0  0  0  0  0  0
   27.6584   -2.0320   44.8658 C   0  0  1  0  0  0  0  0  0  0  0  0
   27.2164   -3.3277   45.3535 O   0  0  0  0  0  0  0  0  0  0  0  0
   27.9619   -2.2263   43.3843 C   0  0  1  0  0  0  0  0  0  0  0  0
   28.9859   -1.3362   42.9379 O   0  0  0  0  0  0  0  0  0  0  0  0
   28.3643   -3.6985   43.3271 C   0  0  1  0  0  0  0  0  0  0  0  0
   29.6988   -3.9291   43.7533 O   0  0  0  0  0  0  0  0  0  0  0  0
   27.3813   -4.3005   44.3287 C   0  0  2  0  0  0  0  0  0  0  0  0
   24.2394   -8.3209   43.6552 N   0  0  0  0  0  0  0  0  0  0  0  0
   25.5036   -8.2810   44.1912 C   0  0  1  0  0  0  0  0  0  0  0  0
   25.9920   -9.4537   44.5976 N   0  0  0  0  0  0  0  0  0  0  0  0
   26.2340   -7.1765   44.3154 N   0  0  0  0  0  0  0  0  0  0  0  0
   25.5882   -6.0724   43.8388 C   0  0  1  0  0  0  0  0  0  0  0  0
   24.3219   -6.0111   43.2842 C   0  0  1  0  0  0  0  0  0  0  0  0
   23.5565   -7.2051   43.1717 C   0  0  0  0  0  0  0  0  0  0  0  0
   22.4169   -7.3502   42.7114 O   0  0  0  0  0  0  0  0  0  0  0  0
   24.0064   -4.7052   42.9317 N   0  0  0  0  0  0  0  0  0  0  0  0
   25.0626   -4.0149   43.2632 C   0  0  0  0  0  0  0  0  0  0  0  0
   26.0739   -4.7705   43.8149 N   0  0  1  0  0  0  0  0  0  0  0  0
  2  1  1  0  0  0  0
  3  1  1  6  0  0  0
  3  4  1  0  0  0  0
  3  5  1  0  0  0  0
  5  6  1  1  0  0  0
  5  7  1  0  0  0  0
  7  8  1  1  0  0  0
  7  9  1  0  0  0  0
  9  4  1  1  0  0  0
  9 20  1  0  0  0  0
 10 11  1  0  0  0  0
 11 12  1  6  0  0  0
 11 13  1  0  0  0  0
 14 13  1  1  0  0  0
 15 14  1  0  0  0  0
 15 16  1  1  0  0  0
 16 10  1  0  0  0  0
 16 17  2  0  0  0  0
 18 15  1  0  0  0  0
 19 18  1  0  0  0  0
 20 14  1  0  0  0  0
 20 19  1  1  0  0  0
M  END
>  <CHROM.1>
-36.00729429,-119.68827357,26.13052233,-4.78201806,43.89448267,1.01083765
-0.11429585,0.02083941

>  <Name>
1nyi_lig

>  <RI>
0

>  <Rbt.Current_Directory>
/home/itssahil/PROJECTS/Mol_Feturizer/New_Systems/rnas/1nyi

>  <Rbt.Executable>
rbdock ($Id: //depot/dev/client3/rdock/2013.1/src/exe/rbdock.cxx#4 $)

>  <Rbt.Library>
libRbt.so (2013.1, Build901 2013/11/27)

>  <Rbt.Parameter_File>
/export/apps/rDock/src/rDock_2013.1_src/data/scripts/dock_solv.prm

>  <Rbt.Receptor>
prm/pocket_docking_2.prm

>  <SCORE>
-8.47998

>  <SCORE.INTER>
-8.03235

>  <SCORE.INTER.CONST>
1

>  <SCORE.INTER.POLAR>
-0.747026

>  <SCORE.INTER.ROT>
2

>  <SCORE.INTER.SOLV>
13.0517

>  <SCORE.INTER.VDW>
-12.1487

>  <SCORE.INTER.norm>
-0.401617

>  <SCORE.INTRA>
-0.645312

>  <SCORE.INTRA.DIHEDRAL>
-0.671651

>  <SCORE.INTRA.DIHEDRAL.0>
3.72394

>  <SCORE.INTRA.POLAR>
0

>  <SCORE.INTRA.POLAR.0>
0

>  <SCORE.INTRA.REPUL>
0

>  <SCORE.INTRA.REPUL.0>
0

>  <SCORE.INTRA.SOLV>
0.0582043

>  <SCORE.INTRA.SOLV.lig_0>
-49.4697

>  <SCORE.INTRA.VDW>
-0.338589

>  <SCORE.INTRA.VDW.0>
-0.896538

>  <SCORE.INTRA.norm>
-0.0322656

>  <SCORE.RESTR>
0.197678

>  <SCORE.RESTR.CAVITY>
0.197678

>  <SCORE.RESTR.norm>
0.0098839

>  <SCORE.SYSTEM>
0

>  <SCORE.SYSTEM.CONST>
0

>  <SCORE.SYSTEM.DIHEDRAL>
0

>  <SCORE.SYSTEM.SOLV>
0

>  <SCORE.SYSTEM.norm>
0

>  <SCORE.heavy>
20

>  <SCORE.norm>
-0.423999

>  <RMSD>
0.949

$$$$
1nyi_lig
 OpenBabel11021811403D
libRbt.so/2013.1/901 2013/11/27
 20 22  0  0  0  0  0  0  0  0999 V2000
   26.6210   -0.9349   45.0973 C   0  0  0  0  0  0  0  0  0  0  0  0
   25.3569   -1.5884   44.9827 O   0  0  0  0  0  0  0  0  0  0  0  0
   27.7529   -1.8951   44.8059 C   0  0  1  0  0  0  0  0  0  0  0  0
   27.4122   -3.2019   45.3429 O   0  0  0  0  0  0  0  0  0  0  0  0
   27.9728   -2.1035   43.3117 C   0  0  1  0  0  0  0  0  0  0  0  0
   28.9178   -1.1704   42.7857 O   0  0  0  0  0  0  0  0  0  0  0  0
   28.4489   -3.5535   43.2541 C   0  0  1  0  0  0  0  0  0  0  0  0
   29.8179   -3.7053   43.5983 O   0  0  0  0  0  0  0  0  0  0  0  0
   27.5642   -4.1855   44.3264 C   0  0  2  0  0  0  0  0  0  0  0  0
   24.7385   -8.4190   43.5638 N   0  0  0  0  0  0  0  0  0  0  0  0
   26.0469   -8.3033   43.9662 C   0  0  1  0  0  0  0  0  0  0  0  0
   26.6814   -9.4544   44.1934 N   0  0  0  0  0  0  0  0  0  0  0  0
   26.6848   -7.1479   44.1295 N   0  0  0  0  0  0  0  0  0  0  0  0
   25.8928   -6.0740   43.8420 C   0  0  1  0  0  0  0  0  0  0  0  0
   24.5712   -6.0878   43.4321 C   0  0  1  0  0  0  0  0  0  0  0  0
   23.9080   -7.3366   43.2746 C   0  0  0  0  0  0  0  0  0  0  0  0
   22.7409   -7.5511   42.9230 O   0  0  0  0  0  0  0  0  0  0  0  0
   24.1020   -4.7927   43.2542 N   0  0  0  0  0  0  0  0  0  0  0  0
   25.1231   -4.0344   43.5447 C   0  0  0  0  0  0  0  0  0  0  0  0
   26.2542   -4.7335   43.9051 N   0  0  1  0  0  0  0  0  0  0  0  0
  2  1  1  0  0  0  0
  3  1  1  6  0  0  0
  3  4  1  0  0  0  0
  3  5  1  0  0  0  0
  5  6  1  1  0  0  0
  5  7  1  0  0  0  0
  7  8  1  1  0  0  0
  7  9  1  0  0  0  0
  9  4  1  1  0  0  0
  9 20  1  0  0  0  0
 10 11  1  0  0  0  0
 11 12  1  6  0  0  0
 11 13  1  0  0  0  0
 14 13  1  1  0  0  0
 15 14  1  0  0  0  0
 15 16  1  1  0  0  0
 16 10  1  0  0  0  0
 16 17  2  0  0  0  0
 18 15  1  0  0  0  0
 19 18  1  0  0  0  0
 20 14  1  0  0  0  0
 20 19  1  1  0  0  0
M  END
>  <CHROM.1>
-37.08157278,-127.43119101,26.35210006,-4.75211412,43.88347392,1.08725176
-0.01168961,0.08204585

>  <Name>
1nyi_lig

>  <RI>
0

>  <Rbt.Current_Directory>
/home/itssahil/PROJECTS/Mol_Feturizer/New_Systems/rnas/1nyi

>  <Rbt.Executable>
rbdock ($Id: //depot/dev/client3/rdock/2013.1/src/exe/rbdock.cxx#4 $)

>  <Rbt.Library>
libRbt.so (2013.1, Build901 2013/11/27)

>  <Rbt.Parameter_File>
/export/apps/rDock/src/rDock_2013.1_src/data/scripts/dock_solv.prm

>  <Rbt.Receptor>
prm/pocket_docking_2.prm

>  <SCORE>
-8.69796

>  <SCORE.INTER>
-8.46836

>  <SCORE.INTER.CONST>
1

>  <SCORE.INTER.POLAR>
-0.748331

>  <SCORE.INTER.ROT>
2

>  <SCORE.INTER.SOLV>
13.9311

>  <SCORE.INTER.VDW>
-12.7282

>  <SCORE.INTER.norm>
-0.423418

>  <SCORE.INTRA>
-0.521505

>  <SCORE.INTRA.DIHEDRAL>
-0.777038

>  <SCORE.INTRA.DIHEDRAL.0>
3.72394

>  <SCORE.INTRA.POLAR>
0

>  <SCORE.INTRA.POLAR.0>
0

>  <SCORE.INTRA.REPUL>
0

>  <SCORE.INTRA.REPUL.0>
0

>  <SCORE.INTRA.SOLV>
0.0925454

>  <SCORE.INTRA.SOLV.lig_0>
-49.4697

>  <SCORE.INTRA.VDW>
-0.179259

>  <SCORE.INTRA.VDW.0>
-0.896538

>  <SCORE.INTRA.norm>
-0.0260753

>  <SCORE.RESTR>
0.291896

>  <SCORE.RESTR.CAVITY>
0.291896

>  <SCORE.RESTR.norm>
0.0145948

>  <SCORE.SYSTEM>
0

>  <SCORE.SYSTEM.CONST>
0

>  <SCORE.SYSTEM.DIHEDRAL>
0

>  <SCORE.SYSTEM.SOLV>
0

>  <SCORE.SYSTEM.norm>
0

>  <SCORE.heavy>
20

>  <SCORE.norm>
-0.434898

>  <RMSD>
0.963

$$$$
1nyi_lig
 OpenBabel11021811403D
libRbt.so/2013.1/901 2013/11/27
 20 22  0  0  0  0  0  0  0  0999 V2000
   26.6271   -0.9394   45.0992 C   0  0  0  0  0  0  0  0  0  0  0  0
   25.3618   -1.5903   44.9824 O   0  0  0  0  0  0  0  0  0  0  0  0
   27.7574   -1.9017   44.8086 C   0  0  1  0  0  0  0  0  0  0  0  0
   27.4133   -3.2083   45.3440 O   0  0  0  0  0  0  0  0  0  0  0  0
   27.9789   -2.1094   43.3145 C   0  0  1  0  0  0  0  0  0  0  0  0
   28.9266   -1.1779   42.7905 O   0  0  0  0  0  0  0  0  0  0  0  0
   28.4522   -3.5604   43.2564 C   0  0  1  0  0  0  0  0  0  0  0  0
   29.8203   -3.7152   43.6023 O   0  0  0  0  0  0  0  0  0  0  0  0
   27.5647   -4.1913   44.3270 C   0  0  2  0  0  0  0  0  0  0  0  0
   24.7298   -8.4182   43.5616 N   0  0  0  0  0  0  0  0  0  0  0  0
   26.0377   -8.3056   43.9664 C   0  0  1  0  0  0  0  0  0  0  0  0
   26.6688   -9.4580   44.1956 N   0  0  0  0  0  0  0  0  0  0  0  0
   26.6782   -7.1516   44.1302 N   0  0  0  0  0  0  0  0  0  0  0  0
   25.8894   -6.0759   43.8405 C   0  0  1  0  0  0  0  0  0  0  0  0
   24.5686   -6.0867   43.4280 C   0  0  1  0  0  0  0  0  0  0  0  0
   23.9025   -7.3339   43.2701 C   0  0  0  0  0  0  0  0  0  0  0  0
   22.7356   -7.5456   42.9163 O   0  0  0  0  0  0  0  0  0  0  0  0
   24.1031   -4.7905   43.2484 N   0  0  0  0  0  0  0  0  0  0  0  0
   25.1255   -4.0346   43.5404 C   0  0  0  0  0  0  0  0  0  0  0  0
   26.2541   -4.7363   43.9035 N   0  0  1  0  0  0  0  0  0  0  0  0
  2  1  1  0  0  0  0
  3  1  1  6  0  0  0
  3  4  1  0  0  0  0
  3  5  1  0  0  0  0
  5  6  1  1  0  0  0
  5  7  1  0  0  0  0
  7  8  1  1  0  0  0
  7  9  1  0  0  0  0
  9  4  1  1  0  0  0
  9 20  1  0  0  0  0
 10 11  1  0  0  0  0
 11 12  1  6  0  0  0
 11 13  1  0  0  0  0
 14 13  1  1  0  0  0
 15 14  1  0  0  0  0
 15 16  1  1  0  0  0
 16 10  1  0  0  0  0
 16 17  2  0  0  0  0
 18 15  1  0  0  0  0
 19 18  1  0  0  0  0
 20 14  1  0  0  0  0
 20 19  1  1  0  0  0
M  END
>  <CHROM.1>
-37.07674446,-127.33888520,26.35159301,-4.75505461,43.88313476,1.08505216
-0.01368670,0.08190733

>  <Name>
1nyi_lig

>  <RI>
0

>  <Rbt.Current_Directory>
/home/itssahil/PROJECTS/Mol_Feturizer/New_Systems/rnas/1nyi

>  <Rbt.Executable>
rbdock ($Id: //depot/dev/client3/rdock/2013.1/src/exe/rbdock.cxx#4 $)

>  <Rbt.Library>
libRbt.so (2013.1, Build901 2013/11/27)

>  <Rbt.Parameter_File>
/export/apps/rDock/src/rDock_2013.1_src/data/scripts/dock_solv.prm

>  <Rbt.Receptor>
prm/pocket_docking_2.prm

>  <SCORE>
-8.68365

>  <SCORE.INTER>
-8.44967

>  <SCORE.INTER.CONST>
1

>  <SCORE.INTER.POLAR>
-0.747217

>  <SCORE.INTER.ROT>
2

>  <SCORE.INTER.SOLV>
13.9315

>  <SCORE.INTER.VDW>
-12.7196

>  <SCORE.INTER.norm>
-0.422483

>  <SCORE.INTRA>
-0.523922

>  <SCORE.INTRA.DIHEDRAL>
-0.776794

>  <SCORE.INTRA.DIHEDRAL.0>
3.72394

>  <SCORE.INTRA.POLAR>
0

>  <SCORE.INTRA.POLAR.0>
0

>  <SCORE.INTRA.REPUL>
0

>  <SCORE.INTRA.REPUL.0>
0

>  <SCORE.INTRA.SOLV>
0.0922142

>  <SCORE.INTRA.SOLV.lig_0>
-49.4697

>  <SCORE.INTRA.VDW>
-0.181632

>  <SCORE.INTRA.VDW.0>
-0.896538

>  <SCORE.INTRA.norm>
-0.0261961

>  <SCORE.RESTR>
0.28994

>  <SCORE.RESTR.CAVITY>
0.28994

>  <SCORE.RESTR.norm>
0.014497

>  <SCORE.SYSTEM>
0

>  <SCORE.SYSTEM.CONST>
0

>  <SCORE.SYSTEM.DIHEDRAL>
0

>  <SCORE.SYSTEM.SOLV>
0

>  <SCORE.SYSTEM.norm>
0

>  <SCORE.heavy>
20

>  <SCORE.norm>
-0.434183

>  <RMSD>
0.965

$$$$
1nyi_lig
 OpenBabel11021811403D
libRbt.so/2013.1/901 2013/11/27
 20 22  0  0  0  0  0  0  0  0999 V2000
   26.6241   -0.9383   45.0970 C   0  0  0  0  0  0  0  0  0  0  0  0
   25.3595   -1.5919   44.9897 O   0  0  0  0  0  0  0  0  0  0  0  0
   27.7550   -1.9011   44.8102 C   0  0  1  0  0  0  0  0  0  0  0  0
   27.4095   -3.2069   45.3467 O   0  0  0  0  0  0  0  0  0  0  0  0
   27.9798   -2.1109   43.3168 C   0  0  1  0  0  0  0  0  0  0  0  0
   28.9288   -1.1802   42.7938 O   0  0  0  0  0  0  0  0  0  0  0  0
   28.4529   -3.5620   43.2618 C   0  0  1  0  0  0  0  0  0  0  0  0
   29.8203   -3.7166   43.6110 O   0  0  0  0  0  0  0  0  0  0  0  0
   27.5630   -4.1914   44.3313 C   0  0  2  0  0  0  0  0  0  0  0  0
   24.7317   -8.4193   43.5582 N   0  0  0  0  0  0  0  0  0  0  0  0
   26.0390   -8.3062   43.9648 C   0  0  1  0  0  0  0  0  0  0  0  0
   26.6705   -9.4585   44.1936 N   0  0  0  0  0  0  0  0  0  0  0  0
   26.6786   -7.1520   44.1305 N   0  0  0  0  0  0  0  0  0  0  0  0
   25.8895   -6.0765   43.8408 C   0  0  1  0  0  0  0  0  0  0  0  0
   24.5693   -6.0877   43.4267 C   0  0  1  0  0  0  0  0  0  0  0  0
   23.9041   -7.3352   43.2667 C   0  0  0  0  0  0  0  0  0  0  0  0
   22.7378   -7.5472   42.9112 O   0  0  0  0  0  0  0  0  0  0  0  0
   24.1031   -4.7916   43.2478 N   0  0  0  0  0  0  0  0  0  0  0  0
   25.1247   -4.0354   43.5417 C   0  0  0  0  0  0  0  0  0  0  0  0
   26.2533   -4.7367   43.9056 N   0  0  1  0  0  0  0  0  0  0  0  0
  2  1  1  0  0  0  0
  3  1  1  6  0  0  0
  3  4  1  0  0  0  0
  3  5  1  0  0  0  0
  5  6  1  1  0  0  0
  5  7  1  0  0  0  0
  7  8  1  1  0  0  0
  7  9  1  0  0  0  0
  9  4  1  1  0  0  0
  9 20  1  0  0  0  0
 10 11  1  0  0  0  0
 11 12  1  6  0  0  0
 11 13  1  0  0  0  0
 14 13  1  1  0  0  0
 15 14  1  0  0  0  0
 15 16  1  1  0  0  0
 16 10  1  0  0  0  0
 16 17  2  0  0  0  0
 18 15  1  0  0  0  0
 19 18  1  0  0  0  0
 20 14  1  0  0  0  0
 20 19  1  1  0  0  0
M  END
>  <CHROM.1>
-36.57179657,-127.48980696,26.35151015,-4.75579195,43.88422340,1.08545193
-0.01437607,0.08267296

>  <Name>
1nyi_lig

>  <RI>
0

>  <Rbt.Current_Directory>
/home/itssahil/PROJECTS/Mol_Feturizer/New_Systems/rnas/1nyi

>  <Rbt.Executable>
rbdock ($Id: //depot/dev/client3/rdock/2013.1/src/exe/rbdock.cxx#4 $)

>  <Rbt.Library>
libRbt.so (2013.1, Build901 2013/11/27)

>  <Rbt.Parameter_File>
/export/apps/rDock/src/rDock_2013.1_src/data/scripts/dock_solv.prm

>  <Rbt.Receptor>
prm/pocket_docking_2.prm

>  <SCORE>
-8.69603

>  <SCORE.INTER>
-8.49565

>  <SCORE.INTER.CONST>
1

>  <SCORE.INTER.POLAR>
-0.747608

>  <SCORE.INTER.ROT>
2

>  <SCORE.INTER.SOLV>
13.9308

>  <SCORE.INTER.VDW>
-12.7487

>  <SCORE.INTER.norm>
-0.424782

>  <SCORE.INTRA>
-0.492482

>  <SCORE.INTRA.DIHEDRAL>
-0.711153

>  <SCORE.INTRA.DIHEDRAL.0>
3.72394

>  <SCORE.INTRA.POLAR>
0

>  <SCORE.INTRA.POLAR.0>
0

>  <SCORE.INTRA.REPUL>
0

>  <SCORE.INTRA.REPUL.0>
0

>  <SCORE.INTRA.SOLV>
0.0890963

>  <SCORE.INTRA.SOLV.lig_0>
-49.4697

>  <SCORE.INTRA.VDW>
-0.181454

>  <SCORE.INTRA.VDW.0>
-0.896538

>  <SCORE.INTRA.norm>
-0.0246241

>  <SCORE.RESTR>
0.292097

>  <SCORE.RESTR.CAVITY>
0.292097

>  <SCORE.RESTR.norm>
0.0146049

>  <SCORE.SYSTEM>
0

>  <SCORE.SYSTEM.CONST>
0

>  <SCORE.SYSTEM.DIHEDRAL>
0

>  <SCORE.SYSTEM.SOLV>
0

>  <SCORE.SYSTEM.norm>
0

>  <SCORE.heavy>
20

>  <SCORE.norm>
-0.434801

>  <RMSD>
0.965

$$$$
1nyi_lig
 OpenBabel11021811403D
libRbt.so/2013.1/901 2013/11/27
 20 22  0  0  0  0  0  0  0  0999 V2000
   26.6044   -0.9442   45.1013 C   0  0  0  0  0  0  0  0  0  0  0  0
   25.3417   -1.5946   44.9581 O   0  0  0  0  0  0  0  0  0  0  0  0
   27.7401   -1.9043   44.8244 C   0  0  1  0  0  0  0  0  0  0  0  0
   27.3910   -3.2121   45.3535 O   0  0  0  0  0  0  0  0  0  0  0  0
   27.9818   -2.1095   43.3331 C   0  0  1  0  0  0  0  0  0  0  0  0
   28.9348   -1.1757   42.8231 O   0  0  0  0  0  0  0  0  0  0  0  0
   28.4580   -3.5596   43.2793 C   0  0  1  0  0  0  0  0  0  0  0  0
   29.8217   -3.7128   43.6432 O   0  0  0  0  0  0  0  0  0  0  0  0
   27.5574   -4.1935   44.3372 C   0  0  2  0  0  0  0  0  0  0  0  0
   24.7189   -8.4205   43.5855 N   0  0  0  0  0  0  0  0  0  0  0  0
   26.0185   -8.3066   44.0159 C   0  0  1  0  0  0  0  0  0  0  0  0
   26.6391   -9.4577   44.2784 N   0  0  0  0  0  0  0  0  0  0  0  0
   26.6610   -7.1528   44.1731 N   0  0  0  0  0  0  0  0  0  0  0  0
   25.8837   -6.0788   43.8481 C   0  0  1  0  0  0  0  0  0  0  0  0
   24.5719   -6.0909   43.4079 C   0  0  1  0  0  0  0  0  0  0  0  0
   23.9033   -7.3377   43.2576 C   0  0  0  0  0  0  0  0  0  0  0  0
   22.7431   -7.5504   42.8829 O   0  0  0  0  0  0  0  0  0  0  0  0
   24.1165   -4.7960   43.1960 N   0  0  0  0  0  0  0  0  0  0  0  0
   25.1361   -4.0397   43.4964 C   0  0  0  0  0  0  0  0  0  0  0  0
   26.2535   -4.7400   43.8955 N   0  0  1  0  0  0  0  0  0  0  0  0
  2  1  1  0  0  0  0
  3  1  1  6  0  0  0
  3  4  1  0  0  0  0
  3  5  1  0  0  0  0
  5  6  1  1  0  0  0
  5  7  1  0  0  0  0
  7  8  1  1  0  0  0
  7  9  1  0  0  0  0
  9  4  1  1  0  0  0
  9 20  1  0  0  0  0
 10 11  1  0  0  0  0
 11 12  1  6  0  0  0
 11 13  1  0  0  0  0
 14 13  1  1  0  0  0
 15 14  1  0  0  0  0
 15 16  1  1  0  0  0
 16 10  1  0  0  0  0
 16 17  2  0  0  0  0
 18 15  1  0  0  0  0
 19 18  1  0  0  0  0
 20 14  1  0  0  0  0
 20 19  1  1  0  0  0
M  END
>  <CHROM.1>
-37.46789777,-126.11495994,26.34561208,-4.75736190,43.89124010,1.08414286
-0.03369583,0.07083740

>  <Name>
1nyi_lig

>  <RI>
0

>  <Rbt.Current_Directory>
/home/itssahil/PROJECTS/Mol_Feturizer/New_Systems/rnas/1nyi

>  <Rbt.Executable>
rbdock ($Id: //depot/dev/client3/rdock/2013.1/src/exe/rbdock.cxx#4 $)

>  <Rbt.Library>
libRbt.so (2013.1, Build901 2013/11/27)

>  <Rbt.Parameter_File>
/export/apps/rDock/src/rDock_2013.1_src/data/scripts/dock_solv.prm

>  <Rbt.Receptor>
prm/pocket_docking_2.prm

>  <SCORE>
-8.74771

>  <SCORE.INTER>
-8.4882

>  <SCORE.INTER.CONST>
1

>  <SCORE.INTER.POLAR>
-0.747938

>  <SCORE.INTER.ROT>
2

>  <SCORE.INTER.SOLV>
13.6636

>  <SCORE.INTER.VDW>
-12.6535

>  <SCORE.INTER.norm>
-0.42441

>  <SCORE.INTRA>
-0.580048

>  <SCORE.INTRA.DIHEDRAL>
-0.831774

>  <SCORE.INTRA.DIHEDRAL.0>
3.72394

>  <SCORE.INTRA.POLAR>
0

>  <SCORE.INTRA.POLAR.0>
0

>  <SCORE.INTRA.REPUL>
0

>  <SCORE.INTRA.REPUL.0>
0

>  <SCORE.INTRA.SOLV>
0.0909839

>  <SCORE.INTRA.SOLV.lig_0>
-49.4697

>  <SCORE.INTRA.VDW>
-0.209654

>  <SCORE.INTRA.VDW.0>
-0.896538

>  <SCORE.INTRA.norm>
-0.0290024

>  <SCORE.RESTR>
0.32054

>  <SCORE.RESTR.CAVITY>
0.32054

>  <SCORE.RESTR.norm>
0.016027

>  <SCORE.SYSTEM>
0

>  <SCORE.SYSTEM.CONST>
0

>  <SCORE.SYSTEM.DIHEDRAL>
0

>  <SCORE.SYSTEM.SOLV>
0

>  <SCORE.SYSTEM.norm>
0

>  <SCORE.heavy>
20

>  <SCORE.norm>
-0.437386

>  <RMSD>
0.967

$$$$
1nyi_lig
 OpenBabel11021811403D
libRbt.so/2013.1/901 2013/11/27
 20 22  0  0  0  0  0  0  0  0999 V2000
   26.5501   -1.0512   45.1111 C   0  0  0  0  0  0  0  0  0  0  0  0
   25.2683   -1.6429   44.8994 O   0  0  0  0  0  0  0  0  0  0  0  0
   27.6547   -2.0552   44.8662 C   0  0  1  0  0  0  0  0  0  0  0  0
   27.2182   -3.3597   45.3354 O   0  0  0  0  0  0  0  0  0  0  0  0
   27.9685   -2.2294   43.3844 C   0  0  1  0  0  0  0  0  0  0  0  0
   28.9895   -1.3273   42.9553 O   0  0  0  0  0  0  0  0  0  0  0  0
   28.3810   -3.6982   43.3118 C   0  0  1  0  0  0  0  0  0  0  0  0
   29.7143   -3.9253   43.7435 O   0  0  0  0  0  0  0  0  0  0  0  0
   27.3957   -4.3188   44.2998 C   0  0  2  0  0  0  0  0  0  0  0  0
   24.2542   -8.3387   43.6212 N   0  0  0  0  0  0  0  0  0  0  0  0
   25.5109   -8.2962   44.1746 C   0  0  1  0  0  0  0  0  0  0  0  0
   25.9908   -9.4660   44.5993 N   0  0  0  0  0  0  0  0  0  0  0  0
   26.2420   -7.1922   44.2984 N   0  0  0  0  0  0  0  0  0  0  0  0
   25.6056   -6.0914   43.8019 C   0  0  1  0  0  0  0  0  0  0  0  0
   24.3474   -6.0328   43.2289 C   0  0  1  0  0  0  0  0  0  0  0  0
   23.5809   -7.2262   43.1172 C   0  0  0  0  0  0  0  0  0  0  0  0
   22.4476   -7.3732   42.6423 O   0  0  0  0  0  0  0  0  0  0  0  0
   24.0400   -4.7297   42.8592 N   0  0  0  0  0  0  0  0  0  0  0  0
   25.0930   -4.0385   43.1988 C   0  0  0  0  0  0  0  0  0  0  0  0
   26.0947   -4.7909   43.7722 N   0  0  1  0  0  0  0  0  0  0  0  0
  2  1  1  0  0  0  0
  3  1  1  6  0  0  0
  3  4  1  0  0  0  0
  3  5  1  0  0  0  0
  5  6  1  1  0  0  0
  5  7  1  0  0  0  0
  7  8  1  1  0  0  0
  7  9  1  0  0  0  0
  9  4  1  1  0  0  0
  9 20  1  0  0  0  0
 10 11  1  0  0  0  0
 11 12  1  6  0  0  0
 11 13  1  0  0  0  0
 14 13  1  1  0  0  0
 15 14  1  0  0  0  0
 15 16  1  1  0  0  0
 16 10  1  0  0  0  0
 16 17  2  0  0  0  0
 18 15  1  0  0  0  0
 19 18  1  0  0  0  0
 20 14  1  0  0  0  0
 20 19  1  1  0  0  0
M  END
>  <CHROM.1>
-36.61396079,-118.25707844,26.14274749,-4.79934541,43.86815373,1.01145827
-0.12811220,0.01805635

>  <Name>
1nyi_lig

>  <RI>
0

>  <Rbt.Current_Directory>
/home/itssahil/PROJECTS/Mol_Feturizer/New_Systems/rnas/1nyi

>  <Rbt.Executable>
rbdock ($Id: //depot/dev/client3/rdock/2013.1/src/exe/rbdock.cxx#4 $)

>  <Rbt.Library>
libRbt.so (2013.1, Build901 2013/11/27)

>  <Rbt.Parameter_File>
/export/apps/rDock/src/rDock_2013.1_src/data/scripts/dock_solv.prm

>  <Rbt.Receptor>
prm/pocket_docking_2.prm

>  <SCORE>
-8.50448

>  <SCORE.INTER>
-7.99737

>  <SCORE.INTER.CONST>
1

>  <SCORE.INTER.POLAR>
-0.747837

>  <SCORE.INTER.ROT>
2

>  <SCORE.INTER.SOLV>
13.323

>  <SCORE.INTER.VDW>
-12.2131

>  <SCORE.INTER.norm>
-0.399869

>  <SCORE.INTRA>
-0.712721

>  <SCORE.INTRA.DIHEDRAL>
-0.756999

>  <SCORE.INTRA.DIHEDRAL.0>
3.72394

>  <SCORE.INTRA.POLAR>
0

>  <SCORE.INTRA.POLAR.0>
0

>  <SCORE.INTRA.REPUL>
0

>  <SCORE.INTRA.REPUL.0>
0

>  <SCORE.INTRA.SOLV>
0.0577363

>  <SCORE.INTRA.SOLV.lig_0>
-49.4697

>  <SCORE.INTRA.VDW>
-0.36309

>  <SCORE.INTRA.VDW.0>
-0.896538

>  <SCORE.INTRA.norm>
-0.035636

>  <SCORE.RESTR>
0.205614

>  <SCORE.RESTR.CAVITY>
0.205614

>  <SCORE.RESTR.norm>
0.0102807

>  <SCORE.SYSTEM>
0

>  <SCORE.SYSTEM.CONST>
0

>  <SCORE.SYSTEM.DIHEDRAL>
0

>  <SCORE.SYSTEM.SOLV>
0

>  <SCORE.SYSTEM.norm>
0

>  <SCORE.heavy>
20

>  <SCORE.norm>
-0.425224

>  <RMSD>
0.969

$$$$
1nyi_lig
 OpenBabel11021811403D
libRbt.so/2013.1/901 2013/11/27
 20 22  0  0  0  0  0  0  0  0999 V2000
   26.5622   -1.0526   45.1177 C   0  0  0  0  0  0  0  0  0  0  0  0
   25.2775   -1.6513   44.9474 O   0  0  0  0  0  0  0  0  0  0  0  0
   27.6634   -2.0628   44.8831 C   0  0  1  0  0  0  0  0  0  0  0  0
   27.2190   -3.3628   45.3571 O   0  0  0  0  0  0  0  0  0  0  0  0
   27.9832   -2.2462   43.4037 C   0  0  1  0  0  0  0  0  0  0  0  0
   29.0100   -1.3509   42.9744 O   0  0  0  0  0  0  0  0  0  0  0  0
   28.3894   -3.7171   43.3406 C   0  0  1  0  0  0  0  0  0  0  0  0
   29.7197   -3.9478   43.7796 O   0  0  0  0  0  0  0  0  0  0  0  0
   27.3970   -4.3281   44.3274 C   0  0  2  0  0  0  0  0  0  0  0  0
   24.2547   -8.3436   43.6268 N   0  0  0  0  0  0  0  0  0  0  0  0
   25.5109   -8.3043   44.1815 C   0  0  1  0  0  0  0  0  0  0  0  0
   25.9900   -9.4763   44.6011 N   0  0  0  0  0  0  0  0  0  0  0  0
   26.2423   -7.2011   44.3112 N   0  0  0  0  0  0  0  0  0  0  0  0
   25.6067   -6.0977   43.8195 C   0  0  1  0  0  0  0  0  0  0  0  0
   24.3491   -6.0359   43.2456 C   0  0  1  0  0  0  0  0  0  0  0  0
   23.5823   -7.2285   43.1275 C   0  0  0  0  0  0  0  0  0  0  0  0
   22.4493   -7.3729   42.6509 O   0  0  0  0  0  0  0  0  0  0  0  0
   24.0424   -4.7310   42.8819 N   0  0  0  0  0  0  0  0  0  0  0  0
   25.0954   -4.0418   43.2257 C   0  0  0  0  0  0  0  0  0  0  0  0
   26.0962   -4.7972   43.7964 N   0  0  1  0  0  0  0  0  0  0  0  0
  2  1  1  0  0  0  0
  3  1  1  6  0  0  0
  3  4  1  0  0  0  0
  3  5  1  0  0  0  0
  5  6  1  1  0  0  0
  5  7  1  0  0  0  0
  7  8  1  1  0  0  0
  7  9  1  0  0  0  0
  9  4  1  1  0  0  0
  9 20  1  0  0  0  0
 10 11  1  0  0  0  0
 11 12  1  6  0  0  0
 11 13  1  0  0  0  0
 14 13  1  1  0  0  0
 15 14  1  0  0  0  0
 15 16  1  1  0  0  0
 16 10  1  0  0  0  0
 16 17  2  0  0  0  0
 18 15  1  0  0  0  0
 19 18  1  0  0  0  0
 20 14  1  0  0  0  0
 20 19  1  1  0  0  0
M  END
>  <CHROM.1>
-34.65732413,-118.91183217,26.14752725,-4.80777586,43.88739988,1.00990353
-0.12672561,0.02177727

>  <Name>
1nyi_lig

>  <RI>
0

>  <Rbt.Current_Directory>
/home/itssahil/PROJECTS/Mol_Feturizer/New_Systems/rnas/1nyi

>  <Rbt.Executable>
rbdock ($Id: //depot/dev/client3/rdock/2013.1/src/exe/rbdock.cxx#4 $)

>  <Rbt.Library>
libRbt.so (2013.1, Build901 2013/11/27)

>  <Rbt.Parameter_File>
/export/apps/rDock/src/rDock_2013.1_src/data/scripts/dock_solv.prm

>  <Rbt.Receptor>
prm/pocket_docking_2.prm

>  <SCORE>
-8.57939

>  <SCORE.INTER>
-8.22233

>  <SCORE.INTER.CONST>
1

>  <SCORE.INTER.POLAR>
-0.748165

>  <SCORE.INTER.ROT>
2

>  <SCORE.INTER.SOLV>
13.1533

>  <SCORE.INTER.VDW>
-12.3054

>  <SCORE.INTER.norm>
-0.411116

>  <SCORE.INTRA>
-0.579979

>  <SCORE.INTRA.DIHEDRAL>
-0.496918

>  <SCORE.INTRA.DIHEDRAL.0>
3.72394

>  <SCORE.INTRA.POLAR>
0

>  <SCORE.INTRA.POLAR.0>
0

>  <SCORE.INTRA.REPUL>
0

>  <SCORE.INTRA.REPUL.0>
0

>  <SCORE.INTRA.SOLV>
0.044546

>  <SCORE.INTRA.SOLV.lig_0>
-49.4697

>  <SCORE.INTRA.VDW>
-0.353793

>  <SCORE.INTRA.VDW.0>
-0.896538

>  <SCORE.INTRA.norm>
-0.028999

>  <SCORE.RESTR>
0.222922

>  <SCORE.RESTR.CAVITY>
0.222922

>  <SCORE.RESTR.norm>
0.0111461

>  <SCORE.SYSTEM>
0

>  <SCORE.SYSTEM.CONST>
0

>  <SCORE.SYSTEM.DIHEDRAL>
0

>  <SCORE.SYSTEM.SOLV>
0

>  <SCORE.SYSTEM.norm>
0

>  <SCORE.heavy>
20

>  <SCORE.norm>
-0.428969

>  <RMSD>
0.980

$$$$
1nyi_lig
 OpenBabel11021811403D
libRbt.so/2013.1/901 2013/11/27
 20 22  0  0  0  0  0  0  0  0999 V2000
   26.5141   -1.0619   45.1140 C   0  0  0  0  0  0  0  0  0  0  0  0
   26.8790    0.1973   44.5490 O   0  0  0  0  0  0  0  0  0  0  0  0
   27.6152   -2.0804   44.9181 C   0  0  1  0  0  0  0  0  0  0  0  0
   27.1557   -3.3705   45.4045 O   0  0  0  0  0  0  0  0  0  0  0  0
   27.9635   -2.2896   43.4486 C   0  0  1  0  0  0  0  0  0  0  0  0
   29.0027   -1.4058   43.0252 O   0  0  0  0  0  0  0  0  0  0  0  0
   28.3643   -3.7630   43.4179 C   0  0  1  0  0  0  0  0  0  0  0  0
   29.6846   -3.9920   43.8870 O   0  0  0  0  0  0  0  0  0  0  0  0
   27.3497   -4.3535   44.3946 C   0  0  2  0  0  0  0  0  0  0  0  0
   24.2441   -8.3834   43.6177 N   0  0  0  0  0  0  0  0  0  0  0  0
   25.4945   -8.3413   44.1851 C   0  0  1  0  0  0  0  0  0  0  0  0
   25.9781   -9.5145   44.5960 N   0  0  0  0  0  0  0  0  0  0  0  0
   26.2164   -7.2344   44.3345 N   0  0  0  0  0  0  0  0  0  0  0  0
   25.5775   -6.1301   43.8491 C   0  0  1  0  0  0  0  0  0  0  0  0
   24.3251   -6.0709   43.2636 C   0  0  1  0  0  0  0  0  0  0  0  0
   23.5683   -7.2676   43.1245 C   0  0  0  0  0  0  0  0  0  0  0  0
   22.4411   -7.4147   42.6352 O   0  0  0  0  0  0  0  0  0  0  0  0
   24.0124   -4.7641   42.9118 N   0  0  0  0  0  0  0  0  0  0  0  0
   25.0569   -4.0713   43.2737 C   0  0  0  0  0  0  0  0  0  0  0  0
   26.0577   -4.8259   43.8456 N   0  0  1  0  0  0  0  0  0  0  0  0
  2  1  1  0  0  0  0
  3  1  1  6  0  0  0
  3  4  1  0  0  0  0
  3  5  1  0  0  0  0
  5  6  1  1  0  0  0
  5  7  1  0  0  0  0
  7  8  1  1  0  0  0
  7  9  1  0  0  0  0
  9  4  1  1  0  0  0
  9 20  1  0  0  0  0
 10 11  1  0  0  0  0
 11 12  1  6  0  0  0
 11 13  1  0  0  0  0
 14 13  1  1  0  0  0
 15 14  1  0  0  0  0
 15 16  1  1  0  0  0
 16 10  1  0  0  0  0
 16 17  2  0  0  0  0
 18 15  1  0  0  0  0
 19 18  1  0  0  0  0
 20 14  1  0  0  0  0
 20 19  1  1  0  0  0
M  END
>  <CHROM.1>
-175.17914421,-120.73895705,26.21170740,-4.73421898,43.89475760,1.03991299
-0.19538706,-0.01406701

>  <Name>
1nyi_lig

>  <RI>
0

>  <Rbt.Current_Directory>
/home/itssahil/PROJECTS/Mol_Feturizer/New_Systems/rnas/1nyi

>  <Rbt.Executable>
rbdock ($Id: //depot/dev/client3/rdock/2013.1/src/exe/rbdock.cxx#4 $)

>  <Rbt.Library>
libRbt.so (2013.1, Build901 2013/11/27)

>  <Rbt.Parameter_File>
/export/apps/rDock/src/rDock_2013.1_src/data/scripts/dock_solv.prm

>  <Rbt.Receptor>
prm/pocket_docking_2.prm

>  <SCORE>
-10.0434

>  <SCORE.INTER>
-8.34188

>  <SCORE.INTER.CONST>
1

>  <SCORE.INTER.POLAR>
-0.748331

>  <SCORE.INTER.ROT>
2

>  <SCORE.INTER.SOLV>
13.2174

>  <SCORE.INTER.VDW>
-12.406

>  <SCORE.INTER.norm>
-0.417094

>  <SCORE.INTRA>
-1.88631

>  <SCORE.INTRA.DIHEDRAL>
-2.40532

>  <SCORE.INTRA.DIHEDRAL.0>
3.72394

>  <SCORE.INTRA.POLAR>
0

>  <SCORE.INTRA.POLAR.0>
0

>  <SCORE.INTRA.REPUL>
0

>  <SCORE.INTRA.REPUL.0>
0

>  <SCORE.INTRA.SOLV>
-0.627152

>  <SCORE.INTRA.SOLV.lig_0>
-49.4697

>  <SCORE.INTRA.VDW>
-0.370079

>  <SCORE.INTRA.VDW.0>
-0.896538

>  <SCORE.INTRA.norm>
-0.0943156

>  <SCORE.RESTR>
0.184764

>  <SCORE.RESTR.CAVITY>
0.184764

>  <SCORE.RESTR.norm>
0.00923821

>  <SCORE.SYSTEM>
0

>  <SCORE.SYSTEM.CONST>
0

>  <SCORE.SYSTEM.DIHEDRAL>
0

>  <SCORE.SYSTEM.SOLV>
0

>  <SCORE.SYSTEM.norm>
0

>  <SCORE.heavy>
20

>  <SCORE.norm>
-0.502172

>  <RMSD>
0.988

$$$$
1nyi_lig
 OpenBabel11021811403D
libRbt.so/2013.1/901 2013/11/27
 20 22  0  0  0  0  0  0  0  0999 V2000
   26.5369   -1.0460   45.1076 C   0  0  0  0  0  0  0  0  0  0  0  0
   26.9481    0.2401   44.6440 O   0  0  0  0  0  0  0  0  0  0  0  0
   27.6340   -2.0678   44.9069 C   0  0  1  0  0  0  0  0  0  0  0  0
   27.1742   -3.3557   45.3990 O   0  0  0  0  0  0  0  0  0  0  0  0
   27.9724   -2.2810   43.4356 C   0  0  1  0  0  0  0  0  0  0  0  0
   29.0112   -1.4009   43.0038 O   0  0  0  0  0  0  0  0  0  0  0  0
   28.3691   -3.7556   43.4055 C   0  0  1  0  0  0  0  0  0  0  0  0
   29.6917   -3.9871   43.8667 O   0  0  0  0  0  0  0  0  0  0  0  0
   27.3591   -4.3413   44.3900 C   0  0  2  0  0  0  0  0  0  0  0  0
   24.2414   -8.3658   43.6341 N   0  0  0  0  0  0  0  0  0  0  0  0
   25.4959   -8.3260   44.1924 C   0  0  1  0  0  0  0  0  0  0  0  0
   25.9806   -9.5001   44.5993 N   0  0  0  0  0  0  0  0  0  0  0  0
   26.2207   -7.2203   44.3370 N   0  0  0  0  0  0  0  0  0  0  0  0
   25.5801   -6.1148   43.8566 C   0  0  1  0  0  0  0  0  0  0  0  0
   24.3236   -6.0533   43.2803 C   0  0  1  0  0  0  0  0  0  0  0  0
   23.5638   -7.2487   43.1463 C   0  0  0  0  0  0  0  0  0  0  0  0
   22.4329   -7.3938   42.6651 O   0  0  0  0  0  0  0  0  0  0  0  0
   24.0105   -4.7459   42.9312 N   0  0  0  0  0  0  0  0  0  0  0  0
   25.0587   -4.0550   43.2858 C   0  0  0  0  0  0  0  0  0  0  0  0
   26.0624   -4.8114   43.8501 N   0  0  1  0  0  0  0  0  0  0  0  0
  2  1  1  0  0  0  0
  3  1  1  6  0  0  0
  3  4  1  0  0  0  0
  3  5  1  0  0  0  0
  5  6  1  1  0  0  0
  5  7  1  0  0  0  0
  7  8  1  1  0  0  0
  7  9  1  0  0  0  0
  9  4  1  1  0  0  0
  9 20  1  0  0  0  0
 10 11  1  0  0  0  0
 11 12  1  6  0  0  0
 11 13  1  0  0  0  0
 14 13  1  1  0  0  0
 15 14  1  0  0  0  0
 15 16  1  1  0  0  0
 16 10  1  0  0  0  0
 16 17  2  0  0  0  0
 18 15  1  0  0  0  0
 19 18  1  0  0  0  0
 20 14  1  0  0  0  0
 20 19  1  1  0  0  0
M  END
>  <CHROM.1>
179.67558680,-120.90229056,26.22053407,-4.71874303,43.90225065,1.03827772
-0.18463045,-0.00903126

>  <Name>
1nyi_lig

>  <RI>
0

>  <Rbt.Current_Directory>
/home/itssahil/PROJECTS/Mol_Feturizer/New_Systems/rnas/1nyi

>  <Rbt.Executable>
rbdock ($Id: //depot/dev/client3/rdock/2013.1/src/exe/rbdock.cxx#4 $)

>  <Rbt.Library>
libRbt.so (2013.1, Build901 2013/11/27)

>  <Rbt.Parameter_File>
/export/apps/rDock/src/rDock_2013.1_src/data/scripts/dock_solv.prm

>  <Rbt.Receptor>
prm/pocket_docking_2.prm

>  <SCORE>
-10.2349

>  <SCORE.INTER>
-8.48341

>  <SCORE.INTER.CONST>
1

>  <SCORE.INTER.POLAR>
-0.748331

>  <SCORE.INTER.ROT>
2

>  <SCORE.INTER.SOLV>
13.0133

>  <SCORE.INTER.VDW>
-12.4323

>  <SCORE.INTER.norm>
-0.424171

>  <SCORE.INTRA>
-1.98279

>  <SCORE.INTRA.DIHEDRAL>
-2.49211

>  <SCORE.INTRA.DIHEDRAL.0>
3.72394

>  <SCORE.INTRA.POLAR>
0

>  <SCORE.INTRA.POLAR.0>
0

>  <SCORE.INTRA.REPUL>
0

>  <SCORE.INTRA.REPUL.0>
0

>  <SCORE.INTRA.SOLV>
-0.652587

>  <SCORE.INTRA.SOLV.lig_0>
-49.4697

>  <SCORE.INTRA.VDW>
-0.410444

>  <SCORE.INTRA.VDW.0>
-0.896538

>  <SCORE.INTRA.norm>
-0.0991395

>  <SCORE.RESTR>
0.231314

>  <SCORE.RESTR.CAVITY>
0.231314

>  <SCORE.RESTR.norm>
0.0115657

>  <SCORE.SYSTEM>
0

>  <SCORE.SYSTEM.CONST>
0

>  <SCORE.SYSTEM.DIHEDRAL>
0

>  <SCORE.SYSTEM.SOLV>
0

>  <SCORE.SYSTEM.norm>
0

>  <SCORE.heavy>
20

>  <SCORE.norm>
-0.511744

>  <RMSD>
0.995

$$$$
1nyi_lig
 OpenBabel11021811403D
libRbt.so/2013.1/901 2013/11/27
 20 22  0  0  0  0  0  0  0  0999 V2000
   26.5106   -1.0580   45.1138 C   0  0  0  0  0  0  0  0  0  0  0  0
   26.9017    0.2232   44.6202 O   0  0  0  0  0  0  0  0  0  0  0  0
   27.6178   -2.0708   44.9224 C   0  0  1  0  0  0  0  0  0  0  0  0
   27.1602   -3.3650   45.3997 O   0  0  0  0  0  0  0  0  0  0  0  0
   27.9787   -2.2721   43.4549 C   0  0  1  0  0  0  0  0  0  0  0  0
   29.0172   -1.3819   43.0435 O   0  0  0  0  0  0  0  0  0  0  0  0
   28.3863   -3.7436   43.4212 C   0  0  1  0  0  0  0  0  0  0  0  0
   29.7038   -3.9687   43.8998 O   0  0  0  0  0  0  0  0  0  0  0  0
   27.3666   -4.3428   44.3873 C   0  0  2  0  0  0  0  0  0  0  0  0
   24.2725   -8.3784   43.5941 N   0  0  0  0  0  0  0  0  0  0  0  0
   25.5164   -8.3328   44.1753 C   0  0  1  0  0  0  0  0  0  0  0  0
   25.9961   -9.5037   44.5970 N   0  0  0  0  0  0  0  0  0  0  0  0
   26.2359   -7.2247   44.3277 N   0  0  0  0  0  0  0  0  0  0  0  0
   25.6018   -6.1231   43.8300 C   0  0  1  0  0  0  0  0  0  0  0  0
   24.3560   -6.0674   43.2303 C   0  0  1  0  0  0  0  0  0  0  0  0
   23.6016   -7.2652   43.0882 C   0  0  0  0  0  0  0  0  0  0  0  0
   22.4800   -7.4154   42.5870 O   0  0  0  0  0  0  0  0  0  0  0  0
   24.0464   -4.7625   42.8690 N   0  0  0  0  0  0  0  0  0  0  0  0
   25.0863   -4.0673   43.2394 C   0  0  0  0  0  0  0  0  0  0  0  0
   26.0812   -4.8186   43.8259 N   0  0  1  0  0  0  0  0  0  0  0  0
  2  1  1  0  0  0  0
  3  1  1  6  0  0  0
  3  4  1  0  0  0  0
  3  5  1  0  0  0  0
  5  6  1  1  0  0  0
  5  7  1  0  0  0  0
  7  8  1  1  0  0  0
  7  9  1  0  0  0  0
  9  4  1  1  0  0  0
  9 20  1  0  0  0  0
 10 11  1  0  0  0  0
 11 12  1  6  0  0  0
 11 13  1  0  0  0  0
 14 13  1  1  0  0  0
 15 14  1  0  0  0  0
 15 16  1  1  0  0  0
 16 10  1  0  0  0  0
 16 17  2  0  0  0  0
 18 15  1  0  0  0  0
 19 18  1  0  0  0  0
 20 14  1  0  0  0  0
 20 19  1  1  0  0  0
M  END
>  <CHROM.1>
-178.23725179,-120.15753115,26.23242997,-4.72406597,43.88714350,1.04220420
-0.20416147,-0.01114842

>  <Name>
1nyi_lig

>  <RI>
0

>  <Rbt.Current_Directory>
/home/itssahil/PROJECTS/Mol_Feturizer/New_Systems/rnas/1nyi

>  <Rbt.Executable>
rbdock ($Id: //depot/dev/client3/rdock/2013.1/src/exe/rbdock.cxx#4 $)

>  <Rbt.Library>
libRbt.so (2013.1, Build901 2013/11/27)

>  <Rbt.Parameter_File>
/export/apps/rDock/src/rDock_2013.1_src/data/scripts/dock_solv.prm

>  <Rbt.Receptor>
prm/pocket_docking_2.prm

>  <SCORE>
-10.2957

>  <SCORE.INTER>
-8.57073

>  <SCORE.INTER.CONST>
1

>  <SCORE.INTER.POLAR>
-0.747202

>  <SCORE.INTER.ROT>
2

>  <SCORE.INTER.SOLV>
13.2469

>  <SCORE.INTER.VDW>
-12.5721

>  <SCORE.INTER.norm>
-0.428536

>  <SCORE.INTRA>
-1.95732

>  <SCORE.INTRA.DIHEDRAL>
-2.48268

>  <SCORE.INTRA.DIHEDRAL.0>
3.72394

>  <SCORE.INTRA.POLAR>
0

>  <SCORE.INTRA.POLAR.0>
0

>  <SCORE.INTRA.REPUL>
0

>  <SCORE.INTRA.REPUL.0>
0

>  <SCORE.INTRA.SOLV>
-0.642079

>  <SCORE.INTRA.SOLV.lig_0>
-49.4697

>  <SCORE.INTRA.VDW>
-0.394935

>  <SCORE.INTRA.VDW.0>
-0.896538

>  <SCORE.INTRA.norm>
-0.0978658

>  <SCORE.RESTR>
0.232367

>  <SCORE.RESTR.CAVITY>
0.232367

>  <SCORE.RESTR.norm>
0.0116183

>  <SCORE.SYSTEM>
0

>  <SCORE.SYSTEM.CONST>
0

>  <SCORE.SYSTEM.DIHEDRAL>
0

>  <SCORE.SYSTEM.SOLV>
0

>  <SCORE.SYSTEM.norm>
0

>  <SCORE.heavy>
20

>  <SCORE.norm>
-0.514784

>  <RMSD>
1.001

$$$$
1nyi_lig
 OpenBabel11021811403D
libRbt.so/2013.1/901 2013/11/27
 20 22  0  0  0  0  0  0  0  0999 V2000
   26.5311   -1.0532   45.1120 C   0  0  0  0  0  0  0  0  0  0  0  0
   26.9544    0.2406   44.6822 O   0  0  0  0  0  0  0  0  0  0  0  0
   27.6284   -2.0746   44.9098 C   0  0  1  0  0  0  0  0  0  0  0  0
   27.1695   -3.3629   45.4016 O   0  0  0  0  0  0  0  0  0  0  0  0
   27.9656   -2.2869   43.4382 C   0  0  1  0  0  0  0  0  0  0  0  0
   29.0037   -1.4061   43.0058 O   0  0  0  0  0  0  0  0  0  0  0  0
   28.3628   -3.7613   43.4069 C   0  0  1  0  0  0  0  0  0  0  0  0
   29.6859   -3.9925   43.8669 O   0  0  0  0  0  0  0  0  0  0  0  0
   27.3539   -4.3479   44.3919 C   0  0  2  0  0  0  0  0  0  0  0  0
   24.2377   -8.3735   43.6352 N   0  0  0  0  0  0  0  0  0  0  0  0
   25.4929   -8.3335   44.1922 C   0  0  1  0  0  0  0  0  0  0  0  0
   25.9786   -9.5077   44.5974 N   0  0  0  0  0  0  0  0  0  0  0  0
   26.2171   -7.2275   44.3371 N   0  0  0  0  0  0  0  0  0  0  0  0
   25.5754   -6.1219   43.8586 C   0  0  1  0  0  0  0  0  0  0  0  0
   24.3183   -6.0605   43.2836 C   0  0  1  0  0  0  0  0  0  0  0  0
   23.5591   -7.2562   43.1492 C   0  0  0  0  0  0  0  0  0  0  0  0
   22.4277   -7.4015   42.6690 O   0  0  0  0  0  0  0  0  0  0  0  0
   24.0040   -4.7530   42.9363 N   0  0  0  0  0  0  0  0  0  0  0  0
   25.0522   -4.0618   43.2905 C   0  0  0  0  0  0  0  0  0  0  0  0
   26.0569   -4.8182   43.8529 N   0  0  1  0  0  0  0  0  0  0  0  0
  2  1  1  0  0  0  0
  3  1  1  6  0  0  0
  3  4  1  0  0  0  0
  3  5  1  0  0  0  0
  5  6  1  1  0  0  0
  5  7  1  0  0  0  0
  7  8  1  1  0  0  0
  7  9  1  0  0  0  0
  9  4  1  1  0  0  0
  9 20  1  0  0  0  0
 10 11  1  0  0  0  0
 11 12  1  6  0  0  0
 11 13  1  0  0  0  0
 14 13  1  1  0  0  0
 15 14  1  0  0  0  0
 15 16  1  1  0  0  0
 16 10  1  0  0  0  0
 16 17  2  0  0  0  0
 18 15  1  0  0  0  0
 19 18  1  0  0  0  0
 20 14  1  0  0  0  0
 20 19  1  1  0  0  0
M  END
>  <CHROM.1>
178.10363548,-120.93548678,26.21599456,-4.72517345,43.90648074,1.03889311
-0.18249740,-0.00620383

>  <Name>
1nyi_lig

>  <RI>
0

>  <Rbt.Current_Directory>
/home/itssahil/PROJECTS/Mol_Feturizer/New_Systems/rnas/1nyi

>  <Rbt.Executable>
rbdock ($Id: //depot/dev/client3/rdock/2013.1/src/exe/rbdock.cxx#4 $)

>  <Rbt.Library>
libRbt.so (2013.1, Build901 2013/11/27)

>  <Rbt.Parameter_File>
/export/apps/rDock/src/rDock_2013.1_src/data/scripts/dock_solv.prm

>  <Rbt.Receptor>
prm/pocket_docking_2.prm

>  <SCORE>
-10.2216

>  <SCORE.INTER>
-8.46193

>  <SCORE.INTER.CONST>
1

>  <SCORE.INTER.POLAR>
-0.748331

>  <SCORE.INTER.ROT>
2

>  <SCORE.INTER.SOLV>
12.9905

>  <SCORE.INTER.VDW>
-12.4104

>  <SCORE.INTER.norm>
-0.423097

>  <SCORE.INTRA>
-1.99094

>  <SCORE.INTRA.DIHEDRAL>
-2.48095

>  <SCORE.INTRA.DIHEDRAL.0>
3.72394

>  <SCORE.INTRA.POLAR>
0

>  <SCORE.INTRA.POLAR.0>
0

>  <SCORE.INTRA.REPUL>
0

>  <SCORE.INTRA.REPUL.0>
0

>  <SCORE.INTRA.SOLV>
-0.660588

>  <SCORE.INTRA.SOLV.lig_0>
-49.4697

>  <SCORE.INTRA.VDW>
-0.420169

>  <SCORE.INTRA.VDW.0>
-0.896538

>  <SCORE.INTRA.norm>
-0.0995469

>  <SCORE.RESTR>
0.231232

>  <SCORE.RESTR.CAVITY>
0.231232

>  <SCORE.RESTR.norm>
0.0115616

>  <SCORE.SYSTEM>
0

>  <SCORE.SYSTEM.CONST>
0

>  <SCORE.SYSTEM.DIHEDRAL>
0

>  <SCORE.SYSTEM.SOLV>
0

>  <SCORE.SYSTEM.norm>
0

>  <SCORE.heavy>
20

>  <SCORE.norm>
-0.511082

>  <RMSD>
1.001

$$$$
1nyi_lig
 OpenBabel11021811403D
libRbt.so/2013.1/901 2013/11/27
 20 22  0  0  0  0  0  0  0  0999 V2000
   26.5289   -1.0537   45.1127 C   0  0  0  0  0  0  0  0  0  0  0  0
   26.9420    0.2385   44.6682 O   0  0  0  0  0  0  0  0  0  0  0  0
   27.6302   -2.0709   44.9114 C   0  0  1  0  0  0  0  0  0  0  0  0
   27.1724   -3.3628   45.3948 O   0  0  0  0  0  0  0  0  0  0  0  0
   27.9755   -2.2754   43.4406 C   0  0  1  0  0  0  0  0  0  0  0  0
   29.0133   -1.3897   43.0177 O   0  0  0  0  0  0  0  0  0  0  0  0
   28.3771   -3.7485   43.4045 C   0  0  1  0  0  0  0  0  0  0  0  0
   29.6985   -3.9781   43.8702 O   0  0  0  0  0  0  0  0  0  0  0  0
   27.3649   -4.3426   44.3816 C   0  0  2  0  0  0  0  0  0  0  0  0
   24.2506   -8.3684   43.6178 N   0  0  0  0  0  0  0  0  0  0  0  0
   25.5009   -8.3270   44.1854 C   0  0  1  0  0  0  0  0  0  0  0  0
   25.9818   -9.4998   44.6006 N   0  0  0  0  0  0  0  0  0  0  0  0
   26.2252   -7.2212   44.3312 N   0  0  0  0  0  0  0  0  0  0  0  0
   25.5890   -6.1172   43.8417 C   0  0  1  0  0  0  0  0  0  0  0  0
   24.3369   -6.0572   43.2556 C   0  0  1  0  0  0  0  0  0  0  0  0
   23.5775   -7.2527   43.1205 C   0  0  0  0  0  0  0  0  0  0  0  0
   22.4501   -7.3991   42.6313 O   0  0  0  0  0  0  0  0  0  0  0  0
   24.0272   -4.7511   42.8991 N   0  0  0  0  0  0  0  0  0  0  0  0
   25.0730   -4.0593   43.2589 C   0  0  0  0  0  0  0  0  0  0  0  0
   26.0720   -4.8141   43.8337 N   0  0  1  0  0  0  0  0  0  0  0  0
  2  1  1  0  0  0  0
  3  1  1  6  0  0  0
  3  4  1  0  0  0  0
  3  5  1  0  0  0  0
  5  6  1  1  0  0  0
  5  7  1  0  0  0  0
  7  8  1  1  0  0  0
  7  9  1  0  0  0  0
  9  4  1  1  0  0  0
  9 20  1  0  0  0  0
 10 11  1  0  0  0  0
 11 12  1  6  0  0  0
 11 13  1  0  0  0  0
 14 13  1  1  0  0  0
 15 14  1  0  0  0  0
 15 16  1  1  0  0  0
 16 10  1  0  0  0  0
 16 17  2  0  0  0  0
 18 15  1  0  0  0  0
 19 18  1  0  0  0  0
 20 14  1  0  0  0  0
 20 19  1  1  0  0  0
M  END
>  <CHROM.1>
179.17217874,-120.30753377,26.22638802,-4.71966972,43.89464407,1.03917477
-0.19150946,-0.00850832

>  <Name>
1nyi_lig

>  <RI>
0

>  <Rbt.Current_Directory>
/home/itssahil/PROJECTS/Mol_Feturizer/New_Systems/rnas/1nyi

>  <Rbt.Executable>
rbdock ($Id: //depot/dev/client3/rdock/2013.1/src/exe/rbdock.cxx#4 $)

>  <Rbt.Library>
libRbt.so (2013.1, Build901 2013/11/27)

>  <Rbt.Parameter_File>
/export/apps/rDock/src/rDock_2013.1_src/data/scripts/dock_solv.prm

>  <Rbt.Receptor>
prm/pocket_docking_2.prm

>  <SCORE>
-10.2722

>  <SCORE.INTER>
-8.52164

>  <SCORE.INTER.CONST>
1

>  <SCORE.INTER.POLAR>
-0.748331

>  <SCORE.INTER.ROT>
2

>  <SCORE.INTER.SOLV>
13.0969

>  <SCORE.INTER.VDW>
-12.4856

>  <SCORE.INTER.norm>
-0.426082

>  <SCORE.INTRA>
-1.98718

>  <SCORE.INTRA.DIHEDRAL>
-2.49319

>  <SCORE.INTRA.DIHEDRAL.0>
3.72394

>  <SCORE.INTRA.POLAR>
0

>  <SCORE.INTRA.POLAR.0>
0

>  <SCORE.INTRA.REPUL>
0

>  <SCORE.INTRA.REPUL.0>
0

>  <SCORE.INTRA.SOLV>
-0.655105

>  <SCORE.INTRA.SOLV.lig_0>
-49.4697

>  <SCORE.INTRA.VDW>
-0.413032

>  <SCORE.INTRA.VDW.0>
-0.896538

>  <SCORE.INTRA.norm>
-0.099359

>  <SCORE.RESTR>
0.236606

>  <SCORE.RESTR.CAVITY>
0.236606

>  <SCORE.RESTR.norm>
0.0118303

>  <SCORE.SYSTEM>
0

>  <SCORE.SYSTEM.CONST>
0

>  <SCORE.SYSTEM.DIHEDRAL>
0

>  <SCORE.SYSTEM.SOLV>
0

>  <SCORE.SYSTEM.norm>
0

>  <SCORE.heavy>
20

>  <SCORE.norm>
-0.51361

>  <RMSD>
1.002

$$$$
1nyi_lig
 OpenBabel11021811403D
libRbt.so/2013.1/901 2013/11/27
 20 22  0  0  0  0  0  0  0  0999 V2000
   26.5193   -1.0598   45.1131 C   0  0  0  0  0  0  0  0  0  0  0  0
   26.9271    0.2256   44.6444 O   0  0  0  0  0  0  0  0  0  0  0  0
   27.6201   -2.0789   44.9187 C   0  0  1  0  0  0  0  0  0  0  0  0
   27.1591   -3.3687   45.4046 O   0  0  0  0  0  0  0  0  0  0  0  0
   27.9702   -2.2884   43.4497 C   0  0  1  0  0  0  0  0  0  0  0  0
   29.0105   -1.4052   43.0277 O   0  0  0  0  0  0  0  0  0  0  0  0
   28.3702   -3.7621   43.4197 C   0  0  1  0  0  0  0  0  0  0  0  0
   29.6897   -3.9918   43.8906 O   0  0  0  0  0  0  0  0  0  0  0  0
   27.3540   -4.3519   44.3951 C   0  0  2  0  0  0  0  0  0  0  0  0
   24.2458   -8.3796   43.6167 N   0  0  0  0  0  0  0  0  0  0  0  0
   25.4953   -8.3381   44.1861 C   0  0  1  0  0  0  0  0  0  0  0  0
   25.9771   -9.5114   44.5989 N   0  0  0  0  0  0  0  0  0  0  0  0
   26.2180   -7.2318   44.3357 N   0  0  0  0  0  0  0  0  0  0  0  0
   25.5810   -6.1273   43.8482 C   0  0  1  0  0  0  0  0  0  0  0  0
   24.3297   -6.0675   43.2606 C   0  0  1  0  0  0  0  0  0  0  0  0
   23.5719   -7.2636   43.1214 C   0  0  0  0  0  0  0  0  0  0  0  0
   22.4454   -7.4101   42.6303 O   0  0  0  0  0  0  0  0  0  0  0  0
   24.0188   -4.7608   42.9070 N   0  0  0  0  0  0  0  0  0  0  0  0
   25.0633   -4.0686   43.2701 C   0  0  0  0  0  0  0  0  0  0  0  0
   26.0624   -4.8236   43.8443 N   0  0  1  0  0  0  0  0  0  0  0  0
  2  1  1  0  0  0  0
  3  1  1  6  0  0  0
  3  4  1  0  0  0  0
  3  5  1  0  0  0  0
  5  6  1  1  0  0  0
  5  7  1  0  0  0  0
  7  8  1  1  0  0  0
  7  9  1  0  0  0  0
  9  4  1  1  0  0  0
  9 20  1  0  0  0  0
 10 11  1  0  0  0  0
 11 12  1  6  0  0  0
 11 13  1  0  0  0  0
 14 13  1  1  0  0  0
 15 14  1  0  0  0  0
 15 16  1  1  0  0  0
 16 10  1  0  0  0  0
 16 17  2  0  0  0  0
 18 15  1  0  0  0  0
 19 18  1  0  0  0  0
 20 14  1  0  0  0  0
 20 19  1  1  0  0  0
M  END
>  <CHROM.1>
-179.81260357,-120.68349293,26.21844752,-4.73037539,43.89980422,1.03942599
-0.19380521,-0.00938769

>  <Name>
1nyi_lig

>  <RI>
0

>  <Rbt.Current_Directory>
/home/itssahil/PROJECTS/Mol_Feturizer/New_Systems/rnas/1nyi

>  <Rbt.Executable>
rbdock ($Id: //depot/dev/client3/rdock/2013.1/src/exe/rbdock.cxx#4 $)

>  <Rbt.Library>
libRbt.so (2013.1, Build901 2013/11/27)

>  <Rbt.Parameter_File>
/export/apps/rDock/src/rDock_2013.1_src/data/scripts/dock_solv.prm

>  <Rbt.Receptor>
prm/pocket_docking_2.prm

>  <SCORE>
-10.2188

>  <SCORE.INTER>
-8.46122

>  <SCORE.INTER.CONST>
1

>  <SCORE.INTER.POLAR>
-0.748317

>  <SCORE.INTER.ROT>
2

>  <SCORE.INTER.SOLV>
13.1064

>  <SCORE.INTER.VDW>
-12.4486

>  <SCORE.INTER.norm>
-0.423061

>  <SCORE.INTRA>
-1.97824

>  <SCORE.INTRA.DIHEDRAL>
-2.49285

>  <SCORE.INTRA.DIHEDRAL.0>
3.72394

>  <SCORE.INTRA.POLAR>
0

>  <SCORE.INTRA.POLAR.0>
0

>  <SCORE.INTRA.REPUL>
0

>  <SCORE.INTRA.REPUL.0>
0

>  <SCORE.INTRA.SOLV>
-0.649995

>  <SCORE.INTRA.SOLV.lig_0>
-49.4697

>  <SCORE.INTRA.VDW>
-0.406816

>  <SCORE.INTRA.VDW.0>
-0.896538

>  <SCORE.INTRA.norm>
-0.0989119

>  <SCORE.RESTR>
0.220689

>  <SCORE.RESTR.CAVITY>
0.220689

>  <SCORE.RESTR.norm>
0.0110344

>  <SCORE.SYSTEM>
0

>  <SCORE.SYSTEM.CONST>
0

>  <SCORE.SYSTEM.DIHEDRAL>
0

>  <SCORE.SYSTEM.SOLV>
0

>  <SCORE.SYSTEM.norm>
0

>  <SCORE.heavy>
20

>  <SCORE.norm>
-0.510938

>  <RMSD>
1.002

$$$$
1nyi_lig
 OpenBabel11021811403D
libRbt.so/2013.1/901 2013/11/27
 20 22  0  0  0  0  0  0  0  0999 V2000
   26.5187   -1.0598   45.1137 C   0  0  0  0  0  0  0  0  0  0  0  0
   26.9302    0.2290   44.6581 O   0  0  0  0  0  0  0  0  0  0  0  0
   27.6208   -2.0776   44.9200 C   0  0  1  0  0  0  0  0  0  0  0  0
   27.1603   -3.3685   45.4037 O   0  0  0  0  0  0  0  0  0  0  0  0
   27.9736   -2.2851   43.4513 C   0  0  1  0  0  0  0  0  0  0  0  0
   29.0137   -1.4005   43.0320 O   0  0  0  0  0  0  0  0  0  0  0  0
   28.3751   -3.7584   43.4203 C   0  0  1  0  0  0  0  0  0  0  0  0
   29.6940   -3.9873   43.8932 O   0  0  0  0  0  0  0  0  0  0  0  0
   27.3577   -4.3503   44.3933 C   0  0  2  0  0  0  0  0  0  0  0  0
   24.2521   -8.3791   43.6106 N   0  0  0  0  0  0  0  0  0  0  0  0
   25.5003   -8.3370   44.1830 C   0  0  1  0  0  0  0  0  0  0  0  0
   25.9813   -9.5099   44.5978 N   0  0  0  0  0  0  0  0  0  0  0  0
   26.2224   -7.2304   44.3334 N   0  0  0  0  0  0  0  0  0  0  0  0
   25.5864   -6.1264   43.8436 C   0  0  1  0  0  0  0  0  0  0  0  0
   24.3364   -6.0672   43.2530 C   0  0  1  0  0  0  0  0  0  0  0  0
   23.5792   -7.2635   43.1128 C   0  0  0  0  0  0  0  0  0  0  0  0
   22.4539   -7.4106   42.6192 O   0  0  0  0  0  0  0  0  0  0  0  0
   24.0261   -4.7608   42.8977 N   0  0  0  0  0  0  0  0  0  0  0  0
   25.0697   -4.0682   43.2627 C   0  0  0  0  0  0  0  0  0  0  0  0
   26.0676   -4.8226   43.8398 N   0  0  1  0  0  0  0  0  0  0  0  0
  2  1  1  0  0  0  0
  3  1  1  6  0  0  0
  3  4  1  0  0  0  0
  3  5  1  0  0  0  0
  5  6  1  1  0  0  0
  5  7  1  0  0  0  0
  7  8  1  1  0  0  0
  7  9  1  0  0  0  0
  9  4  1  1  0  0  0
  9 20  1  0  0  0  0
 10 11  1  0  0  0  0
 11 12  1  6  0  0  0
 11 13  1  0  0  0  0
 14 13  1  1  0  0  0
 15 14  1  0  0  0  0
 15 16  1  1  0  0  0
 16 10  1  0  0  0  0
 16 17  2  0  0  0  0
 18 15  1  0  0  0  0
 19 18  1  0  0  0  0
 20 14  1  0  0  0  0
 20 19  1  1  0  0  0
M  END
>  <CHROM.1>
179.67223337,-120.55851790,26.22293706,-4.72886879,43.89778434,1.03992412
-0.19573794,-0.00866849

>  <Name>
1nyi_lig

>  <RI>
0

>  <Rbt.Current_Directory>
/home/itssahil/PROJECTS/Mol_Feturizer/New_Systems/rnas/1nyi

>  <Rbt.Executable>
rbdock ($Id: //depot/dev/client3/rdock/2013.1/src/exe/rbdock.cxx#4 $)

>  <Rbt.Library>
libRbt.so (2013.1, Build901 2013/11/27)

>  <Rbt.Parameter_File>
/export/apps/rDock/src/rDock_2013.1_src/data/scripts/dock_solv.prm

>  <Rbt.Receptor>
prm/pocket_docking_2.prm

>  <SCORE>
-10.2447

>  <SCORE.INTER>
-8.48918

>  <SCORE.INTER.CONST>
1

>  <SCORE.INTER.POLAR>
-0.748331

>  <SCORE.INTER.ROT>
2

>  <SCORE.INTER.SOLV>
13.1218

>  <SCORE.INTER.VDW>
-12.4723

>  <SCORE.INTER.norm>
-0.424459

>  <SCORE.INTRA>
-1.98323

>  <SCORE.INTRA.DIHEDRAL>
-2.49365

>  <SCORE.INTRA.DIHEDRAL.0>
3.72394

>  <SCORE.INTRA.POLAR>
0

>  <SCORE.INTRA.POLAR.0>
0

>  <SCORE.INTRA.REPUL>
0

>  <SCORE.INTRA.REPUL.0>
0

>  <SCORE.INTRA.SOLV>
-0.652588

>  <SCORE.INTRA.SOLV.lig_0>
-49.4697

>  <SCORE.INTRA.VDW>
-0.410109

>  <SCORE.INTRA.VDW.0>
-0.896538

>  <SCORE.INTRA.norm>
-0.0991614

>  <SCORE.RESTR>
0.227701

>  <SCORE.RESTR.CAVITY>
0.227701

>  <SCORE.RESTR.norm>
0.011385

>  <SCORE.SYSTEM>
0

>  <SCORE.SYSTEM.CONST>
0

>  <SCORE.SYSTEM.DIHEDRAL>
0

>  <SCORE.SYSTEM.SOLV>
0

>  <SCORE.SYSTEM.norm>
0

>  <SCORE.heavy>
20

>  <SCORE.norm>
-0.512235

>  <RMSD>
1.004

$$$$
1nyi_lig
 OpenBabel11021811403D
libRbt.so/2013.1/901 2013/11/27
 20 22  0  0  0  0  0  0  0  0999 V2000
   26.5083   -1.0640   45.1175 C   0  0  0  0  0  0  0  0  0  0  0  0
   26.8992    0.2168   44.6228 O   0  0  0  0  0  0  0  0  0  0  0  0
   27.6158   -2.0767   44.9272 C   0  0  1  0  0  0  0  0  0  0  0  0
   27.1576   -3.3709   45.4038 O   0  0  0  0  0  0  0  0  0  0  0  0
   27.9783   -2.2778   43.4600 C   0  0  1  0  0  0  0  0  0  0  0  0
   29.0173   -1.3876   43.0499 O   0  0  0  0  0  0  0  0  0  0  0  0
   28.3860   -3.7493   43.4266 C   0  0  1  0  0  0  0  0  0  0  0  0
   29.7029   -3.9745   43.9067 O   0  0  0  0  0  0  0  0  0  0  0  0
   27.3652   -4.3486   44.3915 C   0  0  2  0  0  0  0  0  0  0  0  0
   24.2719   -8.3841   43.5945 N   0  0  0  0  0  0  0  0  0  0  0  0
   25.5151   -8.3385   44.1771 C   0  0  1  0  0  0  0  0  0  0  0  0
   25.9943   -9.5095   44.5993 N   0  0  0  0  0  0  0  0  0  0  0  0
   26.2345   -7.2305   44.3304 N   0  0  0  0  0  0  0  0  0  0  0  0
   25.6010   -6.1288   43.8321 C   0  0  1  0  0  0  0  0  0  0  0  0
   24.3559   -6.0731   43.2310 C   0  0  1  0  0  0  0  0  0  0  0  0
   23.6016   -7.2709   43.0880 C   0  0  0  0  0  0  0  0  0  0  0  0
   22.4806   -7.4210   42.5854 O   0  0  0  0  0  0  0  0  0  0  0  0
   24.0467   -4.7682   42.8694 N   0  0  0  0  0  0  0  0  0  0  0  0
   25.0862   -4.0731   43.2410 C   0  0  0  0  0  0  0  0  0  0  0  0
   26.0804   -4.8244   43.8286 N   0  0  1  0  0  0  0  0  0  0  0  0
  2  1  1  0  0  0  0
  3  1  1  6  0  0  0
  3  4  1  0  0  0  0
  3  5  1  0  0  0  0
  5  6  1  1  0  0  0
  5  7  1  0  0  0  0
  7  8  1  1  0  0  0
  7  9  1  0  0  0  0
  9  4  1  1  0  0  0
  9 20  1  0  0  0  0
 10 11  1  0  0  0  0
 11 12  1  6  0  0  0
 11 13  1  0  0  0  0
 14 13  1  1  0  0  0
 15 14  1  0  0  0  0
 15 16  1  1  0  0  0
 16 10  1  0  0  0  0
 16 17  2  0  0  0  0
 18 15  1  0  0  0  0
 19 18  1  0  0  0  0
 20 14  1  0  0  0  0
 20 19  1  1  0  0  0
M  END
>  <CHROM.1>
-178.15635526,-120.15261223,26.23150910,-4.72986050,43.88997979,1.04217223
-0.20535671,-0.01115677

>  <Name>
1nyi_lig

>  <RI>
0

>  <Rbt.Current_Directory>
/home/itssahil/PROJECTS/Mol_Feturizer/New_Systems/rnas/1nyi

>  <Rbt.Executable>
rbdock ($Id: //depot/dev/client3/rdock/2013.1/src/exe/rbdock.cxx#4 $)

>  <Rbt.Library>
libRbt.so (2013.1, Build901 2013/11/27)

>  <Rbt.Parameter_File>
/export/apps/rDock/src/rDock_2013.1_src/data/scripts/dock_solv.prm

>  <Rbt.Receptor>
prm/pocket_docking_2.prm

>  <SCORE>
-10.2793

>  <SCORE.INTER>
-8.55277

>  <SCORE.INTER.CONST>
1

>  <SCORE.INTER.POLAR>
-0.745809

>  <SCORE.INTER.ROT>
2

>  <SCORE.INTER.SOLV>
13.2403

>  <SCORE.INTER.VDW>
-12.5626

>  <SCORE.INTER.norm>
-0.427639

>  <SCORE.INTRA>
-1.95594

>  <SCORE.INTRA.DIHEDRAL>
-2.48158

>  <SCORE.INTRA.DIHEDRAL.0>
3.72394

>  <SCORE.INTRA.POLAR>
0

>  <SCORE.INTRA.POLAR.0>
0

>  <SCORE.INTRA.REPUL>
0

>  <SCORE.INTRA.REPUL.0>
0

>  <SCORE.INTRA.SOLV>
-0.641677

>  <SCORE.INTRA.SOLV.lig_0>
-49.4697

>  <SCORE.INTRA.VDW>
-0.394317

>  <SCORE.INTRA.VDW.0>
-0.896538

>  <SCORE.INTRA.norm>
-0.0977972

>  <SCORE.RESTR>
0.229387

>  <SCORE.RESTR.CAVITY>
0.229387

>  <SCORE.RESTR.norm>
0.0114693

>  <SCORE.SYSTEM>
0

>  <SCORE.SYSTEM.CONST>
0

>  <SCORE.SYSTEM.DIHEDRAL>
0

>  <SCORE.SYSTEM.SOLV>
0

>  <SCORE.SYSTEM.norm>
0

>  <SCORE.heavy>
20

>  <SCORE.norm>
-0.513967

>  <RMSD>
1.004

$$$$
1nyi_lig
 OpenBabel11021811403D
libRbt.so/2013.1/901 2013/11/27
 20 22  0  0  0  0  0  0  0  0999 V2000
   26.5123   -1.0727   45.1177 C   0  0  0  0  0  0  0  0  0  0  0  0
   26.9037    0.2049   44.6150 O   0  0  0  0  0  0  0  0  0  0  0  0
   27.6147   -2.0899   44.9226 C   0  0  1  0  0  0  0  0  0  0  0  0
   27.1548   -3.3814   45.4050 O   0  0  0  0  0  0  0  0  0  0  0  0
   27.9672   -2.2957   43.4536 C   0  0  1  0  0  0  0  0  0  0  0  0
   29.0069   -1.4102   43.0350 O   0  0  0  0  0  0  0  0  0  0  0  0
   28.3692   -3.7688   43.4208 C   0  0  1  0  0  0  0  0  0  0  0  0
   29.6883   -3.9978   43.8931 O   0  0  0  0  0  0  0  0  0  0  0  0
   27.3523   -4.3621   44.3935 C   0  0  2  0  0  0  0  0  0  0  0  0
   24.2460   -8.3904   43.6110 N   0  0  0  0  0  0  0  0  0  0  0  0
   25.4940   -8.3484   44.1836 C   0  0  1  0  0  0  0  0  0  0  0  0
   25.9747   -9.5213   44.5987 N   0  0  0  0  0  0  0  0  0  0  0  0
   26.2164   -7.2420   44.3340 N   0  0  0  0  0  0  0  0  0  0  0  0
   25.5807   -6.1379   43.8438 C   0  0  1  0  0  0  0  0  0  0  0  0
   24.3308   -6.0786   43.2529 C   0  0  1  0  0  0  0  0  0  0  0  0
   23.5734   -7.2748   43.1129 C   0  0  0  0  0  0  0  0  0  0  0  0
   22.4482   -7.4217   42.6191 O   0  0  0  0  0  0  0  0  0  0  0  0
   24.0209   -4.7722   42.8973 N   0  0  0  0  0  0  0  0  0  0  0  0
   25.0645   -4.0798   43.2624 C   0  0  0  0  0  0  0  0  0  0  0  0
   26.0622   -4.8342   43.8399 N   0  0  1  0  0  0  0  0  0  0  0  0
  2  1  1  0  0  0  0
  3  1  1  6  0  0  0
  3  4  1  0  0  0  0
  3  5  1  0  0  0  0
  5  6  1  1  0  0  0
  5  7  1  0  0  0  0
  7  8  1  1  0  0  0
  7  9  1  0  0  0  0
  9  4  1  1  0  0  0
  9 20  1  0  0  0  0
 10 11  1  0  0  0  0
 11 12  1  6  0  0  0
 11 13  1  0  0  0  0
 14 13  1  1  0  0  0
 15 14  1  0  0  0  0
 15 16  1  1  0  0  0
 16 10  1  0  0  0  0
 16 17  2  0  0  0  0
 18 15  1  0  0  0  0
 19 18  1  0  0  0  0
 20 14  1  0  0  0  0
 20 19  1  1  0  0  0
M  END
>  <CHROM.1>
-178.02660703,-120.47399459,26.21588145,-4.74098296,43.89612682,1.03975774
-0.19748469,-0.01108741

>  <Name>
1nyi_lig

>  <RI>
0

>  <Rbt.Current_Directory>
/home/itssahil/PROJECTS/Mol_Feturizer/New_Systems/rnas/1nyi

>  <Rbt.Executable>
rbdock ($Id: //depot/dev/client3/rdock/2013.1/src/exe/rbdock.cxx#4 $)

>  <Rbt.Library>
libRbt.so (2013.1, Build901 2013/11/27)

>  <Rbt.Parameter_File>
/export/apps/rDock/src/rDock_2013.1_src/data/scripts/dock_solv.prm

>  <Rbt.Receptor>
prm/pocket_docking_2.prm

>  <SCORE>
-10.1307

>  <SCORE.INTER>
-8.37896

>  <SCORE.INTER.CONST>
1

>  <SCORE.INTER.POLAR>
-0.748331

>  <SCORE.INTER.ROT>
2

>  <SCORE.INTER.SOLV>
13.1973

>  <SCORE.INTER.VDW>
-12.424

>  <SCORE.INTER.norm>
-0.418948

>  <SCORE.INTRA>
-1.95335

>  <SCORE.INTRA.DIHEDRAL>
-2.47823

>  <SCORE.INTRA.DIHEDRAL.0>
3.72394

>  <SCORE.INTRA.POLAR>
0

>  <SCORE.INTRA.POLAR.0>
0

>  <SCORE.INTRA.REPUL>
0

>  <SCORE.INTRA.REPUL.0>
0

>  <SCORE.INTRA.SOLV>
-0.641058

>  <SCORE.INTRA.SOLV.lig_0>
-49.4697

>  <SCORE.INTRA.VDW>
-0.393704

>  <SCORE.INTRA.VDW.0>
-0.896538

>  <SCORE.INTRA.norm>
-0.0976674

>  <SCORE.RESTR>
0.201583

>  <SCORE.RESTR.CAVITY>
0.201583

>  <SCORE.RESTR.norm>
0.0100792

>  <SCORE.SYSTEM>
0

>  <SCORE.SYSTEM.CONST>
0

>  <SCORE.SYSTEM.DIHEDRAL>
0

>  <SCORE.SYSTEM.SOLV>
0

>  <SCORE.SYSTEM.norm>
0

>  <SCORE.heavy>
20

>  <SCORE.norm>
-0.506536

>  <RMSD>
1.004

$$$$
1nyi_lig
 OpenBabel11021811403D
libRbt.so/2013.1/901 2013/11/27
 20 22  0  0  0  0  0  0  0  0999 V2000
   26.5184   -1.0595   45.1137 C   0  0  0  0  0  0  0  0  0  0  0  0
   26.9204    0.2264   44.6417 O   0  0  0  0  0  0  0  0  0  0  0  0
   27.6235   -2.0744   44.9216 C   0  0  1  0  0  0  0  0  0  0  0  0
   27.1637   -3.3677   45.3992 O   0  0  0  0  0  0  0  0  0  0  0  0
   27.9830   -2.2764   43.4538 C   0  0  1  0  0  0  0  0  0  0  0  0
   29.0230   -1.3882   43.0417 O   0  0  0  0  0  0  0  0  0  0  0  0
   28.3878   -3.7487   43.4198 C   0  0  1  0  0  0  0  0  0  0  0  0
   29.7052   -3.9763   43.8976 O   0  0  0  0  0  0  0  0  0  0  0  0
   27.3676   -4.3459   44.3866 C   0  0  2  0  0  0  0  0  0  0  0  0
   24.2652   -8.3755   43.5958 N   0  0  0  0  0  0  0  0  0  0  0  0
   25.5096   -8.3323   44.1761 C   0  0  1  0  0  0  0  0  0  0  0  0
   25.9873   -9.5042   44.5976 N   0  0  0  0  0  0  0  0  0  0  0  0
   26.2313   -7.2256   44.3280 N   0  0  0  0  0  0  0  0  0  0  0  0
   25.5990   -6.1228   43.8307 C   0  0  1  0  0  0  0  0  0  0  0  0
   24.3529   -6.0648   43.2317 C   0  0  1  0  0  0  0  0  0  0  0  0
   23.5961   -7.2612   43.0903 C   0  0  0  0  0  0  0  0  0  0  0  0
   22.4739   -7.4092   42.5897 O   0  0  0  0  0  0  0  0  0  0  0  0
   24.0456   -4.7593   42.8705 N   0  0  0  0  0  0  0  0  0  0  0  0
   25.0871   -4.0661   43.2403 C   0  0  0  0  0  0  0  0  0  0  0  0
   26.0809   -4.8193   43.8261 N   0  0  1  0  0  0  0  0  0  0  0  0
  2  1  1  0  0  0  0
  3  1  1  6  0  0  0
  3  4  1  0  0  0  0
  3  5  1  0  0  0  0
  5  6  1  1  0  0  0
  5  7  1  0  0  0  0
  7  8  1  1  0  0  0
  7  9  1  0  0  0  0
  9  4  1  1  0  0  0
  9 20  1  0  0  0  0
 10 11  1  0  0  0  0
 11 12  1  6  0  0  0
 11 13  1  0  0  0  0
 14 13  1  1  0  0  0
 15 14  1  0  0  0  0
 15 16  1  1  0  0  0
 16 10  1  0  0  0  0
 16 17  2  0  0  0  0
 18 15  1  0  0  0  0
 19 18  1  0  0  0  0
 20 14  1  0  0  0  0
 20 19  1  1  0  0  0
M  END
>  <CHROM.1>
-179.27932834,-120.15421935,26.23286707,-4.72470944,43.88854491,1.04032763
-0.20275304,-0.01035818

>  <Name>
1nyi_lig

>  <RI>
0

>  <Rbt.Current_Directory>
/home/itssahil/PROJECTS/Mol_Feturizer/New_Systems/rnas/1nyi

>  <Rbt.Executable>
rbdock ($Id: //depot/dev/client3/rdock/2013.1/src/exe/rbdock.cxx#4 $)

>  <Rbt.Library>
libRbt.so (2013.1, Build901 2013/11/27)

>  <Rbt.Parameter_File>
/export/apps/rDock/src/rDock_2013.1_src/data/scripts/dock_solv.prm

>  <Rbt.Receptor>
prm/pocket_docking_2.prm

>  <SCORE>
-10.2951

>  <SCORE.INTER>
-8.55322

>  <SCORE.INTER.CONST>
1

>  <SCORE.INTER.POLAR>
-0.748331

>  <SCORE.INTER.ROT>
2

>  <SCORE.INTER.SOLV>
13.2082

>  <SCORE.INTER.VDW>
-12.5438

>  <SCORE.INTER.norm>
-0.427661

>  <SCORE.INTRA>
-1.97266

>  <SCORE.INTRA.DIHEDRAL>
-2.49298

>  <SCORE.INTRA.DIHEDRAL.0>
3.72394

>  <SCORE.INTRA.POLAR>
0

>  <SCORE.INTRA.POLAR.0>
0

>  <SCORE.INTRA.REPUL>
0

>  <SCORE.INTRA.REPUL.0>
0

>  <SCORE.INTRA.SOLV>
-0.647279

>  <SCORE.INTRA.SOLV.lig_0>
-49.4697

>  <SCORE.INTRA.VDW>
-0.402531

>  <SCORE.INTRA.VDW.0>
-0.896538

>  <SCORE.INTRA.norm>
-0.0986331

>  <SCORE.RESTR>
0.230761

>  <SCORE.RESTR.CAVITY>
0.230761

>  <SCORE.RESTR.norm>
0.0115381

>  <SCORE.SYSTEM>
0

>  <SCORE.SYSTEM.CONST>
0

>  <SCORE.SYSTEM.DIHEDRAL>
0

>  <SCORE.SYSTEM.SOLV>
0

>  <SCORE.SYSTEM.norm>
0

>  <SCORE.heavy>
20

>  <SCORE.norm>
-0.514756

>  <RMSD>
1.005

$$$$
1nyi_lig
 OpenBabel11021811403D
libRbt.so/2013.1/901 2013/11/27
 20 22  0  0  0  0  0  0  0  0999 V2000
   26.5226   -1.0574   45.1149 C   0  0  0  0  0  0  0  0  0  0  0  0
   26.9233    0.2321   44.6515 O   0  0  0  0  0  0  0  0  0  0  0  0
   27.6292   -2.0696   44.9170 C   0  0  1  0  0  0  0  0  0  0  0  0
   27.1728   -3.3654   45.3911 O   0  0  0  0  0  0  0  0  0  0  0  0
   27.9860   -2.2660   43.4477 C   0  0  1  0  0  0  0  0  0  0  0  0
   29.0234   -1.3745   43.0365 O   0  0  0  0  0  0  0  0  0  0  0  0
   28.3934   -3.7374   43.4079 C   0  0  1  0  0  0  0  0  0  0  0  0
   29.7122   -3.9642   43.8821 O   0  0  0  0  0  0  0  0  0  0  0  0
   27.3763   -4.3397   44.3748 C   0  0  2  0  0  0  0  0  0  0  0  0
   24.2720   -8.3695   43.5915 N   0  0  0  0  0  0  0  0  0  0  0  0
   25.5166   -8.3257   44.1716 C   0  0  1  0  0  0  0  0  0  0  0  0
   25.9939   -9.4971   44.5949 N   0  0  0  0  0  0  0  0  0  0  0  0
   26.2388   -7.2191   44.3213 N   0  0  0  0  0  0  0  0  0  0  0  0
   25.6069   -6.1169   43.8223 C   0  0  1  0  0  0  0  0  0  0  0  0
   24.3607   -6.0594   43.2235 C   0  0  1  0  0  0  0  0  0  0  0  0
   23.6033   -7.2557   43.0842 C   0  0  0  0  0  0  0  0  0  0  0  0
   22.4810   -7.4041   42.5842 O   0  0  0  0  0  0  0  0  0  0  0  0
   24.0539   -4.7544   42.8601 N   0  0  0  0  0  0  0  0  0  0  0  0
   25.0957   -4.0610   43.2284 C   0  0  0  0  0  0  0  0  0  0  0  0
   26.0893   -4.8136   43.8154 N   0  0  1  0  0  0  0  0  0  0  0  0
  2  1  1  0  0  0  0
  3  1  1  6  0  0  0
  3  4  1  0  0  0  0
  3  5  1  0  0  0  0
  5  6  1  1  0  0  0
  5  7  1  0  0  0  0
  7  8  1  1  0  0  0
  7  9  1  0  0  0  0
  9  4  1  1  0  0  0
  9 20  1  0  0  0  0
 10 11  1  0  0  0  0
 11 12  1  6  0  0  0
 11 13  1  0  0  0  0
 14 13  1  1  0  0  0
 15 14  1  0  0  0  0
 15 16  1  1  0  0  0
 16 10  1  0  0  0  0
 16 17  2  0  0  0  0
 18 15  1  0  0  0  0
 19 18  1  0  0  0  0
 20 14  1  0  0  0  0
 20 19  1  1  0  0  0
M  END
>  <CHROM.1>
-179.51896931,-119.81465445,26.23929395,-4.71805416,43.88206605,1.04080825
-0.20218116,-0.00963440

>  <Name>
1nyi_lig

>  <RI>
0

>  <Rbt.Current_Directory>
/home/itssahil/PROJECTS/Mol_Feturizer/New_Systems/rnas/1nyi

>  <Rbt.Executable>
rbdock ($Id: //depot/dev/client3/rdock/2013.1/src/exe/rbdock.cxx#4 $)

>  <Rbt.Library>
libRbt.so (2013.1, Build901 2013/11/27)

>  <Rbt.Parameter_File>
/export/apps/rDock/src/rDock_2013.1_src/data/scripts/dock_solv.prm

>  <Rbt.Receptor>
prm/pocket_docking_2.prm

>  <SCORE>
-10.3419

>  <SCORE.INTER>
-8.60748

>  <SCORE.INTER.CONST>
1

>  <SCORE.INTER.POLAR>
-0.747609

>  <SCORE.INTER.ROT>
2

>  <SCORE.INTER.SOLV>
13.2421

>  <SCORE.INTER.VDW>
-12.5936

>  <SCORE.INTER.norm>
-0.430374

>  <SCORE.INTRA>
-1.97588

>  <SCORE.INTRA.DIHEDRAL>
-2.49578

>  <SCORE.INTRA.DIHEDRAL.0>
3.72394

>  <SCORE.INTRA.POLAR>
0

>  <SCORE.INTRA.POLAR.0>
0

>  <SCORE.INTRA.REPUL>
0

>  <SCORE.INTRA.REPUL.0>
0

>  <SCORE.INTRA.SOLV>
-0.648447

>  <SCORE.INTRA.SOLV.lig_0>
-49.4697

>  <SCORE.INTRA.VDW>
-0.403768

>  <SCORE.INTRA.VDW.0>
-0.896538

>  <SCORE.INTRA.norm>
-0.0987941

>  <SCORE.RESTR>
0.241511

>  <SCORE.RESTR.CAVITY>
0.241511

>  <SCORE.RESTR.norm>
0.0120756

>  <SCORE.SYSTEM>
0

>  <SCORE.SYSTEM.CONST>
0

>  <SCORE.SYSTEM.DIHEDRAL>
0

>  <SCORE.SYSTEM.SOLV>
0

>  <SCORE.SYSTEM.norm>
0

>  <SCORE.heavy>
20

>  <SCORE.norm>
-0.517093

>  <RMSD>
1.005

$$$$
1nyi_lig
 OpenBabel11021811403D
libRbt.so/2013.1/901 2013/11/27
 20 22  0  0  0  0  0  0  0  0999 V2000
   26.5177   -1.0629   45.1164 C   0  0  0  0  0  0  0  0  0  0  0  0
   26.9151    0.2221   44.6380 O   0  0  0  0  0  0  0  0  0  0  0  0
   27.6241   -2.0762   44.9231 C   0  0  1  0  0  0  0  0  0  0  0  0
   27.1659   -3.3706   45.3995 O   0  0  0  0  0  0  0  0  0  0  0  0
   27.9836   -2.2764   43.4551 C   0  0  1  0  0  0  0  0  0  0  0  0
   29.0224   -1.3865   43.0437 O   0  0  0  0  0  0  0  0  0  0  0  0
   28.3902   -3.7482   43.4196 C   0  0  1  0  0  0  0  0  0  0  0  0
   29.7079   -3.9746   43.8970 O   0  0  0  0  0  0  0  0  0  0  0  0
   27.3709   -4.3475   44.3860 C   0  0  2  0  0  0  0  0  0  0  0  0
   24.2723   -8.3799   43.5933 N   0  0  0  0  0  0  0  0  0  0  0  0
   25.5166   -8.3357   44.1738 C   0  0  1  0  0  0  0  0  0  0  0  0
   25.9954   -9.5072   44.5949 N   0  0  0  0  0  0  0  0  0  0  0  0
   26.2373   -7.2283   44.3261 N   0  0  0  0  0  0  0  0  0  0  0  0
   25.6040   -6.1259   43.8292 C   0  0  1  0  0  0  0  0  0  0  0  0
   24.3579   -6.0689   43.2302 C   0  0  1  0  0  0  0  0  0  0  0  0
   23.6022   -7.2659   43.0882 C   0  0  0  0  0  0  0  0  0  0  0  0
   22.4803   -7.4148   42.5875 O   0  0  0  0  0  0  0  0  0  0  0  0
   24.0494   -4.7636   42.8694 N   0  0  0  0  0  0  0  0  0  0  0  0
   25.0902   -4.0695   43.2395 C   0  0  0  0  0  0  0  0  0  0  0  0
   26.0846   -4.8219   43.8252 N   0  0  1  0  0  0  0  0  0  0  0  0
  2  1  1  0  0  0  0
  3  1  1  6  0  0  0
  3  4  1  0  0  0  0
  3  5  1  0  0  0  0
  5  6  1  1  0  0  0
  5  7  1  0  0  0  0
  7  8  1  1  0  0  0
  7  9  1  0  0  0  0
  9  4  1  1  0  0  0
  9 20  1  0  0  0  0
 10 11  1  0  0  0  0
 11 12  1  6  0  0  0
 11 13  1  0  0  0  0
 14 13  1  1  0  0  0
 15 14  1  0  0  0  0
 15 16  1  1  0  0  0
 16 10  1  0  0  0  0
 16 17  2  0  0  0  0
 18 15  1  0  0  0  0
 19 18  1  0  0  0  0
 20 14  1  0  0  0  0
 20 19  1  1  0  0  0
M  END
>  <CHROM.1>
-178.91661070,-120.11296482,26.23609488,-4.72726597,43.88771966,1.04137690
-0.20307565,-0.00994806

>  <Name>
1nyi_lig

>  <RI>
0

>  <Rbt.Current_Directory>
/home/itssahil/PROJECTS/Mol_Feturizer/New_Systems/rnas/1nyi

>  <Rbt.Executable>
rbdock ($Id: //depot/dev/client3/rdock/2013.1/src/exe/rbdock.cxx#4 $)

>  <Rbt.Library>
libRbt.so (2013.1, Build901 2013/11/27)

>  <Rbt.Parameter_File>
/export/apps/rDock/src/rDock_2013.1_src/data/scripts/dock_solv.prm

>  <Rbt.Receptor>
prm/pocket_docking_2.prm

>  <SCORE>
-10.3086

>  <SCORE.INTER>
-8.57443

>  <SCORE.INTER.CONST>
1

>  <SCORE.INTER.POLAR>
-0.747434

>  <SCORE.INTER.ROT>
2

>  <SCORE.INTER.SOLV>
13.233

>  <SCORE.INTER.VDW>
-12.5692

>  <SCORE.INTER.norm>
-0.428721

>  <SCORE.INTRA>
-1.96786

>  <SCORE.INTRA.DIHEDRAL>
-2.49047

>  <SCORE.INTRA.DIHEDRAL.0>
3.72394

>  <SCORE.INTRA.POLAR>
0

>  <SCORE.INTRA.POLAR.0>
0

>  <SCORE.INTRA.REPUL>
0

>  <SCORE.INTRA.REPUL.0>
0

>  <SCORE.INTRA.SOLV>
-0.64546

>  <SCORE.INTRA.SOLV.lig_0>
-49.4697

>  <SCORE.INTRA.VDW>
-0.399896

>  <SCORE.INTRA.VDW.0>
-0.896538

>  <SCORE.INTRA.norm>
-0.098393

>  <SCORE.RESTR>
0.233658

>  <SCORE.RESTR.CAVITY>
0.233658

>  <SCORE.RESTR.norm>
0.0116829

>  <SCORE.SYSTEM>
0

>  <SCORE.SYSTEM.CONST>
0

>  <SCORE.SYSTEM.DIHEDRAL>
0

>  <SCORE.SYSTEM.SOLV>
0

>  <SCORE.SYSTEM.norm>
0

>  <SCORE.heavy>
20

>  <SCORE.norm>
-0.515432

>  <RMSD>
1.006

$$$$
1nyi_lig
 OpenBabel11021811403D
libRbt.so/2013.1/901 2013/11/27
 20 22  0  0  0  0  0  0  0  0999 V2000
   26.5251   -1.0635   45.1146 C   0  0  0  0  0  0  0  0  0  0  0  0
   26.9422    0.2283   44.6727 O   0  0  0  0  0  0  0  0  0  0  0  0
   27.6247   -2.0829   44.9147 C   0  0  1  0  0  0  0  0  0  0  0  0
   27.1651   -3.3730   45.4012 O   0  0  0  0  0  0  0  0  0  0  0  0
   27.9686   -2.2912   43.4440 C   0  0  1  0  0  0  0  0  0  0  0  0
   29.0075   -1.4081   43.0185 O   0  0  0  0  0  0  0  0  0  0  0  0
   28.3678   -3.7650   43.4109 C   0  0  1  0  0  0  0  0  0  0  0  0
   29.6891   -3.9957   43.8761 O   0  0  0  0  0  0  0  0  0  0  0  0
   27.3553   -4.3553   44.3899 C   0  0  2  0  0  0  0  0  0  0  0  0
   24.2410   -8.3804   43.6230 N   0  0  0  0  0  0  0  0  0  0  0  0
   25.4927   -8.3400   44.1876 C   0  0  1  0  0  0  0  0  0  0  0  0
   25.9751   -9.5137   44.5984 N   0  0  0  0  0  0  0  0  0  0  0  0
   26.2168   -7.2343   44.3346 N   0  0  0  0  0  0  0  0  0  0  0  0
   25.5788   -6.1292   43.8496 C   0  0  1  0  0  0  0  0  0  0  0  0
   24.3253   -6.0683   43.2669 C   0  0  1  0  0  0  0  0  0  0  0  0
   23.5661   -7.2638   43.1304 C   0  0  0  0  0  0  0  0  0  0  0  0
   22.4376   -7.4093   42.6436 O   0  0  0  0  0  0  0  0  0  0  0  0
   24.0141   -4.7613   42.9146 N   0  0  0  0  0  0  0  0  0  0  0  0
   25.0606   -4.0700   43.2738 C   0  0  0  0  0  0  0  0  0  0  0  0
   26.0613   -4.8259   43.8440 N   0  0  1  0  0  0  0  0  0  0  0  0
  2  1  1  0  0  0  0
  3  1  1  6  0  0  0
  3  4  1  0  0  0  0
  3  5  1  0  0  0  0
  5  6  1  1  0  0  0
  5  7  1  0  0  0  0
  7  8  1  1  0  0  0
  7  9  1  0  0  0  0
  9  4  1  1  0  0  0
  9 20  1  0  0  0  0
 10 11  1  0  0  0  0
 11 12  1  6  0  0  0
 11 13  1  0  0  0  0
 14 13  1  1  0  0  0
 15 14  1  0  0  0  0
 15 16  1  1  0  0  0
 16 10  1  0  0  0  0
 16 17  2  0  0  0  0
 18 15  1  0  0  0  0
 19 18  1  0  0  0  0
 20 14  1  0  0  0  0
 20 19  1  1  0  0  0
M  END
>  <CHROM.1>
178.90273148,-120.62692505,26.21786255,-4.73230930,43.90119284,1.03885730
-0.18901297,-0.00750333

>  <Name>
1nyi_lig

>  <RI>
0

>  <Rbt.Current_Directory>
/home/itssahil/PROJECTS/Mol_Feturizer/New_Systems/rnas/1nyi

>  <Rbt.Executable>
rbdock ($Id: //depot/dev/client3/rdock/2013.1/src/exe/rbdock.cxx#4 $)

>  <Rbt.Library>
libRbt.so (2013.1, Build901 2013/11/27)

>  <Rbt.Parameter_File>
/export/apps/rDock/src/rDock_2013.1_src/data/scripts/dock_solv.prm

>  <Rbt.Receptor>
prm/pocket_docking_2.prm

>  <SCORE>
-10.2092

>  <SCORE.INTER>
-8.44245

>  <SCORE.INTER.CONST>
1

>  <SCORE.INTER.POLAR>
-0.747968

>  <SCORE.INTER.ROT>
2

>  <SCORE.INTER.SOLV>
13.0751

>  <SCORE.INTER.VDW>
-12.4268

>  <SCORE.INTER.norm>
-0.422122

>  <SCORE.INTRA>
-1.98839

>  <SCORE.INTRA.DIHEDRAL>
-2.49015

>  <SCORE.INTRA.DIHEDRAL.0>
3.72394

>  <SCORE.INTRA.POLAR>
0

>  <SCORE.INTRA.POLAR.0>
0

>  <SCORE.INTRA.REPUL>
0

>  <SCORE.INTRA.REPUL.0>
0

>  <SCORE.INTRA.SOLV>
-0.656496

>  <SCORE.INTRA.SOLV.lig_0>
-49.4697

>  <SCORE.INTRA.VDW>
-0.41507

>  <SCORE.INTRA.VDW.0>
-0.896538

>  <SCORE.INTRA.norm>
-0.0994196

>  <SCORE.RESTR>
0.221639

>  <SCORE.RESTR.CAVITY>
0.221639

>  <SCORE.RESTR.norm>
0.0110819

>  <SCORE.SYSTEM>
0

>  <SCORE.SYSTEM.CONST>
0

>  <SCORE.SYSTEM.DIHEDRAL>
0

>  <SCORE.SYSTEM.SOLV>
0

>  <SCORE.SYSTEM.norm>
0

>  <SCORE.heavy>
20

>  <SCORE.norm>
-0.51046

>  <RMSD>
1.006

$$$$
1nyi_lig
 OpenBabel11021811403D
libRbt.so/2013.1/901 2013/11/27
 20 22  0  0  0  0  0  0  0  0999 V2000
   26.5201   -1.0522   45.1118 C   0  0  0  0  0  0  0  0  0  0  0  0
   26.9578    0.2366   44.6811 O   0  0  0  0  0  0  0  0  0  0  0  0
   27.6181   -2.0789   44.9430 C   0  0  1  0  0  0  0  0  0  0  0  0
   27.1437   -3.3613   45.4359 O   0  0  0  0  0  0  0  0  0  0  0  0
   27.9870   -2.3055   43.4812 C   0  0  1  0  0  0  0  0  0  0  0  0
   29.0376   -1.4321   43.0643 O   0  0  0  0  0  0  0  0  0  0  0  0
   28.3796   -3.7815   43.4718 C   0  0  1  0  0  0  0  0  0  0  0  0
   29.6913   -4.0130   43.9631 O   0  0  0  0  0  0  0  0  0  0  0  0
   27.3471   -4.3558   44.4393 C   0  0  2  0  0  0  0  0  0  0  0  0
   24.2536   -8.3849   43.6109 N   0  0  0  0  0  0  0  0  0  0  0  0
   25.4987   -8.3446   44.1899 C   0  0  1  0  0  0  0  0  0  0  0  0
   25.9800   -9.5195   44.5983 N   0  0  0  0  0  0  0  0  0  0  0  0
   26.2179   -7.2377   44.3522 N   0  0  0  0  0  0  0  0  0  0  0  0
   25.5821   -6.1314   43.8674 C   0  0  1  0  0  0  0  0  0  0  0  0
   24.3350   -6.0702   43.2710 C   0  0  1  0  0  0  0  0  0  0  0  0
   23.5809   -7.2670   43.1181 C   0  0  0  0  0  0  0  0  0  0  0  0
   22.4584   -7.4126   42.6177 O   0  0  0  0  0  0  0  0  0  0  0  0
   24.0238   -4.7618   42.9239 N   0  0  0  0  0  0  0  0  0  0  0  0
   25.0641   -4.0699   43.2993 C   0  0  0  0  0  0  0  0  0  0  0  0
   26.0607   -4.8266   43.8758 N   0  0  1  0  0  0  0  0  0  0  0  0
  2  1  1  0  0  0  0
  3  1  1  6  0  0  0
  3  4  1  0  0  0  0
  3  5  1  0  0  0  0
  5  6  1  1  0  0  0
  5  7  1  0  0  0  0
  7  8  1  1  0  0  0
  7  9  1  0  0  0  0
  9  4  1  1  0  0  0
  9 20  1  0  0  0  0
 10 11  1  0  0  0  0
 11 12  1  6  0  0  0
 11 13  1  0  0  0  0
 14 13  1  1  0  0  0
 15 14  1  0  0  0  0
 15 16  1  1  0  0  0
 16 10  1  0  0  0  0
 16 17  2  0  0  0  0
 18 15  1  0  0  0  0
 19 18  1  0  0  0  0
 20 14  1  0  0  0  0
 20 19  1  1  0  0  0
M  END
>  <CHROM.1>
178.05484053,-121.80730726,26.22409125,-4.73568692,43.92190884,1.03877757
-0.20038333,-0.00712709

>  <Name>
1nyi_lig

>  <RI>
0

>  <Rbt.Current_Directory>
/home/itssahil/PROJECTS/Mol_Feturizer/New_Systems/rnas/1nyi

>  <Rbt.Executable>
rbdock ($Id: //depot/dev/client3/rdock/2013.1/src/exe/rbdock.cxx#4 $)

>  <Rbt.Library>
libRbt.so (2013.1, Build901 2013/11/27)

>  <Rbt.Parameter_File>
/export/apps/rDock/src/rDock_2013.1_src/data/scripts/dock_solv.prm

>  <Rbt.Receptor>
prm/pocket_docking_2.prm

>  <SCORE>
-10.2032

>  <SCORE.INTER>
-8.44526

>  <SCORE.INTER.CONST>
1

>  <SCORE.INTER.POLAR>
-0.748331

>  <SCORE.INTER.ROT>
2

>  <SCORE.INTER.SOLV>
12.9177

>  <SCORE.INTER.VDW>
-12.375

>  <SCORE.INTER.norm>
-0.422263

>  <SCORE.INTRA>
-1.9898

>  <SCORE.INTRA.DIHEDRAL>
-2.47642

>  <SCORE.INTRA.DIHEDRAL.0>
3.72394

>  <SCORE.INTRA.POLAR>
0

>  <SCORE.INTRA.POLAR.0>
0

>  <SCORE.INTRA.REPUL>
0

>  <SCORE.INTRA.REPUL.0>
0

>  <SCORE.INTRA.SOLV>
-0.660837

>  <SCORE.INTRA.SOLV.lig_0>
-49.4697

>  <SCORE.INTRA.VDW>
-0.421171

>  <SCORE.INTRA.VDW.0>
-0.896538

>  <SCORE.INTRA.norm>
-0.09949

>  <SCORE.RESTR>
0.231844

>  <SCORE.RESTR.CAVITY>
0.231844

>  <SCORE.RESTR.norm>
0.0115922

>  <SCORE.SYSTEM>
0

>  <SCORE.SYSTEM.CONST>
0

>  <SCORE.SYSTEM.DIHEDRAL>
0

>  <SCORE.SYSTEM.SOLV>
0

>  <SCORE.SYSTEM.norm>
0

>  <SCORE.heavy>
20

>  <SCORE.norm>
-0.510161

>  <RMSD>
1.014

$$$$
1nyi_lig
 OpenBabel11021811403D
libRbt.so/2013.1/901 2013/11/27
 20 22  0  0  0  0  0  0  0  0999 V2000
   26.4468   -1.0077   45.3899 C   0  0  0  0  0  0  0  0  0  0  0  0
   26.7118    0.3439   45.0144 O   0  0  0  0  0  0  0  0  0  0  0  0
   27.6238   -1.8993   45.0616 C   0  0  1  0  0  0  0  0  0  0  0  0
   27.3387   -3.2463   45.5270 O   0  0  0  0  0  0  0  0  0  0  0  0
   27.8655   -2.0198   43.5611 C   0  0  1  0  0  0  0  0  0  0  0  0
   28.7713   -1.0190   43.0940 O   0  0  0  0  0  0  0  0  0  0  0  0
   28.4078   -3.4419   43.4342 C   0  0  1  0  0  0  0  0  0  0  0  0
   29.7794   -3.5493   43.7848 O   0  0  0  0  0  0  0  0  0  0  0  0
   27.5439   -4.1680   44.4630 C   0  0  2  0  0  0  0  0  0  0  0  0
   24.8224   -8.4721   43.7169 N   0  0  0  0  0  0  0  0  0  0  0  0
   26.1083   -8.3206   44.1759 C   0  0  1  0  0  0  0  0  0  0  0  0
   26.7487   -9.4524   44.4727 N   0  0  0  0  0  0  0  0  0  0  0  0
   26.7201   -7.1497   44.3285 N   0  0  0  0  0  0  0  0  0  0  0  0
   25.9263   -6.0998   43.9669 C   0  0  1  0  0  0  0  0  0  0  0  0
   24.6261   -6.1499   43.4961 C   0  0  1  0  0  0  0  0  0  0  0  0
   23.9901   -7.4143   43.3514 C   0  0  0  0  0  0  0  0  0  0  0  0
   22.8445   -7.6602   42.9531 O   0  0  0  0  0  0  0  0  0  0  0  0
   24.1462   -4.8697   43.2513 N   0  0  0  0  0  0  0  0  0  0  0  0
   25.1407   -4.0848   43.5627 C   0  0  0  0  0  0  0  0  0  0  0  0
   26.2639   -4.7520   44.0000 N   0  0  1  0  0  0  0  0  0  0  0  0
  2  1  1  0  0  0  0
  3  1  1  6  0  0  0
  3  4  1  0  0  0  0
  3  5  1  0  0  0  0
  5  6  1  1  0  0  0
  5  7  1  0  0  0  0
  7  8  1  1  0  0  0
  7  9  1  0  0  0  0
  9  4  1  1  0  0  0
  9 20  1  0  0  0  0
 10 11  1  0  0  0  0
 11 12  1  6  0  0  0
 11 13  1  0  0  0  0
 14 13  1  1  0  0  0
 15 14  1  0  0  0  0
 15 16  1  1  0  0  0
 16 10  1  0  0  0  0
 16 17  2  0  0  0  0
 18 15  1  0  0  0  0
 19 18  1  0  0  0  0
 20 14  1  0  0  0  0
 20 19  1  1  0  0  0
M  END
>  <CHROM.1>
176.89143835,-121.78217613,26.42117196,-4.64549204,44.03692731,1.14502796
-0.09835264,0.05919636

>  <Name>
1nyi_lig

>  <RI>
0

>  <Rbt.Current_Directory>
/home/itssahil/PROJECTS/Mol_Feturizer/New_Systems/rnas/1nyi

>  <Rbt.Executable>
rbdock ($Id: //depot/dev/client3/rdock/2013.1/src/exe/rbdock.cxx#4 $)

>  <Rbt.Library>
libRbt.so (2013.1, Build901 2013/11/27)

>  <Rbt.Parameter_File>
/export/apps/rDock/src/rDock_2013.1_src/data/scripts/dock_solv.prm

>  <Rbt.Receptor>
prm/pocket_docking_3.prm

>  <SCORE>
-11.2045

>  <SCORE.INTER>
-9.2152

>  <SCORE.INTER.CONST>
1

>  <SCORE.INTER.POLAR>
-0.728979

>  <SCORE.INTER.ROT>
2

>  <SCORE.INTER.SOLV>
12.0482

>  <SCORE.INTER.VDW>
-12.663

>  <SCORE.INTER.norm>
-0.46076

>  <SCORE.INTRA>
-1.9893

>  <SCORE.INTRA.DIHEDRAL>
-2.45661

>  <SCORE.INTRA.DIHEDRAL.0>
3.72394

>  <SCORE.INTRA.POLAR>
0

>  <SCORE.INTRA.POLAR.0>
0

>  <SCORE.INTRA.REPUL>
0

>  <SCORE.INTRA.REPUL.0>
0

>  <SCORE.INTRA.SOLV>
-0.666822

>  <SCORE.INTRA.SOLV.lig_0>
-49.4697

>  <SCORE.INTRA.VDW>
-0.427582

>  <SCORE.INTRA.VDW.0>
-0.896538

>  <SCORE.INTRA.norm>
-0.0994648

>  <SCORE.RESTR>
0

>  <SCORE.RESTR.CAVITY>
0

>  <SCORE.RESTR.norm>
0

>  <SCORE.SYSTEM>
0

>  <SCORE.SYSTEM.CONST>
0

>  <SCORE.SYSTEM.DIHEDRAL>
0

>  <SCORE.SYSTEM.SOLV>
0

>  <SCORE.SYSTEM.norm>
0

>  <SCORE.heavy>
20

>  <SCORE.norm>
-0.560225

>  <RMSD>
1.073

$$$$
1nyi_lig
 OpenBabel11021811403D
libRbt.so/2013.1/901 2013/11/27
 20 22  0  0  0  0  0  0  0  0999 V2000
   26.4853   -0.9774   45.3247 C   0  0  0  0  0  0  0  0  0  0  0  0
   26.7650    0.3560   44.8985 O   0  0  0  0  0  0  0  0  0  0  0  0
   27.6584   -1.8905   45.0446 C   0  0  1  0  0  0  0  0  0  0  0  0
   27.3573   -3.2158   45.5596 O   0  0  0  0  0  0  0  0  0  0  0  0
   27.9149   -2.0720   43.5527 C   0  0  1  0  0  0  0  0  0  0  0  0
   28.8337   -1.0975   43.0564 O   0  0  0  0  0  0  0  0  0  0  0  0
   28.4468   -3.5022   43.4878 C   0  0  1  0  0  0  0  0  0  0  0  0
   29.8136   -3.6064   43.8572 O   0  0  0  0  0  0  0  0  0  0  0  0
   27.5662   -4.1803   44.5350 C   0  0  2  0  0  0  0  0  0  0  0  0
   24.9790   -8.5064   43.4956 N   0  0  0  0  0  0  0  0  0  0  0  0
   26.2815   -8.3440   43.9008 C   0  0  1  0  0  0  0  0  0  0  0  0
   26.9816   -9.4698   44.0475 N   0  0  0  0  0  0  0  0  0  0  0  0
   26.8543   -7.1678   44.1402 N   0  0  0  0  0  0  0  0  0  0  0  0
   26.0008   -6.1237   43.9287 C   0  0  1  0  0  0  0  0  0  0  0  0
   24.6794   -6.1849   43.5228 C   0  0  1  0  0  0  0  0  0  0  0  0
   24.0866   -7.4559   43.2830 C   0  0  0  0  0  0  0  0  0  0  0  0
   22.9312   -7.7121   42.9213 O   0  0  0  0  0  0  0  0  0  0  0  0
   24.1365   -4.9095   43.4347 N   0  0  0  0  0  0  0  0  0  0  0  0
   25.1151   -4.1158   43.7728 C   0  0  0  0  0  0  0  0  0  0  0  0
   26.2863   -4.7722   44.0814 N   0  0  1  0  0  0  0  0  0  0  0  0
  2  1  1  0  0  0  0
  3  1  1  6  0  0  0
  3  4  1  0  0  0  0
  3  5  1  0  0  0  0
  5  6  1  1  0  0  0
  5  7  1  0  0  0  0
  7  8  1  1  0  0  0
  7  9  1  0  0  0  0
  9  4  1  1  0  0  0
  9 20  1  0  0  0  0
 10 11  1  0  0  0  0
 11 12  1  6  0  0  0
 11 13  1  0  0  0  0
 14 13  1  1  0  0  0
 15 14  1  0  0  0  0
 15 16  1  1  0  0  0
 16 10  1  0  0  0  0
 16 17  2  0  0  0  0
 18 15  1  0  0  0  0
 19 18  1  0  0  0  0
 20 14  1  0  0  0  0
 20 19  1  1  0  0  0
M  END
>  <CHROM.1>
176.92573943,-131.08884874,26.48783938,-4.67118347,43.99963200,1.16303909
-0.05534759,0.10324327

>  <Name>
1nyi_lig

>  <RI>
0

>  <Rbt.Current_Directory>
/home/itssahil/PROJECTS/Mol_Feturizer/New_Systems/rnas/1nyi

>  <Rbt.Executable>
rbdock ($Id: //depot/dev/client3/rdock/2013.1/src/exe/rbdock.cxx#4 $)

>  <Rbt.Library>
libRbt.so (2013.1, Build901 2013/11/27)

>  <Rbt.Parameter_File>
/export/apps/rDock/src/rDock_2013.1_src/data/scripts/dock_solv.prm

>  <Rbt.Receptor>
prm/pocket_docking_3.prm

>  <SCORE>
-11.2159

>  <SCORE.INTER>
-9.23547

>  <SCORE.INTER.CONST>
1

>  <SCORE.INTER.POLAR>
-0.68844

>  <SCORE.INTER.ROT>
2

>  <SCORE.INTER.SOLV>
13.6417

>  <SCORE.INTER.VDW>
-13.3428

>  <SCORE.INTER.norm>
-0.461774

>  <SCORE.INTRA>
-1.98041

>  <SCORE.INTRA.DIHEDRAL>
-2.41904

>  <SCORE.INTRA.DIHEDRAL.0>
3.72394

>  <SCORE.INTRA.POLAR>
0

>  <SCORE.INTRA.POLAR.0>
0

>  <SCORE.INTRA.REPUL>
0

>  <SCORE.INTRA.REPUL.0>
0

>  <SCORE.INTRA.SOLV>
-0.663255

>  <SCORE.INTRA.SOLV.lig_0>
-49.4697

>  <SCORE.INTRA.VDW>
-0.439265

>  <SCORE.INTRA.VDW.0>
-0.896538

>  <SCORE.INTRA.norm>
-0.0990207

>  <SCORE.RESTR>
0

>  <SCORE.RESTR.CAVITY>
0

>  <SCORE.RESTR.norm>
0

>  <SCORE.SYSTEM>
0

>  <SCORE.SYSTEM.CONST>
0

>  <SCORE.SYSTEM.DIHEDRAL>
0

>  <SCORE.SYSTEM.SOLV>
0

>  <SCORE.SYSTEM.norm>
0

>  <SCORE.heavy>
20

>  <SCORE.norm>
-0.560794

>  <RMSD>
1.080

$$$$
1nyi_lig
 OpenBabel11021811403D
libRbt.so/2013.1/901 2013/11/27
 20 22  0  0  0  0  0  0  0  0999 V2000
   26.4984   -0.9974   45.3526 C   0  0  0  0  0  0  0  0  0  0  0  0
   26.7892    0.3460   44.9669 O   0  0  0  0  0  0  0  0  0  0  0  0
   27.6693   -1.9086   45.0581 C   0  0  1  0  0  0  0  0  0  0  0  0
   27.3610   -3.2436   45.5430 O   0  0  0  0  0  0  0  0  0  0  0  0
   27.9318   -2.0589   43.5638 C   0  0  1  0  0  0  0  0  0  0  0  0
   28.8565   -1.0774   43.0927 O   0  0  0  0  0  0  0  0  0  0  0  0
   28.4588   -3.4894   43.4703 C   0  0  1  0  0  0  0  0  0  0  0  0
   29.8236   -3.6067   43.8435 O   0  0  0  0  0  0  0  0  0  0  0  0
   27.5710   -4.1866   44.4988 C   0  0  2  0  0  0  0  0  0  0  0  0
   24.8355   -8.4767   43.7235 N   0  0  0  0  0  0  0  0  0  0  0  0
   26.1196   -8.3322   44.1899 C   0  0  1  0  0  0  0  0  0  0  0  0
   26.7537   -9.4676   44.4862 N   0  0  0  0  0  0  0  0  0  0  0  0
   26.7354   -7.1644   44.3497 N   0  0  0  0  0  0  0  0  0  0  0  0
   25.9480   -6.1099   43.9875 C   0  0  1  0  0  0  0  0  0  0  0  0
   24.6501   -6.1530   43.5096 C   0  0  1  0  0  0  0  0  0  0  0  0
   24.0097   -7.4142   43.3572 C   0  0  0  0  0  0  0  0  0  0  0  0
   22.8651   -7.6540   42.9519 O   0  0  0  0  0  0  0  0  0  0  0  0
   24.1769   -4.8699   43.2666 N   0  0  0  0  0  0  0  0  0  0  0  0
   25.1729   -4.0903   43.5860 C   0  0  0  0  0  0  0  0  0  0  0  0
   26.2910   -4.7637   44.0270 N   0  0  1  0  0  0  0  0  0  0  0  0
  2  1  1  0  0  0  0
  3  1  1  6  0  0  0
  3  4  1  0  0  0  0
  3  5  1  0  0  0  0
  5  6  1  1  0  0  0
  5  7  1  0  0  0  0
  7  8  1  1  0  0  0
  7  9  1  0  0  0  0
  9  4  1  1  0  0  0
  9 20  1  0  0  0  0
 10 11  1  0  0  0  0
 11 12  1  6  0  0  0
 11 13  1  0  0  0  0
 14 13  1  1  0  0  0
 15 14  1  0  0  0  0
 15 16  1  1  0  0  0
 16 10  1  0  0  0  0
 16 17  2  0  0  0  0
 18 15  1  0  0  0  0
 19 18  1  0  0  0  0
 20 14  1  0  0  0  0
 20 19  1  1  0  0  0
M  END
>  <CHROM.1>
176.43639936,-123.19358730,26.45637380,-4.65996902,44.04755352,1.13823017
-0.10539073,0.05362262

>  <Name>
1nyi_lig

>  <RI>
0

>  <Rbt.Current_Directory>
/home/itssahil/PROJECTS/Mol_Feturizer/New_Systems/rnas/1nyi

>  <Rbt.Executable>
rbdock ($Id: //depot/dev/client3/rdock/2013.1/src/exe/rbdock.cxx#4 $)

>  <Rbt.Library>
libRbt.so (2013.1, Build901 2013/11/27)

>  <Rbt.Parameter_File>
/export/apps/rDock/src/rDock_2013.1_src/data/scripts/dock_solv.prm

>  <Rbt.Receptor>
prm/pocket_docking_3.prm

>  <SCORE>
-11.2305

>  <SCORE.INTER>
-9.2454

>  <SCORE.INTER.CONST>
1

>  <SCORE.INTER.POLAR>
-0.724638

>  <SCORE.INTER.ROT>
2

>  <SCORE.INTER.SOLV>
11.8738

>  <SCORE.INTER.VDW>
-12.6394

>  <SCORE.INTER.norm>
-0.46227

>  <SCORE.INTRA>
-1.98508

>  <SCORE.INTRA.DIHEDRAL>
-2.43994

>  <SCORE.INTRA.DIHEDRAL.0>
3.72394

>  <SCORE.INTRA.POLAR>
0

>  <SCORE.INTRA.POLAR.0>
0

>  <SCORE.INTRA.REPUL>
0

>  <SCORE.INTRA.REPUL.0>
0

>  <SCORE.INTRA.SOLV>
-0.669061

>  <SCORE.INTRA.SOLV.lig_0>
-49.4697

>  <SCORE.INTRA.VDW>
-0.430583

>  <SCORE.INTRA.VDW.0>
-0.896538

>  <SCORE.INTRA.norm>
-0.0992541

>  <SCORE.RESTR>
0

>  <SCORE.RESTR.CAVITY>
0

>  <SCORE.RESTR.norm>
0

>  <SCORE.SYSTEM>
0

>  <SCORE.SYSTEM.CONST>
0

>  <SCORE.SYSTEM.DIHEDRAL>
0

>  <SCORE.SYSTEM.SOLV>
0

>  <SCORE.SYSTEM.norm>
0

>  <SCORE.heavy>
20

>  <SCORE.norm>
-0.561524

>  <RMSD>
1.087

$$$$
1nyi_lig
 OpenBabel11021811403D
libRbt.so/2013.1/901 2013/11/27
 20 22  0  0  0  0  0  0  0  0999 V2000
   26.4369   -0.9996   45.3560 C   0  0  0  0  0  0  0  0  0  0  0  0
   26.6906    0.3494   44.9639 O   0  0  0  0  0  0  0  0  0  0  0  0
   27.6252   -1.8834   45.0477 C   0  0  1  0  0  0  0  0  0  0  0  0
   27.3570   -3.2232   45.5429 O   0  0  0  0  0  0  0  0  0  0  0  0
   27.8689   -2.0342   43.5502 C   0  0  1  0  0  0  0  0  0  0  0  0
   28.7622   -1.0326   43.0610 O   0  0  0  0  0  0  0  0  0  0  0  0
   28.4292   -3.4518   43.4550 C   0  0  1  0  0  0  0  0  0  0  0  0
   29.8019   -3.5341   43.8080 O   0  0  0  0  0  0  0  0  0  0  0  0
   27.5742   -4.1656   44.4997 C   0  0  2  0  0  0  0  0  0  0  0  0
   25.0377   -8.5298   43.4951 N   0  0  0  0  0  0  0  0  0  0  0  0
   26.3377   -8.3490   43.9006 C   0  0  1  0  0  0  0  0  0  0  0  0
   27.0503   -9.4655   44.0580 N   0  0  0  0  0  0  0  0  0  0  0  0
   26.8967   -7.1643   44.1303 N   0  0  0  0  0  0  0  0  0  0  0  0
   26.0318   -6.1319   43.9084 C   0  0  1  0  0  0  0  0  0  0  0  0
   24.7117   -6.2117   43.5014 C   0  0  1  0  0  0  0  0  0  0  0  0
   24.1338   -7.4914   43.2721 C   0  0  0  0  0  0  0  0  0  0  0  0
   22.9818   -7.7638   42.9110 O   0  0  0  0  0  0  0  0  0  0  0  0
   24.1546   -4.9433   43.4013 N   0  0  0  0  0  0  0  0  0  0  0  0
   25.1236   -4.1356   43.7337 C   0  0  0  0  0  0  0  0  0  0  0  0
   26.3018   -4.7759   44.0497 N   0  0  1  0  0  0  0  0  0  0  0  0
  2  1  1  0  0  0  0
  3  1  1  6  0  0  0
  3  4  1  0  0  0  0
  3  5  1  0  0  0  0
  5  6  1  1  0  0  0
  5  7  1  0  0  0  0
  7  8  1  1  0  0  0
  7  9  1  0  0  0  0
  9  4  1  1  0  0  0
  9 20  1  0  0  0  0
 10 11  1  0  0  0  0
 11 12  1  6  0  0  0
 11 13  1  0  0  0  0
 14 13  1  1  0  0  0
 15 14  1  0  0  0  0
 15 16  1  1  0  0  0
 16 10  1  0  0  0  0
 16 17  2  0  0  0  0
 18 15  1  0  0  0  0
 19 18  1  0  0  0  0
 20 14  1  0  0  0  0
 20 19  1  1  0  0  0
M  END
>  <CHROM.1>
176.25982645,-129.36364924,26.49331019,-4.67014216,43.99012120,1.17825521
-0.05202207,0.10678837

>  <Name>
1nyi_lig

>  <RI>
0

>  <Rbt.Current_Directory>
/home/itssahil/PROJECTS/Mol_Feturizer/New_Systems/rnas/1nyi

>  <Rbt.Executable>
rbdock ($Id: //depot/dev/client3/rdock/2013.1/src/exe/rbdock.cxx#4 $)

>  <Rbt.Library>
libRbt.so (2013.1, Build901 2013/11/27)

>  <Rbt.Parameter_File>
/export/apps/rDock/src/rDock_2013.1_src/data/scripts/dock_solv.prm

>  <Rbt.Receptor>
prm/pocket_docking_5.prm

>  <SCORE>
-11.2887

>  <SCORE.INTER>
-9.30411

>  <SCORE.INTER.CONST>
1

>  <SCORE.INTER.POLAR>
-0.661651

>  <SCORE.INTER.ROT>
2

>  <SCORE.INTER.SOLV>
13.7682

>  <SCORE.INTER.VDW>
-13.52

>  <SCORE.INTER.norm>
-0.465206

>  <SCORE.INTRA>
-1.98456

>  <SCORE.INTRA.DIHEDRAL>
-2.40989

>  <SCORE.INTRA.DIHEDRAL.0>
3.72394

>  <SCORE.INTRA.POLAR>
0

>  <SCORE.INTRA.POLAR.0>
0

>  <SCORE.INTRA.REPUL>
0

>  <SCORE.INTRA.REPUL.0>
0

>  <SCORE.INTRA.SOLV>
-0.667795

>  <SCORE.INTRA.SOLV.lig_0>
-49.4697

>  <SCORE.INTRA.VDW>
-0.445721

>  <SCORE.INTRA.VDW.0>
-0.896538

>  <SCORE.INTRA.norm>
-0.099228

>  <SCORE.RESTR>
0

>  <SCORE.RESTR.CAVITY>
0

>  <SCORE.RESTR.norm>
0

>  <SCORE.SYSTEM>
0

>  <SCORE.SYSTEM.CONST>
0

>  <SCORE.SYSTEM.DIHEDRAL>
0

>  <SCORE.SYSTEM.SOLV>
0

>  <SCORE.SYSTEM.norm>
0

>  <SCORE.heavy>
20

>  <SCORE.norm>
-0.564434

>  <RMSD>
1.099

$$$$
1nyi_lig
 OpenBabel11021811403D
libRbt.so/2013.1/901 2013/11/27
 20 22  0  0  0  0  0  0  0  0999 V2000
   26.5022   -1.0168   45.3227 C   0  0  0  0  0  0  0  0  0  0  0  0
   26.7932    0.3293   44.9467 O   0  0  0  0  0  0  0  0  0  0  0  0
   27.6782   -1.9236   45.0348 C   0  0  1  0  0  0  0  0  0  0  0  0
   27.3722   -3.2597   45.5179 O   0  0  0  0  0  0  0  0  0  0  0  0
   27.9497   -2.0727   43.5420 C   0  0  1  0  0  0  0  0  0  0  0  0
   28.8733   -1.0877   43.0762 O   0  0  0  0  0  0  0  0  0  0  0  0
   28.4826   -3.5012   43.4515 C   0  0  1  0  0  0  0  0  0  0  0  0
   29.8457   -3.6133   43.8323 O   0  0  0  0  0  0  0  0  0  0  0  0
   27.5916   -4.2018   44.4748 C   0  0  2  0  0  0  0  0  0  0  0  0
   24.8655   -8.4999   43.7111 N   0  0  0  0  0  0  0  0  0  0  0  0
   26.1449   -8.3507   44.1887 C   0  0  1  0  0  0  0  0  0  0  0  0
   26.7765   -9.4832   44.5014 N   0  0  0  0  0  0  0  0  0  0  0  0
   26.7587   -7.1812   44.3442 N   0  0  0  0  0  0  0  0  0  0  0  0
   25.9745   -6.1304   43.9648 C   0  0  1  0  0  0  0  0  0  0  0  0
   24.6813   -6.1783   43.4747 C   0  0  1  0  0  0  0  0  0  0  0  0
   24.0429   -7.4412   43.3273 C   0  0  0  0  0  0  0  0  0  0  0  0
   22.9025   -7.6851   42.9131 O   0  0  0  0  0  0  0  0  0  0  0  0
   24.2100   -4.8977   43.2157 N   0  0  0  0  0  0  0  0  0  0  0  0
   25.2026   -4.1148   43.5379 C   0  0  0  0  0  0  0  0  0  0  0  0
   26.3165   -4.7837   43.9957 N   0  0  1  0  0  0  0  0  0  0  0  0
  2  1  1  0  0  0  0
  3  1  1  6  0  0  0
  3  4  1  0  0  0  0
  3  5  1  0  0  0  0
  5  6  1  1  0  0  0
  5  7  1  0  0  0  0
  7  8  1  1  0  0  0
  7  9  1  0  0  0  0
  9  4  1  1  0  0  0
  9 20  1  0  0  0  0
 10 11  1  0  0  0  0
 11 12  1  6  0  0  0
 11 13  1  0  0  0  0
 14 13  1  1  0  0  0
 15 14  1  0  0  0  0
 15 16  1  1  0  0  0
 16 10  1  0  0  0  0
 16 17  2  0  0  0  0
 18 15  1  0  0  0  0
 19 18  1  0  0  0  0
 20 14  1  0  0  0  0
 20 19  1  1  0  0  0
M  END
>  <CHROM.1>
176.06273346,-122.59644385,26.47852928,-4.67861720,44.02501514,1.14041906
-0.11400804,0.04909523

>  <Name>
1nyi_lig

>  <RI>
0

>  <Rbt.Current_Directory>
/home/itssahil/PROJECTS/Mol_Feturizer/New_Systems/rnas/1nyi

>  <Rbt.Executable>
rbdock ($Id: //depot/dev/client3/rdock/2013.1/src/exe/rbdock.cxx#4 $)

>  <Rbt.Library>
libRbt.so (2013.1, Build901 2013/11/27)

>  <Rbt.Parameter_File>
/export/apps/rDock/src/rDock_2013.1_src/data/scripts/dock_solv.prm

>  <Rbt.Receptor>
prm/pocket_docking_4.prm

>  <SCORE>
-11.2746

>  <SCORE.INTER>
-9.29035

>  <SCORE.INTER.CONST>
1

>  <SCORE.INTER.POLAR>
-0.699972

>  <SCORE.INTER.ROT>
2

>  <SCORE.INTER.SOLV>
12.0716

>  <SCORE.INTER.VDW>
-12.8175

>  <SCORE.INTER.norm>
-0.464517

>  <SCORE.INTRA>
-1.98426

>  <SCORE.INTRA.DIHEDRAL>
-2.43293

>  <SCORE.INTRA.DIHEDRAL.0>
3.72394

>  <SCORE.INTRA.POLAR>
0

>  <SCORE.INTRA.POLAR.0>
0

>  <SCORE.INTRA.REPUL>
0

>  <SCORE.INTRA.REPUL.0>
0

>  <SCORE.INTRA.SOLV>
-0.671065

>  <SCORE.INTRA.SOLV.lig_0>
-49.4697

>  <SCORE.INTRA.VDW>
-0.432258

>  <SCORE.INTRA.VDW.0>
-0.896538

>  <SCORE.INTRA.norm>
-0.0992128

>  <SCORE.RESTR>
0

>  <SCORE.RESTR.CAVITY>
0

>  <SCORE.RESTR.norm>
0

>  <SCORE.SYSTEM>
0

>  <SCORE.SYSTEM.CONST>
0

>  <SCORE.SYSTEM.DIHEDRAL>
0

>  <SCORE.SYSTEM.SOLV>
0

>  <SCORE.SYSTEM.norm>
0

>  <SCORE.heavy>
20

>  <SCORE.norm>
-0.56373

>  <RMSD>
1.102

$$$$
1nyi_lig
 OpenBabel11021811403D
libRbt.so/2013.1/901 2013/11/27
 20 22  0  0  0  0  0  0  0  0999 V2000
   26.4482   -1.0290   45.3394 C   0  0  0  0  0  0  0  0  0  0  0  0
   26.7267    0.3244   44.9806 O   0  0  0  0  0  0  0  0  0  0  0  0
   27.6340   -1.9203   45.0436 C   0  0  1  0  0  0  0  0  0  0  0  0
   27.3523   -3.2582   45.5367 O   0  0  0  0  0  0  0  0  0  0  0  0
   27.8919   -2.0734   43.5488 C   0  0  1  0  0  0  0  0  0  0  0  0
   28.7963   -1.0777   43.0683 O   0  0  0  0  0  0  0  0  0  0  0  0
   28.4442   -3.4945   43.4598 C   0  0  1  0  0  0  0  0  0  0  0  0
   29.8127   -3.5852   43.8268 O   0  0  0  0  0  0  0  0  0  0  0  0
   27.5742   -4.2025   44.4961 C   0  0  2  0  0  0  0  0  0  0  0  0
   25.0161   -8.5515   43.4806 N   0  0  0  0  0  0  0  0  0  0  0  0
   26.3125   -8.3789   43.9011 C   0  0  1  0  0  0  0  0  0  0  0  0
   27.0144   -9.5001   44.0722 N   0  0  0  0  0  0  0  0  0  0  0  0
   26.8779   -7.1975   44.1321 N   0  0  0  0  0  0  0  0  0  0  0  0
   26.0238   -6.1595   43.8952 C   0  0  1  0  0  0  0  0  0  0  0  0
   24.7081   -6.2309   43.4725 C   0  0  1  0  0  0  0  0  0  0  0  0
   24.1231   -7.5072   43.2420 C   0  0  0  0  0  0  0  0  0  0  0  0
   22.9734   -7.7724   42.8682 O   0  0  0  0  0  0  0  0  0  0  0  0
   24.1621   -4.9588   43.3599 N   0  0  0  0  0  0  0  0  0  0  0  0
   25.1333   -4.1570   43.7003 C   0  0  0  0  0  0  0  0  0  0  0  0
   26.3026   -4.8050   44.0335 N   0  0  1  0  0  0  0  0  0  0  0  0
  2  1  1  0  0  0  0
  3  1  1  6  0  0  0
  3  4  1  0  0  0  0
  3  5  1  0  0  0  0
  5  6  1  1  0  0  0
  5  7  1  0  0  0  0
  7  8  1  1  0  0  0
  7  9  1  0  0  0  0
  9  4  1  1  0  0  0
  9 20  1  0  0  0  0
 10 11  1  0  0  0  0
 11 12  1  6  0  0  0
 11 13  1  0  0  0  0
 14 13  1  1  0  0  0
 15 14  1  0  0  0  0
 15 16  1  1  0  0  0
 16 10  1  0  0  0  0
 16 17  2  0  0  0  0
 18 15  1  0  0  0  0
 19 18  1  0  0  0  0
 20 14  1  0  0  0  0
 20 19  1  1  0  0  0
M  END
>  <CHROM.1>
174.79254047,-129.08888644,26.49483594,-4.70014972,43.98107401,1.17233133
-0.06313001,0.10520638

>  <Name>
1nyi_lig

>  <RI>
0

>  <Rbt.Current_Directory>
/home/itssahil/PROJECTS/Mol_Feturizer/New_Systems/rnas/1nyi

>  <Rbt.Executable>
rbdock ($Id: //depot/dev/client3/rdock/2013.1/src/exe/rbdock.cxx#4 $)

>  <Rbt.Library>
libRbt.so (2013.1, Build901 2013/11/27)

>  <Rbt.Parameter_File>
/export/apps/rDock/src/rDock_2013.1_src/data/scripts/dock_solv.prm

>  <Rbt.Receptor>
prm/pocket_docking_4.prm

>  <SCORE>
-11.2748

>  <SCORE.INTER>
-9.30115

>  <SCORE.INTER.CONST>
1

>  <SCORE.INTER.POLAR>
-0.652688

>  <SCORE.INTER.ROT>
2

>  <SCORE.INTER.SOLV>
13.8175

>  <SCORE.INTER.VDW>
-13.5643

>  <SCORE.INTER.norm>
-0.465057

>  <SCORE.INTRA>
-1.97364

>  <SCORE.INTRA.DIHEDRAL>
-2.36564

>  <SCORE.INTRA.DIHEDRAL.0>
3.72394

>  <SCORE.INTRA.POLAR>
0

>  <SCORE.INTRA.POLAR.0>
0

>  <SCORE.INTRA.REPUL>
0

>  <SCORE.INTRA.REPUL.0>
0

>  <SCORE.INTRA.SOLV>
-0.675594

>  <SCORE.INTRA.SOLV.lig_0>
-49.4697

>  <SCORE.INTRA.VDW>
-0.45302

>  <SCORE.INTRA.VDW.0>
-0.896538

>  <SCORE.INTRA.norm>
-0.0986818

>  <SCORE.RESTR>
0

>  <SCORE.RESTR.CAVITY>
0

>  <SCORE.RESTR.norm>
0

>  <SCORE.SYSTEM>
0

>  <SCORE.SYSTEM.CONST>
0

>  <SCORE.SYSTEM.DIHEDRAL>
0

>  <SCORE.SYSTEM.SOLV>
0

>  <SCORE.SYSTEM.norm>
0

>  <SCORE.heavy>
20

>  <SCORE.norm>
-0.563739

>  <RMSD>
1.111

$$$$
1nyi_lig
 OpenBabel11021811403D
libRbt.so/2013.1/901 2013/11/27
 20 22  0  0  0  0  0  0  0  0999 V2000
   26.5093   -0.9878   45.0338 C   0  0  0  0  0  0  0  0  0  0  0  0
   26.0040   -1.0064   46.3688 O   0  0  0  0  0  0  0  0  0  0  0  0
   27.6109   -2.0097   44.8598 C   0  0  1  0  0  0  0  0  0  0  0  0
   27.1481   -3.2919   45.3640 O   0  0  0  0  0  0  0  0  0  0  0  0
   27.9669   -2.2422   43.3956 C   0  0  1  0  0  0  0  0  0  0  0  0
   29.0087   -1.3656   42.9639 O   0  0  0  0  0  0  0  0  0  0  0  0
   28.3670   -3.7161   43.3902 C   0  0  1  0  0  0  0  0  0  0  0  0
   29.6847   -3.9382   43.8699 O   0  0  0  0  0  0  0  0  0  0  0  0
   27.3470   -4.2907   44.3708 C   0  0  2  0  0  0  0  0  0  0  0  0
   24.2589   -8.3371   43.6098 N   0  0  0  0  0  0  0  0  0  0  0  0
   25.5084   -8.2870   44.1786 C   0  0  1  0  0  0  0  0  0  0  0  0
   25.9962   -9.4562   44.5959 N   0  0  0  0  0  0  0  0  0  0  0  0
   26.2255   -7.1765   44.3234 N   0  0  0  0  0  0  0  0  0  0  0  0
   25.5828   -6.0772   43.8317 C   0  0  1  0  0  0  0  0  0  0  0  0
   24.3310   -6.0260   43.2443 C   0  0  1  0  0  0  0  0  0  0  0  0
   23.5792   -7.2265   43.1102 C   0  0  0  0  0  0  0  0  0  0  0  0
   22.4533   -7.3806   42.6201 O   0  0  0  0  0  0  0  0  0  0  0  0
   24.0134   -4.7224   42.8856 N   0  0  0  0  0  0  0  0  0  0  0  0
   25.0545   -4.0235   43.2455 C   0  0  0  0  0  0  0  0  0  0  0  0
   26.0576   -4.7711   43.8223 N   0  0  1  0  0  0  0  0  0  0  0  0
  2  1  1  0  0  0  0
  3  1  1  6  0  0  0
  3  4  1  0  0  0  0
  3  5  1  0  0  0  0
  5  6  1  1  0  0  0
  5  7  1  0  0  0  0
  7  8  1  1  0  0  0
  7  9  1  0  0  0  0
  9  4  1  1  0  0  0
  9 20  1  0  0  0  0
 10 11  1  0  0  0  0
 11 12  1  6  0  0  0
 11 13  1  0  0  0  0
 14 13  1  1  0  0  0
 15 14  1  0  0  0  0
 15 16  1  1  0  0  0
 16 10  1  0  0  0  0
 16 17  2  0  0  0  0
 18 15  1  0  0  0  0
 19 18  1  0  0  0  0
 20 14  1  0  0  0  0
 20 19  1  1  0  0  0
M  END
>  <CHROM.1>
50.32597400,-121.44794973,26.16590161,-4.75264410,43.97168848,1.03571289
-0.07065402,0.10802171

>  <Name>
1nyi_lig

>  <RI>
0

>  <Rbt.Current_Directory>
/home/itssahil/PROJECTS/Mol_Feturizer/New_Systems/rnas/1nyi

>  <Rbt.Executable>
rbdock ($Id: //depot/dev/client3/rdock/2013.1/src/exe/rbdock.cxx#4 $)

>  <Rbt.Library>
libRbt.so (2013.1, Build901 2013/11/27)

>  <Rbt.Parameter_File>
/export/apps/rDock/src/rDock_2013.1_src/data/scripts/dock_solv.prm

>  <Rbt.Receptor>
prm/pocket_docking_2.prm

>  <SCORE>
-9.33084

>  <SCORE.INTER>
-8.41453

>  <SCORE.INTER.CONST>
1

>  <SCORE.INTER.POLAR>
-0.748331

>  <SCORE.INTER.ROT>
2

>  <SCORE.INTER.SOLV>
12.1552

>  <SCORE.INTER.VDW>
-12.1003

>  <SCORE.INTER.norm>
-0.420727

>  <SCORE.INTRA>
-1.89872

>  <SCORE.INTRA.DIHEDRAL>
-2.16987

>  <SCORE.INTRA.DIHEDRAL.0>
3.72394

>  <SCORE.INTRA.POLAR>
0

>  <SCORE.INTRA.POLAR.0>
0

>  <SCORE.INTRA.REPUL>
0

>  <SCORE.INTRA.REPUL.0>
0

>  <SCORE.INTRA.SOLV>
-0.819208

>  <SCORE.INTRA.SOLV.lig_0>
-49.4697

>  <SCORE.INTRA.VDW>
-0.404179

>  <SCORE.INTRA.VDW.0>
-0.896538

>  <SCORE.INTRA.norm>
-0.0949358

>  <SCORE.RESTR>
0.98241

>  <SCORE.RESTR.CAVITY>
0.98241

>  <SCORE.RESTR.norm>
0.0491205

>  <SCORE.SYSTEM>
0

>  <SCORE.SYSTEM.CONST>
0

>  <SCORE.SYSTEM.DIHEDRAL>
0

>  <SCORE.SYSTEM.SOLV>
0

>  <SCORE.SYSTEM.norm>
0

>  <SCORE.heavy>
20

>  <SCORE.norm>
-0.466542

>  <RMSD>
1.120

$$$$
1nyi_lig
 OpenBabel11021811403D
libRbt.so/2013.1/901 2013/11/27
 20 22  0  0  0  0  0  0  0  0999 V2000
   26.3970   -1.2056   45.6972 C   0  0  0  0  0  0  0  0  0  0  0  0
   25.1958   -1.7155   45.1183 O   0  0  0  0  0  0  0  0  0  0  0  0
   27.5970   -2.0072   45.2436 C   0  0  1  0  0  0  0  0  0  0  0  0
   27.3838   -3.4052   45.5789 O   0  0  0  0  0  0  0  0  0  0  0  0
   27.7897   -1.9665   43.7317 C   0  0  1  0  0  0  0  0  0  0  0  0
   28.6367   -0.8850   43.3402 O   0  0  0  0  0  0  0  0  0  0  0  0
   28.3847   -3.3435   43.4445 C   0  0  1  0  0  0  0  0  0  0  0  0
   29.7711   -3.4247   43.7392 O   0  0  0  0  0  0  0  0  0  0  0  0
   27.5883   -4.2060   44.4211 C   0  0  2  0  0  0  0  0  0  0  0  0
   24.8531   -8.5138   43.7500 N   0  0  0  0  0  0  0  0  0  0  0  0
   26.1262   -8.3555   44.2412 C   0  0  1  0  0  0  0  0  0  0  0  0
   26.7480   -9.4806   44.5972 N   0  0  0  0  0  0  0  0  0  0  0  0
   26.7433   -7.1845   44.3696 N   0  0  0  0  0  0  0  0  0  0  0  0
   25.9695   -6.1424   43.9471 C   0  0  1  0  0  0  0  0  0  0  0  0
   24.6832   -6.1997   43.4402 C   0  0  1  0  0  0  0  0  0  0  0  0
   24.0410   -7.4638   43.3223 C   0  0  0  0  0  0  0  0  0  0  0  0
   22.9054   -7.7154   42.8993 O   0  0  0  0  0  0  0  0  0  0  0  0
   24.2217   -4.9257   43.1354 N   0  0  0  0  0  0  0  0  0  0  0  0
   25.2133   -4.1375   43.4477 C   0  0  0  0  0  0  0  0  0  0  0  0
   26.3174   -4.7969   43.9418 N   0  0  1  0  0  0  0  0  0  0  0  0
  2  1  1  0  0  0  0
  3  1  1  6  0  0  0
  3  4  1  0  0  0  0
  3  5  1  0  0  0  0
  5  6  1  1  0  0  0
  5  7  1  0  0  0  0
  7  8  1  1  0  0  0
  7  9  1  0  0  0  0
  9  4  1  1  0  0  0
  9 20  1  0  0  0  0
 10 11  1  0  0  0  0
 11 12  1  6  0  0  0
 11 13  1  0  0  0  0
 14 13  1  1  0  0  0
 15 14  1  0  0  0  0
 15 16  1  1  0  0  0
 16 10  1  0  0  0  0
 16 17  2  0  0  0  0
 18 15  1  0  0  0  0
 19 18  1  0  0  0  0
 20 14  1  0  0  0  0
 20 19  1  1  0  0  0
M  END
>  <CHROM.1>
-56.40650653,-112.67598620,26.34691713,-4.79060089,44.07808693,1.12734659
-0.09537689,0.07215272

>  <Name>
1nyi_lig

>  <RI>
0

>  <Rbt.Current_Directory>
/home/itssahil/PROJECTS/Mol_Feturizer/New_Systems/rnas/1nyi

>  <Rbt.Executable>
rbdock ($Id: //depot/dev/client3/rdock/2013.1/src/exe/rbdock.cxx#4 $)

>  <Rbt.Library>
libRbt.so (2013.1, Build901 2013/11/27)

>  <Rbt.Parameter_File>
/export/apps/rDock/src/rDock_2013.1_src/data/scripts/dock_solv.prm

>  <Rbt.Receptor>
prm/pocket_docking_3.prm

>  <SCORE>
-10.4243

>  <SCORE.INTER>
-8.81854

>  <SCORE.INTER.CONST>
1

>  <SCORE.INTER.POLAR>
-0.689456

>  <SCORE.INTER.ROT>
2

>  <SCORE.INTER.SOLV>
11.565

>  <SCORE.INTER.VDW>
-12.3692

>  <SCORE.INTER.norm>
-0.440927

>  <SCORE.INTRA>
-1.60574

>  <SCORE.INTRA.DIHEDRAL>
-2.47931

>  <SCORE.INTRA.DIHEDRAL.0>
3.72394

>  <SCORE.INTRA.POLAR>
0

>  <SCORE.INTRA.POLAR.0>
0

>  <SCORE.INTRA.REPUL>
0

>  <SCORE.INTRA.REPUL.0>
0

>  <SCORE.INTRA.SOLV>
0.116688

>  <SCORE.INTRA.SOLV.lig_0>
-49.4697

>  <SCORE.INTRA.VDW>
-0.424431

>  <SCORE.INTRA.VDW.0>
-0.896538

>  <SCORE.INTRA.norm>
-0.0802872

>  <SCORE.RESTR>
0

>  <SCORE.RESTR.CAVITY>
0

>  <SCORE.RESTR.norm>
0

>  <SCORE.SYSTEM>
0

>  <SCORE.SYSTEM.CONST>
0

>  <SCORE.SYSTEM.DIHEDRAL>
0

>  <SCORE.SYSTEM.SOLV>
0

>  <SCORE.SYSTEM.norm>
0

>  <SCORE.heavy>
20

>  <SCORE.norm>
-0.521214

>  <RMSD>
1.163

$$$$
1nyi_lig
 OpenBabel11021811403D
libRbt.so/2013.1/901 2013/11/27
 20 22  0  0  0  0  0  0  0  0999 V2000
   26.4597   -0.9400   45.2277 C   0  0  0  0  0  0  0  0  0  0  0  0
   26.1872   -0.8411   46.6256 O   0  0  0  0  0  0  0  0  0  0  0  0
   27.6288   -1.8647   44.9702 C   0  0  1  0  0  0  0  0  0  0  0  0
   27.3050   -3.1867   45.4800 O   0  0  0  0  0  0  0  0  0  0  0  0
   27.9116   -2.0496   43.4835 C   0  0  1  0  0  0  0  0  0  0  0  0
   28.8492   -1.0845   43.0042 O   0  0  0  0  0  0  0  0  0  0  0  0
   28.4306   -3.4850   43.4292 C   0  0  1  0  0  0  0  0  0  0  0  0
   29.7891   -3.6025   43.8244 O   0  0  0  0  0  0  0  0  0  0  0  0
   27.5237   -4.1538   44.4599 C   0  0  2  0  0  0  0  0  0  0  0  0
   24.7842   -8.4460   43.7104 N   0  0  0  0  0  0  0  0  0  0  0  0
   26.0640   -8.2991   44.1877 C   0  0  1  0  0  0  0  0  0  0  0  0
   26.6920   -9.4325   44.5043 N   0  0  0  0  0  0  0  0  0  0  0  0
   26.6814   -7.1310   44.3392 N   0  0  0  0  0  0  0  0  0  0  0  0
   25.9005   -6.0790   43.9562 C   0  0  1  0  0  0  0  0  0  0  0  0
   24.6073   -6.1246   43.4660 C   0  0  1  0  0  0  0  0  0  0  0  0
   23.9649   -7.3859   43.3228 C   0  0  0  0  0  0  0  0  0  0  0  0
   22.8238   -7.6277   42.9092 O   0  0  0  0  0  0  0  0  0  0  0  0
   24.1401   -4.8434   43.2026 N   0  0  0  0  0  0  0  0  0  0  0  0
   25.1351   -4.0625   43.5222 C   0  0  0  0  0  0  0  0  0  0  0  0
   26.2469   -4.7334   43.9825 N   0  0  1  0  0  0  0  0  0  0  0  0
  2  1  1  0  0  0  0
  3  1  1  6  0  0  0
  3  4  1  0  0  0  0
  3  5  1  0  0  0  0
  5  6  1  1  0  0  0
  5  7  1  0  0  0  0
  7  8  1  1  0  0  0
  7  9  1  0  0  0  0
  9  4  1  1  0  0  0
  9 20  1  0  0  0  0
 10 11  1  0  0  0  0
 11 12  1  6  0  0  0
 11 13  1  0  0  0  0
 14 13  1  1  0  0  0
 15 14  1  0  0  0  0
 15 16  1  1  0  0  0
 16 10  1  0  0  0  0
 16 17  2  0  0  0  0
 18 15  1  0  0  0  0
 19 18  1  0  0  0  0
 20 14  1  0  0  0  0
 20 19  1  1  0  0  0
M  END
>  <CHROM.1>
60.25274001,-123.83901220,26.38307388,-4.70126399,44.09816416,1.12164218
0.00763432,0.14857662

>  <Name>
1nyi_lig

>  <RI>
0

>  <Rbt.Current_Directory>
/home/itssahil/PROJECTS/Mol_Feturizer/New_Systems/rnas/1nyi

>  <Rbt.Executable>
rbdock ($Id: //depot/dev/client3/rdock/2013.1/src/exe/rbdock.cxx#4 $)

>  <Rbt.Library>
libRbt.so (2013.1, Build901 2013/11/27)

>  <Rbt.Parameter_File>
/export/apps/rDock/src/rDock_2013.1_src/data/scripts/dock_solv.prm

>  <Rbt.Receptor>
prm/pocket_docking_3.prm

>  <SCORE>
-11.1509

>  <SCORE.INTER>
-9.04812

>  <SCORE.INTER.CONST>
1

>  <SCORE.INTER.POLAR>
-0.731302

>  <SCORE.INTER.ROT>
2

>  <SCORE.INTER.SOLV>
11.1957

>  <SCORE.INTER.VDW>
-12.2596

>  <SCORE.INTER.norm>
-0.452406

>  <SCORE.INTRA>
-2.10276

>  <SCORE.INTRA.DIHEDRAL>
-2.47866

>  <SCORE.INTRA.DIHEDRAL.0>
3.72394

>  <SCORE.INTRA.POLAR>
0

>  <SCORE.INTRA.POLAR.0>
0

>  <SCORE.INTRA.REPUL>
0

>  <SCORE.INTRA.REPUL.0>
0

>  <SCORE.INTRA.SOLV>
-0.87979

>  <SCORE.INTRA.SOLV.lig_0>
-49.4697

>  <SCORE.INTRA.VDW>
-0.423529

>  <SCORE.INTRA.VDW.0>
-0.896538

>  <SCORE.INTRA.norm>
-0.105138

>  <SCORE.RESTR>
0

>  <SCORE.RESTR.CAVITY>
0

>  <SCORE.RESTR.norm>
0

>  <SCORE.SYSTEM>
0

>  <SCORE.SYSTEM.CONST>
0

>  <SCORE.SYSTEM.DIHEDRAL>
0

>  <SCORE.SYSTEM.SOLV>
0

>  <SCORE.SYSTEM.norm>
0

>  <SCORE.heavy>
20

>  <SCORE.norm>
-0.557544

>  <RMSD>
1.206

$$$$
1nyi_lig
 OpenBabel11021811403D
libRbt.so/2013.1/901 2013/11/27
 20 22  0  0  0  0  0  0  0  0999 V2000
   26.0863   -1.4316   45.5583 C   0  0  0  0  0  0  0  0  0  0  0  0
   24.8638   -1.7627   44.8997 O   0  0  0  0  0  0  0  0  0  0  0  0
   27.1844   -2.3991   45.1757 C   0  0  1  0  0  0  0  0  0  0  0  0
   26.7099   -3.7568   45.3848 O   0  0  0  0  0  0  0  0  0  0  0  0
   27.5539   -2.3100   43.6992 C   0  0  1  0  0  0  0  0  0  0  0  0
   28.6045   -1.3681   43.4776 O   0  0  0  0  0  0  0  0  0  0  0  0
   27.9465   -3.7503   43.3767 C   0  0  1  0  0  0  0  0  0  0  0  0
   29.2581   -4.0810   43.8080 O   0  0  0  0  0  0  0  0  0  0  0  0
   26.9136   -4.5171   44.1998 C   0  0  2  0  0  0  0  0  0  0  0  0
   23.3637   -8.1498   43.3691 N   0  0  0  0  0  0  0  0  0  0  0  0
   24.5468   -8.2276   44.0630 C   0  0  1  0  0  0  0  0  0  0  0  0
   24.8191   -9.4170   44.6017 N   0  0  0  0  0  0  0  0  0  0  0  0
   25.3989   -7.2176   44.2136 N   0  0  0  0  0  0  0  0  0  0  0  0
   24.9711   -6.0818   43.5890 C   0  0  1  0  0  0  0  0  0  0  0  0
   23.8020   -5.9051   42.8701 C   0  0  1  0  0  0  0  0  0  0  0  0
   22.9020   -6.9983   42.7321 C   0  0  0  0  0  0  0  0  0  0  0  0
   21.8180   -7.0342   42.1359 O   0  0  0  0  0  0  0  0  0  0  0  0
   23.7111   -4.6016   42.3993 N   0  0  0  0  0  0  0  0  0  0  0  0
   24.8024   -4.0261   42.8233 C   0  0  0  0  0  0  0  0  0  0  0  0
   25.6275   -4.8574   43.5487 N   0  0  1  0  0  0  0  0  0  0  0  0
  2  1  1  0  0  0  0
  3  1  1  6  0  0  0
  3  4  1  0  0  0  0
  3  5  1  0  0  0  0
  5  6  1  1  0  0  0
  5  7  1  0  0  0  0
  7  8  1  1  0  0  0
  7  9  1  0  0  0  0
  9  4  1  1  0  0  0
  9 20  1  0  0  0  0
 10 11  1  0  0  0  0
 11 12  1  6  0  0  0
 11 13  1  0  0  0  0
 14 13  1  1  0  0  0
 15 14  1  0  0  0  0
 15 16  1  1  0  0  0
 16 10  1  0  0  0  0
 16 17  2  0  0  0  0
 18 15  1  0  0  0  0
 19 18  1  0  0  0  0
 20 14  1  0  0  0  0
 20 19  1  1  0  0  0
M  END
>  <CHROM.1>
-51.88974215,-102.43028312,25.57353292,-4.83733208,43.80760442,0.90877669
-0.26494940,-0.00247050

>  <Name>
1nyi_lig

>  <RI>
0

>  <Rbt.Current_Directory>
/home/itssahil/PROJECTS/Mol_Feturizer/New_Systems/rnas/1nyi

>  <Rbt.Executable>
rbdock ($Id: //depot/dev/client3/rdock/2013.1/src/exe/rbdock.cxx#4 $)

>  <Rbt.Library>
libRbt.so (2013.1, Build901 2013/11/27)

>  <Rbt.Parameter_File>
/export/apps/rDock/src/rDock_2013.1_src/data/scripts/dock_solv.prm

>  <Rbt.Receptor>
prm/pocket_docking_2.prm

>  <SCORE>
-5.83404

>  <SCORE.INTER>
-4.55028

>  <SCORE.INTER.CONST>
1

>  <SCORE.INTER.POLAR>
-0.406693

>  <SCORE.INTER.ROT>
2

>  <SCORE.INTER.SOLV>
14.0606

>  <SCORE.INTER.VDW>
-11.2981

>  <SCORE.INTER.norm>
-0.227514

>  <SCORE.INTRA>
-1.67689

>  <SCORE.INTRA.DIHEDRAL>
-2.32718

>  <SCORE.INTRA.DIHEDRAL.0>
3.72394

>  <SCORE.INTRA.POLAR>
0

>  <SCORE.INTRA.POLAR.0>
0

>  <SCORE.INTRA.REPUL>
0

>  <SCORE.INTRA.REPUL.0>
0

>  <SCORE.INTRA.SOLV>
0.0865258

>  <SCORE.INTRA.SOLV.lig_0>
-49.4697

>  <SCORE.INTRA.VDW>
-0.556556

>  <SCORE.INTRA.VDW.0>
-0.896538

>  <SCORE.INTRA.norm>
-0.0838443

>  <SCORE.RESTR>
0.393119

>  <SCORE.RESTR.CAVITY>
0.393119

>  <SCORE.RESTR.norm>
0.019656

>  <SCORE.SYSTEM>
0

>  <SCORE.SYSTEM.CONST>
0

>  <SCORE.SYSTEM.DIHEDRAL>
0

>  <SCORE.SYSTEM.SOLV>
0

>  <SCORE.SYSTEM.norm>
0

>  <SCORE.heavy>
20

>  <SCORE.norm>
-0.291702

>  <RMSD>
1.242

$$$$
1nyi_lig
 OpenBabel11021811403D
libRbt.so/2013.1/901 2013/11/27
 20 22  0  0  0  0  0  0  0  0999 V2000
   26.4795   -1.1253   45.1173 C   0  0  0  0  0  0  0  0  0  0  0  0
   27.1121    0.1007   44.7501 O   0  0  0  0  0  0  0  0  0  0  0  0
   27.4344   -2.2895   44.9725 C   0  0  1  0  0  0  0  0  0  0  0  0
   26.7475   -3.5124   45.3530 O   0  0  0  0  0  0  0  0  0  0  0  0
   27.8881   -2.4978   43.5319 C   0  0  1  0  0  0  0  0  0  0  0  0
   29.0806   -1.7652   43.2467 O   0  0  0  0  0  0  0  0  0  0  0  0
   28.0713   -4.0127   43.4665 C   0  0  1  0  0  0  0  0  0  0  0  0
   29.2930   -4.4522   44.0409 O   0  0  0  0  0  0  0  0  0  0  0  0
   26.8925   -4.4781   44.3186 C   0  0  2  0  0  0  0  0  0  0  0  0
   23.1580   -7.8848   43.3506 N   0  0  0  0  0  0  0  0  0  0  0  0
   24.3181   -8.0416   44.0695 C   0  0  1  0  0  0  0  0  0  0  0  0
   24.5082   -9.2527   44.5952 N   0  0  0  0  0  0  0  0  0  0  0  0
   25.2236   -7.0855   44.2553 N   0  0  0  0  0  0  0  0  0  0  0  0
   24.8772   -5.9176   43.6394 C   0  0  1  0  0  0  0  0  0  0  0  0
   23.7375   -5.6625   42.8974 C   0  0  1  0  0  0  0  0  0  0  0  0
   22.7789   -6.6991   42.7218 C   0  0  0  0  0  0  0  0  0  0  0  0
   21.7089   -6.6629   42.1009 O   0  0  0  0  0  0  0  0  0  0  0  0
   23.7334   -4.3491   42.4454 N   0  0  0  0  0  0  0  0  0  0  0  0
   24.8461   -3.8446   42.9030 C   0  0  0  0  0  0  0  0  0  0  0  0
   25.6043   -4.7332   43.6334 N   0  0  1  0  0  0  0  0  0  0  0  0
  2  1  1  0  0  0  0
  3  1  1  6  0  0  0
  3  4  1  0  0  0  0
  3  5  1  0  0  0  0
  5  6  1  1  0  0  0
  5  7  1  0  0  0  0
  7  8  1  1  0  0  0
  7  9  1  0  0  0  0
  9  4  1  1  0  0  0
  9 20  1  0  0  0  0
 10 11  1  0  0  0  0
 11 12  1  6  0  0  0
 11 13  1  0  0  0  0
 14 13  1  1  0  0  0
 15 14  1  0  0  0  0
 15 16  1  1  0  0  0
 16 10  1  0  0  0  0
 16 17  2  0  0  0  0
 18 15  1  0  0  0  0
 19 18  1  0  0  0  0
 20 14  1  0  0  0  0
 20 19  1  1  0  0  0
M  END
>  <CHROM.1>
-179.85782742,-114.02834430,25.72238603,-4.64268128,43.78072149,0.85025884
-0.30718293,-0.07683353

>  <Name>
1nyi_lig

>  <RI>
0

>  <Rbt.Current_Directory>
/home/itssahil/PROJECTS/Mol_Feturizer/New_Systems/rnas/1nyi

>  <Rbt.Executable>
rbdock ($Id: //depot/dev/client3/rdock/2013.1/src/exe/rbdock.cxx#4 $)

>  <Rbt.Library>
libRbt.so (2013.1, Build901 2013/11/27)

>  <Rbt.Parameter_File>
/export/apps/rDock/src/rDock_2013.1_src/data/scripts/dock_solv.prm

>  <Rbt.Receptor>
prm/pocket_docking_2.prm

>  <SCORE>
-7.19034

>  <SCORE.INTER>
-5.27099

>  <SCORE.INTER.CONST>
1

>  <SCORE.INTER.POLAR>
-0.542639

>  <SCORE.INTER.ROT>
2

>  <SCORE.INTER.SOLV>
13.2539

>  <SCORE.INTER.VDW>
-11.0565

>  <SCORE.INTER.norm>
-0.263549

>  <SCORE.INTRA>
-1.97862

>  <SCORE.INTRA.DIHEDRAL>
-2.52288

>  <SCORE.INTRA.DIHEDRAL.0>
3.72394

>  <SCORE.INTRA.POLAR>
0

>  <SCORE.INTRA.POLAR.0>
0

>  <SCORE.INTRA.REPUL>
0

>  <SCORE.INTRA.REPUL.0>
0

>  <SCORE.INTRA.SOLV>
-0.648286

>  <SCORE.INTRA.SOLV.lig_0>
-49.4697

>  <SCORE.INTRA.VDW>
-0.393034

>  <SCORE.INTRA.VDW.0>
-0.896538

>  <SCORE.INTRA.norm>
-0.0989308

>  <SCORE.RESTR>
0.0592642

>  <SCORE.RESTR.CAVITY>
0.0592642

>  <SCORE.RESTR.norm>
0.00296321

>  <SCORE.SYSTEM>
0

>  <SCORE.SYSTEM.CONST>
0

>  <SCORE.SYSTEM.DIHEDRAL>
0

>  <SCORE.SYSTEM.SOLV>
0

>  <SCORE.SYSTEM.norm>
0

>  <SCORE.heavy>
20

>  <SCORE.norm>
-0.359517

>  <RMSD>
1.246

$$$$
1nyi_lig
 OpenBabel11021811403D
libRbt.so/2013.1/901 2013/11/27
 20 22  0  0  0  0  0  0  0  0999 V2000
   26.4917   -1.1293   45.1226 C   0  0  0  0  0  0  0  0  0  0  0  0
   27.1336    0.0994   44.7814 O   0  0  0  0  0  0  0  0  0  0  0  0
   27.4445   -2.2948   44.9746 C   0  0  1  0  0  0  0  0  0  0  0  0
   26.7568   -3.5169   45.3564 O   0  0  0  0  0  0  0  0  0  0  0  0
   27.8939   -2.5032   43.5327 C   0  0  1  0  0  0  0  0  0  0  0  0
   29.0867   -1.7722   43.2445 O   0  0  0  0  0  0  0  0  0  0  0  0
   28.0747   -4.0183   43.4661 C   0  0  1  0  0  0  0  0  0  0  0  0
   29.2973   -4.4599   44.0370 O   0  0  0  0  0  0  0  0  0  0  0  0
   26.8976   -4.4824   44.3212 C   0  0  2  0  0  0  0  0  0  0  0  0
   23.1574   -7.8844   43.3586 N   0  0  0  0  0  0  0  0  0  0  0  0
   24.3195   -8.0434   44.0738 C   0  0  1  0  0  0  0  0  0  0  0  0
   24.5101   -9.2554   44.5969 N   0  0  0  0  0  0  0  0  0  0  0  0
   25.2263   -7.0883   44.2586 N   0  0  0  0  0  0  0  0  0  0  0  0
   24.8791   -5.9190   43.6457 C   0  0  1  0  0  0  0  0  0  0  0  0
   23.7373   -5.6618   42.9075 C   0  0  1  0  0  0  0  0  0  0  0  0
   22.7774   -6.6973   42.7329 C   0  0  0  0  0  0  0  0  0  0  0  0
   21.7056   -6.6592   42.1153 O   0  0  0  0  0  0  0  0  0  0  0  0
   23.7330   -4.3477   42.4577 N   0  0  0  0  0  0  0  0  0  0  0  0
   24.8474   -3.8448   42.9128 C   0  0  0  0  0  0  0  0  0  0  0  0
   25.6071   -4.7352   43.6395 N   0  0  1  0  0  0  0  0  0  0  0  0
  2  1  1  0  0  0  0
  3  1  1  6  0  0  0
  3  4  1  0  0  0  0
  3  5  1  0  0  0  0
  5  6  1  1  0  0  0
  5  7  1  0  0  0  0
  7  8  1  1  0  0  0
  7  9  1  0  0  0  0
  9  4  1  1  0  0  0
  9 20  1  0  0  0  0
 10 11  1  0  0  0  0
 11 12  1  6  0  0  0
 11 13  1  0  0  0  0
 14 13  1  1  0  0  0
 15 14  1  0  0  0  0
 15 16  1  1  0  0  0
 16 10  1  0  0  0  0
 16 17  2  0  0  0  0
 18 15  1  0  0  0  0
 19 18  1  0  0  0  0
 20 14  1  0  0  0  0
 20 19  1  1  0  0  0
M  END
>  <CHROM.1>
178.90509763,-114.11096974,25.72674165,-4.64512574,43.78714401,0.84965257
-0.30351073,-0.07420842

>  <Name>
1nyi_lig

>  <RI>
0

>  <Rbt.Current_Directory>
/home/itssahil/PROJECTS/Mol_Feturizer/New_Systems/rnas/1nyi

>  <Rbt.Executable>
rbdock ($Id: //depot/dev/client3/rdock/2013.1/src/exe/rbdock.cxx#4 $)

>  <Rbt.Library>
libRbt.so (2013.1, Build901 2013/11/27)

>  <Rbt.Parameter_File>
/export/apps/rDock/src/rDock_2013.1_src/data/scripts/dock_solv.prm

>  <Rbt.Receptor>
prm/pocket_docking_2.prm

>  <SCORE>
-7.16062

>  <SCORE.INTER>
-5.23087

>  <SCORE.INTER.CONST>
1

>  <SCORE.INTER.POLAR>
-0.540412

>  <SCORE.INTER.ROT>
2

>  <SCORE.INTER.SOLV>
13.1832

>  <SCORE.INTER.VDW>
-11.0136

>  <SCORE.INTER.norm>
-0.261544

>  <SCORE.INTRA>
-1.98833

>  <SCORE.INTRA.DIHEDRAL>
-2.51948

>  <SCORE.INTRA.DIHEDRAL.0>
3.72394

>  <SCORE.INTRA.POLAR>
0

>  <SCORE.INTRA.POLAR.0>
0

>  <SCORE.INTRA.REPUL>
0

>  <SCORE.INTRA.REPUL.0>
0

>  <SCORE.INTRA.SOLV>
-0.654594

>  <SCORE.INTRA.SOLV.lig_0>
-49.4697

>  <SCORE.INTRA.VDW>
-0.401294

>  <SCORE.INTRA.VDW.0>
-0.896538

>  <SCORE.INTRA.norm>
-0.0994165

>  <SCORE.RESTR>
0.0585841

>  <SCORE.RESTR.CAVITY>
0.0585841

>  <SCORE.RESTR.norm>
0.00292921

>  <SCORE.SYSTEM>
0

>  <SCORE.SYSTEM.CONST>
0

>  <SCORE.SYSTEM.DIHEDRAL>
0

>  <SCORE.SYSTEM.SOLV>
0

>  <SCORE.SYSTEM.norm>
0

>  <SCORE.heavy>
20

>  <SCORE.norm>
-0.358031

>  <RMSD>
1.250

$$$$
1nyi_lig
 OpenBabel11021811403D
libRbt.so/2013.1/901 2013/11/27
 20 22  0  0  0  0  0  0  0  0999 V2000
   26.4545   -0.9902   45.3012 C   0  0  0  0  0  0  0  0  0  0  0  0
   26.2084   -0.8772   46.7028 O   0  0  0  0  0  0  0  0  0  0  0  0
   27.6396   -1.8911   45.0325 C   0  0  1  0  0  0  0  0  0  0  0  0
   27.3494   -3.2180   45.5495 O   0  0  0  0  0  0  0  0  0  0  0  0
   27.9089   -2.0743   43.5431 C   0  0  1  0  0  0  0  0  0  0  0  0
   28.8206   -1.0913   43.0504 O   0  0  0  0  0  0  0  0  0  0  0  0
   28.4571   -3.4988   43.4865 C   0  0  1  0  0  0  0  0  0  0  0  0
   29.8222   -3.5868   43.8663 O   0  0  0  0  0  0  0  0  0  0  0  0
   27.5763   -4.1833   44.5295 C   0  0  2  0  0  0  0  0  0  0  0  0
   25.0440   -8.5410   43.4866 N   0  0  0  0  0  0  0  0  0  0  0  0
   26.3416   -8.3629   43.9010 C   0  0  1  0  0  0  0  0  0  0  0  0
   27.0527   -9.4806   44.0571 N   0  0  0  0  0  0  0  0  0  0  0  0
   26.8997   -7.1798   44.1403 N   0  0  0  0  0  0  0  0  0  0  0  0
   26.0367   -6.1457   43.9186 C   0  0  1  0  0  0  0  0  0  0  0  0
   24.7191   -6.2228   43.5030 C   0  0  1  0  0  0  0  0  0  0  0  0
   24.1419   -7.5010   43.2635 C   0  0  0  0  0  0  0  0  0  0  0  0
   22.9921   -7.7709   42.8940 O   0  0  0  0  0  0  0  0  0  0  0  0
   24.1631   -4.9537   43.4061 N   0  0  0  0  0  0  0  0  0  0  0  0
   25.1305   -4.1481   43.7486 C   0  0  0  0  0  0  0  0  0  0  0  0
   26.3064   -4.7907   44.0685 N   0  0  1  0  0  0  0  0  0  0  0  0
  2  1  1  0  0  0  0
  3  1  1  6  0  0  0
  3  4  1  0  0  0  0
  3  5  1  0  0  0  0
  5  6  1  1  0  0  0
  5  7  1  0  0  0  0
  7  8  1  1  0  0  0
  7  9  1  0  0  0  0
  9  4  1  1  0  0  0
  9 20  1  0  0  0  0
 10 11  1  0  0  0  0
 11 12  1  6  0  0  0
 11 13  1  0  0  0  0
 14 13  1  1  0  0  0
 15 14  1  0  0  0  0
 15 16  1  1  0  0  0
 16 10  1  0  0  0  0
 16 17  2  0  0  0  0
 18 15  1  0  0  0  0
 19 18  1  0  0  0  0
 20 14  1  0  0  0  0
 20 19  1  1  0  0  0
M  END
>  <CHROM.1>
61.11359353,-131.05382234,26.47796636,-4.75727460,44.09240445,1.16204903
0.06134771,0.21019848

>  <Name>
1nyi_lig

>  <RI>
0

>  <Rbt.Current_Directory>
/home/itssahil/PROJECTS/Mol_Feturizer/New_Systems/rnas/1nyi

>  <Rbt.Executable>
rbdock ($Id: //depot/dev/client3/rdock/2013.1/src/exe/rbdock.cxx#4 $)

>  <Rbt.Library>
libRbt.so (2013.1, Build901 2013/11/27)

>  <Rbt.Parameter_File>
/export/apps/rDock/src/rDock_2013.1_src/data/scripts/dock_solv.prm

>  <Rbt.Receptor>
prm/pocket_docking_3.prm

>  <SCORE>
-11.2335

>  <SCORE.INTER>
-9.13653

>  <SCORE.INTER.CONST>
1

>  <SCORE.INTER.POLAR>
-0.653644

>  <SCORE.INTER.ROT>
2

>  <SCORE.INTER.SOLV>
12.6978

>  <SCORE.INTER.VDW>
-13.0781

>  <SCORE.INTER.norm>
-0.456826

>  <SCORE.INTRA>
-2.09702

>  <SCORE.INTRA.DIHEDRAL>
-2.44454

>  <SCORE.INTRA.DIHEDRAL.0>
3.72394

>  <SCORE.INTRA.POLAR>
0

>  <SCORE.INTRA.POLAR.0>
0

>  <SCORE.INTRA.REPUL>
0

>  <SCORE.INTRA.REPUL.0>
0

>  <SCORE.INTRA.SOLV>
-0.870835

>  <SCORE.INTRA.SOLV.lig_0>
-49.4697

>  <SCORE.INTRA.VDW>
-0.43933

>  <SCORE.INTRA.VDW.0>
-0.896538

>  <SCORE.INTRA.norm>
-0.104851

>  <SCORE.RESTR>
0

>  <SCORE.RESTR.CAVITY>
0

>  <SCORE.RESTR.norm>
0

>  <SCORE.SYSTEM>
0

>  <SCORE.SYSTEM.CONST>
0

>  <SCORE.SYSTEM.DIHEDRAL>
0

>  <SCORE.SYSTEM.SOLV>
0

>  <SCORE.SYSTEM.norm>
0

>  <SCORE.heavy>
20

>  <SCORE.norm>
-0.561677

>  <RMSD>
1.283

$$$$
1nyi_lig
 OpenBabel11021811403D
libRbt.so/2013.1/901 2013/11/27
 20 22  0  0  0  0  0  0  0  0999 V2000
   26.7913   -2.7091   47.0970 C   0  0  0  0  0  0  0  0  0  0  0  0
   25.4973   -3.1954   46.7405 O   0  0  0  0  0  0  0  0  0  0  0  0
   27.7220   -2.7285   45.9047 C   0  0  1  0  0  0  0  0  0  0  0  0
   27.8032   -4.0861   45.3924 O   0  0  0  0  0  0  0  0  0  0  0  0
   27.2090   -1.8773   44.7486 C   0  0  1  0  0  0  0  0  0  0  0  0
   27.6929   -0.5359   44.8301 O   0  0  0  0  0  0  0  0  0  0  0  0
   27.7262   -2.6404   43.5309 C   0  0  1  0  0  0  0  0  0  0  0  0
   29.0981   -2.3949   43.2600 O   0  0  0  0  0  0  0  0  0  0  0  0
   27.5321   -4.0820   43.9959 C   0  0  2  0  0  0  0  0  0  0  0  0
   24.8807   -8.4922   43.9032 N   0  0  0  0  0  0  0  0  0  0  0  0
   26.1928   -8.2693   44.2434 C   0  0  1  0  0  0  0  0  0  0  0  0
   26.8844   -9.3517   44.6028 N   0  0  0  0  0  0  0  0  0  0  0  0
   26.7822   -7.0772   44.2286 N   0  0  0  0  0  0  0  0  0  0  0  0
   25.9351   -6.0857   43.8251 C   0  0  1  0  0  0  0  0  0  0  0  0
   24.6050   -6.2094   43.4641 C   0  0  1  0  0  0  0  0  0  0  0  0
   23.9947   -7.4942   43.4981 C   0  0  0  0  0  0  0  0  0  0  0  0
   22.8295   -7.8021   43.2168 O   0  0  0  0  0  0  0  0  0  0  0  0
   24.0734   -4.9709   43.1288 N   0  0  0  0  0  0  0  0  0  0  0  0
   25.0666   -4.1389   43.2810 C   0  0  0  0  0  0  0  0  0  0  0  0
   26.2373   -4.7354   43.6952 N   0  0  1  0  0  0  0  0  0  0  0  0
  2  1  1  0  0  0  0
  3  1  1  1  0  0  0
  3  4  1  0  0  0  0
  3  5  1  0  0  0  0
  5  6  1  1  0  0  0
  5  7  1  0  0  0  0
  7  8  1  1  0  0  0
  7  9  1  0  0  0  0
  9  4  1  1  0  0  0
  9 20  1  0  0  0  0
 10 11  1  0  0  0  0
 11 12  1  6  0  0  0
 11 13  1  0  0  0  0
 14 13  1  1  0  0  0
 15 14  1  0  0  0  0
 15 16  1  1  0  0  0
 16 10  1  0  0  0  0
 16 17  2  0  0  0  0
 18 15  1  0  0  0  0
 19 18  1  0  0  0  0
 20 14  1  0  0  0  0
 20 19  1  1  0  0  0
M  END
>  <CHROM.1>
-57.78172170,-68.60501675,26.24443374,-4.88753027,44.35017346,-1.11088614
0.26377911,-3.05830559

>  <Name>
1nyi_lig

>  <RI>
0

>  <Rbt.Current_Directory>
/home/itssahil/PROJECTS/Mol_Feturizer/New_Systems/rnas/1nyi

>  <Rbt.Executable>
rbdock ($Id: //depot/dev/client3/rdock/2013.1/src/exe/rbdock.cxx#4 $)

>  <Rbt.Library>
libRbt.so (2013.1, Build901 2013/11/27)

>  <Rbt.Parameter_File>
/export/apps/rDock/src/rDock_2013.1_src/data/scripts/dock_solv.prm

>  <Rbt.Receptor>
prm/pocket_docking_3.prm

>  <SCORE>
-9.45734

>  <SCORE.INTER>
-7.78387

>  <SCORE.INTER.CONST>
1

>  <SCORE.INTER.POLAR>
-0.748133

>  <SCORE.INTER.ROT>
2

>  <SCORE.INTER.SOLV>
9.57926

>  <SCORE.INTER.VDW>
-10.8219

>  <SCORE.INTER.norm>
-0.389193

>  <SCORE.INTRA>
-1.67347

>  <SCORE.INTRA.DIHEDRAL>
-2.52598

>  <SCORE.INTRA.DIHEDRAL.0>
3.72394

>  <SCORE.INTRA.POLAR>
0

>  <SCORE.INTRA.POLAR.0>
0

>  <SCORE.INTRA.REPUL>
0

>  <SCORE.INTRA.REPUL.0>
0

>  <SCORE.INTRA.SOLV>
0.10236

>  <SCORE.INTRA.SOLV.lig_0>
-49.4697

>  <SCORE.INTRA.VDW>
-0.461663

>  <SCORE.INTRA.VDW.0>
-0.896538

>  <SCORE.INTRA.norm>
-0.0836735

>  <SCORE.RESTR>
0

>  <SCORE.RESTR.CAVITY>
0

>  <SCORE.RESTR.norm>
0

>  <SCORE.SYSTEM>
0

>  <SCORE.SYSTEM.CONST>
0

>  <SCORE.SYSTEM.DIHEDRAL>
0

>  <SCORE.SYSTEM.SOLV>
0

>  <SCORE.SYSTEM.norm>
0

>  <SCORE.heavy>
20

>  <SCORE.norm>
-0.472867

>  <RMSD>
1.896

$$$$
1nyi_lig
 OpenBabel11021811403D
libRbt.so/2013.1/901 2013/11/27
 20 22  0  0  0  0  0  0  0  0999 V2000
   28.3035   -1.9909   43.1213 C   0  0  0  0  0  0  0  0  0  0  0  0
   27.3507   -2.6015   42.2511 O   0  0  0  0  0  0  0  0  0  0  0  0
   28.4836   -2.8075   44.3819 C   0  0  1  0  0  0  0  0  0  0  0  0
   27.1959   -2.9465   45.0411 O   0  0  0  0  0  0  0  0  0  0  0  0
   28.9602   -4.2272   44.0957 C   0  0  1  0  0  0  0  0  0  0  0  0
   30.3860   -4.3117   44.0967 O   0  0  0  0  0  0  0  0  0  0  0  0
   28.3002   -5.0226   45.2201 C   0  0  1  0  0  0  0  0  0  0  0  0
   28.9867   -4.9137   46.4580 O   0  0  0  0  0  0  0  0  0  0  0  0
   26.9462   -4.3216   45.3067 C   0  0  2  0  0  0  0  0  0  0  0  0
   24.1784   -8.4415   43.9447 N   0  0  0  0  0  0  0  0  0  0  0  0
   25.2383   -8.3501   44.8138 C   0  0  1  0  0  0  0  0  0  0  0  0
   25.6073   -9.4944   45.3912 N   0  0  0  0  0  0  0  0  0  0  0  0
   25.8885   -7.2239   45.0922 N   0  0  0  0  0  0  0  0  0  0  0  0
   25.3895   -6.1546   44.4060 C   0  0  1  0  0  0  0  0  0  0  0  0
   24.3315   -6.1456   43.5140 C   0  0  1  0  0  0  0  0  0  0  0  0
   23.6456   -7.3617   43.2408 C   0  0  0  0  0  0  0  0  0  0  0  0
   22.6851   -7.5521   42.4839 O   0  0  0  0  0  0  0  0  0  0  0  0
   24.1113   -4.8620   43.0315 N   0  0  0  0  0  0  0  0  0  0  0  0
   25.0209   -4.1337   43.6182 C   0  0  0  0  0  0  0  0  0  0  0  0
   25.8445   -4.8428   44.4649 N   0  0  1  0  0  0  0  0  0  0  0  0
  2  1  1  0  0  0  0
  3  1  1  6  0  0  0
  3  4  1  0  0  0  0
  3  5  1  0  0  0  0
  5  6  1  1  0  0  0
  5  7  1  0  0  0  0
  7  8  1  1  0  0  0
  7  9  1  0  0  0  0
  9  4  1  6  0  0  0
  9 20  1  0  0  0  0
 10 11  1  0  0  0  0
 11 12  1  6  0  0  0
 11 13  1  0  0  0  0
 14 13  1  1  0  0  0
 15 14  1  0  0  0  0
 15 16  1  1  0  0  0
 16 10  1  0  0  0  0
 16 17  2  0  0  0  0
 18 15  1  0  0  0  0
 19 18  1  0  0  0  0
 20 14  1  0  0  0  0
 20 19  1  1  0  0  0
M  END
>  <CHROM.1>
-57.77146103,176.02156147,26.38511484,-5.34066858,44.19242711,0.64162496
-0.47655166,-0.45774685

>  <Name>
1nyi_lig

>  <RI>
0

>  <Rbt.Current_Directory>
/home/itssahil/PROJECTS/Mol_Feturizer/New_Systems/rnas/1nyi

>  <Rbt.Executable>
rbdock ($Id: //depot/dev/client3/rdock/2013.1/src/exe/rbdock.cxx#4 $)

>  <Rbt.Library>
libRbt.so (2013.1, Build901 2013/11/27)

>  <Rbt.Parameter_File>
/export/apps/rDock/src/rDock_2013.1_src/data/scripts/dock_solv.prm

>  <Rbt.Receptor>
prm/pocket_docking_5.prm

>  <SCORE>
-7.7676

>  <SCORE.INTER>
-6.26394

>  <SCORE.INTER.CONST>
1

>  <SCORE.INTER.POLAR>
-0.656514

>  <SCORE.INTER.ROT>
2

>  <SCORE.INTER.SOLV>
9.62745

>  <SCORE.INTER.VDW>
-10.1301

>  <SCORE.INTER.norm>
-0.313197

>  <SCORE.INTRA>
-1.50365

>  <SCORE.INTRA.DIHEDRAL>
-2.50656

>  <SCORE.INTRA.DIHEDRAL.0>
3.72394

>  <SCORE.INTRA.POLAR>
0

>  <SCORE.INTRA.POLAR.0>
0

>  <SCORE.INTRA.REPUL>
0

>  <SCORE.INTRA.REPUL.0>
0

>  <SCORE.INTRA.SOLV>
0.414856

>  <SCORE.INTRA.SOLV.lig_0>
-49.4697

>  <SCORE.INTRA.VDW>
-0.457799

>  <SCORE.INTRA.VDW.0>
-0.896538

>  <SCORE.INTRA.norm>
-0.0751826

>  <SCORE.RESTR>
0

>  <SCORE.RESTR.CAVITY>
0

>  <SCORE.RESTR.norm>
0

>  <SCORE.SYSTEM>
0

>  <SCORE.SYSTEM.CONST>
0

>  <SCORE.SYSTEM.DIHEDRAL>
0

>  <SCORE.SYSTEM.SOLV>
0

>  <SCORE.SYSTEM.norm>
0

>  <SCORE.heavy>
20

>  <SCORE.norm>
-0.38838

>  <RMSD>
1.934

$$$$
1nyi_lig
 OpenBabel11021811403D
libRbt.so/2013.1/901 2013/11/27
 20 22  0  0  0  0  0  0  0  0999 V2000
   27.9287   -2.8771   42.7833 C   0  0  0  0  0  0  0  0  0  0  0  0
   27.4385   -1.7833   42.0077 O   0  0  0  0  0  0  0  0  0  0  0  0
   27.6269   -2.6751   44.2517 C   0  0  1  0  0  0  0  0  0  0  0  0
   26.2229   -2.3303   44.4011 O   0  0  0  0  0  0  0  0  0  0  0  0
   27.8333   -3.9443   45.0709 C   0  0  1  0  0  0  0  0  0  0  0  0
   29.1654   -4.0293   45.5792 O   0  0  0  0  0  0  0  0  0  0  0  0
   26.7718   -3.8024   46.1599 C   0  0  1  0  0  0  0  0  0  0  0  0
   27.1583   -2.9220   47.2045 O   0  0  0  0  0  0  0  0  0  0  0  0
   25.6227   -3.1944   45.3585 C   0  0  2  0  0  0  0  0  0  0  0  0
   24.7659   -7.9782   43.6643 N   0  0  0  0  0  0  0  0  0  0  0  0
   25.9012   -7.4383   44.2182 C   0  0  1  0  0  0  0  0  0  0  0  0
   26.9351   -8.2728   44.3358 N   0  0  0  0  0  0  0  0  0  0  0  0
   26.0148   -6.1763   44.6222 N   0  0  0  0  0  0  0  0  0  0  0  0
   24.8700   -5.4618   44.4167 C   0  0  1  0  0  0  0  0  0  0  0  0
   23.6821   -5.9134   43.8693 C   0  0  1  0  0  0  0  0  0  0  0  0
   23.5826   -7.2707   43.4543 C   0  0  0  0  0  0  0  0  0  0  0  0
   22.6143   -7.8540   42.9505 O   0  0  0  0  0  0  0  0  0  0  0  0
   22.7397   -4.8936   43.8398 N   0  0  0  0  0  0  0  0  0  0  0  0
   23.3585   -3.8646   44.3500 C   0  0  0  0  0  0  0  0  0  0  0  0
   24.6602   -4.1220   44.7204 N   0  0  1  0  0  0  0  0  0  0  0  0
  2  1  1  0  0  0  0
  3  1  1  6  0  0  0
  3  4  1  0  0  0  0
  3  5  1  0  0  0  0
  5  6  1  1  0  0  0
  5  7  1  0  0  0  0
  7  8  1  1  0  0  0
  7  9  1  0  0  0  0
  9  4  1  6  0  0  0
  9 20  1  0  0  0  0
 10 11  1  0  0  0  0
 11 12  1  6  0  0  0
 11 13  1  0  0  0  0
 14 13  1  1  0  0  0
 15 14  1  0  0  0  0
 15 16  1  1  0  0  0
 16 10  1  0  0  0  0
 16 17  2  0  0  0  0
 18 15  1  0  0  0  0
 19 18  1  0  0  0  0
 20 14  1  0  0  0  0
 20 19  1  1  0  0  0
M  END
>  <CHROM.1>
49.56712976,102.09970304,25.78007664,-4.79040971,44.36172087,0.82683986,-0.32445423
-0.05112635

>  <Name>
1nyi_lig

>  <RI>
0

>  <Rbt.Current_Directory>
/home/itssahil/PROJECTS/Mol_Feturizer/New_Systems/rnas/1nyi

>  <Rbt.Executable>
rbdock ($Id: //depot/dev/client3/rdock/2013.1/src/exe/rbdock.cxx#4 $)

>  <Rbt.Library>
libRbt.so (2013.1, Build901 2013/11/27)

>  <Rbt.Parameter_File>
/export/apps/rDock/src/rDock_2013.1_src/data/scripts/dock_solv.prm

>  <Rbt.Receptor>
prm/pocket_docking_4.prm

>  <SCORE>
-8.14265

>  <SCORE.INTER>
-6.827

>  <SCORE.INTER.CONST>
1

>  <SCORE.INTER.POLAR>
-1.175

>  <SCORE.INTER.ROT>
2

>  <SCORE.INTER.SOLV>
8.89347

>  <SCORE.INTER.VDW>
-8.53249

>  <SCORE.INTER.norm>
-0.34135

>  <SCORE.INTRA>
-1.31565

>  <SCORE.INTRA.DIHEDRAL>
-2.05777

>  <SCORE.INTRA.DIHEDRAL.0>
3.72394

>  <SCORE.INTRA.POLAR>
0

>  <SCORE.INTRA.POLAR.0>
0

>  <SCORE.INTRA.REPUL>
0

>  <SCORE.INTRA.REPUL.0>
0

>  <SCORE.INTRA.SOLV>
0.534889

>  <SCORE.INTRA.SOLV.lig_0>
-49.4697

>  <SCORE.INTRA.VDW>
-0.554211

>  <SCORE.INTRA.VDW.0>
-0.896538

>  <SCORE.INTRA.norm>
-0.0657825

>  <SCORE.RESTR>
0

>  <SCORE.RESTR.CAVITY>
0

>  <SCORE.RESTR.norm>
0

>  <SCORE.SYSTEM>
0

>  <SCORE.SYSTEM.CONST>
0

>  <SCORE.SYSTEM.DIHEDRAL>
0

>  <SCORE.SYSTEM.SOLV>
0

>  <SCORE.SYSTEM.norm>
0

>  <SCORE.heavy>
20

>  <SCORE.norm>
-0.407132

>  <RMSD>
2.064

$$$$
1nyi_lig
 OpenBabel11021811403D
libRbt.so/2013.1/901 2013/11/27
 20 22  0  0  0  0  0  0  0  0999 V2000
   26.1236   -2.0332   45.3022 C   0  0  0  0  0  0  0  0  0  0  0  0
   26.1551   -0.6398   44.9931 O   0  0  0  0  0  0  0  0  0  0  0  0
   27.4588   -2.6810   45.0095 C   0  0  1  0  0  0  0  0  0  0  0  0
   27.4863   -4.0000   45.6192 O   0  0  0  0  0  0  0  0  0  0  0  0
   27.6848   -2.9068   43.5187 C   0  0  1  0  0  0  0  0  0  0  0  0
   28.3384   -1.7907   42.9126 O   0  0  0  0  0  0  0  0  0  0  0  0
   28.5217   -4.1844   43.5084 C   0  0  1  0  0  0  0  0  0  0  0  0
   29.8915   -3.9564   43.8034 O   0  0  0  0  0  0  0  0  0  0  0  0
   27.8624   -4.9646   44.6436 C   0  0  2  0  0  0  0  0  0  0  0  0
   23.1189   -5.2995   42.6749 N   0  0  0  0  0  0  0  0  0  0  0  0
   23.9045   -4.1907   42.8760 C   0  0  1  0  0  0  0  0  0  0  0  0
   23.3621   -3.0288   42.5087 N   0  0  0  0  0  0  0  0  0  0  0  0
   25.1263   -4.2189   43.4004 N   0  0  0  0  0  0  0  0  0  0  0  0
   25.5190   -5.4838   43.7307 C   0  0  1  0  0  0  0  0  0  0  0  0
   24.8039   -6.6572   43.5679 C   0  0  1  0  0  0  0  0  0  0  0  0
   23.5028   -6.6015   42.9950 C   0  0  0  0  0  0  0  0  0  0  0  0
   22.7191   -7.5324   42.7692 O   0  0  0  0  0  0  0  0  0  0  0  0
   25.5455   -7.7456   44.0088 N   0  0  0  0  0  0  0  0  0  0  0  0
   26.6666   -7.2266   44.4279 C   0  0  0  0  0  0  0  0  0  0  0  0
   26.7302   -5.8562   44.3014 N   0  0  1  0  0  0  0  0  0  0  0  0
  2  1  1  0  0  0  0
  3  1  1  6  0  0  0
  3  4  1  0  0  0  0
  3  5  1  0  0  0  0
  5  6  1  1  0  0  0
  5  7  1  0  0  0  0
  7  8  1  1  0  0  0
  7  9  1  0  0  0  0
  9  4  1  1  0  0  0
  9 20  1  0  0  0  0
 10 11  1  0  0  0  0
 11 12  1  1  0  0  0
 11 13  1  0  0  0  0
 14 13  1  6  0  0  0
 15 14  1  0  0  0  0
 15 16  1  6  0  0  0
 16 10  1  0  0  0  0
 16 17  2  0  0  0  0
 18 15  1  0  0  0  0
 19 18  1  0  0  0  0
 20 14  1  0  0  0  0
 20 19  1  6  0  0  0
M  END
>  <CHROM.1>
166.84286290,62.05821587,26.06309597,-4.50386418,43.84121538,0.75198926,-0.25524337
0.02012776

>  <Name>
1nyi_lig

>  <RI>
0

>  <Rbt.Current_Directory>
/home/itssahil/PROJECTS/Mol_Feturizer/New_Systems/rnas/1nyi

>  <Rbt.Executable>
rbdock ($Id: //depot/dev/client3/rdock/2013.1/src/exe/rbdock.cxx#4 $)

>  <Rbt.Library>
libRbt.so (2013.1, Build901 2013/11/27)

>  <Rbt.Parameter_File>
/export/apps/rDock/src/rDock_2013.1_src/data/scripts/dock_solv.prm

>  <Rbt.Receptor>
prm/pocket_docking_2.prm

>  <SCORE>
-7.62545

>  <SCORE.INTER>
-6.9466

>  <SCORE.INTER.CONST>
1

>  <SCORE.INTER.POLAR>
-0.737594

>  <SCORE.INTER.ROT>
2

>  <SCORE.INTER.SOLV>
12.6179

>  <SCORE.INTER.VDW>
-11.3117

>  <SCORE.INTER.norm>
-0.34733

>  <SCORE.INTRA>
-1.34664

>  <SCORE.INTRA.DIHEDRAL>
-1.91403

>  <SCORE.INTRA.DIHEDRAL.0>
3.72394

>  <SCORE.INTRA.POLAR>
0

>  <SCORE.INTRA.POLAR.0>
0

>  <SCORE.INTRA.REPUL>
0

>  <SCORE.INTRA.REPUL.0>
0

>  <SCORE.INTRA.SOLV>
1.66025

>  <SCORE.INTRA.SOLV.lig_0>
-49.4697

>  <SCORE.INTRA.VDW>
-1.21975

>  <SCORE.INTRA.VDW.0>
-0.896538

>  <SCORE.INTRA.norm>
-0.0673322

>  <SCORE.RESTR>
0.667791

>  <SCORE.RESTR.CAVITY>
0.667791

>  <SCORE.RESTR.norm>
0.0333895

>  <SCORE.SYSTEM>
0

>  <SCORE.SYSTEM.CONST>
0

>  <SCORE.SYSTEM.DIHEDRAL>
0

>  <SCORE.SYSTEM.SOLV>
0

>  <SCORE.SYSTEM.norm>
0

>  <SCORE.heavy>
20

>  <SCORE.norm>
-0.381273

>  <RMSD>
2.668

$$$$
1nyi_lig
 OpenBabel11021811403D
libRbt.so/2013.1/901 2013/11/27
 20 22  0  0  0  0  0  0  0  0999 V2000
   27.9538   -4.9738   46.9657 C   0  0  0  0  0  0  0  0  0  0  0  0
   26.6586   -5.5575   46.8259 O   0  0  0  0  0  0  0  0  0  0  0  0
   28.1733   -3.8936   45.9296 C   0  0  1  0  0  0  0  0  0  0  0  0
   28.0560   -4.4804   44.6052 O   0  0  0  0  0  0  0  0  0  0  0  0
   27.1155   -2.7976   45.9946 C   0  0  1  0  0  0  0  0  0  0  0  0
   27.5111   -1.7382   46.8671 O   0  0  0  0  0  0  0  0  0  0  0  0
   26.9993   -2.3733   44.5320 C   0  0  1  0  0  0  0  0  0  0  0  0
   28.0443   -1.5061   44.1180 O   0  0  0  0  0  0  0  0  0  0  0  0
   27.1302   -3.7249   43.8332 C   0  0  2  0  0  0  0  0  0  0  0  0
   24.8960   -8.3610   43.7709 N   0  0  0  0  0  0  0  0  0  0  0  0
   26.1957   -8.0219   44.0587 C   0  0  1  0  0  0  0  0  0  0  0  0
   26.9996   -9.0405   44.3676 N   0  0  0  0  0  0  0  0  0  0  0  0
   26.6712   -6.7800   44.0412 N   0  0  0  0  0  0  0  0  0  0  0  0
   25.7191   -5.8659   43.6932 C   0  0  1  0  0  0  0  0  0  0  0  0
   24.3914   -6.1075   43.3872 C   0  0  1  0  0  0  0  0  0  0  0  0
   23.9045   -7.4439   43.4230 C   0  0  0  0  0  0  0  0  0  0  0  0
   22.7614   -7.8548   43.1862 O   0  0  0  0  0  0  0  0  0  0  0  0
   23.7333   -4.9190   43.0985 N   0  0  0  0  0  0  0  0  0  0  0  0
   24.6512   -4.0005   43.2236 C   0  0  0  0  0  0  0  0  0  0  0  0
   25.8892   -4.4916   43.5760 N   0  0  1  0  0  0  0  0  0  0  0  0
  2  1  1  0  0  0  0
  3  1  1  1  0  0  0
  3  4  1  0  0  0  0
  3  5  1  0  0  0  0
  5  6  1  1  0  0  0
  5  7  1  0  0  0  0
  7  8  1  6  0  0  0
  7  9  1  0  0  0  0
  9  4  1  1  0  0  0
  9 20  1  0  0  0  0
 10 11  1  0  0  0  0
 11 12  1  6  0  0  0
 11 13  1  0  0  0  0
 14 13  1  1  0  0  0
 15 14  1  0  0  0  0
 15 16  1  1  0  0  0
 16 10  1  0  0  0  0
 16 17  2  0  0  0  0
 18 15  1  0  0  0  0
 19 18  1  0  0  0  0
 20 14  1  0  0  0  0
 20 19  1  1  0  0  0
M  END
>  <CHROM.1>
-59.90850603,-17.67607012,26.19538947,-5.15882323,44.50492802,-0.86799103
0.68489945,3.03600780

>  <Name>
1nyi_lig

>  <RI>
0

>  <Rbt.Current_Directory>
/home/itssahil/PROJECTS/Mol_Feturizer/New_Systems/rnas/1nyi

>  <Rbt.Executable>
rbdock ($Id: //depot/dev/client3/rdock/2013.1/src/exe/rbdock.cxx#4 $)

>  <Rbt.Library>
libRbt.so (2013.1, Build901 2013/11/27)

>  <Rbt.Parameter_File>
/export/apps/rDock/src/rDock_2013.1_src/data/scripts/dock_solv.prm

>  <Rbt.Receptor>
prm/pocket_docking_4.prm

>  <SCORE>
-8.62687

>  <SCORE.INTER>
-7.2126

>  <SCORE.INTER.CONST>
1

>  <SCORE.INTER.POLAR>
-0.748331

>  <SCORE.INTER.ROT>
2

>  <SCORE.INTER.SOLV>
8.66207

>  <SCORE.INTER.VDW>
-10.1347

>  <SCORE.INTER.norm>
-0.36063

>  <SCORE.INTRA>
-1.41427

>  <SCORE.INTRA.DIHEDRAL>
-2.42969

>  <SCORE.INTRA.DIHEDRAL.0>
3.72394

>  <SCORE.INTRA.POLAR>
0

>  <SCORE.INTRA.POLAR.0>
0

>  <SCORE.INTRA.REPUL>
3.5714e-05

>  <SCORE.INTRA.REPUL.0>
0

>  <SCORE.INTRA.SOLV>
1.48865

>  <SCORE.INTRA.SOLV.lig_0>
-49.4697

>  <SCORE.INTRA.VDW>
-0.943928

>  <SCORE.INTRA.VDW.0>
-0.896538

>  <SCORE.INTRA.norm>
-0.0707134

>  <SCORE.RESTR>
0

>  <SCORE.RESTR.CAVITY>
0

>  <SCORE.RESTR.norm>
0

>  <SCORE.SYSTEM>
0

>  <SCORE.SYSTEM.CONST>
0

>  <SCORE.SYSTEM.DIHEDRAL>
0

>  <SCORE.SYSTEM.SOLV>
0

>  <SCORE.SYSTEM.norm>
0

>  <SCORE.heavy>
20

>  <SCORE.norm>
-0.431343

>  <RMSD>
2.675

$$$$
1nyi_lig
 OpenBabel11021811403D
libRbt.so/2013.1/901 2013/11/27
 20 22  0  0  0  0  0  0  0  0999 V2000
   25.7115   -2.2731   45.6029 C   0  0  0  0  0  0  0  0  0  0  0  0
   24.7296   -2.4075   44.5754 O   0  0  0  0  0  0  0  0  0  0  0  0
   27.0772   -2.6872   45.1013 C   0  0  1  0  0  0  0  0  0  0  0  0
   27.3684   -4.0281   45.5803 O   0  0  0  0  0  0  0  0  0  0  0  0
   27.1424   -2.7652   43.5801 C   0  0  1  0  0  0  0  0  0  0  0  0
   27.5492   -1.5211   43.0083 O   0  0  0  0  0  0  0  0  0  0  0  0
   28.1439   -3.8966   43.3571 C   0  0  1  0  0  0  0  0  0  0  0  0
   29.4938   -3.4856   43.5133 O   0  0  0  0  0  0  0  0  0  0  0  0
   27.7510   -4.8496   44.4837 C   0  0  2  0  0  0  0  0  0  0  0  0
   23.0400   -5.7856   42.6345 N   0  0  0  0  0  0  0  0  0  0  0  0
   23.6964   -4.5884   42.7864 C   0  0  1  0  0  0  0  0  0  0  0  0
   23.0168   -3.5081   42.3992 N   0  0  0  0  0  0  0  0  0  0  0  0
   24.9234   -4.4605   43.2832 N   0  0  0  0  0  0  0  0  0  0  0  0
   25.4655   -5.6614   43.6397 C   0  0  1  0  0  0  0  0  0  0  0  0
   24.8873   -6.9134   43.5264 C   0  0  1  0  0  0  0  0  0  0  0  0
   23.5774   -7.0247   42.9821 C   0  0  0  0  0  0  0  0  0  0  0  0
   22.9020   -8.0457   42.8005 O   0  0  0  0  0  0  0  0  0  0  0  0
   25.7578   -7.8958   43.9805 N   0  0  0  0  0  0  0  0  0  0  0  0
   26.8197   -7.2392   44.3590 C   0  0  0  0  0  0  0  0  0  0  0  0
   26.7225   -5.8751   44.1927 N   0  0  1  0  0  0  0  0  0  0  0  0
  2  1  1  0  0  0  0
  3  1  1  6  0  0  0
  3  4  1  0  0  0  0
  3  5  1  0  0  0  0
  5  6  1  6  0  0  0
  5  7  1  0  0  0  0
  7  8  1  1  0  0  0
  7  9  1  0  0  0  0
  9  4  1  1  0  0  0
  9 20  1  0  0  0  0
 10 11  1  0  0  0  0
 11 12  1  1  0  0  0
 11 13  1  0  0  0  0
 14 13  1  6  0  0  0
 15 14  1  0  0  0  0
 15 16  1  6  0  0  0
 16 10  1  0  0  0  0
 16 17  2  0  0  0  0
 18 15  1  0  0  0  0
 19 18  1  0  0  0  0
 20 14  1  0  0  0  0
 20 19  1  6  0  0  0
M  END
>  <CHROM.1>
-101.26182698,70.89052107,25.81372517,-4.70589466,43.77925057,0.79560763
-0.26260143,0.02012798

>  <Name>
1nyi_lig

>  <RI>
0

>  <Rbt.Current_Directory>
/home/itssahil/PROJECTS/Mol_Feturizer/New_Systems/rnas/1nyi

>  <Rbt.Executable>
rbdock ($Id: //depot/dev/client3/rdock/2013.1/src/exe/rbdock.cxx#4 $)

>  <Rbt.Library>
libRbt.so (2013.1, Build901 2013/11/27)

>  <Rbt.Parameter_File>
/export/apps/rDock/src/rDock_2013.1_src/data/scripts/dock_solv.prm

>  <Rbt.Receptor>
prm/pocket_docking_2.prm

>  <SCORE>
-4.09436

>  <SCORE.INTER>
-7.44907

>  <SCORE.INTER.CONST>
1

>  <SCORE.INTER.POLAR>
-0.581622

>  <SCORE.INTER.ROT>
2

>  <SCORE.INTER.SOLV>
11.9713

>  <SCORE.INTER.VDW>
-11.9511

>  <SCORE.INTER.norm>
-0.372454

>  <SCORE.INTRA>
2.97746

>  <SCORE.INTRA.DIHEDRAL>
1.59817

>  <SCORE.INTRA.DIHEDRAL.0>
3.72394

>  <SCORE.INTRA.POLAR>
0

>  <SCORE.INTRA.POLAR.0>
0

>  <SCORE.INTRA.REPUL>
0

>  <SCORE.INTRA.REPUL.0>
0

>  <SCORE.INTRA.SOLV>
3.63011

>  <SCORE.INTRA.SOLV.lig_0>
-49.4697

>  <SCORE.INTRA.VDW>
0.363316

>  <SCORE.INTRA.VDW.0>
-0.896538

>  <SCORE.INTRA.norm>
0.148873

>  <SCORE.RESTR>
0.377253

>  <SCORE.RESTR.CAVITY>
0.377253

>  <SCORE.RESTR.norm>
0.0188627

>  <SCORE.SYSTEM>
0

>  <SCORE.SYSTEM.CONST>
0

>  <SCORE.SYSTEM.DIHEDRAL>
0

>  <SCORE.SYSTEM.SOLV>
0

>  <SCORE.SYSTEM.norm>
0

>  <SCORE.heavy>
20

>  <SCORE.norm>
-0.204718

>  <RMSD>
2.676

$$$$
1nyi_lig
 OpenBabel11021811403D
libRbt.so/2013.1/901 2013/11/27
 20 22  0  0  0  0  0  0  0  0999 V2000
   26.1095   -2.0271   45.1689 C   0  0  0  0  0  0  0  0  0  0  0  0
   26.2998   -0.6312   44.9383 O   0  0  0  0  0  0  0  0  0  0  0  0
   27.4148   -2.7793   45.0322 C   0  0  1  0  0  0  0  0  0  0  0  0
   27.2933   -4.0604   45.7076 O   0  0  0  0  0  0  0  0  0  0  0  0
   27.7534   -3.1039   43.5815 C   0  0  1  0  0  0  0  0  0  0  0  0
   28.5366   -2.0707   42.9822 O   0  0  0  0  0  0  0  0  0  0  0  0
   28.4933   -4.4337   43.7120 C   0  0  1  0  0  0  0  0  0  0  0  0
   29.8450   -4.2825   44.1190 O   0  0  0  0  0  0  0  0  0  0  0  0
   27.6824   -5.1020   44.8202 C   0  0  2  0  0  0  0  0  0  0  0  0
   23.0311   -5.1885   42.6188 N   0  0  0  0  0  0  0  0  0  0  0  0
   23.8634   -4.1224   42.8597 C   0  0  1  0  0  0  0  0  0  0  0  0
   23.4021   -2.9340   42.4672 N   0  0  0  0  0  0  0  0  0  0  0  0
   25.0546   -4.2144   43.4439 N   0  0  0  0  0  0  0  0  0  0  0  0
   25.3629   -5.4978   43.7918 C   0  0  1  0  0  0  0  0  0  0  0  0
   24.5956   -6.6320   43.5926 C   0  0  1  0  0  0  0  0  0  0  0  0
   23.3292   -6.5085   42.9561 C   0  0  0  0  0  0  0  0  0  0  0  0
   22.5095   -7.3969   42.6907 O   0  0  0  0  0  0  0  0  0  0  0  0
   25.2559   -7.7575   44.0685 N   0  0  0  0  0  0  0  0  0  0  0  0
   26.3808   -7.2978   44.5431 C   0  0  0  0  0  0  0  0  0  0  0  0
   26.5230   -5.9329   44.4214 N   0  0  1  0  0  0  0  0  0  0  0  0
  2  1  1  0  0  0  0
  3  1  1  6  0  0  0
  3  4  1  0  0  0  0
  3  5  1  0  0  0  0
  5  6  1  1  0  0  0
  5  7  1  0  0  0  0
  7  8  1  1  0  0  0
  7  9  1  0  0  0  0
  9  4  1  1  0  0  0
  9 20  1  0  0  0  0
 10 11  1  0  0  0  0
 11 12  1  1  0  0  0
 11 13  1  0  0  0  0
 14 13  1  6  0  0  0
 15 14  1  0  0  0  0
 15 16  1  6  0  0  0
 16 10  1  0  0  0  0
 16 17  2  0  0  0  0
 18 15  1  0  0  0  0
 19 18  1  0  0  0  0
 20 14  1  0  0  0  0
 20 19  1  6  0  0  0
M  END
>  <CHROM.1>
160.39657817,58.10797412,25.97669332,-4.55470418,43.88904419,0.68344155,-0.29475971
-0.01593605

>  <Name>
1nyi_lig

>  <RI>
0

>  <Rbt.Current_Directory>
/home/itssahil/PROJECTS/Mol_Feturizer/New_Systems/rnas/1nyi

>  <Rbt.Executable>
rbdock ($Id: //depot/dev/client3/rdock/2013.1/src/exe/rbdock.cxx#4 $)

>  <Rbt.Library>
libRbt.so (2013.1, Build901 2013/11/27)

>  <Rbt.Parameter_File>
/export/apps/rDock/src/rDock_2013.1_src/data/scripts/dock_solv.prm

>  <Rbt.Receptor>
prm/pocket_docking_2.prm

>  <SCORE>
-7.17782

>  <SCORE.INTER>
-6.72097

>  <SCORE.INTER.CONST>
1

>  <SCORE.INTER.POLAR>
-0.739061

>  <SCORE.INTER.ROT>
2

>  <SCORE.INTER.SOLV>
12.2295

>  <SCORE.INTER.VDW>
-11.027

>  <SCORE.INTER.norm>
-0.336049

>  <SCORE.INTRA>
-1.00113

>  <SCORE.INTRA.DIHEDRAL>
-1.27061

>  <SCORE.INTRA.DIHEDRAL.0>
3.72394

>  <SCORE.INTRA.POLAR>
0

>  <SCORE.INTRA.POLAR.0>
0

>  <SCORE.INTRA.REPUL>
0

>  <SCORE.INTRA.REPUL.0>
0

>  <SCORE.INTRA.SOLV>
1.68075

>  <SCORE.INTRA.SOLV.lig_0>
-49.4697

>  <SCORE.INTRA.VDW>
-1.2062

>  <SCORE.INTRA.VDW.0>
-0.896538

>  <SCORE.INTRA.norm>
-0.0500564

>  <SCORE.RESTR>
0.544281

>  <SCORE.RESTR.CAVITY>
0.544281

>  <SCORE.RESTR.norm>
0.0272141

>  <SCORE.SYSTEM>
0

>  <SCORE.SYSTEM.CONST>
0

>  <SCORE.SYSTEM.DIHEDRAL>
0

>  <SCORE.SYSTEM.SOLV>
0

>  <SCORE.SYSTEM.norm>
0

>  <SCORE.heavy>
20

>  <SCORE.norm>
-0.358891

>  <RMSD>
2.695

$$$$
1nyi_lig
 OpenBabel11021811403D
libRbt.so/2013.1/901 2013/11/27
 20 22  0  0  0  0  0  0  0  0999 V2000
   26.1130   -2.0368   45.1969 C   0  0  0  0  0  0  0  0  0  0  0  0
   26.2900   -0.6420   44.9495 O   0  0  0  0  0  0  0  0  0  0  0  0
   27.4192   -2.7829   45.0372 C   0  0  1  0  0  0  0  0  0  0  0  0
   27.3103   -4.0710   45.7015 O   0  0  0  0  0  0  0  0  0  0  0  0
   27.7413   -3.0924   43.5794 C   0  0  1  0  0  0  0  0  0  0  0  0
   28.5136   -2.0506   42.9806 O   0  0  0  0  0  0  0  0  0  0  0  0
   28.4873   -4.4206   43.6881 C   0  0  1  0  0  0  0  0  0  0  0  0
   29.8433   -4.2685   44.0800 O   0  0  0  0  0  0  0  0  0  0  0  0
   27.6923   -5.1025   44.7994 C   0  0  2  0  0  0  0  0  0  0  0  0
   23.0257   -5.1886   42.6304 N   0  0  0  0  0  0  0  0  0  0  0  0
   23.8585   -4.1222   42.8682 C   0  0  1  0  0  0  0  0  0  0  0  0
   23.3932   -2.9334   42.4819 N   0  0  0  0  0  0  0  0  0  0  0  0
   25.0539   -4.2144   43.4438 N   0  0  0  0  0  0  0  0  0  0  0  0
   25.3660   -5.4983   43.7863 C   0  0  1  0  0  0  0  0  0  0  0  0
   24.5986   -6.6329   43.5897 C   0  0  1  0  0  0  0  0  0  0  0  0
   23.3276   -6.5091   42.9623 C   0  0  0  0  0  0  0  0  0  0  0  0
   22.5070   -7.3978   42.7005 O   0  0  0  0  0  0  0  0  0  0  0  0
   25.2634   -7.7588   44.0581 N   0  0  0  0  0  0  0  0  0  0  0  0
   26.3911   -7.2991   44.5260 C   0  0  0  0  0  0  0  0  0  0  0  0
   26.5310   -5.9338   44.4067 N   0  0  1  0  0  0  0  0  0  0  0  0
  2  1  1  0  0  0  0
  3  1  1  6  0  0  0
  3  4  1  0  0  0  0
  3  5  1  0  0  0  0
  5  6  1  1  0  0  0
  5  7  1  0  0  0  0
  7  8  1  1  0  0  0
  7  9  1  0  0  0  0
  9  4  1  1  0  0  0
  9 20  1  0  0  0  0
 10 11  1  0  0  0  0
 11 12  1  1  0  0  0
 11 13  1  0  0  0  0
 14 13  1  6  0  0  0
 15 14  1  0  0  0  0
 15 16  1  6  0  0  0
 16 10  1  0  0  0  0
 16 17  2  0  0  0  0
 18 15  1  0  0  0  0
 19 18  1  0  0  0  0
 20 14  1  0  0  0  0
 20 19  1  6  0  0  0
M  END
>  <CHROM.1>
161.63719699,58.63090308,25.97608035,-4.55379558,43.88651808,0.68637806,-0.28926310
-0.01098057

>  <Name>
1nyi_lig

>  <RI>
0

>  <Rbt.Current_Directory>
/home/itssahil/PROJECTS/Mol_Feturizer/New_Systems/rnas/1nyi

>  <Rbt.Executable>
rbdock ($Id: //depot/dev/client3/rdock/2013.1/src/exe/rbdock.cxx#4 $)

>  <Rbt.Library>
libRbt.so (2013.1, Build901 2013/11/27)

>  <Rbt.Parameter_File>
/export/apps/rDock/src/rDock_2013.1_src/data/scripts/dock_solv.prm

>  <Rbt.Receptor>
prm/pocket_docking_2.prm

>  <SCORE>
-7.27415

>  <SCORE.INTER>
-6.75946

>  <SCORE.INTER.CONST>
1

>  <SCORE.INTER.POLAR>
-0.744606

>  <SCORE.INTER.ROT>
2

>  <SCORE.INTER.SOLV>
12.2478

>  <SCORE.INTER.VDW>
-11.0402

>  <SCORE.INTER.norm>
-0.337973

>  <SCORE.INTRA>
-1.07602

>  <SCORE.INTRA.DIHEDRAL>
-1.41017

>  <SCORE.INTRA.DIHEDRAL.0>
3.72394

>  <SCORE.INTRA.POLAR>
0

>  <SCORE.INTRA.POLAR.0>
0

>  <SCORE.INTRA.REPUL>
0

>  <SCORE.INTRA.REPUL.0>
0

>  <SCORE.INTRA.SOLV>
1.68208

>  <SCORE.INTRA.SOLV.lig_0>
-49.4697

>  <SCORE.INTRA.VDW>
-1.21197

>  <SCORE.INTRA.VDW.0>
-0.896538

>  <SCORE.INTRA.norm>
-0.0538008

>  <SCORE.RESTR>
0.56133

>  <SCORE.RESTR.CAVITY>
0.56133

>  <SCORE.RESTR.norm>
0.0280665

>  <SCORE.SYSTEM>
0

>  <SCORE.SYSTEM.CONST>
0

>  <SCORE.SYSTEM.DIHEDRAL>
0

>  <SCORE.SYSTEM.SOLV>
0

>  <SCORE.SYSTEM.norm>
0

>  <SCORE.heavy>
20

>  <SCORE.norm>
-0.363707

>  <RMSD>
2.696

$$$$
1nyi_lig
 OpenBabel11021811403D
libRbt.so/2013.1/901 2013/11/27
 20 22  0  0  0  0  0  0  0  0999 V2000
   25.6224   -2.3689   45.5588 C   0  0  0  0  0  0  0  0  0  0  0  0
   25.4027   -1.0117   45.1745 O   0  0  0  0  0  0  0  0  0  0  0  0
   26.9975   -2.8342   45.1335 C   0  0  1  0  0  0  0  0  0  0  0  0
   27.1909   -4.2034   45.5808 O   0  0  0  0  0  0  0  0  0  0  0  0
   27.1617   -2.8642   43.6180 C   0  0  1  0  0  0  0  0  0  0  0  0
   27.6654   -1.6236   43.1206 O   0  0  0  0  0  0  0  0  0  0  0  0
   28.1205   -4.0364   43.4199 C   0  0  1  0  0  0  0  0  0  0  0  0
   29.4749   -3.6994   43.6798 O   0  0  0  0  0  0  0  0  0  0  0  0
   27.6069   -5.0058   44.4822 C   0  0  2  0  0  0  0  0  0  0  0  0
   22.6975   -5.6382   43.0725 N   0  0  0  0  0  0  0  0  0  0  0  0
   23.3644   -4.4893   43.4225 C   0  0  1  0  0  0  0  0  0  0  0  0
   22.6365   -3.3719   43.3942 N   0  0  0  0  0  0  0  0  0  0  0  0
   24.6454   -4.4406   43.7765 N   0  0  0  0  0  0  0  0  0  0  0  0
   25.2333   -5.6725   43.7638 C   0  0  1  0  0  0  0  0  0  0  0  0
   24.6491   -6.8811   43.4279 C   0  0  1  0  0  0  0  0  0  0  0  0
   23.2797   -6.9051   43.0426 C   0  0  0  0  0  0  0  0  0  0  0  0
   22.5895   -7.8766   42.7086 O   0  0  0  0  0  0  0  0  0  0  0  0
   25.5747   -7.9126   43.5200 N   0  0  0  0  0  0  0  0  0  0  0  0
   26.6748   -7.3283   43.9076 C   0  0  0  0  0  0  0  0  0  0  0  0
   26.5524   -5.9678   44.0863 N   0  0  1  0  0  0  0  0  0  0  0  0
  2  1  1  0  0  0  0
  3  1  1  6  0  0  0
  3  4  1  0  0  0  0
  3  5  1  0  0  0  0
  5  6  1  1  0  0  0
  5  7  1  0  0  0  0
  7  8  1  1  0  0  0
  7  9  1  0  0  0  0
  9  4  1  1  0  0  0
  9 20  1  0  0  0  0
 10 11  1  0  0  0  0
 11 12  1  1  0  0  0
 11 13  1  0  0  0  0
 14 13  1  6  0  0  0
 15 14  1  0  0  0  0
 15 16  1  6  0  0  0
 16 10  1  0  0  0  0
 16 17  2  0  0  0  0
 18 15  1  0  0  0  0
 19 18  1  0  0  0  0
 20 14  1  0  0  0  0
 20 19  1  6  0  0  0
M  END
>  <CHROM.1>
178.27091052,54.10582814,25.69015653,-4.65880351,43.90628839,0.83459842,-0.10194964
0.18127425

>  <Name>
1nyi_lig

>  <RI>
0

>  <Rbt.Current_Directory>
/home/itssahil/PROJECTS/Mol_Feturizer/New_Systems/rnas/1nyi

>  <Rbt.Executable>
rbdock ($Id: //depot/dev/client3/rdock/2013.1/src/exe/rbdock.cxx#4 $)

>  <Rbt.Library>
libRbt.so (2013.1, Build901 2013/11/27)

>  <Rbt.Parameter_File>
/export/apps/rDock/src/rDock_2013.1_src/data/scripts/dock_solv.prm

>  <Rbt.Receptor>
prm/pocket_docking_2.prm

>  <SCORE>
-8.41649

>  <SCORE.INTER>
-7.89206

>  <SCORE.INTER.CONST>
1

>  <SCORE.INTER.POLAR>
-0.68163

>  <SCORE.INTER.ROT>
2

>  <SCORE.INTER.SOLV>
12.0908

>  <SCORE.INTER.VDW>
-11.9529

>  <SCORE.INTER.norm>
-0.394603

>  <SCORE.INTRA>
-1.34645

>  <SCORE.INTRA.DIHEDRAL>
-2.52567

>  <SCORE.INTRA.DIHEDRAL.0>
3.72394

>  <SCORE.INTRA.POLAR>
0

>  <SCORE.INTRA.POLAR.0>
0

>  <SCORE.INTRA.REPUL>
0

>  <SCORE.INTRA.REPUL.0>
0

>  <SCORE.INTRA.SOLV>
2.11564

>  <SCORE.INTRA.SOLV.lig_0>
-49.4697

>  <SCORE.INTRA.VDW>
-1.14144

>  <SCORE.INTRA.VDW.0>
-0.896538

>  <SCORE.INTRA.norm>
-0.0673226

>  <SCORE.RESTR>
0.822022

>  <SCORE.RESTR.CAVITY>
0.822022

>  <SCORE.RESTR.norm>
0.0411011

>  <SCORE.SYSTEM>
0

>  <SCORE.SYSTEM.CONST>
0

>  <SCORE.SYSTEM.DIHEDRAL>
0

>  <SCORE.SYSTEM.SOLV>
0

>  <SCORE.SYSTEM.norm>
0

>  <SCORE.heavy>
20

>  <SCORE.norm>
-0.420825

>  <RMSD>
2.705

$$$$
1nyi_lig
 OpenBabel11021811403D
libRbt.so/2013.1/901 2013/11/27
 20 22  0  0  0  0  0  0  0  0999 V2000
   25.5583   -2.3562   45.5577 C   0  0  0  0  0  0  0  0  0  0  0  0
   25.3256   -1.0042   45.1631 O   0  0  0  0  0  0  0  0  0  0  0  0
   26.9334   -2.8151   45.1258 C   0  0  1  0  0  0  0  0  0  0  0  0
   27.1345   -4.1841   45.5704 O   0  0  0  0  0  0  0  0  0  0  0  0
   27.0911   -2.8425   43.6095 C   0  0  1  0  0  0  0  0  0  0  0  0
   27.5875   -1.5992   43.1115 O   0  0  0  0  0  0  0  0  0  0  0  0
   28.0540   -4.0104   43.4057 C   0  0  1  0  0  0  0  0  0  0  0  0
   29.4081   -3.6681   43.6602 O   0  0  0  0  0  0  0  0  0  0  0  0
   27.5491   -4.9833   44.4691 C   0  0  2  0  0  0  0  0  0  0  0  0
   22.6445   -5.6314   43.0501 N   0  0  0  0  0  0  0  0  0  0  0  0
   23.3089   -4.4793   43.3944 C   0  0  1  0  0  0  0  0  0  0  0  0
   22.5796   -3.3631   43.3568 N   0  0  0  0  0  0  0  0  0  0  0  0
   24.5889   -4.4267   43.7516 N   0  0  0  0  0  0  0  0  0  0  0  0
   25.1784   -5.6578   43.7485 C   0  0  1  0  0  0  0  0  0  0  0  0
   24.5967   -6.8693   43.4188 C   0  0  1  0  0  0  0  0  0  0  0  0
   23.2284   -6.8977   43.0300 C   0  0  0  0  0  0  0  0  0  0  0  0
   22.5404   -7.8722   42.7004 O   0  0  0  0  0  0  0  0  0  0  0  0
   25.5234   -7.8990   43.5201 N   0  0  0  0  0  0  0  0  0  0  0  0
   26.6217   -7.3108   43.9069 C   0  0  0  0  0  0  0  0  0  0  0  0
   26.4970   -5.9493   44.0765 N   0  0  1  0  0  0  0  0  0  0  0  0
  2  1  1  0  0  0  0
  3  1  1  6  0  0  0
  3  4  1  0  0  0  0
  3  5  1  0  0  0  0
  5  6  1  1  0  0  0
  5  7  1  0  0  0  0
  7  8  1  1  0  0  0
  7  9  1  0  0  0  0
  9  4  1  1  0  0  0
  9 20  1  0  0  0  0
 10 11  1  0  0  0  0
 11 12  1  1  0  0  0
 11 13  1  0  0  0  0
 14 13  1  6  0  0  0
 15 14  1  0  0  0  0
 15 16  1  6  0  0  0
 16 10  1  0  0  0  0
 16 17  2  0  0  0  0
 18 15  1  0  0  0  0
 19 18  1  0  0  0  0
 20 14  1  0  0  0  0
 20 19  1  6  0  0  0
M  END
>  <CHROM.1>
178.90993367,54.73080897,25.63036548,-4.64315382,43.89318327,0.83843796,-0.10498289
0.17916234

>  <Name>
1nyi_lig

>  <RI>
0

>  <Rbt.Current_Directory>
/home/itssahil/PROJECTS/Mol_Feturizer/New_Systems/rnas/1nyi

>  <Rbt.Executable>
rbdock ($Id: //depot/dev/client3/rdock/2013.1/src/exe/rbdock.cxx#4 $)

>  <Rbt.Library>
libRbt.so (2013.1, Build901 2013/11/27)

>  <Rbt.Parameter_File>
/export/apps/rDock/src/rDock_2013.1_src/data/scripts/dock_solv.prm

>  <Rbt.Receptor>
prm/pocket_docking_2.prm

>  <SCORE>
-8.33588

>  <SCORE.INTER>
-7.78523

>  <SCORE.INTER.CONST>
1

>  <SCORE.INTER.POLAR>
-0.69239

>  <SCORE.INTER.ROT>
2

>  <SCORE.INTER.SOLV>
12.1949

>  <SCORE.INTER.VDW>
-11.8805

>  <SCORE.INTER.norm>
-0.389262

>  <SCORE.INTRA>
-1.35914

>  <SCORE.INTRA.DIHEDRAL>
-2.52887

>  <SCORE.INTRA.DIHEDRAL.0>
3.72394

>  <SCORE.INTRA.POLAR>
0

>  <SCORE.INTRA.POLAR.0>
0

>  <SCORE.INTRA.REPUL>
0

>  <SCORE.INTRA.REPUL.0>
0

>  <SCORE.INTRA.SOLV>
2.11929

>  <SCORE.INTRA.SOLV.lig_0>
-49.4697

>  <SCORE.INTRA.VDW>
-1.15435

>  <SCORE.INTRA.VDW.0>
-0.896538

>  <SCORE.INTRA.norm>
-0.067957

>  <SCORE.RESTR>
0.808492

>  <SCORE.RESTR.CAVITY>
0.808492

>  <SCORE.RESTR.norm>
0.0404246

>  <SCORE.SYSTEM>
0

>  <SCORE.SYSTEM.CONST>
0

>  <SCORE.SYSTEM.DIHEDRAL>
0

>  <SCORE.SYSTEM.SOLV>
0

>  <SCORE.SYSTEM.norm>
0

>  <SCORE.heavy>
20

>  <SCORE.norm>
-0.416794

>  <RMSD>
2.706

$$$$
1nyi_lig
 OpenBabel11021811403D
libRbt.so/2013.1/901 2013/11/27
 20 22  0  0  0  0  0  0  0  0999 V2000
   25.6374   -2.3724   45.5497 C   0  0  0  0  0  0  0  0  0  0  0  0
   25.4335   -1.0144   45.1596 O   0  0  0  0  0  0  0  0  0  0  0  0
   27.0112   -2.8519   45.1362 C   0  0  1  0  0  0  0  0  0  0  0  0
   27.1880   -4.2217   45.5885 O   0  0  0  0  0  0  0  0  0  0  0  0
   27.1868   -2.8876   43.6221 C   0  0  1  0  0  0  0  0  0  0  0  0
   27.7062   -1.6532   43.1253 O   0  0  0  0  0  0  0  0  0  0  0  0
   28.1358   -4.0695   43.4345 C   0  0  1  0  0  0  0  0  0  0  0  0
   29.4913   -3.7447   43.7040 O   0  0  0  0  0  0  0  0  0  0  0  0
   27.6048   -5.0310   44.4954 C   0  0  2  0  0  0  0  0  0  0  0  0
   22.6854   -5.6266   43.1046 N   0  0  0  0  0  0  0  0  0  0  0  0
   23.3590   -4.4847   43.4644 C   0  0  1  0  0  0  0  0  0  0  0  0
   22.6356   -3.3641   43.4530 N   0  0  0  0  0  0  0  0  0  0  0  0
   24.6420   -4.4454   43.8121 N   0  0  0  0  0  0  0  0  0  0  0  0
   25.2246   -5.6795   43.7819 C   0  0  1  0  0  0  0  0  0  0  0  0
   24.6337   -6.8816   43.4350 C   0  0  1  0  0  0  0  0  0  0  0  0
   23.2622   -6.8955   43.0568 C   0  0  0  0  0  0  0  0  0  0  0  0
   22.5662   -7.8602   42.7151 O   0  0  0  0  0  0  0  0  0  0  0  0
   25.5554   -7.9179   43.5101 N   0  0  0  0  0  0  0  0  0  0  0  0
   26.6600   -7.3428   43.8986 C   0  0  0  0  0  0  0  0  0  0  0  0
   26.5443   -5.9839   44.0939 N   0  0  1  0  0  0  0  0  0  0  0  0
  2  1  1  0  0  0  0
  3  1  1  6  0  0  0
  3  4  1  0  0  0  0
  3  5  1  0  0  0  0
  5  6  1  1  0  0  0
  5  7  1  0  0  0  0
  7  8  1  1  0  0  0
  7  9  1  0  0  0  0
  9  4  1  1  0  0  0
  9 20  1  0  0  0  0
 10 11  1  0  0  0  0
 11 12  1  1  0  0  0
 11 13  1  0  0  0  0
 14 13  1  6  0  0  0
 15 14  1  0  0  0  0
 15 16  1  6  0  0  0
 16 10  1  0  0  0  0
 16 17  2  0  0  0  0
 18 15  1  0  0  0  0
 19 18  1  0  0  0  0
 20 14  1  0  0  0  0
 20 19  1  6  0  0  0
M  END
>  <CHROM.1>
178.29641086,52.95297267,25.69178887,-4.66889731,43.91847870,0.82466311,-0.09712407
0.18311946

>  <Name>
1nyi_lig

>  <RI>
0

>  <Rbt.Current_Directory>
/home/itssahil/PROJECTS/Mol_Feturizer/New_Systems/rnas/1nyi

>  <Rbt.Executable>
rbdock ($Id: //depot/dev/client3/rdock/2013.1/src/exe/rbdock.cxx#4 $)

>  <Rbt.Library>
libRbt.so (2013.1, Build901 2013/11/27)

>  <Rbt.Parameter_File>
/export/apps/rDock/src/rDock_2013.1_src/data/scripts/dock_solv.prm

>  <Rbt.Receptor>
prm/pocket_docking_2.prm

>  <SCORE>
-8.39938

>  <SCORE.INTER>
-7.90729

>  <SCORE.INTER.CONST>
1

>  <SCORE.INTER.POLAR>
-0.693552

>  <SCORE.INTER.ROT>
2

>  <SCORE.INTER.SOLV>
11.9798

>  <SCORE.INTER.VDW>
-11.8863

>  <SCORE.INTER.norm>
-0.395364

>  <SCORE.INTRA>
-1.30615

>  <SCORE.INTRA.DIHEDRAL>
-2.53074

>  <SCORE.INTRA.DIHEDRAL.0>
3.72394

>  <SCORE.INTRA.POLAR>
0

>  <SCORE.INTRA.POLAR.0>
0

>  <SCORE.INTRA.REPUL>
0

>  <SCORE.INTRA.REPUL.0>
0

>  <SCORE.INTRA.SOLV>
2.138

>  <SCORE.INTRA.SOLV.lig_0>
-49.4697

>  <SCORE.INTRA.VDW>
-1.10978

>  <SCORE.INTRA.VDW.0>
-0.896538

>  <SCORE.INTRA.norm>
-0.0653074

>  <SCORE.RESTR>
0.814053

>  <SCORE.RESTR.CAVITY>
0.814053

>  <SCORE.RESTR.norm>
0.0407026

>  <SCORE.SYSTEM>
0

>  <SCORE.SYSTEM.CONST>
0

>  <SCORE.SYSTEM.DIHEDRAL>
0

>  <SCORE.SYSTEM.SOLV>
0

>  <SCORE.SYSTEM.norm>
0

>  <SCORE.heavy>
20

>  <SCORE.norm>
-0.419969

>  <RMSD>
2.707

$$$$
1nyi_lig
 OpenBabel11021811403D
libRbt.so/2013.1/901 2013/11/27
 20 22  0  0  0  0  0  0  0  0999 V2000
   25.6301   -2.3850   45.5490 C   0  0  0  0  0  0  0  0  0  0  0  0
   25.4139   -1.0280   45.1619 O   0  0  0  0  0  0  0  0  0  0  0  0
   26.9991   -2.8585   45.1135 C   0  0  1  0  0  0  0  0  0  0  0  0
   27.1852   -4.2308   45.5543 O   0  0  0  0  0  0  0  0  0  0  0  0
   27.1540   -2.8839   43.5970 C   0  0  1  0  0  0  0  0  0  0  0  0
   27.6638   -1.6450   43.1013 O   0  0  0  0  0  0  0  0  0  0  0  0
   28.1030   -4.0622   43.3885 C   0  0  1  0  0  0  0  0  0  0  0  0
   29.4614   -3.7362   43.6416 O   0  0  0  0  0  0  0  0  0  0  0  0
   27.5887   -5.0320   44.4502 C   0  0  2  0  0  0  0  0  0  0  0  0
   22.6599   -5.6260   43.0925 N   0  0  0  0  0  0  0  0  0  0  0  0
   23.3366   -4.4840   43.4463 C   0  0  1  0  0  0  0  0  0  0  0  0
   22.6140   -3.3629   43.4381 N   0  0  0  0  0  0  0  0  0  0  0  0
   24.6220   -4.4452   43.7856 N   0  0  0  0  0  0  0  0  0  0  0  0
   25.2035   -5.6797   43.7532 C   0  0  1  0  0  0  0  0  0  0  0  0
   24.6094   -6.8820   43.4118 C   0  0  1  0  0  0  0  0  0  0  0  0
   23.2355   -6.8954   43.0427 C   0  0  0  0  0  0  0  0  0  0  0  0
   22.5366   -7.8600   42.7069 O   0  0  0  0  0  0  0  0  0  0  0  0
   25.5309   -7.9188   43.4823 N   0  0  0  0  0  0  0  0  0  0  0  0
   26.6385   -7.3439   43.8628 C   0  0  0  0  0  0  0  0  0  0  0  0
   26.5249   -5.9847   44.0570 N   0  0  1  0  0  0  0  0  0  0  0  0
  2  1  1  0  0  0  0
  3  1  1  6  0  0  0
  3  4  1  0  0  0  0
  3  5  1  0  0  0  0
  5  6  1  1  0  0  0
  5  7  1  0  0  0  0
  7  8  1  1  0  0  0
  7  9  1  0  0  0  0
  9  4  1  1  0  0  0
  9 20  1  0  0  0  0
 10 11  1  0  0  0  0
 11 12  1  1  0  0  0
 11 13  1  0  0  0  0
 14 13  1  6  0  0  0
 15 14  1  0  0  0  0
 15 16  1  6  0  0  0
 16 10  1  0  0  0  0
 16 17  2  0  0  0  0
 18 15  1  0  0  0  0
 19 18  1  0  0  0  0
 20 14  1  0  0  0  0
 20 19  1  6  0  0  0
M  END
>  <CHROM.1>
178.72992127,53.58954462,25.66914285,-4.66973040,43.89330609,0.82505682,-0.09126789
0.18613701

>  <Name>
1nyi_lig

>  <RI>
0

>  <Rbt.Current_Directory>
/home/itssahil/PROJECTS/Mol_Feturizer/New_Systems/rnas/1nyi

>  <Rbt.Executable>
rbdock ($Id: //depot/dev/client3/rdock/2013.1/src/exe/rbdock.cxx#4 $)

>  <Rbt.Library>
libRbt.so (2013.1, Build901 2013/11/27)

>  <Rbt.Parameter_File>
/export/apps/rDock/src/rDock_2013.1_src/data/scripts/dock_solv.prm

>  <Rbt.Receptor>
prm/pocket_docking_2.prm

>  <SCORE>
-8.23103

>  <SCORE.INTER>
-7.68078

>  <SCORE.INTER.CONST>
1

>  <SCORE.INTER.POLAR>
-0.698374

>  <SCORE.INTER.ROT>
2

>  <SCORE.INTER.SOLV>
12.1884

>  <SCORE.INTER.VDW>
-11.7888

>  <SCORE.INTER.norm>
-0.384039

>  <SCORE.INTRA>
-1.32362

>  <SCORE.INTRA.DIHEDRAL>
-2.53232

>  <SCORE.INTRA.DIHEDRAL.0>
3.72394

>  <SCORE.INTRA.POLAR>
0

>  <SCORE.INTRA.POLAR.0>
0

>  <SCORE.INTRA.REPUL>
0

>  <SCORE.INTRA.REPUL.0>
0

>  <SCORE.INTRA.SOLV>
2.13799

>  <SCORE.INTRA.SOLV.lig_0>
-49.4697

>  <SCORE.INTRA.VDW>
-1.12646

>  <SCORE.INTRA.VDW.0>
-0.896538

>  <SCORE.INTRA.norm>
-0.0661812

>  <SCORE.RESTR>
0.773372

>  <SCORE.RESTR.CAVITY>
0.773372

>  <SCORE.RESTR.norm>
0.0386686

>  <SCORE.SYSTEM>
0

>  <SCORE.SYSTEM.CONST>
0

>  <SCORE.SYSTEM.DIHEDRAL>
0

>  <SCORE.SYSTEM.SOLV>
0

>  <SCORE.SYSTEM.norm>
0

>  <SCORE.heavy>
20

>  <SCORE.norm>
-0.411552

>  <RMSD>
2.710

$$$$
1nyi_lig
 OpenBabel11021811403D
libRbt.so/2013.1/901 2013/11/27
 20 22  0  0  0  0  0  0  0  0999 V2000
   28.0382   -2.9483   43.2139 C   0  0  0  0  0  0  0  0  0  0  0  0
   29.4020   -3.2974   43.4507 O   0  0  0  0  0  0  0  0  0  0  0  0
   27.2706   -2.8594   44.5143 C   0  0  1  0  0  0  0  0  0  0  0  0
   25.9140   -2.4211   44.2317 O   0  0  0  0  0  0  0  0  0  0  0  0
   27.1356   -4.2107   45.2072 C   0  0  1  0  0  0  0  0  0  0  0  0
   28.2154   -4.4460   46.1122 O   0  0  0  0  0  0  0  0  0  0  0  0
   25.7777   -4.0871   45.8952 C   0  0  1  0  0  0  0  0  0  0  0  0
   25.8292   -3.3396   47.1011 O   0  0  0  0  0  0  0  0  0  0  0  0
   24.9910   -3.3201   44.8346 C   0  0  2  0  0  0  0  0  0  0  0  0
   23.0040   -7.8967   43.5713 N   0  0  0  0  0  0  0  0  0  0  0  0
   23.7036   -7.5286   44.6949 C   0  0  1  0  0  0  0  0  0  0  0  0
   23.8986   -8.4961   45.5921 N   0  0  0  0  0  0  0  0  0  0  0  0
   24.1784   -6.3068   44.9193 N   0  0  0  0  0  0  0  0  0  0  0  0
   23.9007   -5.4473   43.8959 C   0  0  1  0  0  0  0  0  0  0  0  0
   23.2070   -5.7215   42.7304 C   0  0  1  0  0  0  0  0  0  0  0  0
   22.7002   -7.0339   42.5186 C   0  0  0  0  0  0  0  0  0  0  0  0
   22.0600   -7.4667   41.5518 O   0  0  0  0  0  0  0  0  0  0  0  0
   23.1145   -4.5841   41.9387 N   0  0  0  0  0  0  0  0  0  0  0  0
   23.7441   -3.6643   42.6165 C   0  0  0  0  0  0  0  0  0  0  0  0
   24.2592   -4.1070   43.8151 N   0  0  1  0  0  0  0  0  0  0  0  0
  2  1  1  0  0  0  0
  3  1  1  6  0  0  0
  3  4  1  0  0  0  0
  3  5  1  0  0  0  0
  5  6  1  1  0  0  0
  5  7  1  0  0  0  0
  7  8  1  1  0  0  0
  7  9  1  0  0  0  0
  9  4  1  6  0  0  0
  9 20  1  0  0  0  0
 10 11  1  0  0  0  0
 11 12  1  6  0  0  0
 11 13  1  0  0  0  0
 14 13  1  1  0  0  0
 15 14  1  0  0  0  0
 15 16  1  1  0  0  0
 16 10  1  0  0  0  0
 16 17  2  0  0  0  0
 18 15  1  0  0  0  0
 19 18  1  0  0  0  0
 20 14  1  0  0  0  0
 20 19  1  1  0  0  0
M  END
>  <CHROM.1>
176.46615582,141.45861714,25.07562053,-4.92247928,44.13426492,0.17992580
-0.70773678,-0.86922189

>  <Name>
1nyi_lig

>  <RI>
0

>  <Rbt.Current_Directory>
/home/itssahil/PROJECTS/Mol_Feturizer/New_Systems/rnas/1nyi

>  <Rbt.Executable>
rbdock ($Id: //depot/dev/client3/rdock/2013.1/src/exe/rbdock.cxx#4 $)

>  <Rbt.Library>
libRbt.so (2013.1, Build901 2013/11/27)

>  <Rbt.Parameter_File>
/export/apps/rDock/src/rDock_2013.1_src/data/scripts/dock_solv.prm

>  <Rbt.Receptor>
prm/pocket_docking_3.prm

>  <SCORE>
-5.51217

>  <SCORE.INTER>
-4.00589

>  <SCORE.INTER.CONST>
1

>  <SCORE.INTER.POLAR>
-0.975471

>  <SCORE.INTER.ROT>
2

>  <SCORE.INTER.SOLV>
8.67985

>  <SCORE.INTER.VDW>
-7.24563

>  <SCORE.INTER.norm>
-0.200294

>  <SCORE.INTRA>
-1.50636

>  <SCORE.INTRA.DIHEDRAL>
-2.53631

>  <SCORE.INTRA.DIHEDRAL.0>
3.72394

>  <SCORE.INTRA.POLAR>
0

>  <SCORE.INTRA.POLAR.0>
0

>  <SCORE.INTRA.REPUL>
0

>  <SCORE.INTRA.REPUL.0>
0

>  <SCORE.INTRA.SOLV>
0.0216922

>  <SCORE.INTRA.SOLV.lig_0>
-49.4697

>  <SCORE.INTRA.VDW>
-0.249056

>  <SCORE.INTRA.VDW.0>
-0.896538

>  <SCORE.INTRA.norm>
-0.0753182

>  <SCORE.RESTR>
7.6944e-05

>  <SCORE.RESTR.CAVITY>
7.6944e-05

>  <SCORE.RESTR.norm>
3.8472e-06

>  <SCORE.SYSTEM>
0

>  <SCORE.SYSTEM.CONST>
0

>  <SCORE.SYSTEM.DIHEDRAL>
0

>  <SCORE.SYSTEM.SOLV>
0

>  <SCORE.SYSTEM.norm>
0

>  <SCORE.heavy>
20

>  <SCORE.norm>
-0.275609

>  <RMSD>
2.717

$$$$
1nyi_lig
 OpenBabel11021811403D
libRbt.so/2013.1/901 2013/11/27
 20 22  0  0  0  0  0  0  0  0999 V2000
   25.7082   -2.3156   45.7376 C   0  0  0  0  0  0  0  0  0  0  0  0
   25.5004   -0.9383   45.4248 O   0  0  0  0  0  0  0  0  0  0  0  0
   27.0782   -2.7706   45.2858 C   0  0  1  0  0  0  0  0  0  0  0  0
   27.2809   -4.1463   45.7084 O   0  0  0  0  0  0  0  0  0  0  0  0
   27.2214   -2.7760   43.7679 C   0  0  1  0  0  0  0  0  0  0  0  0
   27.7154   -1.5264   43.2835 O   0  0  0  0  0  0  0  0  0  0  0  0
   28.1800   -3.9426   43.5377 C   0  0  1  0  0  0  0  0  0  0  0  0
   29.5372   -3.6065   43.7843 O   0  0  0  0  0  0  0  0  0  0  0  0
   27.6834   -4.9301   44.5915 C   0  0  2  0  0  0  0  0  0  0  0  0
   22.8879   -5.5229   42.8191 N   0  0  0  0  0  0  0  0  0  0  0  0
   23.5717   -4.3698   43.1187 C   0  0  1  0  0  0  0  0  0  0  0  0
   22.8976   -3.2355   42.9231 N   0  0  0  0  0  0  0  0  0  0  0  0
   24.8192   -4.3321   43.5783 N   0  0  0  0  0  0  0  0  0  0  0  0
   25.3524   -5.5793   43.7314 C   0  0  1  0  0  0  0  0  0  0  0  0
   24.7472   -6.7934   43.4586 C   0  0  1  0  0  0  0  0  0  0  0  0
   23.4155   -6.8065   42.9580 C   0  0  0  0  0  0  0  0  0  0  0  0
   22.7147   -7.7808   42.6557 O   0  0  0  0  0  0  0  0  0  0  0  0
   25.6164   -7.8430   43.7269 N   0  0  0  0  0  0  0  0  0  0  0  0
   26.7040   -7.2630   44.1542 C   0  0  0  0  0  0  0  0  0  0  0  0
   26.6257   -5.8882   44.1949 N   0  0  1  0  0  0  0  0  0  0  0  0
  2  1  1  0  0  0  0
  3  1  1  6  0  0  0
  3  4  1  0  0  0  0
  3  5  1  0  0  0  0
  5  6  1  1  0  0  0
  5  7  1  0  0  0  0
  7  8  1  1  0  0  0
  7  9  1  0  0  0  0
  9  4  1  1  0  0  0
  9 20  1  0  0  0  0
 10 11  1  0  0  0  0
 11 12  1  1  0  0  0
 11 13  1  0  0  0  0
 14 13  1  6  0  0  0
 15 14  1  0  0  0  0
 15 16  1  6  0  0  0
 16 10  1  0  0  0  0
 16 17  2  0  0  0  0
 18 15  1  0  0  0  0
 19 18  1  0  0  0  0
 20 14  1  0  0  0  0
 20 19  1  6  0  0  0
M  END
>  <CHROM.1>
175.99529895,62.98341576,25.79520152,-4.57084362,43.93770103,0.84756614,-0.19899661
0.15756853

>  <Name>
1nyi_lig

>  <RI>
0

>  <Rbt.Current_Directory>
/home/itssahil/PROJECTS/Mol_Feturizer/New_Systems/rnas/1nyi

>  <Rbt.Executable>
rbdock ($Id: //depot/dev/client3/rdock/2013.1/src/exe/rbdock.cxx#4 $)

>  <Rbt.Library>
libRbt.so (2013.1, Build901 2013/11/27)

>  <Rbt.Parameter_File>
/export/apps/rDock/src/rDock_2013.1_src/data/scripts/dock_solv.prm

>  <Rbt.Receptor>
prm/pocket_docking_3.prm

>  <SCORE>
-9.96029

>  <SCORE.INTER>
-8.39967

>  <SCORE.INTER.CONST>
1

>  <SCORE.INTER.POLAR>
-0.657566

>  <SCORE.INTER.ROT>
2

>  <SCORE.INTER.SOLV>
11.8513

>  <SCORE.INTER.VDW>
-12.2916

>  <SCORE.INTER.norm>
-0.419983

>  <SCORE.INTRA>
-1.56063

>  <SCORE.INTRA.DIHEDRAL>
-2.44179

>  <SCORE.INTRA.DIHEDRAL.0>
3.72394

>  <SCORE.INTRA.POLAR>
0

>  <SCORE.INTRA.POLAR.0>
0

>  <SCORE.INTRA.REPUL>
0

>  <SCORE.INTRA.REPUL.0>
0

>  <SCORE.INTRA.SOLV>
1.76186

>  <SCORE.INTRA.SOLV.lig_0>
-49.4697

>  <SCORE.INTRA.VDW>
-1.22066

>  <SCORE.INTRA.VDW.0>
-0.896538

>  <SCORE.INTRA.norm>
-0.0780313

>  <SCORE.RESTR>
0

>  <SCORE.RESTR.CAVITY>
0

>  <SCORE.RESTR.norm>
0

>  <SCORE.SYSTEM>
0

>  <SCORE.SYSTEM.CONST>
0

>  <SCORE.SYSTEM.DIHEDRAL>
0

>  <SCORE.SYSTEM.SOLV>
0

>  <SCORE.SYSTEM.norm>
0

>  <SCORE.heavy>
20

>  <SCORE.norm>
-0.498015

>  <RMSD>
2.717

$$$$
1nyi_lig
 OpenBabel11021811403D
libRbt.so/2013.1/901 2013/11/27
 20 22  0  0  0  0  0  0  0  0999 V2000
   25.4990   -2.4036   45.6525 C   0  0  0  0  0  0  0  0  0  0  0  0
   24.6482   -2.0528   44.5612 O   0  0  0  0  0  0  0  0  0  0  0  0
   26.8668   -2.8192   45.1581 C   0  0  1  0  0  0  0  0  0  0  0  0
   27.1179   -4.1916   45.5651 O   0  0  0  0  0  0  0  0  0  0  0  0
   26.9658   -2.8116   43.6367 C   0  0  1  0  0  0  0  0  0  0  0  0
   27.4123   -1.5463   43.1468 O   0  0  0  0  0  0  0  0  0  0  0  0
   27.9477   -3.9508   43.3708 C   0  0  1  0  0  0  0  0  0  0  0  0
   29.3021   -3.5803   43.5802 O   0  0  0  0  0  0  0  0  0  0  0  0
   27.5082   -4.9576   44.4317 C   0  0  2  0  0  0  0  0  0  0  0  0
   22.6478   -5.6705   42.8964 N   0  0  0  0  0  0  0  0  0  0  0  0
   23.3057   -4.5030   43.1983 C   0  0  1  0  0  0  0  0  0  0  0  0
   22.5825   -3.3889   43.0772 N   0  0  0  0  0  0  0  0  0  0  0  0
   24.5741   -4.4340   43.5923 N   0  0  0  0  0  0  0  0  0  0  0  0
   25.1585   -5.6648   43.6746 C   0  0  1  0  0  0  0  0  0  0  0  0
   24.5825   -6.8911   43.3931 C   0  0  1  0  0  0  0  0  0  0  0  0
   23.2270   -6.9375   42.9636 C   0  0  0  0  0  0  0  0  0  0  0  0
   22.5457   -7.9269   42.6659 O   0  0  0  0  0  0  0  0  0  0  0  0
   25.5014   -7.9159   43.5794 N   0  0  0  0  0  0  0  0  0  0  0  0
   26.5895   -7.3100   43.9680 C   0  0  0  0  0  0  0  0  0  0  0  0
   26.4650   -5.9410   44.0593 N   0  0  1  0  0  0  0  0  0  0  0  0
  2  1  1  0  0  0  0
  3  1  1  6  0  0  0
  3  4  1  0  0  0  0
  3  5  1  0  0  0  0
  5  6  1  1  0  0  0
  5  7  1  0  0  0  0
  7  8  1  1  0  0  0
  7  9  1  0  0  0  0
  9  4  1  1  0  0  0
  9 20  1  0  0  0  0
 10 11  1  0  0  0  0
 11 12  1  1  0  0  0
 11 13  1  0  0  0  0
 14 13  1  6  0  0  0
 15 14  1  0  0  0  0
 15 16  1  6  0  0  0
 16 10  1  0  0  0  0
 16 17  2  0  0  0  0
 18 15  1  0  0  0  0
 19 18  1  0  0  0  0
 20 14  1  0  0  0  0
 20 19  1  6  0  0  0
M  END
>  <CHROM.1>
-119.37501345,60.84534112,25.55001343,-4.70362742,43.81735998,0.78780862
-0.15688937,0.12922508

>  <Name>
1nyi_lig

>  <RI>
0

>  <Rbt.Current_Directory>
/home/itssahil/PROJECTS/Mol_Feturizer/New_Systems/rnas/1nyi

>  <Rbt.Executable>
rbdock ($Id: //depot/dev/client3/rdock/2013.1/src/exe/rbdock.cxx#4 $)

>  <Rbt.Library>
libRbt.so (2013.1, Build901 2013/11/27)

>  <Rbt.Parameter_File>
/export/apps/rDock/src/rDock_2013.1_src/data/scripts/dock_solv.prm

>  <Rbt.Receptor>
prm/pocket_docking_2.prm

>  <SCORE>
-3.44363

>  <SCORE.INTER>
-6.87758

>  <SCORE.INTER.CONST>
1

>  <SCORE.INTER.POLAR>
-0.665974

>  <SCORE.INTER.ROT>
2

>  <SCORE.INTER.SOLV>
12.1869

>  <SCORE.INTER.VDW>
-11.3608

>  <SCORE.INTER.norm>
-0.343879

>  <SCORE.INTRA>
3.12772

>  <SCORE.INTRA.DIHEDRAL>
2.73018

>  <SCORE.INTRA.DIHEDRAL.0>
3.72394

>  <SCORE.INTRA.POLAR>
0

>  <SCORE.INTRA.POLAR.0>
0

>  <SCORE.INTRA.REPUL>
0

>  <SCORE.INTRA.REPUL.0>
0

>  <SCORE.INTRA.SOLV>
3.74497

>  <SCORE.INTRA.SOLV.lig_0>
-49.4697

>  <SCORE.INTRA.VDW>
-0.109859

>  <SCORE.INTRA.VDW.0>
-0.896538

>  <SCORE.INTRA.norm>
0.156386

>  <SCORE.RESTR>
0.306224

>  <SCORE.RESTR.CAVITY>
0.306224

>  <SCORE.RESTR.norm>
0.0153112

>  <SCORE.SYSTEM>
0

>  <SCORE.SYSTEM.CONST>
0

>  <SCORE.SYSTEM.DIHEDRAL>
0

>  <SCORE.SYSTEM.SOLV>
0

>  <SCORE.SYSTEM.norm>
0

>  <SCORE.heavy>
20

>  <SCORE.norm>
-0.172182

>  <RMSD>
2.721

$$$$
1nyi_lig
 OpenBabel11021811403D
libRbt.so/2013.1/901 2013/11/27
 20 22  0  0  0  0  0  0  0  0999 V2000
   25.7519   -2.2525   45.7306 C   0  0  0  0  0  0  0  0  0  0  0  0
   25.5905   -0.8681   45.4215 O   0  0  0  0  0  0  0  0  0  0  0  0
   27.1065   -2.7516   45.2791 C   0  0  1  0  0  0  0  0  0  0  0  0
   27.2601   -4.1365   45.6923 O   0  0  0  0  0  0  0  0  0  0  0  0
   27.2537   -2.7513   43.7616 C   0  0  1  0  0  0  0  0  0  0  0  0
   27.7922   -1.5162   43.2874 O   0  0  0  0  0  0  0  0  0  0  0  0
   28.1718   -3.9488   43.5255 C   0  0  1  0  0  0  0  0  0  0  0  0
   29.5391   -3.6618   43.7779 O   0  0  0  0  0  0  0  0  0  0  0  0
   27.6382   -4.9258   44.5709 C   0  0  2  0  0  0  0  0  0  0  0  0
   22.8598   -5.3400   42.7042 N   0  0  0  0  0  0  0  0  0  0  0  0
   23.5860   -4.2127   43.0027 C   0  0  1  0  0  0  0  0  0  0  0  0
   22.9653   -3.0538   42.7773 N   0  0  0  0  0  0  0  0  0  0  0  0
   24.8240   -4.2214   43.4884 N   0  0  0  0  0  0  0  0  0  0  0  0
   25.3001   -5.4878   43.6698 C   0  0  1  0  0  0  0  0  0  0  0  0
   24.6493   -6.6789   43.4006 C   0  0  1  0  0  0  0  0  0  0  0  0
   23.3289   -6.6426   42.8718 C   0  0  0  0  0  0  0  0  0  0  0  0
   22.5936   -7.5905   42.5678 O   0  0  0  0  0  0  0  0  0  0  0  0
   25.4669   -7.7605   43.7018 N   0  0  0  0  0  0  0  0  0  0  0  0
   26.5693   -7.2212   44.1444 C   0  0  0  0  0  0  0  0  0  0  0  0
   26.5490   -5.8438   44.1647 N   0  0  1  0  0  0  0  0  0  0  0  0
  2  1  1  0  0  0  0
  3  1  1  6  0  0  0
  3  4  1  0  0  0  0
  3  5  1  0  0  0  0
  5  6  1  1  0  0  0
  5  7  1  0  0  0  0
  7  8  1  1  0  0  0
  7  9  1  0  0  0  0
  9  4  1  1  0  0  0
  9 20  1  0  0  0  0
 10 11  1  0  0  0  0
 11 12  1  1  0  0  0
 11 13  1  0  0  0  0
 14 13  1  6  0  0  0
 15 14  1  0  0  0  0
 15 16  1  6  0  0  0
 16 10  1  0  0  0  0
 16 17  2  0  0  0  0
 18 15  1  0  0  0  0
 19 18  1  0  0  0  0
 20 14  1  0  0  0  0
 20 19  1  6  0  0  0
M  END
>  <CHROM.1>
176.26553444,64.65619137,25.77348954,-4.49705199,43.89370630,0.81376049,-0.22884697
0.14793795

>  <Name>
1nyi_lig

>  <RI>
0

>  <Rbt.Current_Directory>
/home/itssahil/PROJECTS/Mol_Feturizer/New_Systems/rnas/1nyi

>  <Rbt.Executable>
rbdock ($Id: //depot/dev/client3/rdock/2013.1/src/exe/rbdock.cxx#4 $)

>  <Rbt.Library>
libRbt.so (2013.1, Build901 2013/11/27)

>  <Rbt.Parameter_File>
/export/apps/rDock/src/rDock_2013.1_src/data/scripts/dock_solv.prm

>  <Rbt.Receptor>
prm/pocket_docking_3.prm

>  <SCORE>
-9.92897

>  <SCORE.INTER>
-8.36828

>  <SCORE.INTER.CONST>
1

>  <SCORE.INTER.POLAR>
-0.693543

>  <SCORE.INTER.ROT>
2

>  <SCORE.INTER.SOLV>
12.2702

>  <SCORE.INTER.VDW>
-12.2904

>  <SCORE.INTER.norm>
-0.418414

>  <SCORE.INTRA>
-1.5607

>  <SCORE.INTRA.DIHEDRAL>
-2.44148

>  <SCORE.INTRA.DIHEDRAL.0>
3.72394

>  <SCORE.INTRA.POLAR>
0

>  <SCORE.INTRA.POLAR.0>
0

>  <SCORE.INTRA.REPUL>
0

>  <SCORE.INTRA.REPUL.0>
0

>  <SCORE.INTRA.SOLV>
1.69498

>  <SCORE.INTRA.SOLV.lig_0>
-49.4697

>  <SCORE.INTRA.VDW>
-1.18744

>  <SCORE.INTRA.VDW.0>
-0.896538

>  <SCORE.INTRA.norm>
-0.0780348

>  <SCORE.RESTR>
0

>  <SCORE.RESTR.CAVITY>
0

>  <SCORE.RESTR.norm>
0

>  <SCORE.SYSTEM>
0

>  <SCORE.SYSTEM.CONST>
0

>  <SCORE.SYSTEM.DIHEDRAL>
0

>  <SCORE.SYSTEM.SOLV>
0

>  <SCORE.SYSTEM.norm>
0

>  <SCORE.heavy>
20

>  <SCORE.norm>
-0.496449

>  <RMSD>
2.726

$$$$
1nyi_lig
 OpenBabel11021811403D
libRbt.so/2013.1/901 2013/11/27
 20 22  0  0  0  0  0  0  0  0999 V2000
   25.7556   -2.3258   45.7646 C   0  0  0  0  0  0  0  0  0  0  0  0
   25.5575   -0.9507   45.4362 O   0  0  0  0  0  0  0  0  0  0  0  0
   27.1109   -2.8034   45.2920 C   0  0  1  0  0  0  0  0  0  0  0  0
   27.2926   -4.1858   45.7021 O   0  0  0  0  0  0  0  0  0  0  0  0
   27.2346   -2.8003   43.7724 C   0  0  1  0  0  0  0  0  0  0  0  0
   27.7462   -1.5567   43.2907 O   0  0  0  0  0  0  0  0  0  0  0  0
   28.1677   -3.9831   43.5216 C   0  0  1  0  0  0  0  0  0  0  0  0
   29.5341   -3.6747   43.7531 O   0  0  0  0  0  0  0  0  0  0  0  0
   27.6658   -4.9688   44.5745 C   0  0  2  0  0  0  0  0  0  0  0  0
   22.8802   -5.4584   42.7448 N   0  0  0  0  0  0  0  0  0  0  0  0
   23.5947   -4.3196   43.0275 C   0  0  1  0  0  0  0  0  0  0  0  0
   22.9585   -3.1706   42.7952 N   0  0  0  0  0  0  0  0  0  0  0  0
   24.8360   -4.3088   43.5047 N   0  0  0  0  0  0  0  0  0  0  0  0
   25.3286   -5.5676   43.6950 C   0  0  1  0  0  0  0  0  0  0  0  0
   24.6904   -6.7690   43.4417 C   0  0  1  0  0  0  0  0  0  0  0  0
   23.3662   -6.7537   42.9216 C   0  0  0  0  0  0  0  0  0  0  0  0
   22.6404   -7.7133   42.6318 O   0  0  0  0  0  0  0  0  0  0  0  0
   25.5231   -7.8376   43.7476 N   0  0  0  0  0  0  0  0  0  0  0  0
   26.6218   -7.2808   44.1775 C   0  0  0  0  0  0  0  0  0  0  0  0
   26.5850   -5.9036   44.1847 N   0  0  1  0  0  0  0  0  0  0  0  0
  2  1  1  0  0  0  0
  3  1  1  6  0  0  0
  3  4  1  0  0  0  0
  3  5  1  0  0  0  0
  5  6  1  1  0  0  0
  5  7  1  0  0  0  0
  7  8  1  1  0  0  0
  7  9  1  0  0  0  0
  9  4  1  1  0  0  0
  9 20  1  0  0  0  0
 10 11  1  0  0  0  0
 11 12  1  1  0  0  0
 11 13  1  0  0  0  0
 14 13  1  6  0  0  0
 15 14  1  0  0  0  0
 15 16  1  6  0  0  0
 16 10  1  0  0  0  0
 16 17  2  0  0  0  0
 18 15  1  0  0  0  0
 19 18  1  0  0  0  0
 20 14  1  0  0  0  0
 20 19  1  6  0  0  0
M  END
>  <CHROM.1>
177.37037225,65.44307716,25.78750256,-4.56990955,43.91529737,0.82695166,-0.22205720
0.14547537

>  <Name>
1nyi_lig

>  <RI>
0

>  <Rbt.Current_Directory>
/home/itssahil/PROJECTS/Mol_Feturizer/New_Systems/rnas/1nyi

>  <Rbt.Executable>
rbdock ($Id: //depot/dev/client3/rdock/2013.1/src/exe/rbdock.cxx#4 $)

>  <Rbt.Library>
libRbt.so (2013.1, Build901 2013/11/27)

>  <Rbt.Parameter_File>
/export/apps/rDock/src/rDock_2013.1_src/data/scripts/dock_solv.prm

>  <Rbt.Receptor>
prm/pocket_docking_3.prm

>  <SCORE>
-9.94907

>  <SCORE.INTER>
-8.38699

>  <SCORE.INTER.CONST>
1

>  <SCORE.INTER.POLAR>
-0.681259

>  <SCORE.INTER.ROT>
2

>  <SCORE.INTER.SOLV>
11.9626

>  <SCORE.INTER.VDW>
-12.2413

>  <SCORE.INTER.norm>
-0.419349

>  <SCORE.INTRA>
-1.56208

>  <SCORE.INTRA.DIHEDRAL>
-2.46205

>  <SCORE.INTRA.DIHEDRAL.0>
3.72394

>  <SCORE.INTRA.POLAR>
0

>  <SCORE.INTRA.POLAR.0>
0

>  <SCORE.INTRA.REPUL>
0

>  <SCORE.INTRA.REPUL.0>
0

>  <SCORE.INTRA.SOLV>
1.68657

>  <SCORE.INTRA.SOLV.lig_0>
-49.4697

>  <SCORE.INTRA.VDW>
-1.17434

>  <SCORE.INTRA.VDW.0>
-0.896538

>  <SCORE.INTRA.norm>
-0.0781039

>  <SCORE.RESTR>
0

>  <SCORE.RESTR.CAVITY>
0

>  <SCORE.RESTR.norm>
0

>  <SCORE.SYSTEM>
0

>  <SCORE.SYSTEM.CONST>
0

>  <SCORE.SYSTEM.DIHEDRAL>
0

>  <SCORE.SYSTEM.SOLV>
0

>  <SCORE.SYSTEM.norm>
0

>  <SCORE.heavy>
20

>  <SCORE.norm>
-0.497453

>  <RMSD>
2.728

$$$$
1nyi_lig
 OpenBabel11021811403D
libRbt.so/2013.1/901 2013/11/27
 20 22  0  0  0  0  0  0  0  0999 V2000
   25.5523   -2.1405   45.4594 C   0  0  0  0  0  0  0  0  0  0  0  0
   24.4996   -3.0353   45.1001 O   0  0  0  0  0  0  0  0  0  0  0  0
   26.8984   -2.7031   45.0598 C   0  0  1  0  0  0  0  0  0  0  0  0
   27.0342   -4.0393   45.6150 O   0  0  0  0  0  0  0  0  0  0  0  0
   27.0404   -2.8631   43.5502 C   0  0  1  0  0  0  0  0  0  0  0  0
   27.5943   -1.6919   42.9487 O   0  0  0  0  0  0  0  0  0  0  0  0
   27.9411   -4.0915   43.4387 C   0  0  1  0  0  0  0  0  0  0  0  0
   29.3131   -3.7991   43.6571 O   0  0  0  0  0  0  0  0  0  0  0  0
   27.3976   -4.9466   44.5813 C   0  0  2  0  0  0  0  0  0  0  0  0
   22.7847   -5.5656   42.3842 N   0  0  0  0  0  0  0  0  0  0  0  0
   23.5490   -4.4305   42.5051 C   0  0  1  0  0  0  0  0  0  0  0  0
   23.0219   -3.3248   41.9771 N   0  0  0  0  0  0  0  0  0  0  0  0
   24.7369   -4.3829   43.1011 N   0  0  0  0  0  0  0  0  0  0  0  0
   25.1175   -5.5971   43.5950 C   0  0  1  0  0  0  0  0  0  0  0  0
   24.4217   -6.7911   43.5236 C   0  0  1  0  0  0  0  0  0  0  0  0
   23.1574   -6.8180   42.8717 C   0  0  0  0  0  0  0  0  0  0  0  0
   22.3953   -7.7790   42.7062 O   0  0  0  0  0  0  0  0  0  0  0  0
   25.1427   -7.8128   44.1281 N   0  0  0  0  0  0  0  0  0  0  0  0
   26.2327   -7.2346   44.5518 C   0  0  0  0  0  0  0  0  0  0  0  0
   26.2944   -5.8864   44.2752 N   0  0  1  0  0  0  0  0  0  0  0  0
  2  1  1  0  0  0  0
  3  1  1  6  0  0  0
  3  4  1  0  0  0  0
  3  5  1  0  0  0  0
  5  6  1  1  0  0  0
  5  7  1  0  0  0  0
  7  8  1  1  0  0  0
  7  9  1  0  0  0  0
  9  4  1  1  0  0  0
  9 20  1  0  0  0  0
 10 11  1  0  0  0  0
 11 12  1  1  0  0  0
 11 13  1  0  0  0  0
 14 13  1  6  0  0  0
 15 14  1  0  0  0  0
 15 16  1  6  0  0  0
 16 10  1  0  0  0  0
 16 17  2  0  0  0  0
 18 15  1  0  0  0  0
 19 18  1  0  0  0  0
 20 14  1  0  0  0  0
 20 19  1  6  0  0  0
M  END
>  <CHROM.1>
-53.40531110,73.46425214,25.53297624,-4.71427314,43.76692006,0.67051581,-0.34761004
-0.07019368

>  <Name>
1nyi_lig

>  <RI>
0

>  <Rbt.Current_Directory>
/home/itssahil/PROJECTS/Mol_Feturizer/New_Systems/rnas/1nyi

>  <Rbt.Executable>
rbdock ($Id: //depot/dev/client3/rdock/2013.1/src/exe/rbdock.cxx#4 $)

>  <Rbt.Library>
libRbt.so (2013.1, Build901 2013/11/27)

>  <Rbt.Parameter_File>
/export/apps/rDock/src/rDock_2013.1_src/data/scripts/dock_solv.prm

>  <Rbt.Receptor>
prm/pocket_docking_2.prm

>  <SCORE>
-6.87938

>  <SCORE.INTER>
-7.60977

>  <SCORE.INTER.CONST>
1

>  <SCORE.INTER.POLAR>
-0.748331

>  <SCORE.INTER.ROT>
2

>  <SCORE.INTER.SOLV>
10.8949

>  <SCORE.INTER.VDW>
-11.1437

>  <SCORE.INTER.norm>
-0.380489

>  <SCORE.INTRA>
0.0884703

>  <SCORE.INTRA.DIHEDRAL>
-2.29058

>  <SCORE.INTRA.DIHEDRAL.0>
3.72394

>  <SCORE.INTRA.POLAR>
0

>  <SCORE.INTRA.POLAR.0>
0

>  <SCORE.INTRA.REPUL>
0

>  <SCORE.INTRA.REPUL.0>
0

>  <SCORE.INTRA.SOLV>
3.38389

>  <SCORE.INTRA.SOLV.lig_0>
-49.4697

>  <SCORE.INTRA.VDW>
-0.458183

>  <SCORE.INTRA.VDW.0>
-0.896538

>  <SCORE.INTRA.norm>
0.00442352

>  <SCORE.RESTR>
0.641921

>  <SCORE.RESTR.CAVITY>
0.641921

>  <SCORE.RESTR.norm>
0.0320961

>  <SCORE.SYSTEM>
0

>  <SCORE.SYSTEM.CONST>
0

>  <SCORE.SYSTEM.DIHEDRAL>
0

>  <SCORE.SYSTEM.SOLV>
0

>  <SCORE.SYSTEM.norm>
0

>  <SCORE.heavy>
20

>  <SCORE.norm>
-0.343969

>  <RMSD>
2.732

$$$$
1nyi_lig
 OpenBabel11021811403D
libRbt.so/2013.1/901 2013/11/27
 20 22  0  0  0  0  0  0  0  0999 V2000
   25.7591   -2.3507   45.7892 C   0  0  0  0  0  0  0  0  0  0  0  0
   25.5589   -0.9681   45.4953 O   0  0  0  0  0  0  0  0  0  0  0  0
   27.1213   -2.8105   45.3188 C   0  0  1  0  0  0  0  0  0  0  0  0
   27.3165   -4.1934   45.7208 O   0  0  0  0  0  0  0  0  0  0  0  0
   27.2507   -2.7963   43.7997 C   0  0  1  0  0  0  0  0  0  0  0  0
   27.7505   -1.5441   43.3279 O   0  0  0  0  0  0  0  0  0  0  0  0
   28.1977   -3.9672   43.5450 C   0  0  1  0  0  0  0  0  0  0  0  0
   29.5597   -3.6454   43.7838 O   0  0  0  0  0  0  0  0  0  0  0  0
   27.7025   -4.9650   44.5897 C   0  0  2  0  0  0  0  0  0  0  0  0
   22.9006   -5.4947   42.8149 N   0  0  0  0  0  0  0  0  0  0  0  0
   23.5981   -4.3508   43.1185 C   0  0  1  0  0  0  0  0  0  0  0  0
   22.9375   -3.2080   42.9267 N   0  0  0  0  0  0  0  0  0  0  0  0
   24.8458   -4.3296   43.5783 N   0  0  0  0  0  0  0  0  0  0  0  0
   25.3642   -5.5835   43.7272 C   0  0  1  0  0  0  0  0  0  0  0  0
   24.7446   -6.7894   43.4501 C   0  0  1  0  0  0  0  0  0  0  0  0
   23.4129   -6.7849   42.9494 C   0  0  0  0  0  0  0  0  0  0  0  0
   22.7006   -7.7498   42.6437 O   0  0  0  0  0  0  0  0  0  0  0  0
   25.6012   -7.8501   43.7150 N   0  0  0  0  0  0  0  0  0  0  0  0
   26.6956   -7.2846   44.1443 C   0  0  0  0  0  0  0  0  0  0  0  0
   26.6336   -5.9091   44.1897 N   0  0  1  0  0  0  0  0  0  0  0  0
  2  1  1  0  0  0  0
  3  1  1  6  0  0  0
  3  4  1  0  0  0  0
  3  5  1  0  0  0  0
  5  6  1  1  0  0  0
  5  7  1  0  0  0  0
  7  8  1  1  0  0  0
  7  9  1  0  0  0  0
  9  4  1  1  0  0  0
  9 20  1  0  0  0  0
 10 11  1  0  0  0  0
 11 12  1  1  0  0  0
 11 13  1  0  0  0  0
 14 13  1  6  0  0  0
 15 14  1  0  0  0  0
 15 16  1  6  0  0  0
 16 10  1  0  0  0  0
 16 17  2  0  0  0  0
 18 15  1  0  0  0  0
 19 18  1  0  0  0  0
 20 14  1  0  0  0  0
 20 19  1  6  0  0  0
M  END
>  <CHROM.1>
176.07814573,63.79976656,25.81532011,-4.58173914,43.94772543,0.83856576,-0.20205869
0.16497620

>  <Name>
1nyi_lig

>  <RI>
0

>  <Rbt.Current_Directory>
/home/itssahil/PROJECTS/Mol_Feturizer/New_Systems/rnas/1nyi

>  <Rbt.Executable>
rbdock ($Id: //depot/dev/client3/rdock/2013.1/src/exe/rbdock.cxx#4 $)

>  <Rbt.Library>
libRbt.so (2013.1, Build901 2013/11/27)

>  <Rbt.Parameter_File>
/export/apps/rDock/src/rDock_2013.1_src/data/scripts/dock_solv.prm

>  <Rbt.Receptor>
prm/pocket_docking_3.prm

>  <SCORE>
-9.96669

>  <SCORE.INTER>
-8.41406

>  <SCORE.INTER.CONST>
1

>  <SCORE.INTER.POLAR>
-0.664039

>  <SCORE.INTER.ROT>
2

>  <SCORE.INTER.SOLV>
11.7405

>  <SCORE.INTER.VDW>
-12.2427

>  <SCORE.INTER.norm>
-0.420703

>  <SCORE.INTRA>
-1.55262

>  <SCORE.INTRA.DIHEDRAL>
-2.44038

>  <SCORE.INTRA.DIHEDRAL.0>
3.72394

>  <SCORE.INTRA.POLAR>
0

>  <SCORE.INTRA.POLAR.0>
0

>  <SCORE.INTRA.REPUL>
0

>  <SCORE.INTRA.REPUL.0>
0

>  <SCORE.INTRA.SOLV>
1.72883

>  <SCORE.INTRA.SOLV.lig_0>
-49.4697

>  <SCORE.INTRA.VDW>
-1.19685

>  <SCORE.INTRA.VDW.0>
-0.896538

>  <SCORE.INTRA.norm>
-0.0776312

>  <SCORE.RESTR>
0

>  <SCORE.RESTR.CAVITY>
0

>  <SCORE.RESTR.norm>
0

>  <SCORE.SYSTEM>
0

>  <SCORE.SYSTEM.CONST>
0

>  <SCORE.SYSTEM.DIHEDRAL>
0

>  <SCORE.SYSTEM.SOLV>
0

>  <SCORE.SYSTEM.norm>
0

>  <SCORE.heavy>
20

>  <SCORE.norm>
-0.498334

>  <RMSD>
2.732

$$$$
1nyi_lig
 OpenBabel11021811403D
libRbt.so/2013.1/901 2013/11/27
 20 22  0  0  0  0  0  0  0  0999 V2000
   25.7787   -2.3368   45.8105 C   0  0  0  0  0  0  0  0  0  0  0  0
   25.5807   -0.9500   45.5352 O   0  0  0  0  0  0  0  0  0  0  0  0
   27.1407   -2.7919   45.3353 C   0  0  1  0  0  0  0  0  0  0  0  0
   27.3402   -4.1756   45.7324 O   0  0  0  0  0  0  0  0  0  0  0  0
   27.2664   -2.7726   43.8159 C   0  0  1  0  0  0  0  0  0  0  0  0
   27.7621   -1.5179   43.3468 O   0  0  0  0  0  0  0  0  0  0  0  0
   28.2154   -3.9406   43.5552 C   0  0  1  0  0  0  0  0  0  0  0  0
   29.5773   -3.6164   43.7916 O   0  0  0  0  0  0  0  0  0  0  0  0
   27.7252   -4.9428   44.5980 C   0  0  2  0  0  0  0  0  0  0  0  0
   22.8786   -5.4813   42.9518 N   0  0  0  0  0  0  0  0  0  0  0  0
   23.5694   -4.3385   43.2740 C   0  0  1  0  0  0  0  0  0  0  0  0
   22.8878   -3.1995   43.1423 N   0  0  0  0  0  0  0  0  0  0  0  0
   24.8303   -4.3148   43.6963 N   0  0  0  0  0  0  0  0  0  0  0  0
   25.3700   -5.5654   43.7855 C   0  0  1  0  0  0  0  0  0  0  0  0
   24.7587   -6.7700   43.4853 C   0  0  1  0  0  0  0  0  0  0  0  0
   23.4123   -6.7677   43.0255 C   0  0  0  0  0  0  0  0  0  0  0  0
   22.7042   -7.7318   42.7080 O   0  0  0  0  0  0  0  0  0  0  0  0
   25.6374   -7.8266   43.6868 N   0  0  0  0  0  0  0  0  0  0  0  0
   26.7367   -7.2602   44.1024 C   0  0  0  0  0  0  0  0  0  0  0  0
   26.6574   -5.8881   44.1977 N   0  0  1  0  0  0  0  0  0  0  0  0
  2  1  1  0  0  0  0
  3  1  1  6  0  0  0
  3  4  1  0  0  0  0
  3  5  1  0  0  0  0
  5  6  1  1  0  0  0
  5  7  1  0  0  0  0
  7  8  1  1  0  0  0
  7  9  1  0  0  0  0
  9  4  1  1  0  0  0
  9 20  1  0  0  0  0
 10 11  1  0  0  0  0
 11 12  1  1  0  0  0
 11 13  1  0  0  0  0
 14 13  1  6  0  0  0
 15 14  1  0  0  0  0
 15 16  1  6  0  0  0
 16 10  1  0  0  0  0
 16 17  2  0  0  0  0
 18 15  1  0  0  0  0
 19 18  1  0  0  0  0
 20 14  1  0  0  0  0
 20 19  1  6  0  0  0
M  END
>  <CHROM.1>
175.41568778,61.28435465,25.82450890,-4.56232928,43.99437575,0.83862158,-0.16631001
0.18231980

>  <Name>
1nyi_lig

>  <RI>
0

>  <Rbt.Current_Directory>
/home/itssahil/PROJECTS/Mol_Feturizer/New_Systems/rnas/1nyi

>  <Rbt.Executable>
rbdock ($Id: //depot/dev/client3/rdock/2013.1/src/exe/rbdock.cxx#4 $)

>  <Rbt.Library>
libRbt.so (2013.1, Build901 2013/11/27)

>  <Rbt.Parameter_File>
/export/apps/rDock/src/rDock_2013.1_src/data/scripts/dock_solv.prm

>  <Rbt.Receptor>
prm/pocket_docking_3.prm

>  <SCORE>
-9.9074

>  <SCORE.INTER>
-8.36933

>  <SCORE.INTER.CONST>
1

>  <SCORE.INTER.POLAR>
-0.686246

>  <SCORE.INTER.ROT>
2

>  <SCORE.INTER.SOLV>
11.3871

>  <SCORE.INTER.VDW>
-12.0211

>  <SCORE.INTER.norm>
-0.418466

>  <SCORE.INTRA>
-1.53808

>  <SCORE.INTRA.DIHEDRAL>
-2.43231

>  <SCORE.INTRA.DIHEDRAL.0>
3.72394

>  <SCORE.INTRA.POLAR>
0

>  <SCORE.INTRA.POLAR.0>
0

>  <SCORE.INTRA.REPUL>
0

>  <SCORE.INTRA.REPUL.0>
0

>  <SCORE.INTRA.SOLV>
1.81613

>  <SCORE.INTRA.SOLV.lig_0>
-49.4697

>  <SCORE.INTRA.VDW>
-1.22998

>  <SCORE.INTRA.VDW.0>
-0.896538

>  <SCORE.INTRA.norm>
-0.0769038

>  <SCORE.RESTR>
0

>  <SCORE.RESTR.CAVITY>
0

>  <SCORE.RESTR.norm>
0

>  <SCORE.SYSTEM>
0

>  <SCORE.SYSTEM.CONST>
0

>  <SCORE.SYSTEM.DIHEDRAL>
0

>  <SCORE.SYSTEM.SOLV>
0

>  <SCORE.SYSTEM.norm>
0

>  <SCORE.heavy>
20

>  <SCORE.norm>
-0.49537

>  <RMSD>
2.732

$$$$
1nyi_lig
 OpenBabel11021811403D
libRbt.so/2013.1/901 2013/11/27
 20 22  0  0  0  0  0  0  0  0999 V2000
   25.7441   -2.3408   45.7861 C   0  0  0  0  0  0  0  0  0  0  0  0
   25.5546   -0.9600   45.4771 O   0  0  0  0  0  0  0  0  0  0  0  0
   27.1037   -2.8155   45.3232 C   0  0  1  0  0  0  0  0  0  0  0  0
   27.2852   -4.1976   45.7342 O   0  0  0  0  0  0  0  0  0  0  0  0
   27.2384   -2.8117   43.8046 C   0  0  1  0  0  0  0  0  0  0  0  0
   27.7510   -1.5669   43.3269 O   0  0  0  0  0  0  0  0  0  0  0  0
   28.1757   -3.9925   43.5602 C   0  0  1  0  0  0  0  0  0  0  0  0
   29.5397   -3.6814   43.8017 O   0  0  0  0  0  0  0  0  0  0  0  0
   27.6682   -4.9795   44.6092 C   0  0  2  0  0  0  0  0  0  0  0  0
   22.8834   -5.4776   42.7797 N   0  0  0  0  0  0  0  0  0  0  0  0
   23.5919   -4.3377   43.0729 C   0  0  1  0  0  0  0  0  0  0  0  0
   22.9491   -3.1899   42.8526 N   0  0  0  0  0  0  0  0  0  0  0  0
   24.8336   -4.3247   43.5489 N   0  0  0  0  0  0  0  0  0  0  0  0
   25.3334   -5.5825   43.7262 C   0  0  1  0  0  0  0  0  0  0  0  0
   24.7016   -6.7849   43.4618 C   0  0  1  0  0  0  0  0  0  0  0  0
   23.3767   -6.7718   42.9433 C   0  0  0  0  0  0  0  0  0  0  0  0
   22.6559   -7.7325   42.6448 O   0  0  0  0  0  0  0  0  0  0  0  0
   25.5406   -7.8519   43.7563 N   0  0  0  0  0  0  0  0  0  0  0  0
   26.6366   -7.2933   44.1904 C   0  0  0  0  0  0  0  0  0  0  0  0
   26.5922   -5.9164   44.2113 N   0  0  1  0  0  0  0  0  0  0  0  0
  2  1  1  0  0  0  0
  3  1  1  6  0  0  0
  3  4  1  0  0  0  0
  3  5  1  0  0  0  0
  5  6  1  1  0  0  0
  5  7  1  0  0  0  0
  7  8  1  1  0  0  0
  7  9  1  0  0  0  0
  9  4  1  1  0  0  0
  9 20  1  0  0  0  0
 10 11  1  0  0  0  0
 11 12  1  1  0  0  0
 11 13  1  0  0  0  0
 14 13  1  6  0  0  0
 15 14  1  0  0  0  0
 15 16  1  6  0  0  0
 16 10  1  0  0  0  0
 16 17  2  0  0  0  0
 18 15  1  0  0  0  0
 19 18  1  0  0  0  0
 20 14  1  0  0  0  0
 20 19  1  6  0  0  0
M  END
>  <CHROM.1>
176.37667538,64.68886792,25.79073699,-4.58364514,43.94701022,0.83049555,-0.21859266
0.15196647

>  <Name>
1nyi_lig

>  <RI>
0

>  <Rbt.Current_Directory>
/home/itssahil/PROJECTS/Mol_Feturizer/New_Systems/rnas/1nyi

>  <Rbt.Executable>
rbdock ($Id: //depot/dev/client3/rdock/2013.1/src/exe/rbdock.cxx#4 $)

>  <Rbt.Library>
libRbt.so (2013.1, Build901 2013/11/27)

>  <Rbt.Parameter_File>
/export/apps/rDock/src/rDock_2013.1_src/data/scripts/dock_solv.prm

>  <Rbt.Receptor>
prm/pocket_docking_3.prm

>  <SCORE>
-9.96967

>  <SCORE.INTER>
-8.40901

>  <SCORE.INTER.CONST>
1

>  <SCORE.INTER.POLAR>
-0.677924

>  <SCORE.INTER.ROT>
2

>  <SCORE.INTER.SOLV>
11.6789

>  <SCORE.INTER.VDW>
-12.1726

>  <SCORE.INTER.norm>
-0.42045

>  <SCORE.INTRA>
-1.56066

>  <SCORE.INTRA.DIHEDRAL>
-2.44415

>  <SCORE.INTRA.DIHEDRAL.0>
3.72394

>  <SCORE.INTRA.POLAR>
0

>  <SCORE.INTRA.POLAR.0>
0

>  <SCORE.INTRA.REPUL>
0

>  <SCORE.INTRA.REPUL.0>
0

>  <SCORE.INTRA.SOLV>
1.69634

>  <SCORE.INTRA.SOLV.lig_0>
-49.4697

>  <SCORE.INTRA.VDW>
-1.18676

>  <SCORE.INTRA.VDW.0>
-0.896538

>  <SCORE.INTRA.norm>
-0.0780331

>  <SCORE.RESTR>
0

>  <SCORE.RESTR.CAVITY>
0

>  <SCORE.RESTR.norm>
0

>  <SCORE.SYSTEM>
0

>  <SCORE.SYSTEM.CONST>
0

>  <SCORE.SYSTEM.DIHEDRAL>
0

>  <SCORE.SYSTEM.SOLV>
0

>  <SCORE.SYSTEM.norm>
0

>  <SCORE.heavy>
20

>  <SCORE.norm>
-0.498483

>  <RMSD>
2.733

$$$$
1nyi_lig
 OpenBabel11021811403D
libRbt.so/2013.1/901 2013/11/27
 20 22  0  0  0  0  0  0  0  0999 V2000
   25.7474   -2.3584   45.7990 C   0  0  0  0  0  0  0  0  0  0  0  0
   25.5424   -0.9779   45.4986 O   0  0  0  0  0  0  0  0  0  0  0  0
   27.1045   -2.8197   45.3158 C   0  0  1  0  0  0  0  0  0  0  0  0
   27.3002   -4.2042   45.7124 O   0  0  0  0  0  0  0  0  0  0  0  0
   27.2212   -2.8017   43.7958 C   0  0  1  0  0  0  0  0  0  0  0  0
   27.7197   -1.5494   43.3231 O   0  0  0  0  0  0  0  0  0  0  0  0
   28.1635   -3.9739   43.5299 C   0  0  1  0  0  0  0  0  0  0  0  0
   29.5281   -3.6557   43.7580 O   0  0  0  0  0  0  0  0  0  0  0  0
   27.6750   -4.9735   44.5760 C   0  0  2  0  0  0  0  0  0  0  0  0
   22.8777   -5.4882   42.7843 N   0  0  0  0  0  0  0  0  0  0  0  0
   23.5826   -4.3460   43.0771 C   0  0  1  0  0  0  0  0  0  0  0  0
   22.9319   -3.2006   42.8678 N   0  0  0  0  0  0  0  0  0  0  0  0
   24.8282   -4.3287   43.5427 N   0  0  0  0  0  0  0  0  0  0  0  0
   25.3361   -5.5847   43.7098 C   0  0  1  0  0  0  0  0  0  0  0  0
   24.7084   -6.7891   43.4447 C   0  0  1  0  0  0  0  0  0  0  0  0
   23.3792   -6.7806   42.9374 C   0  0  0  0  0  0  0  0  0  0  0  0
   22.6610   -7.7436   42.6403 O   0  0  0  0  0  0  0  0  0  0  0  0
   25.5555   -7.8531   43.7270 N   0  0  0  0  0  0  0  0  0  0  0  0
   26.6522   -7.2907   44.1547 C   0  0  0  0  0  0  0  0  0  0  0  0
   26.6007   -5.9143   44.1826 N   0  0  1  0  0  0  0  0  0  0  0  0
  2  1  1  0  0  0  0
  3  1  1  6  0  0  0
  3  4  1  0  0  0  0
  3  5  1  0  0  0  0
  5  6  1  1  0  0  0
  5  7  1  0  0  0  0
  7  8  1  1  0  0  0
  7  9  1  0  0  0  0
  9  4  1  1  0  0  0
  9 20  1  0  0  0  0
 10 11  1  0  0  0  0
 11 12  1  1  0  0  0
 11 13  1  0  0  0  0
 14 13  1  6  0  0  0
 15 14  1  0  0  0  0
 15 16  1  6  0  0  0
 16 10  1  0  0  0  0
 16 17  2  0  0  0  0
 18 15  1  0  0  0  0
 19 18  1  0  0  0  0
 20 14  1  0  0  0  0
 20 19  1  6  0  0  0
M  END
>  <CHROM.1>
176.65934234,65.00187118,25.78856390,-4.58482532,43.93539095,0.83540919,-0.21007719
0.15973419

>  <Name>
1nyi_lig

>  <RI>
0

>  <Rbt.Current_Directory>
/home/itssahil/PROJECTS/Mol_Feturizer/New_Systems/rnas/1nyi

>  <Rbt.Executable>
rbdock ($Id: //depot/dev/client3/rdock/2013.1/src/exe/rbdock.cxx#4 $)

>  <Rbt.Library>
libRbt.so (2013.1, Build901 2013/11/27)

>  <Rbt.Parameter_File>
/export/apps/rDock/src/rDock_2013.1_src/data/scripts/dock_solv.prm

>  <Rbt.Receptor>
prm/pocket_docking_3.prm

>  <SCORE>
-9.97964

>  <SCORE.INTER>
-8.4178

>  <SCORE.INTER.CONST>
1

>  <SCORE.INTER.POLAR>
-0.673033

>  <SCORE.INTER.ROT>
2

>  <SCORE.INTER.SOLV>
11.7884

>  <SCORE.INTER.VDW>
-12.2312

>  <SCORE.INTER.norm>
-0.42089

>  <SCORE.INTRA>
-1.56185

>  <SCORE.INTRA.DIHEDRAL>
-2.44951

>  <SCORE.INTRA.DIHEDRAL.0>
3.72394

>  <SCORE.INTRA.POLAR>
0

>  <SCORE.INTRA.POLAR.0>
0

>  <SCORE.INTRA.REPUL>
0

>  <SCORE.INTRA.REPUL.0>
0

>  <SCORE.INTRA.SOLV>
1.69022

>  <SCORE.INTRA.SOLV.lig_0>
-49.4697

>  <SCORE.INTRA.VDW>
-1.1822

>  <SCORE.INTRA.VDW.0>
-0.896538

>  <SCORE.INTRA.norm>
-0.0780923

>  <SCORE.RESTR>
0

>  <SCORE.RESTR.CAVITY>
0

>  <SCORE.RESTR.norm>
0

>  <SCORE.SYSTEM>
0

>  <SCORE.SYSTEM.CONST>
0

>  <SCORE.SYSTEM.DIHEDRAL>
0

>  <SCORE.SYSTEM.SOLV>
0

>  <SCORE.SYSTEM.norm>
0

>  <SCORE.heavy>
20

>  <SCORE.norm>
-0.498982

>  <RMSD>
2.735

$$$$
1nyi_lig
 OpenBabel11021811403D
libRbt.so/2013.1/901 2013/11/27
 20 22  0  0  0  0  0  0  0  0999 V2000
   25.7361   -2.3497   45.8112 C   0  0  0  0  0  0  0  0  0  0  0  0
   25.5424   -0.9610   45.5430 O   0  0  0  0  0  0  0  0  0  0  0  0
   27.0934   -2.8086   45.3262 C   0  0  1  0  0  0  0  0  0  0  0  0
   27.2894   -4.1947   45.7166 O   0  0  0  0  0  0  0  0  0  0  0  0
   27.2103   -2.7838   43.8062 C   0  0  1  0  0  0  0  0  0  0  0  0
   27.7084   -1.5292   43.3392 O   0  0  0  0  0  0  0  0  0  0  0  0
   28.1528   -3.9546   43.5352 C   0  0  1  0  0  0  0  0  0  0  0  0
   29.5174   -3.6370   43.7649 O   0  0  0  0  0  0  0  0  0  0  0  0
   27.6645   -4.9589   44.5769 C   0  0  2  0  0  0  0  0  0  0  0  0
   22.8652   -5.4669   42.7887 N   0  0  0  0  0  0  0  0  0  0  0  0
   23.5695   -4.3258   43.0875 C   0  0  1  0  0  0  0  0  0  0  0  0
   22.9175   -3.1798   42.8862 N   0  0  0  0  0  0  0  0  0  0  0  0
   24.8157   -4.3103   43.5515 N   0  0  0  0  0  0  0  0  0  0  0  0
   25.3249   -5.5668   43.7101 C   0  0  1  0  0  0  0  0  0  0  0  0
   24.6980   -6.7701   43.4386 C   0  0  1  0  0  0  0  0  0  0  0  0
   23.3681   -6.7597   42.9332 C   0  0  0  0  0  0  0  0  0  0  0  0
   22.6502   -7.7215   42.6311 O   0  0  0  0  0  0  0  0  0  0  0  0
   25.5463   -7.8351   43.7131 N   0  0  0  0  0  0  0  0  0  0  0  0
   26.6431   -7.2744   44.1427 C   0  0  0  0  0  0  0  0  0  0  0  0
   26.5905   -5.8982   44.1791 N   0  0  1  0  0  0  0  0  0  0  0  0
  2  1  1  0  0  0  0
  3  1  1  6  0  0  0
  3  4  1  0  0  0  0
  3  5  1  0  0  0  0
  5  6  1  1  0  0  0
  5  7  1  0  0  0  0
  7  8  1  1  0  0  0
  7  9  1  0  0  0  0
  9  4  1  1  0  0  0
  9 20  1  0  0  0  0
 10 11  1  0  0  0  0
 11 12  1  1  0  0  0
 11 13  1  0  0  0  0
 14 13  1  6  0  0  0
 15 14  1  0  0  0  0
 15 16  1  6  0  0  0
 16 10  1  0  0  0  0
 16 17  2  0  0  0  0
 18 15  1  0  0  0  0
 19 18  1  0  0  0  0
 20 14  1  0  0  0  0
 20 19  1  6  0  0  0
M  END
>  <CHROM.1>
175.39726866,64.86709865,25.77806020,-4.56744873,43.94094069,0.83659589,-0.20778643
0.16671957

>  <Name>
1nyi_lig

>  <RI>
0

>  <Rbt.Current_Directory>
/home/itssahil/PROJECTS/Mol_Feturizer/New_Systems/rnas/1nyi

>  <Rbt.Executable>
rbdock ($Id: //depot/dev/client3/rdock/2013.1/src/exe/rbdock.cxx#4 $)

>  <Rbt.Library>
libRbt.so (2013.1, Build901 2013/11/27)

>  <Rbt.Parameter_File>
/export/apps/rDock/src/rDock_2013.1_src/data/scripts/dock_solv.prm

>  <Rbt.Receptor>
prm/pocket_docking_3.prm

>  <SCORE>
-9.98668

>  <SCORE.INTER>
-8.43199

>  <SCORE.INTER.CONST>
1

>  <SCORE.INTER.POLAR>
-0.677184

>  <SCORE.INTER.ROT>
2

>  <SCORE.INTER.SOLV>
11.7552

>  <SCORE.INTER.VDW>
-12.2158

>  <SCORE.INTER.norm>
-0.4216

>  <SCORE.INTRA>
-1.55468

>  <SCORE.INTRA.DIHEDRAL>
-2.41558

>  <SCORE.INTRA.DIHEDRAL.0>
3.72394

>  <SCORE.INTRA.POLAR>
0

>  <SCORE.INTRA.POLAR.0>
0

>  <SCORE.INTRA.REPUL>
0

>  <SCORE.INTRA.REPUL.0>
0

>  <SCORE.INTRA.SOLV>
1.68071

>  <SCORE.INTRA.SOLV.lig_0>
-49.4697

>  <SCORE.INTRA.VDW>
-1.18725

>  <SCORE.INTRA.VDW.0>
-0.896538

>  <SCORE.INTRA.norm>
-0.0777342

>  <SCORE.RESTR>
0

>  <SCORE.RESTR.CAVITY>
0

>  <SCORE.RESTR.norm>
0

>  <SCORE.SYSTEM>
0

>  <SCORE.SYSTEM.CONST>
0

>  <SCORE.SYSTEM.DIHEDRAL>
0

>  <SCORE.SYSTEM.SOLV>
0

>  <SCORE.SYSTEM.norm>
0

>  <SCORE.heavy>
20

>  <SCORE.norm>
-0.499334

>  <RMSD>
2.738

$$$$
1nyi_lig
 OpenBabel11021811403D
libRbt.so/2013.1/901 2013/11/27
 20 22  0  0  0  0  0  0  0  0999 V2000
   25.6607   -2.3677   45.8179 C   0  0  0  0  0  0  0  0  0  0  0  0
   25.4448   -0.9810   45.5564 O   0  0  0  0  0  0  0  0  0  0  0  0
   27.0218   -2.8044   45.3232 C   0  0  1  0  0  0  0  0  0  0  0  0
   27.2395   -4.1899   45.7045 O   0  0  0  0  0  0  0  0  0  0  0  0
   27.1303   -2.7692   43.8029 C   0  0  1  0  0  0  0  0  0  0  0  0
   27.6082   -1.5050   43.3406 O   0  0  0  0  0  0  0  0  0  0  0  0
   28.0879   -3.9249   43.5202 C   0  0  1  0  0  0  0  0  0  0  0  0
   29.4490   -3.5893   43.7446 O   0  0  0  0  0  0  0  0  0  0  0  0
   27.6194   -4.9421   44.5584 C   0  0  2  0  0  0  0  0  0  0  0  0
   22.7684   -5.5122   42.9362 N   0  0  0  0  0  0  0  0  0  0  0  0
   23.4522   -4.3651   43.2584 C   0  0  1  0  0  0  0  0  0  0  0  0
   22.7613   -3.2310   43.1341 N   0  0  0  0  0  0  0  0  0  0  0  0
   24.7151   -4.3332   43.6741 N   0  0  0  0  0  0  0  0  0  0  0  0
   25.2648   -5.5800   43.7564 C   0  0  1  0  0  0  0  0  0  0  0  0
   24.6610   -6.7882   43.4555 C   0  0  1  0  0  0  0  0  0  0  0  0
   23.3122   -6.7947   43.0029 C   0  0  0  0  0  0  0  0  0  0  0  0
   22.6098   -7.7631   42.6860 O   0  0  0  0  0  0  0  0  0  0  0  0
   25.5488   -7.8387   43.6490 N   0  0  0  0  0  0  0  0  0  0  0  0
   26.6459   -7.2653   44.0606 C   0  0  0  0  0  0  0  0  0  0  0  0
   26.5567   -5.8942   44.1607 N   0  0  1  0  0  0  0  0  0  0  0  0
  2  1  1  0  0  0  0
  3  1  1  6  0  0  0
  3  4  1  0  0  0  0
  3  5  1  0  0  0  0
  5  6  1  1  0  0  0
  5  7  1  0  0  0  0
  7  8  1  1  0  0  0
  7  9  1  0  0  0  0
  9  4  1  1  0  0  0
  9 20  1  0  0  0  0
 10 11  1  0  0  0  0
 11 12  1  1  0  0  0
 11 13  1  0  0  0  0
 14 13  1  6  0  0  0
 15 14  1  0  0  0  0
 15 16  1  6  0  0  0
 16 10  1  0  0  0  0
 16 17  2  0  0  0  0
 18 15  1  0  0  0  0
 19 18  1  0  0  0  0
 20 14  1  0  0  0  0
 20 19  1  6  0  0  0
M  END
>  <CHROM.1>
175.51478880,61.80523755,25.71055339,-4.57468722,43.97295539,0.84702031,-0.16027118
0.19062007

>  <Name>
1nyi_lig

>  <RI>
0

>  <Rbt.Current_Directory>
/home/itssahil/PROJECTS/Mol_Feturizer/New_Systems/rnas/1nyi

>  <Rbt.Executable>
rbdock ($Id: //depot/dev/client3/rdock/2013.1/src/exe/rbdock.cxx#4 $)

>  <Rbt.Library>
libRbt.so (2013.1, Build901 2013/11/27)

>  <Rbt.Parameter_File>
/export/apps/rDock/src/rDock_2013.1_src/data/scripts/dock_solv.prm

>  <Rbt.Receptor>
prm/pocket_docking_4.prm

>  <SCORE>
-9.93852

>  <SCORE.INTER>
-8.39272

>  <SCORE.INTER.CONST>
1

>  <SCORE.INTER.POLAR>
-0.694936

>  <SCORE.INTER.ROT>
2

>  <SCORE.INTER.SOLV>
11.4527

>  <SCORE.INTER.VDW>
-12.0296

>  <SCORE.INTER.norm>
-0.419636

>  <SCORE.INTRA>
-1.5458

>  <SCORE.INTRA.DIHEDRAL>
-2.43305

>  <SCORE.INTRA.DIHEDRAL.0>
3.72394

>  <SCORE.INTRA.POLAR>
0

>  <SCORE.INTRA.POLAR.0>
0

>  <SCORE.INTRA.REPUL>
0

>  <SCORE.INTRA.REPUL.0>
0

>  <SCORE.INTRA.SOLV>
1.79805

>  <SCORE.INTRA.SOLV.lig_0>
-49.4697

>  <SCORE.INTRA.VDW>
-1.2283

>  <SCORE.INTRA.VDW.0>
-0.896538

>  <SCORE.INTRA.norm>
-0.0772901

>  <SCORE.RESTR>
0

>  <SCORE.RESTR.CAVITY>
0

>  <SCORE.RESTR.norm>
0

>  <SCORE.SYSTEM>
0

>  <SCORE.SYSTEM.CONST>
0

>  <SCORE.SYSTEM.DIHEDRAL>
0

>  <SCORE.SYSTEM.SOLV>
0

>  <SCORE.SYSTEM.norm>
0

>  <SCORE.heavy>
20

>  <SCORE.norm>
-0.496926

>  <RMSD>
2.739

$$$$
1nyi_lig
 OpenBabel11021811403D
libRbt.so/2013.1/901 2013/11/27
 20 22  0  0  0  0  0  0  0  0999 V2000
   25.7490   -2.3697   45.8253 C   0  0  0  0  0  0  0  0  0  0  0  0
   25.5471   -0.9869   45.5333 O   0  0  0  0  0  0  0  0  0  0  0  0
   27.1059   -2.8306   45.3411 C   0  0  1  0  0  0  0  0  0  0  0  0
   27.3000   -4.2167   45.7327 O   0  0  0  0  0  0  0  0  0  0  0  0
   27.2233   -2.8072   43.8211 C   0  0  1  0  0  0  0  0  0  0  0  0
   27.7232   -1.5536   43.3532 O   0  0  0  0  0  0  0  0  0  0  0  0
   28.1644   -3.9794   43.5514 C   0  0  1  0  0  0  0  0  0  0  0  0
   29.5293   -3.6633   43.7812 O   0  0  0  0  0  0  0  0  0  0  0  0
   27.6745   -4.9823   44.5936 C   0  0  2  0  0  0  0  0  0  0  0  0
   22.8729   -5.4856   42.8103 N   0  0  0  0  0  0  0  0  0  0  0  0
   23.5783   -4.3453   43.1093 C   0  0  1  0  0  0  0  0  0  0  0  0
   22.9269   -3.1986   42.9096 N   0  0  0  0  0  0  0  0  0  0  0  0
   24.8251   -4.3309   43.5719 N   0  0  0  0  0  0  0  0  0  0  0  0
   25.3336   -5.5879   43.7290 C   0  0  1  0  0  0  0  0  0  0  0  0
   24.7055   -6.7906   43.4571 C   0  0  1  0  0  0  0  0  0  0  0  0
   23.3751   -6.7788   42.9532 C   0  0  0  0  0  0  0  0  0  0  0  0
   22.6563   -7.7399   42.6512 O   0  0  0  0  0  0  0  0  0  0  0  0
   25.5535   -7.8563   43.7299 N   0  0  0  0  0  0  0  0  0  0  0  0
   26.6511   -7.2967   44.1587 C   0  0  0  0  0  0  0  0  0  0  0  0
   26.5994   -5.9205   44.1963 N   0  0  1  0  0  0  0  0  0  0  0  0
  2  1  1  0  0  0  0
  3  1  1  6  0  0  0
  3  4  1  0  0  0  0
  3  5  1  0  0  0  0
  5  6  1  1  0  0  0
  5  7  1  0  0  0  0
  7  8  1  1  0  0  0
  7  9  1  0  0  0  0
  9  4  1  1  0  0  0
  9 20  1  0  0  0  0
 10 11  1  0  0  0  0
 11 12  1  1  0  0  0
 11 13  1  0  0  0  0
 14 13  1  6  0  0  0
 15 14  1  0  0  0  0
 15 16  1  6  0  0  0
 16 10  1  0  0  0  0
 16 17  2  0  0  0  0
 18 15  1  0  0  0  0
 19 18  1  0  0  0  0
 20 14  1  0  0  0  0
 20 19  1  6  0  0  0
M  END
>  <CHROM.1>
176.49306360,64.73979522,25.78758639,-4.58924662,43.95711347,0.83441286,-0.20712816
0.16482508

>  <Name>
1nyi_lig

>  <RI>
0

>  <Rbt.Current_Directory>
/home/itssahil/PROJECTS/Mol_Feturizer/New_Systems/rnas/1nyi

>  <Rbt.Executable>
rbdock ($Id: //depot/dev/client3/rdock/2013.1/src/exe/rbdock.cxx#4 $)

>  <Rbt.Library>
libRbt.so (2013.1, Build901 2013/11/27)

>  <Rbt.Parameter_File>
/export/apps/rDock/src/rDock_2013.1_src/data/scripts/dock_solv.prm

>  <Rbt.Receptor>
prm/pocket_docking_4.prm

>  <SCORE>
-9.97465

>  <SCORE.INTER>
-8.41392

>  <SCORE.INTER.CONST>
1

>  <SCORE.INTER.POLAR>
-0.678255

>  <SCORE.INTER.ROT>
2

>  <SCORE.INTER.SOLV>
11.6037

>  <SCORE.INTER.VDW>
-12.1496

>  <SCORE.INTER.norm>
-0.420696

>  <SCORE.INTRA>
-1.56073

>  <SCORE.INTRA.DIHEDRAL>
-2.44677

>  <SCORE.INTRA.DIHEDRAL.0>
3.72394

>  <SCORE.INTRA.POLAR>
0

>  <SCORE.INTRA.POLAR.0>
0

>  <SCORE.INTRA.REPUL>
0

>  <SCORE.INTRA.REPUL.0>
0

>  <SCORE.INTRA.SOLV>
1.69698

>  <SCORE.INTRA.SOLV.lig_0>
-49.4697

>  <SCORE.INTRA.VDW>
-1.18584

>  <SCORE.INTRA.VDW.0>
-0.896538

>  <SCORE.INTRA.norm>
-0.0780364

>  <SCORE.RESTR>
0

>  <SCORE.RESTR.CAVITY>
0

>  <SCORE.RESTR.norm>
0

>  <SCORE.SYSTEM>
0

>  <SCORE.SYSTEM.CONST>
0

>  <SCORE.SYSTEM.DIHEDRAL>
0

>  <SCORE.SYSTEM.SOLV>
0

>  <SCORE.SYSTEM.norm>
0

>  <SCORE.heavy>
20

>  <SCORE.norm>
-0.498733

>  <RMSD>
2.741

$$$$
1nyi_lig
 OpenBabel11021811403D
libRbt.so/2013.1/901 2013/11/27
 20 22  0  0  0  0  0  0  0  0999 V2000
   25.8483   -2.2467   45.5989 C   0  0  0  0  0  0  0  0  0  0  0  0
   24.9171   -3.3248   45.5062 O   0  0  0  0  0  0  0  0  0  0  0  0
   27.2136   -2.6691   45.1033 C   0  0  1  0  0  0  0  0  0  0  0  0
   27.4992   -4.0074   45.5928 O   0  0  0  0  0  0  0  0  0  0  0  0
   27.2818   -2.7586   43.5828 C   0  0  1  0  0  0  0  0  0  0  0  0
   27.6939   -1.5201   43.0027 O   0  0  0  0  0  0  0  0  0  0  0  0
   28.2799   -3.8950   43.3703 C   0  0  1  0  0  0  0  0  0  0  0  0
   29.6309   -3.4874   43.5263 O   0  0  0  0  0  0  0  0  0  0  0  0
   27.8813   -4.8383   44.5031 C   0  0  2  0  0  0  0  0  0  0  0  0
   23.1699   -5.7715   42.6535 N   0  0  0  0  0  0  0  0  0  0  0  0
   23.8300   -4.5755   42.7983 C   0  0  1  0  0  0  0  0  0  0  0  0
   23.1543   -3.4956   42.4030 N   0  0  0  0  0  0  0  0  0  0  0  0
   25.0567   -4.4482   43.2960 N   0  0  0  0  0  0  0  0  0  0  0  0
   25.5944   -5.6484   43.6612 C   0  0  1  0  0  0  0  0  0  0  0  0
   25.0123   -6.8993   43.5554 C   0  0  1  0  0  0  0  0  0  0  0  0
   23.7029   -7.0100   43.0101 C   0  0  0  0  0  0  0  0  0  0  0  0
   23.0244   -8.0300   42.8343 O   0  0  0  0  0  0  0  0  0  0  0  0
   25.8791   -7.8814   44.0173 N   0  0  0  0  0  0  0  0  0  0  0  0
   26.9425   -7.2257   44.3929 C   0  0  0  0  0  0  0  0  0  0  0  0
   26.8500   -5.8624   44.2174 N   0  0  1  0  0  0  0  0  0  0  0  0
  2  1  1  0  0  0  0
  3  1  1  6  0  0  0
  3  4  1  0  0  0  0
  3  5  1  0  0  0  0
  5  6  1  6  0  0  0
  5  7  1  0  0  0  0
  7  8  1  1  0  0  0
  7  9  1  0  0  0  0
  9  4  1  1  0  0  0
  9 20  1  0  0  0  0
 10 11  1  0  0  0  0
 11 12  1  1  0  0  0
 11 13  1  0  0  0  0
 14 13  1  6  0  0  0
 15 14  1  0  0  0  0
 15 16  1  6  0  0  0
 16 10  1  0  0  0  0
 16 17  2  0  0  0  0
 18 15  1  0  0  0  0
 19 18  1  0  0  0  0
 20 14  1  0  0  0  0
 20 19  1  6  0  0  0
M  END
>  <CHROM.1>
-41.59667244,70.83072154,25.94852019,-4.74656750,43.84740158,0.76813391,-0.25250303
0.02638101

>  <Name>
1nyi_lig

>  <RI>
0

>  <Rbt.Current_Directory>
/home/itssahil/PROJECTS/Mol_Feturizer/New_Systems/rnas/1nyi

>  <Rbt.Executable>
rbdock ($Id: //depot/dev/client3/rdock/2013.1/src/exe/rbdock.cxx#4 $)

>  <Rbt.Library>
libRbt.so (2013.1, Build901 2013/11/27)

>  <Rbt.Parameter_File>
/export/apps/rDock/src/rDock_2013.1_src/data/scripts/dock_solv.prm

>  <Rbt.Receptor>
prm/pocket_docking_2.prm

>  <SCORE>
-6.66914

>  <SCORE.INTER>
-7.36963

>  <SCORE.INTER.CONST>
1

>  <SCORE.INTER.POLAR>
-0.564604

>  <SCORE.INTER.ROT>
2

>  <SCORE.INTER.SOLV>
11.2137

>  <SCORE.INTER.VDW>
-11.7023

>  <SCORE.INTER.norm>
-0.368482

>  <SCORE.INTRA>
0.17361

>  <SCORE.INTRA.DIHEDRAL>
-1.32182

>  <SCORE.INTRA.DIHEDRAL.0>
3.72394

>  <SCORE.INTRA.POLAR>
0

>  <SCORE.INTRA.POLAR.0>
0

>  <SCORE.INTRA.REPUL>
0

>  <SCORE.INTRA.REPUL.0>
0

>  <SCORE.INTRA.SOLV>
3.32102

>  <SCORE.INTRA.SOLV.lig_0>
-49.4697

>  <SCORE.INTRA.VDW>
-0.825989

>  <SCORE.INTRA.VDW.0>
-0.896538

>  <SCORE.INTRA.norm>
0.00868051

>  <SCORE.RESTR>
0.526883

>  <SCORE.RESTR.CAVITY>
0.526883

>  <SCORE.RESTR.norm>
0.0263441

>  <SCORE.SYSTEM>
0

>  <SCORE.SYSTEM.CONST>
0

>  <SCORE.SYSTEM.DIHEDRAL>
0

>  <SCORE.SYSTEM.SOLV>
0

>  <SCORE.SYSTEM.norm>
0

>  <SCORE.heavy>
20

>  <SCORE.norm>
-0.333457

>  <RMSD>
2.747

$$$$
1nyi_lig
 OpenBabel11021811403D
libRbt.so/2013.1/901 2013/11/27
 20 22  0  0  0  0  0  0  0  0999 V2000
   28.6163   -5.0847   45.4785 C   0  0  0  0  0  0  0  0  0  0  0  0
   29.7359   -5.6001   44.7583 O   0  0  0  0  0  0  0  0  0  0  0  0
   28.2618   -3.6937   45.0013 C   0  0  1  0  0  0  0  0  0  0  0  0
   27.7421   -3.7786   43.6467 O   0  0  0  0  0  0  0  0  0  0  0  0
   27.1549   -3.0548   45.8326 C   0  0  1  0  0  0  0  0  0  0  0  0
   27.6865   -2.3082   46.9281 O   0  0  0  0  0  0  0  0  0  0  0  0
   26.4314   -2.1930   44.7998 C   0  0  1  0  0  0  0  0  0  0  0  0
   27.0983   -0.9693   44.5286 O   0  0  0  0  0  0  0  0  0  0  0  0
   26.4905   -3.1059   43.5770 C   0  0  2  0  0  0  0  0  0  0  0  0
   24.9599   -8.0149   43.7965 N   0  0  0  0  0  0  0  0  0  0  0  0
   26.1957   -7.4732   44.0544 C   0  0  1  0  0  0  0  0  0  0  0  0
   27.1399   -8.3437   44.4147 N   0  0  0  0  0  0  0  0  0  0  0  0
   26.4841   -6.1782   43.9625 N   0  0  0  0  0  0  0  0  0  0  0  0
   25.4085   -5.4348   43.5702 C   0  0  1  0  0  0  0  0  0  0  0  0
   24.1308   -5.8854   43.2888 C   0  0  1  0  0  0  0  0  0  0  0  0
   23.8450   -7.2743   43.4045 C   0  0  0  0  0  0  0  0  0  0  0  0
   22.7746   -7.8610   43.2003 O   0  0  0  0  0  0  0  0  0  0  0  0
   23.3058   -4.8246   42.9378 N   0  0  0  0  0  0  0  0  0  0  0  0
   24.0791   -3.7760   43.0033 C   0  0  0  0  0  0  0  0  0  0  0  0
   25.3755   -4.0595   43.3735 N   0  0  1  0  0  0  0  0  0  0  0  0
  2  1  1  0  0  0  0
  3  1  1  1  0  0  0
  3  4  1  0  0  0  0
  3  5  1  0  0  0  0
  5  6  1  1  0  0  0
  5  7  1  0  0  0  0
  7  8  1  6  0  0  0
  7  9  1  0  0  0  0
  9  4  1  1  0  0  0
  9 20  1  0  0  0  0
 10 11  1  0  0  0  0
 11 12  1  6  0  0  0
 11 13  1  0  0  0  0
 14 13  1  1  0  0  0
 15 14  1  0  0  0  0
 15 16  1  1  0  0  0
 16 10  1  0  0  0  0
 16 17  2  0  0  0  0
 18 15  1  0  0  0  0
 19 18  1  0  0  0  0
 20 14  1  0  0  0  0
 20 19  1  1  0  0  0
M  END
>  <CHROM.1>
68.32275591,16.48123358,26.18902065,-4.91252544,44.19566592,-0.86753178,0.39348751
-3.06767560

>  <Name>
1nyi_lig

>  <RI>
0

>  <Rbt.Current_Directory>
/home/itssahil/PROJECTS/Mol_Feturizer/New_Systems/rnas/1nyi

>  <Rbt.Executable>
rbdock ($Id: //depot/dev/client3/rdock/2013.1/src/exe/rbdock.cxx#4 $)

>  <Rbt.Library>
libRbt.so (2013.1, Build901 2013/11/27)

>  <Rbt.Parameter_File>
/export/apps/rDock/src/rDock_2013.1_src/data/scripts/dock_solv.prm

>  <Rbt.Receptor>
prm/pocket_docking_3.prm

>  <SCORE>
-8.49579

>  <SCORE.INTER>
-7.70691

>  <SCORE.INTER.CONST>
1

>  <SCORE.INTER.POLAR>
-0.747765

>  <SCORE.INTER.ROT>
2

>  <SCORE.INTER.SOLV>
9.80072

>  <SCORE.INTER.VDW>
-10.8456

>  <SCORE.INTER.norm>
-0.385346

>  <SCORE.INTRA>
-0.788956

>  <SCORE.INTRA.DIHEDRAL>
-2.31148

>  <SCORE.INTRA.DIHEDRAL.0>
3.72394

>  <SCORE.INTRA.POLAR>
0

>  <SCORE.INTRA.POLAR.0>
0

>  <SCORE.INTRA.REPUL>
0

>  <SCORE.INTRA.REPUL.0>
0

>  <SCORE.INTRA.SOLV>
2.10541

>  <SCORE.INTRA.SOLV.lig_0>
-49.4697

>  <SCORE.INTRA.VDW>
-0.685922

>  <SCORE.INTRA.VDW.0>
-0.896538

>  <SCORE.INTRA.norm>
-0.0394478

>  <SCORE.RESTR>
7.6216e-05

>  <SCORE.RESTR.CAVITY>
7.6216e-05

>  <SCORE.RESTR.norm>
3.8108e-06

>  <SCORE.SYSTEM>
0

>  <SCORE.SYSTEM.CONST>
0

>  <SCORE.SYSTEM.DIHEDRAL>
0

>  <SCORE.SYSTEM.SOLV>
0

>  <SCORE.SYSTEM.norm>
0

>  <SCORE.heavy>
20

>  <SCORE.norm>
-0.42479

>  <RMSD>
2.750

$$$$
1nyi_lig
 OpenBabel11021811403D
libRbt.so/2013.1/901 2013/11/27
 20 22  0  0  0  0  0  0  0  0999 V2000
   28.6002   -5.0785   45.4807 C   0  0  0  0  0  0  0  0  0  0  0  0
   29.6916   -5.6003   44.7228 O   0  0  0  0  0  0  0  0  0  0  0  0
   28.2444   -3.6815   45.0225 C   0  0  1  0  0  0  0  0  0  0  0  0
   27.7332   -3.7472   43.6636 O   0  0  0  0  0  0  0  0  0  0  0  0
   27.1305   -3.0585   45.8566 C   0  0  1  0  0  0  0  0  0  0  0  0
   27.6532   -2.3271   46.9666 O   0  0  0  0  0  0  0  0  0  0  0  0
   26.4108   -2.1832   44.8326 C   0  0  1  0  0  0  0  0  0  0  0  0
   27.0756   -0.9536   44.5842 O   0  0  0  0  0  0  0  0  0  0  0  0
   26.4801   -3.0772   43.5964 C   0  0  2  0  0  0  0  0  0  0  0  0
   24.9473   -7.9869   43.7817 N   0  0  0  0  0  0  0  0  0  0  0  0
   26.1781   -7.4452   44.0626 C   0  0  1  0  0  0  0  0  0  0  0  0
   27.1160   -8.3159   44.4387 N   0  0  0  0  0  0  0  0  0  0  0  0
   26.4677   -6.1500   43.9776 N   0  0  0  0  0  0  0  0  0  0  0  0
   25.3992   -5.4064   43.5670 C   0  0  1  0  0  0  0  0  0  0  0  0
   24.1268   -5.8569   43.2620 C   0  0  1  0  0  0  0  0  0  0  0  0
   23.8394   -7.2461   43.3707 C   0  0  0  0  0  0  0  0  0  0  0  0
   22.7731   -7.8328   43.1464 O   0  0  0  0  0  0  0  0  0  0  0  0
   23.3079   -4.7959   42.8976 N   0  0  0  0  0  0  0  0  0  0  0  0
   24.0796   -3.7472   42.9784 C   0  0  0  0  0  0  0  0  0  0  0  0
   25.3692   -4.0308   43.3716 N   0  0  1  0  0  0  0  0  0  0  0  0
  2  1  1  0  0  0  0
  3  1  1  1  0  0  0
  3  4  1  0  0  0  0
  3  5  1  0  0  0  0
  5  6  1  1  0  0  0
  5  7  1  0  0  0  0
  7  8  1  6  0  0  0
  7  9  1  0  0  0  0
  9  4  1  1  0  0  0
  9 20  1  0  0  0  0
 10 11  1  0  0  0  0
 11 12  1  6  0  0  0
 11 13  1  0  0  0  0
 14 13  1  1  0  0  0
 15 14  1  0  0  0  0
 15 16  1  1  0  0  0
 16 10  1  0  0  0  0
 16 17  2  0  0  0  0
 18 15  1  0  0  0  0
 19 18  1  0  0  0  0
 20 14  1  0  0  0  0
 20 19  1  1  0  0  0
M  END
>  <CHROM.1>
65.99097005,17.53854665,26.17406610,-4.89323880,44.19693387,-0.86748709,0.40299494
-3.06266354

>  <Name>
1nyi_lig

>  <RI>
0

>  <Rbt.Current_Directory>
/home/itssahil/PROJECTS/Mol_Feturizer/New_Systems/rnas/1nyi

>  <Rbt.Executable>
rbdock ($Id: //depot/dev/client3/rdock/2013.1/src/exe/rbdock.cxx#4 $)

>  <Rbt.Library>
libRbt.so (2013.1, Build901 2013/11/27)

>  <Rbt.Parameter_File>
/export/apps/rDock/src/rDock_2013.1_src/data/scripts/dock_solv.prm

>  <Rbt.Receptor>
prm/pocket_docking_3.prm

>  <SCORE>
-8.46878

>  <SCORE.INTER>
-7.68559

>  <SCORE.INTER.CONST>
1

>  <SCORE.INTER.POLAR>
-0.747111

>  <SCORE.INTER.ROT>
2

>  <SCORE.INTER.SOLV>
9.72553

>  <SCORE.INTER.VDW>
-10.8085

>  <SCORE.INTER.norm>
-0.38428

>  <SCORE.INTRA>
-0.783514

>  <SCORE.INTRA.DIHEDRAL>
-2.4338

>  <SCORE.INTRA.DIHEDRAL.0>
3.72394

>  <SCORE.INTRA.POLAR>
0

>  <SCORE.INTRA.POLAR.0>
0

>  <SCORE.INTRA.REPUL>
0

>  <SCORE.INTRA.REPUL.0>
0

>  <SCORE.INTRA.SOLV>
2.19493

>  <SCORE.INTRA.SOLV.lig_0>
-49.4697

>  <SCORE.INTRA.VDW>
-0.664079

>  <SCORE.INTRA.VDW.0>
-0.896538

>  <SCORE.INTRA.norm>
-0.0391757

>  <SCORE.RESTR>
0.000321496

>  <SCORE.RESTR.CAVITY>
0.000321496

>  <SCORE.RESTR.norm>
1.60748e-05

>  <SCORE.SYSTEM>
0

>  <SCORE.SYSTEM.CONST>
0

>  <SCORE.SYSTEM.DIHEDRAL>
0

>  <SCORE.SYSTEM.SOLV>
0

>  <SCORE.SYSTEM.norm>
0

>  <SCORE.heavy>
20

>  <SCORE.norm>
-0.423439

>  <RMSD>
2.751

$$$$
1nyi_lig
 OpenBabel11021811403D
libRbt.so/2013.1/901 2013/11/27
 20 22  0  0  0  0  0  0  0  0999 V2000
   25.8319   -2.2814   45.5969 C   0  0  0  0  0  0  0  0  0  0  0  0
   24.8970   -3.3556   45.4965 O   0  0  0  0  0  0  0  0  0  0  0  0
   27.1932   -2.7019   45.0889 C   0  0  1  0  0  0  0  0  0  0  0  0
   27.4745   -4.0493   45.5551 O   0  0  0  0  0  0  0  0  0  0  0  0
   27.2550   -2.7666   43.5669 C   0  0  1  0  0  0  0  0  0  0  0  0
   27.6706   -1.5206   43.0056 O   0  0  0  0  0  0  0  0  0  0  0  0
   28.2469   -3.9039   43.3317 C   0  0  1  0  0  0  0  0  0  0  0  0
   29.6003   -3.5052   43.4890 O   0  0  0  0  0  0  0  0  0  0  0  0
   27.8483   -4.8639   44.4504 C   0  0  2  0  0  0  0  0  0  0  0  0
   23.1157   -5.7418   42.6281 N   0  0  0  0  0  0  0  0  0  0  0  0
   23.7808   -4.5512   42.7933 C   0  0  1  0  0  0  0  0  0  0  0  0
   23.1045   -3.4607   42.4294 N   0  0  0  0  0  0  0  0  0  0  0  0
   25.0129   -4.4386   43.2813 N   0  0  0  0  0  0  0  0  0  0  0  0
   25.5507   -5.6484   43.6137 C   0  0  1  0  0  0  0  0  0  0  0  0
   24.9638   -6.8949   43.4854 C   0  0  1  0  0  0  0  0  0  0  0  0
   23.6486   -6.9895   42.9510 C   0  0  0  0  0  0  0  0  0  0  0  0
   22.9653   -8.0034   42.7591 O   0  0  0  0  0  0  0  0  0  0  0  0
   25.8322   -7.8896   43.9161 N   0  0  0  0  0  0  0  0  0  0  0  0
   26.9014   -7.2456   44.2957 C   0  0  0  0  0  0  0  0  0  0  0  0
   26.8111   -5.8784   44.1521 N   0  0  1  0  0  0  0  0  0  0  0  0
  2  1  1  0  0  0  0
  3  1  1  6  0  0  0
  3  4  1  0  0  0  0
  3  5  1  0  0  0  0
  5  6  1  1  0  0  0
  5  7  1  0  0  0  0
  7  8  1  1  0  0  0
  7  9  1  0  0  0  0
  9  4  1  1  0  0  0
  9 20  1  0  0  0  0
 10 11  1  0  0  0  0
 11 12  1  1  0  0  0
 11 13  1  0  0  0  0
 14 13  1  6  0  0  0
 15 14  1  0  0  0  0
 15 16  1  6  0  0  0
 16 10  1  0  0  0  0
 16 17  2  0  0  0  0
 18 15  1  0  0  0  0
 19 18  1  0  0  0  0
 20 14  1  0  0  0  0
 20 19  1  6  0  0  0
M  END
>  <CHROM.1>
-41.30258745,70.31931988,25.91093324,-4.75174793,43.81070888,0.76327440,-0.24054704
0.04608841

>  <Name>
1nyi_lig

>  <RI>
0

>  <Rbt.Current_Directory>
/home/itssahil/PROJECTS/Mol_Feturizer/New_Systems/rnas/1nyi

>  <Rbt.Executable>
rbdock ($Id: //depot/dev/client3/rdock/2013.1/src/exe/rbdock.cxx#4 $)

>  <Rbt.Library>
libRbt.so (2013.1, Build901 2013/11/27)

>  <Rbt.Parameter_File>
/export/apps/rDock/src/rDock_2013.1_src/data/scripts/dock_solv.prm

>  <Rbt.Receptor>
prm/pocket_docking_2.prm

>  <SCORE>
-6.52328

>  <SCORE.INTER>
-7.29333

>  <SCORE.INTER.CONST>
1

>  <SCORE.INTER.POLAR>
-0.569384

>  <SCORE.INTER.ROT>
2

>  <SCORE.INTER.SOLV>
11.5728

>  <SCORE.INTER.VDW>
-11.7552

>  <SCORE.INTER.norm>
-0.364666

>  <SCORE.INTRA>
0.274439

>  <SCORE.INTRA.DIHEDRAL>
-1.29042

>  <SCORE.INTRA.DIHEDRAL.0>
3.72394

>  <SCORE.INTRA.POLAR>
0

>  <SCORE.INTRA.POLAR.0>
0

>  <SCORE.INTRA.REPUL>
0

>  <SCORE.INTRA.REPUL.0>
0

>  <SCORE.INTRA.SOLV>
3.35562

>  <SCORE.INTRA.SOLV.lig_0>
-49.4697

>  <SCORE.INTRA.VDW>
-0.758159

>  <SCORE.INTRA.VDW.0>
-0.896538

>  <SCORE.INTRA.norm>
0.013722

>  <SCORE.RESTR>
0.495606

>  <SCORE.RESTR.CAVITY>
0.495606

>  <SCORE.RESTR.norm>
0.0247803

>  <SCORE.SYSTEM>
0

>  <SCORE.SYSTEM.CONST>
0

>  <SCORE.SYSTEM.DIHEDRAL>
0

>  <SCORE.SYSTEM.SOLV>
0

>  <SCORE.SYSTEM.norm>
0

>  <SCORE.heavy>
20

>  <SCORE.norm>
-0.326164

>  <RMSD>
2.758

$$$$
1nyi_lig
 OpenBabel11021811403D
libRbt.so/2013.1/901 2013/11/27
 20 22  0  0  0  0  0  0  0  0999 V2000
   25.6570   -2.0990   45.3162 C   0  0  0  0  0  0  0  0  0  0  0  0
   25.4075   -1.9721   46.7161 O   0  0  0  0  0  0  0  0  0  0  0  0
   27.0451   -2.6440   45.0629 C   0  0  1  0  0  0  0  0  0  0  0  0
   27.1491   -3.9645   45.6611 O   0  0  0  0  0  0  0  0  0  0  0  0
   27.3363   -2.8353   43.5786 C   0  0  1  0  0  0  0  0  0  0  0  0
   27.9259   -1.6675   43.0054 O   0  0  0  0  0  0  0  0  0  0  0  0
   28.2646   -4.0482   43.5850 C   0  0  1  0  0  0  0  0  0  0  0  0
   29.6035   -3.7242   43.9283 O   0  0  0  0  0  0  0  0  0  0  0  0
   27.6271   -4.8876   44.6900 C   0  0  2  0  0  0  0  0  0  0  0  0
   22.9918   -5.5459   42.5521 N   0  0  0  0  0  0  0  0  0  0  0  0
   23.6872   -4.3850   42.7890 C   0  0  1  0  0  0  0  0  0  0  0  0
   23.0749   -3.2619   42.4113 N   0  0  0  0  0  0  0  0  0  0  0  0
   24.8889   -4.3298   43.3562 N   0  0  0  0  0  0  0  0  0  0  0  0
   25.3608   -5.5662   43.6908 C   0  0  1  0  0  0  0  0  0  0  0  0
   24.7391   -6.7867   43.4942 C   0  0  1  0  0  0  0  0  0  0  0  0
   23.4581   -6.8197   42.8761 C   0  0  0  0  0  0  0  0  0  0  0  0
   22.7525   -7.8027   42.6158 O   0  0  0  0  0  0  0  0  0  0  0  0
   25.5421   -7.8228   43.9532 N   0  0  0  0  0  0  0  0  0  0  0  0
   26.6073   -7.2281   44.4155 C   0  0  0  0  0  0  0  0  0  0  0  0
   26.5754   -5.8555   44.3013 N   0  0  1  0  0  0  0  0  0  0  0  0
  2  1  1  0  0  0  0
  3  1  1  6  0  0  0
  3  4  1  0  0  0  0
  3  5  1  0  0  0  0
  5  6  1  1  0  0  0
  5  7  1  0  0  0  0
  7  8  1  1  0  0  0
  7  9  1  0  0  0  0
  9  4  1  1  0  0  0
  9 20  1  0  0  0  0
 10 11  1  0  0  0  0
 11 12  1  1  0  0  0
 11 13  1  0  0  0  0
 14 13  1  6  0  0  0
 15 14  1  0  0  0  0
 15 16  1  6  0  0  0
 16 10  1  0  0  0  0
 16 17  2  0  0  0  0
 18 15  1  0  0  0  0
 19 18  1  0  0  0  0
 20 14  1  0  0  0  0
 20 19  1  6  0  0  0
M  END
>  <CHROM.1>
61.19034305,62.20145502,25.81648536,-4.62260434,43.92598848,0.78834800,-0.25422513
0.14477066

>  <Name>
1nyi_lig

>  <RI>
0

>  <Rbt.Current_Directory>
/home/itssahil/PROJECTS/Mol_Feturizer/New_Systems/rnas/1nyi

>  <Rbt.Executable>
rbdock ($Id: //depot/dev/client3/rdock/2013.1/src/exe/rbdock.cxx#4 $)

>  <Rbt.Library>
libRbt.so (2013.1, Build901 2013/11/27)

>  <Rbt.Parameter_File>
/export/apps/rDock/src/rDock_2013.1_src/data/scripts/dock_solv.prm

>  <Rbt.Receptor>
prm/pocket_docking_3.prm

>  <SCORE>
-9.9485

>  <SCORE.INTER>
-8.27024

>  <SCORE.INTER.CONST>
1

>  <SCORE.INTER.POLAR>
-0.632314

>  <SCORE.INTER.ROT>
2

>  <SCORE.INTER.SOLV>
11.0338

>  <SCORE.INTER.VDW>
-12.0171

>  <SCORE.INTER.norm>
-0.413512

>  <SCORE.INTRA>
-1.67825

>  <SCORE.INTRA.DIHEDRAL>
-2.49261

>  <SCORE.INTRA.DIHEDRAL.0>
3.72394

>  <SCORE.INTRA.POLAR>
0

>  <SCORE.INTRA.POLAR.0>
0

>  <SCORE.INTRA.REPUL>
0

>  <SCORE.INTRA.REPUL.0>
0

>  <SCORE.INTRA.SOLV>
1.465

>  <SCORE.INTRA.SOLV.lig_0>
-49.4697

>  <SCORE.INTRA.VDW>
-1.16445

>  <SCORE.INTRA.VDW.0>
-0.896538

>  <SCORE.INTRA.norm>
-0.0839127

>  <SCORE.RESTR>
0

>  <SCORE.RESTR.CAVITY>
0

>  <SCORE.RESTR.norm>
0

>  <SCORE.SYSTEM>
0

>  <SCORE.SYSTEM.CONST>
0

>  <SCORE.SYSTEM.DIHEDRAL>
0

>  <SCORE.SYSTEM.SOLV>
0

>  <SCORE.SYSTEM.norm>
0

>  <SCORE.heavy>
20

>  <SCORE.norm>
-0.497425

>  <RMSD>
2.758

$$$$
1nyi_lig
 OpenBabel11021811403D
libRbt.so/2013.1/901 2013/11/27
 20 22  0  0  0  0  0  0  0  0999 V2000
   25.6003   -2.0219   45.2964 C   0  0  0  0  0  0  0  0  0  0  0  0
   25.3671   -1.9240   46.7014 O   0  0  0  0  0  0  0  0  0  0  0  0
   26.9860   -2.5596   45.0158 C   0  0  1  0  0  0  0  0  0  0  0  0
   27.1003   -3.8899   45.5899 O   0  0  0  0  0  0  0  0  0  0  0  0
   27.2581   -2.7250   43.5247 C   0  0  1  0  0  0  0  0  0  0  0  0
   27.8379   -1.5463   42.9638 O   0  0  0  0  0  0  0  0  0  0  0  0
   28.1886   -3.9358   43.4982 C   0  0  1  0  0  0  0  0  0  0  0  0
   29.5313   -3.6149   43.8295 O   0  0  0  0  0  0  0  0  0  0  0  0
   27.5673   -4.7953   44.5970 C   0  0  2  0  0  0  0  0  0  0  0  0
   22.8241   -5.4140   42.6973 N   0  0  0  0  0  0  0  0  0  0  0  0
   23.5106   -4.2562   42.9719 C   0  0  1  0  0  0  0  0  0  0  0  0
   22.8553   -3.1245   42.7091 N   0  0  0  0  0  0  0  0  0  0  0  0
   24.7432   -4.2118   43.4693 N   0  0  0  0  0  0  0  0  0  0  0  0
   25.2578   -5.4567   43.6896 C   0  0  1  0  0  0  0  0  0  0  0  0
   24.6484   -6.6751   43.4467 C   0  0  1  0  0  0  0  0  0  0  0  0
   23.3331   -6.6958   42.9047 C   0  0  0  0  0  0  0  0  0  0  0  0
   22.6317   -7.6749   42.6197 O   0  0  0  0  0  0  0  0  0  0  0  0
   25.4972   -7.7211   43.7849 N   0  0  0  0  0  0  0  0  0  0  0  0
   26.5770   -7.1347   44.2231 C   0  0  0  0  0  0  0  0  0  0  0  0
   26.5123   -5.7586   44.2057 N   0  0  1  0  0  0  0  0  0  0  0  0
  2  1  1  0  0  0  0
  3  1  1  6  0  0  0
  3  4  1  0  0  0  0
  3  5  1  0  0  0  0
  5  6  1  1  0  0  0
  5  7  1  0  0  0  0
  7  8  1  1  0  0  0
  7  9  1  0  0  0  0
  9  4  1  1  0  0  0
  9 20  1  0  0  0  0
 10 11  1  0  0  0  0
 11 12  1  1  0  0  0
 11 13  1  0  0  0  0
 14 13  1  6  0  0  0
 15 14  1  0  0  0  0
 15 16  1  6  0  0  0
 16 10  1  0  0  0  0
 16 17  2  0  0  0  0
 18 15  1  0  0  0  0
 19 18  1  0  0  0  0
 20 14  1  0  0  0  0
 20 19  1  6  0  0  0
M  END
>  <CHROM.1>
60.97419832,58.07703604,25.72404176,-4.51758163,43.91175488,0.78397853,-0.17816692
0.19249601

>  <Name>
1nyi_lig

>  <RI>
0

>  <Rbt.Current_Directory>
/home/itssahil/PROJECTS/Mol_Feturizer/New_Systems/rnas/1nyi

>  <Rbt.Executable>
rbdock ($Id: //depot/dev/client3/rdock/2013.1/src/exe/rbdock.cxx#4 $)

>  <Rbt.Library>
libRbt.so (2013.1, Build901 2013/11/27)

>  <Rbt.Parameter_File>
/export/apps/rDock/src/rDock_2013.1_src/data/scripts/dock_solv.prm

>  <Rbt.Receptor>
prm/pocket_docking_3.prm

>  <SCORE>
-10.0239

>  <SCORE.INTER>
-8.39369

>  <SCORE.INTER.CONST>
1

>  <SCORE.INTER.POLAR>
-0.686978

>  <SCORE.INTER.ROT>
2

>  <SCORE.INTER.SOLV>
11.3835

>  <SCORE.INTER.VDW>
-12.0337

>  <SCORE.INTER.norm>
-0.419684

>  <SCORE.INTRA>
-1.63024

>  <SCORE.INTRA.DIHEDRAL>
-2.5131

>  <SCORE.INTRA.DIHEDRAL.0>
3.72394

>  <SCORE.INTRA.POLAR>
0

>  <SCORE.INTRA.POLAR.0>
0

>  <SCORE.INTRA.REPUL>
0

>  <SCORE.INTRA.REPUL.0>
0

>  <SCORE.INTRA.SOLV>
1.56571

>  <SCORE.INTRA.SOLV.lig_0>
-49.4697

>  <SCORE.INTRA.VDW>
-1.15654

>  <SCORE.INTRA.VDW.0>
-0.896538

>  <SCORE.INTRA.norm>
-0.0815119

>  <SCORE.RESTR>
0

>  <SCORE.RESTR.CAVITY>
0

>  <SCORE.RESTR.norm>
0

>  <SCORE.SYSTEM>
0

>  <SCORE.SYSTEM.CONST>
0

>  <SCORE.SYSTEM.DIHEDRAL>
0

>  <SCORE.SYSTEM.SOLV>
0

>  <SCORE.SYSTEM.norm>
0

>  <SCORE.heavy>
20

>  <SCORE.norm>
-0.501196

>  <RMSD>
2.759

$$$$
1nyi_lig
 OpenBabel11021811403D
libRbt.so/2013.1/901 2013/11/27
 20 22  0  0  0  0  0  0  0  0999 V2000
   25.6190   -2.0217   45.3437 C   0  0  0  0  0  0  0  0  0  0  0  0
   25.4142   -1.9166   46.7526 O   0  0  0  0  0  0  0  0  0  0  0  0
   27.0003   -2.5569   45.0378 C   0  0  1  0  0  0  0  0  0  0  0  0
   27.1262   -3.8885   45.6064 O   0  0  0  0  0  0  0  0  0  0  0  0
   27.2470   -2.7180   43.5419 C   0  0  1  0  0  0  0  0  0  0  0  0
   27.8156   -1.5370   42.9742 O   0  0  0  0  0  0  0  0  0  0  0  0
   28.1785   -3.9275   43.4962 C   0  0  1  0  0  0  0  0  0  0  0  0
   29.5263   -3.6057   43.8053 O   0  0  0  0  0  0  0  0  0  0  0  0
   27.5772   -4.7907   44.6032 C   0  0  2  0  0  0  0  0  0  0  0  0
   22.8585   -5.4183   42.6462 N   0  0  0  0  0  0  0  0  0  0  0  0
   23.5548   -4.2599   42.8924 C   0  0  1  0  0  0  0  0  0  0  0  0
   22.9181   -3.1302   42.5799 N   0  0  0  0  0  0  0  0  0  0  0  0
   24.7795   -4.2130   43.4086 N   0  0  0  0  0  0  0  0  0  0  0  0
   25.2748   -5.4556   43.6802 C   0  0  1  0  0  0  0  0  0  0  0  0
   24.6544   -6.6743   43.4691 C   0  0  1  0  0  0  0  0  0  0  0  0
   23.3480   -6.6981   42.9060 C   0  0  0  0  0  0  0  0  0  0  0  0
   22.6393   -7.6780   42.6431 O   0  0  0  0  0  0  0  0  0  0  0  0
   25.4845   -7.7180   43.8573 N   0  0  0  0  0  0  0  0  0  0  0  0
   26.5641   -7.1297   44.2932 C   0  0  0  0  0  0  0  0  0  0  0  0
   26.5169   -5.7544   44.2275 N   0  0  1  0  0  0  0  0  0  0  0  0
  2  1  1  0  0  0  0
  3  1  1  6  0  0  0
  3  4  1  0  0  0  0
  3  5  1  0  0  0  0
  5  6  1  1  0  0  0
  5  7  1  0  0  0  0
  7  8  1  1  0  0  0
  7  9  1  0  0  0  0
  9  4  1  1  0  0  0
  9 20  1  0  0  0  0
 10 11  1  0  0  0  0
 11 12  1  1  0  0  0
 11 13  1  0  0  0  0
 14 13  1  6  0  0  0
 15 14  1  0  0  0  0
 15 16  1  6  0  0  0
 16 10  1  0  0  0  0
 16 17  2  0  0  0  0
 18 15  1  0  0  0  0
 19 18  1  0  0  0  0
 20 14  1  0  0  0  0
 20 19  1  6  0  0  0
M  END
>  <CHROM.1>
61.49423237,61.05506978,25.73748342,-4.51525182,43.91367072,0.78621993,-0.20589180
0.17329001

>  <Name>
1nyi_lig

>  <RI>
0

>  <Rbt.Current_Directory>
/home/itssahil/PROJECTS/Mol_Feturizer/New_Systems/rnas/1nyi

>  <Rbt.Executable>
rbdock ($Id: //depot/dev/client3/rdock/2013.1/src/exe/rbdock.cxx#4 $)

>  <Rbt.Library>
libRbt.so (2013.1, Build901 2013/11/27)

>  <Rbt.Parameter_File>
/export/apps/rDock/src/rDock_2013.1_src/data/scripts/dock_solv.prm

>  <Rbt.Receptor>
prm/pocket_docking_3.prm

>  <SCORE>
-9.99597

>  <SCORE.INTER>
-8.32655

>  <SCORE.INTER.CONST>
1

>  <SCORE.INTER.POLAR>
-0.692167

>  <SCORE.INTER.ROT>
2

>  <SCORE.INTER.SOLV>
11.3162

>  <SCORE.INTER.VDW>
-11.9492

>  <SCORE.INTER.norm>
-0.416327

>  <SCORE.INTRA>
-1.66943

>  <SCORE.INTRA.DIHEDRAL>
-2.49458

>  <SCORE.INTRA.DIHEDRAL.0>
3.72394

>  <SCORE.INTRA.POLAR>
0

>  <SCORE.INTRA.POLAR.0>
0

>  <SCORE.INTRA.REPUL>
0

>  <SCORE.INTRA.REPUL.0>
0

>  <SCORE.INTRA.SOLV>
1.49253

>  <SCORE.INTRA.SOLV.lig_0>
-49.4697

>  <SCORE.INTRA.VDW>
-1.1684

>  <SCORE.INTRA.VDW.0>
-0.896538

>  <SCORE.INTRA.norm>
-0.0834713

>  <SCORE.RESTR>
0

>  <SCORE.RESTR.CAVITY>
0

>  <SCORE.RESTR.norm>
0

>  <SCORE.SYSTEM>
0

>  <SCORE.SYSTEM.CONST>
0

>  <SCORE.SYSTEM.DIHEDRAL>
0

>  <SCORE.SYSTEM.SOLV>
0

>  <SCORE.SYSTEM.norm>
0

>  <SCORE.heavy>
20

>  <SCORE.norm>
-0.499799

>  <RMSD>
2.760

$$$$
1nyi_lig
 OpenBabel11021811403D
libRbt.so/2013.1/901 2013/11/27
 20 22  0  0  0  0  0  0  0  0999 V2000
   25.6453   -2.4486   45.9135 C   0  0  0  0  0  0  0  0  0  0  0  0
   25.3927   -1.0695   45.6447 O   0  0  0  0  0  0  0  0  0  0  0  0
   26.9992   -2.8628   45.3811 C   0  0  1  0  0  0  0  0  0  0  0  0
   27.2374   -4.2534   45.7300 O   0  0  0  0  0  0  0  0  0  0  0  0
   27.0744   -2.7966   43.8598 C   0  0  1  0  0  0  0  0  0  0  0  0
   27.5310   -1.5191   43.4126 O   0  0  0  0  0  0  0  0  0  0  0  0
   28.0360   -3.9375   43.5337 C   0  0  1  0  0  0  0  0  0  0  0  0
   29.3986   -3.5937   43.7354 O   0  0  0  0  0  0  0  0  0  0  0  0
   27.5991   -4.9793   44.5613 C   0  0  2  0  0  0  0  0  0  0  0  0
   22.7310   -5.5599   42.9949 N   0  0  0  0  0  0  0  0  0  0  0  0
   23.4127   -4.4123   43.3198 C   0  0  1  0  0  0  0  0  0  0  0  0
   22.7142   -3.2808   43.2155 N   0  0  0  0  0  0  0  0  0  0  0  0
   24.6806   -4.3777   43.7198 N   0  0  0  0  0  0  0  0  0  0  0  0
   25.2379   -5.6221   43.7827 C   0  0  1  0  0  0  0  0  0  0  0  0
   24.6369   -6.8306   43.4776 C   0  0  1  0  0  0  0  0  0  0  0  0
   23.2825   -6.8400   43.0420 C   0  0  0  0  0  0  0  0  0  0  0  0
   22.5813   -7.8091   42.7244 O   0  0  0  0  0  0  0  0  0  0  0  0
   25.5326   -7.8781   43.6494 N   0  0  0  0  0  0  0  0  0  0  0  0
   26.6318   -7.3028   44.0528 C   0  0  0  0  0  0  0  0  0  0  0  0
   26.5366   -5.9332   44.1676 N   0  0  1  0  0  0  0  0  0  0  0  0
  2  1  1  0  0  0  0
  3  1  1  6  0  0  0
  3  4  1  0  0  0  0
  3  5  1  0  0  0  0
  5  6  1  1  0  0  0
  5  7  1  0  0  0  0
  7  8  1  1  0  0  0
  7  9  1  0  0  0  0
  9  4  1  1  0  0  0
  9 20  1  0  0  0  0
 10 11  1  0  0  0  0
 11 12  1  1  0  0  0
 11 13  1  0  0  0  0
 14 13  1  6  0  0  0
 15 14  1  0  0  0  0
 15 16  1  6  0  0  0
 16 10  1  0  0  0  0
 16 17  2  0  0  0  0
 18 15  1  0  0  0  0
 19 18  1  0  0  0  0
 20 14  1  0  0  0  0
 20 19  1  6  0  0  0
M  END
>  <CHROM.1>
177.44983796,62.59682879,25.67694323,-4.61820943,44.01201467,0.85116667,-0.14858630
0.20456310

>  <Name>
1nyi_lig

>  <RI>
0

>  <Rbt.Current_Directory>
/home/itssahil/PROJECTS/Mol_Feturizer/New_Systems/rnas/1nyi

>  <Rbt.Executable>
rbdock ($Id: //depot/dev/client3/rdock/2013.1/src/exe/rbdock.cxx#4 $)

>  <Rbt.Library>
libRbt.so (2013.1, Build901 2013/11/27)

>  <Rbt.Parameter_File>
/export/apps/rDock/src/rDock_2013.1_src/data/scripts/dock_solv.prm

>  <Rbt.Receptor>
prm/pocket_docking_3.prm

>  <SCORE>
-9.89815

>  <SCORE.INTER>
-8.34839

>  <SCORE.INTER.CONST>
1

>  <SCORE.INTER.POLAR>
-0.716739

>  <SCORE.INTER.ROT>
2

>  <SCORE.INTER.SOLV>
11.0115

>  <SCORE.INTER.VDW>
-11.7803

>  <SCORE.INTER.norm>
-0.41742

>  <SCORE.INTRA>
-1.54976

>  <SCORE.INTRA.DIHEDRAL>
-2.4762

>  <SCORE.INTRA.DIHEDRAL.0>
3.72394

>  <SCORE.INTRA.POLAR>
0

>  <SCORE.INTRA.POLAR.0>
0

>  <SCORE.INTRA.REPUL>
0

>  <SCORE.INTRA.REPUL.0>
0

>  <SCORE.INTRA.SOLV>
1.81498

>  <SCORE.INTRA.SOLV.lig_0>
-49.4697

>  <SCORE.INTRA.VDW>
-1.21914

>  <SCORE.INTRA.VDW.0>
-0.896538

>  <SCORE.INTRA.norm>
-0.0774878

>  <SCORE.RESTR>
0

>  <SCORE.RESTR.CAVITY>
0

>  <SCORE.RESTR.norm>
0

>  <SCORE.SYSTEM>
0

>  <SCORE.SYSTEM.CONST>
0

>  <SCORE.SYSTEM.DIHEDRAL>
0

>  <SCORE.SYSTEM.SOLV>
0

>  <SCORE.SYSTEM.norm>
0

>  <SCORE.heavy>
20

>  <SCORE.norm>
-0.494908

>  <RMSD>
2.761

$$$$
1nyi_lig
 OpenBabel11021811403D
libRbt.so/2013.1/901 2013/11/27
 20 22  0  0  0  0  0  0  0  0999 V2000
   25.6101   -2.0298   45.3385 C   0  0  0  0  0  0  0  0  0  0  0  0
   25.3942   -1.9362   46.7465 O   0  0  0  0  0  0  0  0  0  0  0  0
   26.9954   -2.5584   45.0391 C   0  0  1  0  0  0  0  0  0  0  0  0
   27.1225   -3.8924   45.6018 O   0  0  0  0  0  0  0  0  0  0  0  0
   27.2525   -2.7110   43.5441 C   0  0  1  0  0  0  0  0  0  0  0  0
   27.8205   -1.5251   42.9861 O   0  0  0  0  0  0  0  0  0  0  0  0
   28.1888   -3.9168   43.4985 C   0  0  1  0  0  0  0  0  0  0  0  0
   29.5333   -3.5916   43.8181 O   0  0  0  0  0  0  0  0  0  0  0  0
   27.5834   -4.7878   44.5971 C   0  0  2  0  0  0  0  0  0  0  0  0
   22.8411   -5.4177   42.6990 N   0  0  0  0  0  0  0  0  0  0  0  0
   23.5267   -4.2583   42.9690 C   0  0  1  0  0  0  0  0  0  0  0  0
   22.8707   -3.1281   42.7015 N   0  0  0  0  0  0  0  0  0  0  0  0
   24.7591   -4.2110   43.4665 N   0  0  0  0  0  0  0  0  0  0  0  0
   25.2746   -5.4546   43.6920 C   0  0  1  0  0  0  0  0  0  0  0  0
   24.6661   -6.6744   43.4540 C   0  0  1  0  0  0  0  0  0  0  0  0
   23.3509   -6.6983   42.9117 C   0  0  0  0  0  0  0  0  0  0  0  0
   22.6504   -7.6790   42.6306 O   0  0  0  0  0  0  0  0  0  0  0  0
   25.5156   -7.7184   43.7966 N   0  0  0  0  0  0  0  0  0  0  0  0
   26.5949   -7.1294   44.2326 C   0  0  0  0  0  0  0  0  0  0  0  0
   26.5293   -5.7535   44.2096 N   0  0  1  0  0  0  0  0  0  0  0  0
  2  1  1  0  0  0  0
  3  1  1  6  0  0  0
  3  4  1  0  0  0  0
  3  5  1  0  0  0  0
  5  6  1  1  0  0  0
  5  7  1  0  0  0  0
  7  8  1  1  0  0  0
  7  9  1  0  0  0  0
  9  4  1  1  0  0  0
  9 20  1  0  0  0  0
 10 11  1  0  0  0  0
 11 12  1  1  0  0  0
 11 13  1  0  0  0  0
 14 13  1  6  0  0  0
 15 14  1  0  0  0  0
 15 16  1  6  0  0  0
 16 10  1  0  0  0  0
 16 17  2  0  0  0  0
 18 15  1  0  0  0  0
 19 18  1  0  0  0  0
 20 14  1  0  0  0  0
 20 19  1  6  0  0  0
M  END
>  <CHROM.1>
61.33155337,59.02139408,25.73661266,-4.51432978,43.92176197,0.78868186,-0.18085148
0.19421284

>  <Name>
1nyi_lig

>  <RI>
0

>  <Rbt.Current_Directory>
/home/itssahil/PROJECTS/Mol_Feturizer/New_Systems/rnas/1nyi

>  <Rbt.Executable>
rbdock ($Id: //depot/dev/client3/rdock/2013.1/src/exe/rbdock.cxx#4 $)

>  <Rbt.Library>
libRbt.so (2013.1, Build901 2013/11/27)

>  <Rbt.Parameter_File>
/export/apps/rDock/src/rDock_2013.1_src/data/scripts/dock_solv.prm

>  <Rbt.Receptor>
prm/pocket_docking_4.prm

>  <SCORE>
-10.0365

>  <SCORE.INTER>
-8.39091

>  <SCORE.INTER.CONST>
1

>  <SCORE.INTER.POLAR>
-0.68571

>  <SCORE.INTER.ROT>
2

>  <SCORE.INTER.SOLV>
11.3529

>  <SCORE.INTER.VDW>
-12.0259

>  <SCORE.INTER.norm>
-0.419546

>  <SCORE.INTRA>
-1.64562

>  <SCORE.INTRA.DIHEDRAL>
-2.50557

>  <SCORE.INTRA.DIHEDRAL.0>
3.72394

>  <SCORE.INTRA.POLAR>
0

>  <SCORE.INTRA.POLAR.0>
0

>  <SCORE.INTRA.REPUL>
0

>  <SCORE.INTRA.REPUL.0>
0

>  <SCORE.INTRA.SOLV>
1.5421

>  <SCORE.INTRA.SOLV.lig_0>
-49.4697

>  <SCORE.INTRA.VDW>
-1.16388

>  <SCORE.INTRA.VDW.0>
-0.896538

>  <SCORE.INTRA.norm>
-0.082281

>  <SCORE.RESTR>
0

>  <SCORE.RESTR.CAVITY>
0

>  <SCORE.RESTR.norm>
0

>  <SCORE.SYSTEM>
0

>  <SCORE.SYSTEM.CONST>
0

>  <SCORE.SYSTEM.DIHEDRAL>
0

>  <SCORE.SYSTEM.SOLV>
0

>  <SCORE.SYSTEM.norm>
0

>  <SCORE.heavy>
20

>  <SCORE.norm>
-0.501826

>  <RMSD>
2.762

$$$$
1nyi_lig
 OpenBabel11021811403D
libRbt.so/2013.1/901 2013/11/27
 20 22  0  0  0  0  0  0  0  0999 V2000
   25.6868   -2.0963   45.3233 C   0  0  0  0  0  0  0  0  0  0  0  0
   25.4602   -1.9888   46.7287 O   0  0  0  0  0  0  0  0  0  0  0  0
   27.0738   -2.6292   45.0398 C   0  0  1  0  0  0  0  0  0  0  0  0
   27.1932   -3.9599   45.6119 O   0  0  0  0  0  0  0  0  0  0  0  0
   27.3441   -2.7917   43.5482 C   0  0  1  0  0  0  0  0  0  0  0  0
   27.9194   -1.6103   42.9880 O   0  0  0  0  0  0  0  0  0  0  0  0
   28.2785   -3.9995   43.5186 C   0  0  1  0  0  0  0  0  0  0  0  0
   29.6207   -3.6747   43.8483 O   0  0  0  0  0  0  0  0  0  0  0  0
   27.6615   -4.8625   44.6171 C   0  0  2  0  0  0  0  0  0  0  0  0
   22.9170   -5.4936   42.7249 N   0  0  0  0  0  0  0  0  0  0  0  0
   23.6002   -4.3340   43.0002 C   0  0  1  0  0  0  0  0  0  0  0  0
   22.9407   -3.2040   42.7406 N   0  0  0  0  0  0  0  0  0  0  0  0
   24.8335   -4.2864   43.4954 N   0  0  0  0  0  0  0  0  0  0  0  0
   25.3526   -5.5300   43.7127 C   0  0  1  0  0  0  0  0  0  0  0  0
   24.7468   -6.7499   43.4688 C   0  0  1  0  0  0  0  0  0  0  0  0
   23.4306   -6.7741   42.9291 C   0  0  0  0  0  0  0  0  0  0  0  0
   22.7320   -7.7549   42.6437 O   0  0  0  0  0  0  0  0  0  0  0  0
   25.5997   -7.7937   43.8037 N   0  0  0  0  0  0  0  0  0  0  0  0
   26.6784   -7.2045   44.2409 C   0  0  0  0  0  0  0  0  0  0  0  0
   26.6091   -5.8286   44.2260 N   0  0  1  0  0  0  0  0  0  0  0  0
  2  1  1  0  0  0  0
  3  1  1  6  0  0  0
  3  4  1  0  0  0  0
  3  5  1  0  0  0  0
  5  6  1  1  0  0  0
  5  7  1  0  0  0  0
  7  8  1  1  0  0  0
  7  9  1  0  0  0  0
  9  4  1  1  0  0  0
  9 20  1  0  0  0  0
 10 11  1  0  0  0  0
 11 12  1  1  0  0  0
 11 13  1  0  0  0  0
 14 13  1  6  0  0  0
 15 14  1  0  0  0  0
 15 16  1  6  0  0  0
 16 10  1  0  0  0  0
 16 17  2  0  0  0  0
 18 15  1  0  0  0  0
 19 18  1  0  0  0  0
 20 14  1  0  0  0  0
 20 19  1  6  0  0  0
M  END
>  <CHROM.1>
61.54419232,58.05065330,25.81654630,-4.58894338,43.93529454,0.78752444,-0.17569223
0.19490649

>  <Name>
1nyi_lig

>  <RI>
0

>  <Rbt.Current_Directory>
/home/itssahil/PROJECTS/Mol_Feturizer/New_Systems/rnas/1nyi

>  <Rbt.Executable>
rbdock ($Id: //depot/dev/client3/rdock/2013.1/src/exe/rbdock.cxx#4 $)

>  <Rbt.Library>
libRbt.so (2013.1, Build901 2013/11/27)

>  <Rbt.Parameter_File>
/export/apps/rDock/src/rDock_2013.1_src/data/scripts/dock_solv.prm

>  <Rbt.Receptor>
prm/pocket_docking_3.prm

>  <SCORE>
-10.0185

>  <SCORE.INTER>
-8.38865

>  <SCORE.INTER.CONST>
1

>  <SCORE.INTER.POLAR>
-0.655986

>  <SCORE.INTER.ROT>
2

>  <SCORE.INTER.SOLV>
11.2545

>  <SCORE.INTER.VDW>
-12.0907

>  <SCORE.INTER.norm>
-0.419432

>  <SCORE.INTRA>
-1.62984

>  <SCORE.INTRA.DIHEDRAL>
-2.50752

>  <SCORE.INTRA.DIHEDRAL.0>
3.72394

>  <SCORE.INTRA.POLAR>
0

>  <SCORE.INTRA.POLAR.0>
0

>  <SCORE.INTRA.REPUL>
0

>  <SCORE.INTRA.REPUL.0>
0

>  <SCORE.INTRA.SOLV>
1.56177

>  <SCORE.INTRA.SOLV.lig_0>
-49.4697

>  <SCORE.INTRA.VDW>
-1.15696

>  <SCORE.INTRA.VDW.0>
-0.896538

>  <SCORE.INTRA.norm>
-0.081492

>  <SCORE.RESTR>
0

>  <SCORE.RESTR.CAVITY>
0

>  <SCORE.RESTR.norm>
0

>  <SCORE.SYSTEM>
0

>  <SCORE.SYSTEM.CONST>
0

>  <SCORE.SYSTEM.DIHEDRAL>
0

>  <SCORE.SYSTEM.SOLV>
0

>  <SCORE.SYSTEM.norm>
0

>  <SCORE.heavy>
20

>  <SCORE.norm>
-0.500924

>  <RMSD>
2.764

$$$$
1nyi_lig
 OpenBabel11021811403D
libRbt.so/2013.1/901 2013/11/27
 20 22  0  0  0  0  0  0  0  0999 V2000
   25.6099   -2.0253   45.3529 C   0  0  0  0  0  0  0  0  0  0  0  0
   25.3961   -1.9383   46.7617 O   0  0  0  0  0  0  0  0  0  0  0  0
   26.9923   -2.5591   45.0491 C   0  0  1  0  0  0  0  0  0  0  0  0
   27.1141   -3.8959   45.6063 O   0  0  0  0  0  0  0  0  0  0  0  0
   27.2463   -2.7069   43.5531 C   0  0  1  0  0  0  0  0  0  0  0  0
   27.8189   -1.5215   42.9989 O   0  0  0  0  0  0  0  0  0  0  0  0
   28.1768   -3.9169   43.5011 C   0  0  1  0  0  0  0  0  0  0  0  0
   29.5234   -3.5992   43.8198 O   0  0  0  0  0  0  0  0  0  0  0  0
   27.5692   -4.7895   44.5972 C   0  0  2  0  0  0  0  0  0  0  0  0
   22.8390   -5.3917   42.6603 N   0  0  0  0  0  0  0  0  0  0  0  0
   23.5326   -4.2363   42.9274 C   0  0  1  0  0  0  0  0  0  0  0  0
   22.8894   -3.1025   42.6449 N   0  0  0  0  0  0  0  0  0  0  0  0
   24.7608   -4.1962   43.4359 N   0  0  0  0  0  0  0  0  0  0  0  0
   25.2628   -5.4426   43.6760 C   0  0  1  0  0  0  0  0  0  0  0  0
   24.6455   -6.6587   43.4420 C   0  0  1  0  0  0  0  0  0  0  0  0
   23.3352   -6.6750   42.8878 C   0  0  0  0  0  0  0  0  0  0  0  0
   22.6284   -7.6516   42.6080 O   0  0  0  0  0  0  0  0  0  0  0  0
   25.4823   -7.7076   43.8008 N   0  0  0  0  0  0  0  0  0  0  0  0
   26.5628   -7.1249   44.2421 C   0  0  0  0  0  0  0  0  0  0  0  0
   26.5099   -5.7487   44.2075 N   0  0  1  0  0  0  0  0  0  0  0  0
  2  1  1  0  0  0  0
  3  1  1  6  0  0  0
  3  4  1  0  0  0  0
  3  5  1  0  0  0  0
  5  6  1  1  0  0  0
  5  7  1  0  0  0  0
  7  8  1  1  0  0  0
  7  9  1  0  0  0  0
  9  4  1  1  0  0  0
  9 20  1  0  0  0  0
 10 11  1  0  0  0  0
 11 12  1  1  0  0  0
 11 13  1  0  0  0  0
 14 13  1  6  0  0  0
 15 14  1  0  0  0  0
 15 16  1  6  0  0  0
 16 10  1  0  0  0  0
 16 17  2  0  0  0  0
 18 15  1  0  0  0  0
 19 18  1  0  0  0  0
 20 14  1  0  0  0  0
 20 19  1  6  0  0  0
M  END
>  <CHROM.1>
61.23777656,59.98234977,25.72746770,-4.50540853,43.91420099,0.78476006,-0.19458128
0.19024337

>  <Name>
1nyi_lig

>  <RI>
0

>  <Rbt.Current_Directory>
/home/itssahil/PROJECTS/Mol_Feturizer/New_Systems/rnas/1nyi

>  <Rbt.Executable>
rbdock ($Id: //depot/dev/client3/rdock/2013.1/src/exe/rbdock.cxx#4 $)

>  <Rbt.Library>
libRbt.so (2013.1, Build901 2013/11/27)

>  <Rbt.Parameter_File>
/export/apps/rDock/src/rDock_2013.1_src/data/scripts/dock_solv.prm

>  <Rbt.Receptor>
prm/pocket_docking_3.prm

>  <SCORE>
-10.0295

>  <SCORE.INTER>
-8.37117

>  <SCORE.INTER.CONST>
1

>  <SCORE.INTER.POLAR>
-0.688459

>  <SCORE.INTER.ROT>
2

>  <SCORE.INTER.SOLV>
11.4062

>  <SCORE.INTER.VDW>
-12.0213

>  <SCORE.INTER.norm>
-0.418559

>  <SCORE.INTRA>
-1.65832

>  <SCORE.INTRA.DIHEDRAL>
-2.5022

>  <SCORE.INTRA.DIHEDRAL.0>
3.72394

>  <SCORE.INTRA.POLAR>
0

>  <SCORE.INTRA.POLAR.0>
0

>  <SCORE.INTRA.REPUL>
0

>  <SCORE.INTRA.REPUL.0>
0

>  <SCORE.INTRA.SOLV>
1.52065

>  <SCORE.INTRA.SOLV.lig_0>
-49.4697

>  <SCORE.INTRA.VDW>
-1.16755

>  <SCORE.INTRA.VDW.0>
-0.896538

>  <SCORE.INTRA.norm>
-0.0829162

>  <SCORE.RESTR>
0

>  <SCORE.RESTR.CAVITY>
0

>  <SCORE.RESTR.norm>
0

>  <SCORE.SYSTEM>
0

>  <SCORE.SYSTEM.CONST>
0

>  <SCORE.SYSTEM.DIHEDRAL>
0

>  <SCORE.SYSTEM.SOLV>
0

>  <SCORE.SYSTEM.norm>
0

>  <SCORE.heavy>
20

>  <SCORE.norm>
-0.501475

>  <RMSD>
2.767

$$$$
1nyi_lig
 OpenBabel11021811403D
libRbt.so/2013.1/901 2013/11/27
 20 22  0  0  0  0  0  0  0  0999 V2000
   25.5848   -2.0548   45.3149 C   0  0  0  0  0  0  0  0  0  0  0  0
   25.3401   -1.9388   46.7165 O   0  0  0  0  0  0  0  0  0  0  0  0
   26.9665   -2.6119   45.0528 C   0  0  1  0  0  0  0  0  0  0  0  0
   27.0557   -3.9421   45.6315 O   0  0  0  0  0  0  0  0  0  0  0  0
   27.2549   -2.7847   43.5657 C   0  0  1  0  0  0  0  0  0  0  0  0
   27.8576   -1.6154   43.0093 O   0  0  0  0  0  0  0  0  0  0  0  0
   28.1693   -4.0080   43.5537 C   0  0  1  0  0  0  0  0  0  0  0  0
   29.5119   -3.7044   43.9010 O   0  0  0  0  0  0  0  0  0  0  0  0
   27.5227   -4.8563   44.6467 C   0  0  2  0  0  0  0  0  0  0  0  0
   22.8214   -5.4192   42.6293 N   0  0  0  0  0  0  0  0  0  0  0  0
   23.5230   -4.2698   42.9011 C   0  0  1  0  0  0  0  0  0  0  0  0
   22.8978   -3.1308   42.5995 N   0  0  0  0  0  0  0  0  0  0  0  0
   24.7423   -4.2398   43.4312 N   0  0  0  0  0  0  0  0  0  0  0  0
   25.2259   -5.4901   43.6886 C   0  0  1  0  0  0  0  0  0  0  0  0
   24.5992   -6.7008   43.4517 C   0  0  1  0  0  0  0  0  0  0  0  0
   23.2990   -6.7064   42.8742 C   0  0  0  0  0  0  0  0  0  0  0  0
   22.5863   -7.6769   42.5883 O   0  0  0  0  0  0  0  0  0  0  0  0
   25.4177   -7.7565   43.8324 N   0  0  0  0  0  0  0  0  0  0  0  0
   26.4966   -7.1828   44.2892 C   0  0  0  0  0  0  0  0  0  0  0  0
   26.4598   -5.8063   44.2445 N   0  0  1  0  0  0  0  0  0  0  0  0
  2  1  1  0  0  0  0
  3  1  1  6  0  0  0
  3  4  1  0  0  0  0
  3  5  1  0  0  0  0
  5  6  1  1  0  0  0
  5  7  1  0  0  0  0
  7  8  1  1  0  0  0
  7  9  1  0  0  0  0
  9  4  1  1  0  0  0
  9 20  1  0  0  0  0
 10 11  1  0  0  0  0
 11 12  1  1  0  0  0
 11 13  1  0  0  0  0
 14 13  1  6  0  0  0
 15 14  1  0  0  0  0
 15 16  1  6  0  0  0
 16 10  1  0  0  0  0
 16 17  2  0  0  0  0
 18 15  1  0  0  0  0
 19 18  1  0  0  0  0
 20 14  1  0  0  0  0
 20 19  1  6  0  0  0
M  END
>  <CHROM.1>
61.50803552,59.38754539,25.69932210,-4.55584330,43.92170464,0.77505334,-0.21235880
0.17871777

>  <Name>
1nyi_lig

>  <RI>
0

>  <Rbt.Current_Directory>
/home/itssahil/PROJECTS/Mol_Feturizer/New_Systems/rnas/1nyi

>  <Rbt.Executable>
rbdock ($Id: //depot/dev/client3/rdock/2013.1/src/exe/rbdock.cxx#4 $)

>  <Rbt.Library>
libRbt.so (2013.1, Build901 2013/11/27)

>  <Rbt.Parameter_File>
/export/apps/rDock/src/rDock_2013.1_src/data/scripts/dock_solv.prm

>  <Rbt.Receptor>
prm/pocket_docking_4.prm

>  <SCORE>
-10.0169

>  <SCORE.INTER>
-8.36612

>  <SCORE.INTER.CONST>
1

>  <SCORE.INTER.POLAR>
-0.685586

>  <SCORE.INTER.ROT>
2

>  <SCORE.INTER.SOLV>
11.1591

>  <SCORE.INTER.VDW>
-11.9451

>  <SCORE.INTER.norm>
-0.418306

>  <SCORE.INTRA>
-1.65076

>  <SCORE.INTRA.DIHEDRAL>
-2.50196

>  <SCORE.INTRA.DIHEDRAL.0>
3.72394

>  <SCORE.INTRA.POLAR>
0

>  <SCORE.INTRA.POLAR.0>
0

>  <SCORE.INTRA.REPUL>
0

>  <SCORE.INTRA.REPUL.0>
0

>  <SCORE.INTRA.SOLV>
1.53228

>  <SCORE.INTRA.SOLV.lig_0>
-49.4697

>  <SCORE.INTRA.VDW>
-1.16592

>  <SCORE.INTRA.VDW.0>
-0.896538

>  <SCORE.INTRA.norm>
-0.0825381

>  <SCORE.RESTR>
0

>  <SCORE.RESTR.CAVITY>
0

>  <SCORE.RESTR.norm>
0

>  <SCORE.SYSTEM>
0

>  <SCORE.SYSTEM.CONST>
0

>  <SCORE.SYSTEM.DIHEDRAL>
0

>  <SCORE.SYSTEM.SOLV>
0

>  <SCORE.SYSTEM.norm>
0

>  <SCORE.heavy>
20

>  <SCORE.norm>
-0.500844

>  <RMSD>
2.770

$$$$
1nyi_lig
 OpenBabel11021811403D
libRbt.so/2013.1/901 2013/11/27
 20 22  0  0  0  0  0  0  0  0999 V2000
   25.5958   -2.0411   45.3234 C   0  0  0  0  0  0  0  0  0  0  0  0
   25.3594   -1.9346   46.7273 O   0  0  0  0  0  0  0  0  0  0  0  0
   26.9741   -2.6008   45.0495 C   0  0  1  0  0  0  0  0  0  0  0  0
   27.0623   -3.9354   45.6179 O   0  0  0  0  0  0  0  0  0  0  0  0
   27.2535   -2.7636   43.5595 C   0  0  1  0  0  0  0  0  0  0  0  0
   27.8569   -1.5921   43.0082 O   0  0  0  0  0  0  0  0  0  0  0  0
   28.1638   -3.9897   43.5334 C   0  0  1  0  0  0  0  0  0  0  0  0
   29.5094   -3.6930   43.8752 O   0  0  0  0  0  0  0  0  0  0  0  0
   27.5207   -4.8439   44.6237 C   0  0  2  0  0  0  0  0  0  0  0  0
   22.7984   -5.3757   42.6474 N   0  0  0  0  0  0  0  0  0  0  0  0
   23.5043   -4.2307   42.9263 C   0  0  1  0  0  0  0  0  0  0  0  0
   22.8776   -3.0873   42.6452 N   0  0  0  0  0  0  0  0  0  0  0  0
   24.7290   -4.2089   43.4443 N   0  0  0  0  0  0  0  0  0  0  0  0
   25.2134   -5.4628   43.6813 C   0  0  1  0  0  0  0  0  0  0  0  0
   24.5827   -6.6697   43.4359 C   0  0  1  0  0  0  0  0  0  0  0  0
   23.2766   -6.6665   42.8716 C   0  0  0  0  0  0  0  0  0  0  0  0
   22.5597   -7.6325   42.5810 O   0  0  0  0  0  0  0  0  0  0  0  0
   25.4034   -7.7310   43.7952 N   0  0  0  0  0  0  0  0  0  0  0  0
   26.4878   -7.1644   44.2480 C   0  0  0  0  0  0  0  0  0  0  0  0
   26.4525   -5.7875   44.2207 N   0  0  1  0  0  0  0  0  0  0  0  0
  2  1  1  0  0  0  0
  3  1  1  6  0  0  0
  3  4  1  0  0  0  0
  3  5  1  0  0  0  0
  5  6  1  1  0  0  0
  5  7  1  0  0  0  0
  7  8  1  1  0  0  0
  7  9  1  0  0  0  0
  9  4  1  1  0  0  0
  9 20  1  0  0  0  0
 10 11  1  0  0  0  0
 11 12  1  1  0  0  0
 11 13  1  0  0  0  0
 14 13  1  6  0  0  0
 15 14  1  0  0  0  0
 15 16  1  6  0  0  0
 16 10  1  0  0  0  0
 16 17  2  0  0  0  0
 18 15  1  0  0  0  0
 19 18  1  0  0  0  0
 20 14  1  0  0  0  0
 20 19  1  6  0  0  0
M  END
>  <CHROM.1>
61.50606423,58.98616626,25.69210577,-4.53192655,43.91629651,0.77030325,-0.20140052
0.18813754

>  <Name>
1nyi_lig

>  <RI>
0

>  <Rbt.Current_Directory>
/home/itssahil/PROJECTS/Mol_Feturizer/New_Systems/rnas/1nyi

>  <Rbt.Executable>
rbdock ($Id: //depot/dev/client3/rdock/2013.1/src/exe/rbdock.cxx#4 $)

>  <Rbt.Library>
libRbt.so (2013.1, Build901 2013/11/27)

>  <Rbt.Parameter_File>
/export/apps/rDock/src/rDock_2013.1_src/data/scripts/dock_solv.prm

>  <Rbt.Receptor>
prm/pocket_docking_5.prm

>  <SCORE>
-10.0311

>  <SCORE.INTER>
-8.38606

>  <SCORE.INTER.CONST>
1

>  <SCORE.INTER.POLAR>
-0.696731

>  <SCORE.INTER.ROT>
2

>  <SCORE.INTER.SOLV>
11.2835

>  <SCORE.INTER.VDW>
-11.9628

>  <SCORE.INTER.norm>
-0.419303

>  <SCORE.INTRA>
-1.64502

>  <SCORE.INTRA.DIHEDRAL>
-2.50379

>  <SCORE.INTRA.DIHEDRAL.0>
3.72394

>  <SCORE.INTRA.POLAR>
0

>  <SCORE.INTRA.POLAR.0>
0

>  <SCORE.INTRA.REPUL>
0

>  <SCORE.INTRA.REPUL.0>
0

>  <SCORE.INTRA.SOLV>
1.54153

>  <SCORE.INTRA.SOLV.lig_0>
-49.4697

>  <SCORE.INTRA.VDW>
-1.16389

>  <SCORE.INTRA.VDW.0>
-0.896538

>  <SCORE.INTRA.norm>
-0.0822509

>  <SCORE.RESTR>
0

>  <SCORE.RESTR.CAVITY>
0

>  <SCORE.RESTR.norm>
0

>  <SCORE.SYSTEM>
0

>  <SCORE.SYSTEM.CONST>
0

>  <SCORE.SYSTEM.DIHEDRAL>
0

>  <SCORE.SYSTEM.SOLV>
0

>  <SCORE.SYSTEM.norm>
0

>  <SCORE.heavy>
20

>  <SCORE.norm>
-0.501554

>  <RMSD>
2.773

$$$$
1nyi_lig
 OpenBabel11021811403D
libRbt.so/2013.1/901 2013/11/27
 20 22  0  0  0  0  0  0  0  0999 V2000
   25.5764   -2.0457   45.3518 C   0  0  0  0  0  0  0  0  0  0  0  0
   25.3622   -1.9617   46.7607 O   0  0  0  0  0  0  0  0  0  0  0  0
   26.9537   -2.5920   45.0473 C   0  0  1  0  0  0  0  0  0  0  0  0
   27.0648   -3.9286   45.6070 O   0  0  0  0  0  0  0  0  0  0  0  0
   27.2043   -2.7451   43.5512 C   0  0  1  0  0  0  0  0  0  0  0  0
   27.7863   -1.5657   42.9937 O   0  0  0  0  0  0  0  0  0  0  0  0
   28.1244   -3.9631   43.5005 C   0  0  1  0  0  0  0  0  0  0  0  0
   29.4741   -3.6563   43.8166 O   0  0  0  0  0  0  0  0  0  0  0  0
   27.5108   -4.8281   44.5993 C   0  0  2  0  0  0  0  0  0  0  0  0
   22.8041   -5.3990   42.5969 N   0  0  0  0  0  0  0  0  0  0  0  0
   23.5116   -4.2490   42.8502 C   0  0  1  0  0  0  0  0  0  0  0  0
   22.8914   -3.1118   42.5320 N   0  0  0  0  0  0  0  0  0  0  0  0
   24.7318   -4.2168   43.3782 N   0  0  0  0  0  0  0  0  0  0  0  0
   25.2097   -5.4653   43.6540 C   0  0  1  0  0  0  0  0  0  0  0  0
   24.5769   -6.6765   43.4365 C   0  0  1  0  0  0  0  0  0  0  0  0
   23.2758   -6.6846   42.8609 C   0  0  0  0  0  0  0  0  0  0  0  0
   22.5580   -7.6560   42.5908 O   0  0  0  0  0  0  0  0  0  0  0  0
   25.3907   -7.7302   43.8323 N   0  0  0  0  0  0  0  0  0  0  0  0
   26.4731   -7.1548   44.2787 C   0  0  0  0  0  0  0  0  0  0  0  0
   26.4428   -5.7790   44.2130 N   0  0  1  0  0  0  0  0  0  0  0  0
  2  1  1  0  0  0  0
  3  1  1  6  0  0  0
  3  4  1  0  0  0  0
  3  5  1  0  0  0  0
  5  6  1  1  0  0  0
  5  7  1  0  0  0  0
  7  8  1  1  0  0  0
  7  9  1  0  0  0  0
  9  4  1  1  0  0  0
  9 20  1  0  0  0  0
 10 11  1  0  0  0  0
 11 12  1  1  0  0  0
 11 13  1  0  0  0  0
 14 13  1  6  0  0  0
 15 14  1  0  0  0  0
 15 16  1  6  0  0  0
 16 10  1  0  0  0  0
 16 17  2  0  0  0  0
 18 15  1  0  0  0  0
 19 18  1  0  0  0  0
 20 14  1  0  0  0  0
 20 19  1  6  0  0  0
M  END
>  <CHROM.1>
60.87939472,61.58058993,25.67894068,-4.53169947,43.89859343,0.77693529,-0.21932605
0.17376441

>  <Name>
1nyi_lig

>  <RI>
0

>  <Rbt.Current_Directory>
/home/itssahil/PROJECTS/Mol_Feturizer/New_Systems/rnas/1nyi

>  <Rbt.Executable>
rbdock ($Id: //depot/dev/client3/rdock/2013.1/src/exe/rbdock.cxx#4 $)

>  <Rbt.Library>
libRbt.so (2013.1, Build901 2013/11/27)

>  <Rbt.Parameter_File>
/export/apps/rDock/src/rDock_2013.1_src/data/scripts/dock_solv.prm

>  <Rbt.Receptor>
prm/pocket_docking_3.prm

>  <SCORE>
-10.005

>  <SCORE.INTER>
-8.33153

>  <SCORE.INTER.CONST>
1

>  <SCORE.INTER.POLAR>
-0.696044

>  <SCORE.INTER.ROT>
2

>  <SCORE.INTER.SOLV>
11.3531

>  <SCORE.INTER.VDW>
-11.9519

>  <SCORE.INTER.norm>
-0.416576

>  <SCORE.INTRA>
-1.67352

>  <SCORE.INTRA.DIHEDRAL>
-2.49803

>  <SCORE.INTRA.DIHEDRAL.0>
3.72394

>  <SCORE.INTRA.POLAR>
0

>  <SCORE.INTRA.POLAR.0>
0

>  <SCORE.INTRA.REPUL>
0

>  <SCORE.INTRA.REPUL.0>
0

>  <SCORE.INTRA.SOLV>
1.48387

>  <SCORE.INTRA.SOLV.lig_0>
-49.4697

>  <SCORE.INTRA.VDW>
-1.16643

>  <SCORE.INTRA.VDW.0>
-0.896538

>  <SCORE.INTRA.norm>
-0.0836758

>  <SCORE.RESTR>
0

>  <SCORE.RESTR.CAVITY>
0

>  <SCORE.RESTR.norm>
0

>  <SCORE.SYSTEM>
0

>  <SCORE.SYSTEM.CONST>
0

>  <SCORE.SYSTEM.DIHEDRAL>
0

>  <SCORE.SYSTEM.SOLV>
0

>  <SCORE.SYSTEM.norm>
0

>  <SCORE.heavy>
20

>  <SCORE.norm>
-0.500252

>  <RMSD>
2.774

$$$$
1nyi_lig
 OpenBabel11021811403D
libRbt.so/2013.1/901 2013/11/27
 20 22  0  0  0  0  0  0  0  0999 V2000
   25.5725   -2.0475   45.3598 C   0  0  0  0  0  0  0  0  0  0  0  0
   25.3625   -1.9550   46.7688 O   0  0  0  0  0  0  0  0  0  0  0  0
   26.9503   -2.5919   45.0543 C   0  0  1  0  0  0  0  0  0  0  0  0
   27.0623   -3.9298   45.6108 O   0  0  0  0  0  0  0  0  0  0  0  0
   27.2016   -2.7411   43.5580 C   0  0  1  0  0  0  0  0  0  0  0  0
   27.7828   -1.5599   43.0036 O   0  0  0  0  0  0  0  0  0  0  0  0
   28.1226   -3.9583   43.5046 C   0  0  1  0  0  0  0  0  0  0  0  0
   29.4719   -3.6512   43.8219 O   0  0  0  0  0  0  0  0  0  0  0  0
   27.5094   -4.8265   44.6010 C   0  0  2  0  0  0  0  0  0  0  0  0
   22.7920   -5.3941   42.6229 N   0  0  0  0  0  0  0  0  0  0  0  0
   23.4971   -4.2442   42.8831 C   0  0  1  0  0  0  0  0  0  0  0  0
   22.8710   -3.1061   42.5802 N   0  0  0  0  0  0  0  0  0  0  0  0
   24.7205   -4.2130   43.4037 N   0  0  0  0  0  0  0  0  0  0  0  0
   25.2045   -5.4624   43.6640 C   0  0  1  0  0  0  0  0  0  0  0  0
   24.5745   -6.6736   43.4385 C   0  0  1  0  0  0  0  0  0  0  0  0
   23.2698   -6.6806   42.8711 C   0  0  0  0  0  0  0  0  0  0  0  0
   22.5538   -7.6518   42.5959 O   0  0  0  0  0  0  0  0  0  0  0  0
   25.3945   -7.7283   43.8186 N   0  0  0  0  0  0  0  0  0  0  0  0
   26.4777   -7.1535   44.2639 C   0  0  0  0  0  0  0  0  0  0  0  0
   26.4423   -5.7773   44.2121 N   0  0  1  0  0  0  0  0  0  0  0  0
  2  1  1  0  0  0  0
  3  1  1  6  0  0  0
  3  4  1  0  0  0  0
  3  5  1  0  0  0  0
  5  6  1  1  0  0  0
  5  7  1  0  0  0  0
  7  8  1  1  0  0  0
  7  9  1  0  0  0  0
  9  4  1  1  0  0  0
  9 20  1  0  0  0  0
 10 11  1  0  0  0  0
 11 12  1  1  0  0  0
 11 13  1  0  0  0  0
 14 13  1  6  0  0  0
 15 14  1  0  0  0  0
 15 16  1  6  0  0  0
 16 10  1  0  0  0  0
 16 17  2  0  0  0  0
 18 15  1  0  0  0  0
 19 18  1  0  0  0  0
 20 14  1  0  0  0  0
 20 19  1  6  0  0  0
M  END
>  <CHROM.1>
61.43869472,60.98574045,25.67456436,-4.52850919,43.90774226,0.77800551,-0.21027658
0.18149398

>  <Name>
1nyi_lig

>  <RI>
0

>  <Rbt.Current_Directory>
/home/itssahil/PROJECTS/Mol_Feturizer/New_Systems/rnas/1nyi

>  <Rbt.Executable>
rbdock ($Id: //depot/dev/client3/rdock/2013.1/src/exe/rbdock.cxx#4 $)

>  <Rbt.Library>
libRbt.so (2013.1, Build901 2013/11/27)

>  <Rbt.Parameter_File>
/export/apps/rDock/src/rDock_2013.1_src/data/scripts/dock_solv.prm

>  <Rbt.Receptor>
prm/pocket_docking_3.prm

>  <SCORE>
-10.0149

>  <SCORE.INTER>
-8.34606

>  <SCORE.INTER.CONST>
1

>  <SCORE.INTER.POLAR>
-0.699381

>  <SCORE.INTER.ROT>
2

>  <SCORE.INTER.SOLV>
11.3147

>  <SCORE.INTER.VDW>
-11.9377

>  <SCORE.INTER.norm>
-0.417303

>  <SCORE.INTRA>
-1.66882

>  <SCORE.INTRA.DIHEDRAL>
-2.49553

>  <SCORE.INTRA.DIHEDRAL.0>
3.72394

>  <SCORE.INTRA.POLAR>
0

>  <SCORE.INTRA.POLAR.0>
0

>  <SCORE.INTRA.REPUL>
0

>  <SCORE.INTRA.REPUL.0>
0

>  <SCORE.INTRA.SOLV>
1.4947

>  <SCORE.INTRA.SOLV.lig_0>
-49.4697

>  <SCORE.INTRA.VDW>
-1.16841

>  <SCORE.INTRA.VDW.0>
-0.896538

>  <SCORE.INTRA.norm>
-0.0834411

>  <SCORE.RESTR>
0

>  <SCORE.RESTR.CAVITY>
0

>  <SCORE.RESTR.norm>
0

>  <SCORE.SYSTEM>
0

>  <SCORE.SYSTEM.CONST>
0

>  <SCORE.SYSTEM.DIHEDRAL>
0

>  <SCORE.SYSTEM.SOLV>
0

>  <SCORE.SYSTEM.norm>
0

>  <SCORE.heavy>
20

>  <SCORE.norm>
-0.500744

>  <RMSD>
2.776

$$$$
1nyi_lig
 OpenBabel11021811403D
libRbt.so/2013.1/901 2013/11/27
 20 22  0  0  0  0  0  0  0  0999 V2000
   25.6552   -2.4809   45.9332 C   0  0  0  0  0  0  0  0  0  0  0  0
   25.4387   -1.0838   45.7348 O   0  0  0  0  0  0  0  0  0  0  0  0
   27.0027   -2.9005   45.3888 C   0  0  1  0  0  0  0  0  0  0  0  0
   27.2311   -4.2968   45.7214 O   0  0  0  0  0  0  0  0  0  0  0  0
   27.0702   -2.8184   43.8679 C   0  0  1  0  0  0  0  0  0  0  0  0
   27.5350   -1.5400   43.4321 O   0  0  0  0  0  0  0  0  0  0  0  0
   28.0204   -3.9637   43.5242 C   0  0  1  0  0  0  0  0  0  0  0  0
   29.3869   -3.6335   43.7221 O   0  0  0  0  0  0  0  0  0  0  0  0
   27.5803   -5.0129   44.5428 C   0  0  2  0  0  0  0  0  0  0  0  0
   22.7008   -5.5354   42.9916 N   0  0  0  0  0  0  0  0  0  0  0  0
   23.3941   -4.3971   43.3244 C   0  0  1  0  0  0  0  0  0  0  0  0
   22.7053   -3.2585   43.2336 N   0  0  0  0  0  0  0  0  0  0  0  0
   24.6638   -4.3775   43.7194 N   0  0  0  0  0  0  0  0  0  0  0  0
   25.2103   -5.6274   43.7683 C   0  0  1  0  0  0  0  0  0  0  0  0
   24.5972   -6.8275   43.4543 C   0  0  1  0  0  0  0  0  0  0  0  0
   23.2410   -6.8208   43.0244 C   0  0  0  0  0  0  0  0  0  0  0  0
   22.5298   -7.7806   42.7007 O   0  0  0  0  0  0  0  0  0  0  0  0
   25.4843   -7.8845   43.6125 N   0  0  0  0  0  0  0  0  0  0  0  0
   26.5902   -7.3228   44.0167 C   0  0  0  0  0  0  0  0  0  0  0  0
   26.5077   -5.9536   44.1448 N   0  0  1  0  0  0  0  0  0  0  0  0
  2  1  1  0  0  0  0
  3  1  1  6  0  0  0
  3  4  1  0  0  0  0
  3  5  1  0  0  0  0
  5  6  1  1  0  0  0
  5  7  1  0  0  0  0
  7  8  1  1  0  0  0
  7  9  1  0  0  0  0
  9  4  1  1  0  0  0
  9 20  1  0  0  0  0
 10 11  1  0  0  0  0
 11 12  1  1  0  0  0
 11 13  1  0  0  0  0
 14 13  1  6  0  0  0
 15 14  1  0  0  0  0
 15 16  1  6  0  0  0
 16 10  1  0  0  0  0
 16 17  2  0  0  0  0
 18 15  1  0  0  0  0
 19 18  1  0  0  0  0
 20 14  1  0  0  0  0
 20 19  1  6  0  0  0
M  END
>  <CHROM.1>
174.81285363,62.71336919,25.66025596,-4.62901931,44.00973254,0.84383037,-0.14519365
0.21708721

>  <Name>
1nyi_lig

>  <RI>
0

>  <Rbt.Current_Directory>
/home/itssahil/PROJECTS/Mol_Feturizer/New_Systems/rnas/1nyi

>  <Rbt.Executable>
rbdock ($Id: //depot/dev/client3/rdock/2013.1/src/exe/rbdock.cxx#4 $)

>  <Rbt.Library>
libRbt.so (2013.1, Build901 2013/11/27)

>  <Rbt.Parameter_File>
/export/apps/rDock/src/rDock_2013.1_src/data/scripts/dock_solv.prm

>  <Rbt.Receptor>
prm/pocket_docking_3.prm

>  <SCORE>
-9.88675

>  <SCORE.INTER>
-8.33024

>  <SCORE.INTER.CONST>
1

>  <SCORE.INTER.POLAR>
-0.731559

>  <SCORE.INTER.ROT>
2

>  <SCORE.INTER.SOLV>
10.992

>  <SCORE.INTER.VDW>
-11.7123

>  <SCORE.INTER.norm>
-0.416512

>  <SCORE.INTRA>
-1.55651

>  <SCORE.INTRA.DIHEDRAL>
-2.40549

>  <SCORE.INTRA.DIHEDRAL.0>
3.72394

>  <SCORE.INTRA.POLAR>
0

>  <SCORE.INTRA.POLAR.0>
0

>  <SCORE.INTRA.REPUL>
0

>  <SCORE.INTRA.REPUL.0>
0

>  <SCORE.INTRA.SOLV>
1.74312

>  <SCORE.INTRA.SOLV.lig_0>
-49.4697

>  <SCORE.INTRA.VDW>
-1.22533

>  <SCORE.INTRA.VDW.0>
-0.896538

>  <SCORE.INTRA.norm>
-0.0778256

>  <SCORE.RESTR>
0

>  <SCORE.RESTR.CAVITY>
0

>  <SCORE.RESTR.norm>
0

>  <SCORE.SYSTEM>
0

>  <SCORE.SYSTEM.CONST>
0

>  <SCORE.SYSTEM.DIHEDRAL>
0

>  <SCORE.SYSTEM.SOLV>
0

>  <SCORE.SYSTEM.norm>
0

>  <SCORE.heavy>
20

>  <SCORE.norm>
-0.494338

>  <RMSD>
2.777

$$$$
1nyi_lig
 OpenBabel11021811403D
libRbt.so/2013.1/901 2013/11/27
 20 22  0  0  0  0  0  0  0  0999 V2000
   25.6299   -2.0668   45.3243 C   0  0  0  0  0  0  0  0  0  0  0  0
   25.3699   -1.9751   46.7250 O   0  0  0  0  0  0  0  0  0  0  0  0
   27.0048   -2.6429   45.0674 C   0  0  1  0  0  0  0  0  0  0  0  0
   27.0735   -3.9742   45.6463 O   0  0  0  0  0  0  0  0  0  0  0  0
   27.2963   -2.8196   43.5814 C   0  0  1  0  0  0  0  0  0  0  0  0
   27.9171   -1.6586   43.0273 O   0  0  0  0  0  0  0  0  0  0  0  0
   28.1938   -4.0553   43.5727 C   0  0  1  0  0  0  0  0  0  0  0  0
   29.5393   -3.7702   43.9251 O   0  0  0  0  0  0  0  0  0  0  0  0
   27.5316   -4.8947   44.6632 C   0  0  2  0  0  0  0  0  0  0  0  0
   22.8328   -5.3932   42.6231 N   0  0  0  0  0  0  0  0  0  0  0  0
   23.5494   -4.2536   42.8969 C   0  0  1  0  0  0  0  0  0  0  0  0
   22.9419   -3.1063   42.5908 N   0  0  0  0  0  0  0  0  0  0  0  0
   24.7664   -4.2403   43.4331 N   0  0  0  0  0  0  0  0  0  0  0  0
   25.2308   -5.4969   43.6945 C   0  0  1  0  0  0  0  0  0  0  0  0
   24.5881   -6.6990   43.4561 C   0  0  1  0  0  0  0  0  0  0  0  0
   23.2907   -6.6868   42.8722 C   0  0  0  0  0  0  0  0  0  0  0  0
   22.5657   -7.6475   42.5839 O   0  0  0  0  0  0  0  0  0  0  0  0
   25.3895   -7.7656   43.8422 N   0  0  0  0  0  0  0  0  0  0  0  0
   26.4742   -7.2068   44.3036 C   0  0  0  0  0  0  0  0  0  0  0  0
   26.4573   -5.8300   44.2569 N   0  0  1  0  0  0  0  0  0  0  0  0
  2  1  1  0  0  0  0
  3  1  1  6  0  0  0
  3  4  1  0  0  0  0
  3  5  1  0  0  0  0
  5  6  1  1  0  0  0
  5  7  1  0  0  0  0
  7  8  1  1  0  0  0
  7  9  1  0  0  0  0
  9  4  1  1  0  0  0
  9 20  1  0  0  0  0
 10 11  1  0  0  0  0
 11 12  1  1  0  0  0
 11 13  1  0  0  0  0
 14 13  1  6  0  0  0
 15 14  1  0  0  0  0
 15 16  1  6  0  0  0
 16 10  1  0  0  0  0
 16 17  2  0  0  0  0
 18 15  1  0  0  0  0
 19 18  1  0  0  0  0
 20 14  1  0  0  0  0
 20 19  1  6  0  0  0
M  END
>  <CHROM.1>
60.22115283,59.49667102,25.71519525,-4.57085425,43.93006449,0.76037738,-0.22011107
0.17427886

>  <Name>
1nyi_lig

>  <RI>
0

>  <Rbt.Current_Directory>
/home/itssahil/PROJECTS/Mol_Feturizer/New_Systems/rnas/1nyi

>  <Rbt.Executable>
rbdock ($Id: //depot/dev/client3/rdock/2013.1/src/exe/rbdock.cxx#4 $)

>  <Rbt.Library>
libRbt.so (2013.1, Build901 2013/11/27)

>  <Rbt.Parameter_File>
/export/apps/rDock/src/rDock_2013.1_src/data/scripts/dock_solv.prm

>  <Rbt.Receptor>
prm/pocket_docking_3.prm

>  <SCORE>
-10.0126

>  <SCORE.INTER>
-8.36252

>  <SCORE.INTER.CONST>
1

>  <SCORE.INTER.POLAR>
-0.693806

>  <SCORE.INTER.ROT>
2

>  <SCORE.INTER.SOLV>
11.0996

>  <SCORE.INTER.VDW>
-11.8955

>  <SCORE.INTER.norm>
-0.418126

>  <SCORE.INTRA>
-1.65006

>  <SCORE.INTRA.DIHEDRAL>
-2.51069

>  <SCORE.INTRA.DIHEDRAL.0>
3.72394

>  <SCORE.INTRA.POLAR>
0

>  <SCORE.INTRA.POLAR.0>
0

>  <SCORE.INTRA.REPUL>
0

>  <SCORE.INTRA.REPUL.0>
0

>  <SCORE.INTRA.SOLV>
1.53991

>  <SCORE.INTRA.SOLV.lig_0>
-49.4697

>  <SCORE.INTRA.VDW>
-1.16467

>  <SCORE.INTRA.VDW.0>
-0.896538

>  <SCORE.INTRA.norm>
-0.082503

>  <SCORE.RESTR>
0

>  <SCORE.RESTR.CAVITY>
0

>  <SCORE.RESTR.norm>
0

>  <SCORE.SYSTEM>
0

>  <SCORE.SYSTEM.CONST>
0

>  <SCORE.SYSTEM.DIHEDRAL>
0

>  <SCORE.SYSTEM.SOLV>
0

>  <SCORE.SYSTEM.norm>
0

>  <SCORE.heavy>
20

>  <SCORE.norm>
-0.500629

>  <RMSD>
2.777

$$$$
1nyi_lig
 OpenBabel11021811403D
libRbt.so/2013.1/901 2013/11/27
 20 22  0  0  0  0  0  0  0  0999 V2000
   25.5770   -2.0436   45.4147 C   0  0  0  0  0  0  0  0  0  0  0  0
   25.3898   -1.9669   46.8279 O   0  0  0  0  0  0  0  0  0  0  0  0
   26.9541   -2.5731   45.0810 C   0  0  1  0  0  0  0  0  0  0  0  0
   27.0844   -3.9178   45.6169 O   0  0  0  0  0  0  0  0  0  0  0  0
   27.1837   -2.6996   43.5791 C   0  0  1  0  0  0  0  0  0  0  0  0
   27.7476   -1.5064   43.0327 O   0  0  0  0  0  0  0  0  0  0  0  0
   28.1129   -3.9088   43.4948 C   0  0  1  0  0  0  0  0  0  0  0  0
   29.4646   -3.5958   43.7961 O   0  0  0  0  0  0  0  0  0  0  0  0
   27.5228   -4.7969   44.5880 C   0  0  2  0  0  0  0  0  0  0  0  0
   22.7996   -5.3759   42.6273 N   0  0  0  0  0  0  0  0  0  0  0  0
   23.5023   -4.2243   42.8864 C   0  0  1  0  0  0  0  0  0  0  0  0
   22.8715   -3.0876   42.5876 N   0  0  0  0  0  0  0  0  0  0  0  0
   24.7276   -4.1901   43.4023 N   0  0  0  0  0  0  0  0  0  0  0  0
   25.2163   -5.4385   43.6591 C   0  0  1  0  0  0  0  0  0  0  0  0
   24.5891   -6.6512   43.4343 C   0  0  1  0  0  0  0  0  0  0  0  0
   23.2823   -6.6613   42.8719 C   0  0  0  0  0  0  0  0  0  0  0  0
   22.5681   -7.6343   42.5981 O   0  0  0  0  0  0  0  0  0  0  0  0
   25.4137   -7.7039   43.8097 N   0  0  0  0  0  0  0  0  0  0  0  0
   26.4969   -7.1265   44.2516 C   0  0  0  0  0  0  0  0  0  0  0  0
   26.4571   -5.7503   44.2019 N   0  0  1  0  0  0  0  0  0  0  0  0
  2  1  1  0  0  0  0
  3  1  1  6  0  0  0
  3  4  1  0  0  0  0
  3  5  1  0  0  0  0
  5  6  1  1  0  0  0
  5  7  1  0  0  0  0
  7  8  1  1  0  0  0
  7  9  1  0  0  0  0
  9  4  1  1  0  0  0
  9 20  1  0  0  0  0
 10 11  1  0  0  0  0
 11 12  1  1  0  0  0
 11 13  1  0  0  0  0
 14 13  1  6  0  0  0
 15 14  1  0  0  0  0
 15 16  1  6  0  0  0
 16 10  1  0  0  0  0
 16 17  2  0  0  0  0
 18 15  1  0  0  0  0
 19 18  1  0  0  0  0
 20 14  1  0  0  0  0
 20 19  1  6  0  0  0
M  END
>  <CHROM.1>
61.69102413,61.98551739,25.68090494,-4.50390371,43.91437461,0.78392430,-0.20956285
0.18876390

>  <Name>
1nyi_lig

>  <RI>
0

>  <Rbt.Current_Directory>
/home/itssahil/PROJECTS/Mol_Feturizer/New_Systems/rnas/1nyi

>  <Rbt.Executable>
rbdock ($Id: //depot/dev/client3/rdock/2013.1/src/exe/rbdock.cxx#4 $)

>  <Rbt.Library>
libRbt.so (2013.1, Build901 2013/11/27)

>  <Rbt.Parameter_File>
/export/apps/rDock/src/rDock_2013.1_src/data/scripts/dock_solv.prm

>  <Rbt.Receptor>
prm/pocket_docking_3.prm

>  <SCORE>
-10.0026

>  <SCORE.INTER>
-8.32596

>  <SCORE.INTER.CONST>
1

>  <SCORE.INTER.POLAR>
-0.700541

>  <SCORE.INTER.ROT>
2

>  <SCORE.INTER.SOLV>
11.3671

>  <SCORE.INTER.VDW>
-11.9379

>  <SCORE.INTER.norm>
-0.416298

>  <SCORE.INTRA>
-1.67662

>  <SCORE.INTRA.DIHEDRAL>
-2.48793

>  <SCORE.INTRA.DIHEDRAL.0>
3.72394

>  <SCORE.INTRA.POLAR>
0

>  <SCORE.INTRA.POLAR.0>
0

>  <SCORE.INTRA.REPUL>
0

>  <SCORE.INTRA.REPUL.0>
0

>  <SCORE.INTRA.SOLV>
1.46691

>  <SCORE.INTRA.SOLV.lig_0>
-49.4697

>  <SCORE.INTRA.VDW>
-1.16611

>  <SCORE.INTRA.VDW.0>
-0.896538

>  <SCORE.INTRA.norm>
-0.083831

>  <SCORE.RESTR>
0

>  <SCORE.RESTR.CAVITY>
0

>  <SCORE.RESTR.norm>
0

>  <SCORE.SYSTEM>
0

>  <SCORE.SYSTEM.CONST>
0

>  <SCORE.SYSTEM.DIHEDRAL>
0

>  <SCORE.SYSTEM.SOLV>
0

>  <SCORE.SYSTEM.norm>
0

>  <SCORE.heavy>
20

>  <SCORE.norm>
-0.500129

>  <RMSD>
2.781

$$$$
1nyi_lig
 OpenBabel11021811403D
libRbt.so/2013.1/901 2013/11/27
 20 22  0  0  0  0  0  0  0  0999 V2000
   25.6592   -2.0585   45.3643 C   0  0  0  0  0  0  0  0  0  0  0  0
   25.4150   -1.9780   46.7685 O   0  0  0  0  0  0  0  0  0  0  0  0
   27.0320   -2.6301   45.0874 C   0  0  1  0  0  0  0  0  0  0  0  0
   27.1049   -3.9710   45.6431 O   0  0  0  0  0  0  0  0  0  0  0  0
   27.3125   -2.7815   43.5964 C   0  0  1  0  0  0  0  0  0  0  0  0
   27.9293   -1.6113   43.0575 O   0  0  0  0  0  0  0  0  0  0  0  0
   28.2097   -4.0170   43.5601 C   0  0  1  0  0  0  0  0  0  0  0  0
   29.5578   -3.7379   43.9072 O   0  0  0  0  0  0  0  0  0  0  0  0
   27.5555   -4.8747   44.6410 C   0  0  2  0  0  0  0  0  0  0  0  0
   22.8283   -5.3369   42.6589 N   0  0  0  0  0  0  0  0  0  0  0  0
   23.5455   -4.2022   42.9511 C   0  0  1  0  0  0  0  0  0  0  0  0
   22.9301   -3.0495   42.6835 N   0  0  0  0  0  0  0  0  0  0  0  0
   24.7703   -4.1985   43.4693 N   0  0  0  0  0  0  0  0  0  0  0  0
   25.2423   -5.4598   43.6916 C   0  0  1  0  0  0  0  0  0  0  0  0
   24.5998   -6.6575   43.4320 C   0  0  1  0  0  0  0  0  0  0  0  0
   23.2938   -6.6348   42.8680 C   0  0  0  0  0  0  0  0  0  0  0  0
   22.5674   -7.5903   42.5661 O   0  0  0  0  0  0  0  0  0  0  0  0
   25.4100   -7.7310   43.7788 N   0  0  0  0  0  0  0  0  0  0  0  0
   26.4999   -7.1804   44.2382 C   0  0  0  0  0  0  0  0  0  0  0  0
   26.4781   -5.8029   44.2270 N   0  0  1  0  0  0  0  0  0  0  0  0
  2  1  1  0  0  0  0
  3  1  1  6  0  0  0
  3  4  1  0  0  0  0
  3  5  1  0  0  0  0
  5  6  1  1  0  0  0
  5  7  1  0  0  0  0
  7  8  1  1  0  0  0
  7  9  1  0  0  0  0
  9  4  1  1  0  0  0
  9 20  1  0  0  0  0
 10 11  1  0  0  0  0
 11 12  1  1  0  0  0
 11 13  1  0  0  0  0
 14 13  1  6  0  0  0
 15 14  1  0  0  0  0
 15 16  1  6  0  0  0
 16 10  1  0  0  0  0
 16 17  2  0  0  0  0
 18 15  1  0  0  0  0
 19 18  1  0  0  0  0
 20 14  1  0  0  0  0
 20 19  1  6  0  0  0
M  END
>  <CHROM.1>
60.80629968,58.82118207,25.73044128,-4.53724629,43.93541545,0.75896008,-0.20278168
0.19651160

>  <Name>
1nyi_lig

>  <RI>
0

>  <Rbt.Current_Directory>
/home/itssahil/PROJECTS/Mol_Feturizer/New_Systems/rnas/1nyi

>  <Rbt.Executable>
rbdock ($Id: //depot/dev/client3/rdock/2013.1/src/exe/rbdock.cxx#4 $)

>  <Rbt.Library>
libRbt.so (2013.1, Build901 2013/11/27)

>  <Rbt.Parameter_File>
/export/apps/rDock/src/rDock_2013.1_src/data/scripts/dock_solv.prm

>  <Rbt.Receptor>
prm/pocket_docking_4.prm

>  <SCORE>
-9.98758

>  <SCORE.INTER>
-8.34543

>  <SCORE.INTER.CONST>
1

>  <SCORE.INTER.POLAR>
-0.697836

>  <SCORE.INTER.ROT>
2

>  <SCORE.INTER.SOLV>
11.2644

>  <SCORE.INTER.VDW>
-11.9256

>  <SCORE.INTER.norm>
-0.417272

>  <SCORE.INTRA>
-1.64215

>  <SCORE.INTRA.DIHEDRAL>
-2.51101

>  <SCORE.INTRA.DIHEDRAL.0>
3.72394

>  <SCORE.INTRA.POLAR>
0

>  <SCORE.INTRA.POLAR.0>
0

>  <SCORE.INTRA.REPUL>
0

>  <SCORE.INTRA.REPUL.0>
0

>  <SCORE.INTRA.SOLV>
1.55077

>  <SCORE.INTRA.SOLV.lig_0>
-49.4697

>  <SCORE.INTRA.VDW>
-1.16203

>  <SCORE.INTRA.VDW.0>
-0.896538

>  <SCORE.INTRA.norm>
-0.0821075

>  <SCORE.RESTR>
0

>  <SCORE.RESTR.CAVITY>
0

>  <SCORE.RESTR.norm>
0

>  <SCORE.SYSTEM>
0

>  <SCORE.SYSTEM.CONST>
0

>  <SCORE.SYSTEM.DIHEDRAL>
0

>  <SCORE.SYSTEM.SOLV>
0

>  <SCORE.SYSTEM.norm>
0

>  <SCORE.heavy>
20

>  <SCORE.norm>
-0.499379

>  <RMSD>
2.785

$$$$
1nyi_lig
 OpenBabel11021811403D
libRbt.so/2013.1/901 2013/11/27
 20 22  0  0  0  0  0  0  0  0999 V2000
   25.6651   -2.1374   45.4582 C   0  0  0  0  0  0  0  0  0  0  0  0
   25.4713   -2.0811   46.8714 O   0  0  0  0  0  0  0  0  0  0  0  0
   27.0502   -2.6450   45.1234 C   0  0  1  0  0  0  0  0  0  0  0  0
   27.1981   -3.9920   45.6488 O   0  0  0  0  0  0  0  0  0  0  0  0
   27.2849   -2.7560   43.6211 C   0  0  1  0  0  0  0  0  0  0  0  0
   27.8333   -1.5507   43.0856 O   0  0  0  0  0  0  0  0  0  0  0  0
   28.2311   -3.9514   43.5292 C   0  0  1  0  0  0  0  0  0  0  0  0
   29.5775   -3.6221   43.8361 O   0  0  0  0  0  0  0  0  0  0  0  0
   27.6510   -4.8565   44.6138 C   0  0  2  0  0  0  0  0  0  0  0  0
   22.8948   -5.4813   42.7490 N   0  0  0  0  0  0  0  0  0  0  0  0
   23.5754   -4.3227   43.0350 C   0  0  1  0  0  0  0  0  0  0  0  0
   22.9094   -3.1920   42.7958 N   0  0  0  0  0  0  0  0  0  0  0  0
   24.8123   -4.2768   43.5215 N   0  0  0  0  0  0  0  0  0  0  0  0
   25.3380   -5.5211   43.7178 C   0  0  1  0  0  0  0  0  0  0  0  0
   24.7352   -6.7401   43.4619 C   0  0  1  0  0  0  0  0  0  0  0  0
   23.4151   -6.7623   42.9318 C   0  0  0  0  0  0  0  0  0  0  0  0
   22.7183   -7.7420   42.6383 O   0  0  0  0  0  0  0  0  0  0  0  0
   25.5948   -7.7849   43.7760 N   0  0  0  0  0  0  0  0  0  0  0  0
   26.6744   -7.1972   44.2131 C   0  0  0  0  0  0  0  0  0  0  0  0
   26.5995   -5.8215   44.2175 N   0  0  1  0  0  0  0  0  0  0  0  0
  2  1  1  0  0  0  0
  3  1  1  6  0  0  0
  3  4  1  0  0  0  0
  3  5  1  0  0  0  0
  5  6  1  1  0  0  0
  5  7  1  0  0  0  0
  7  8  1  1  0  0  0
  7  9  1  0  0  0  0
  9  4  1  1  0  0  0
  9 20  1  0  0  0  0
 10 11  1  0  0  0  0
 11 12  1  1  0  0  0
 11 13  1  0  0  0  0
 14 13  1  6  0  0  0
 15 14  1  0  0  0  0
 15 16  1  6  0  0  0
 16 10  1  0  0  0  0
 16 17  2  0  0  0  0
 18 15  1  0  0  0  0
 19 18  1  0  0  0  0
 20 14  1  0  0  0  0
 20 19  1  6  0  0  0
M  END
>  <CHROM.1>
61.40015629,59.56584063,25.79405429,-4.58279748,43.96808670,0.79531899,-0.17172979
0.21761381

>  <Name>
1nyi_lig

>  <RI>
0

>  <Rbt.Current_Directory>
/home/itssahil/PROJECTS/Mol_Feturizer/New_Systems/rnas/1nyi

>  <Rbt.Executable>
rbdock ($Id: //depot/dev/client3/rdock/2013.1/src/exe/rbdock.cxx#4 $)

>  <Rbt.Library>
libRbt.so (2013.1, Build901 2013/11/27)

>  <Rbt.Parameter_File>
/export/apps/rDock/src/rDock_2013.1_src/data/scripts/dock_solv.prm

>  <Rbt.Receptor>
prm/pocket_docking_3.prm

>  <SCORE>
-10.0095

>  <SCORE.INTER>
-8.35627

>  <SCORE.INTER.CONST>
1

>  <SCORE.INTER.POLAR>
-0.660237

>  <SCORE.INTER.ROT>
2

>  <SCORE.INTER.SOLV>
11.1543

>  <SCORE.INTER.VDW>
-12.0215

>  <SCORE.INTER.norm>
-0.417814

>  <SCORE.INTRA>
-1.65318

>  <SCORE.INTRA.DIHEDRAL>
-2.50238

>  <SCORE.INTRA.DIHEDRAL.0>
3.72394

>  <SCORE.INTRA.POLAR>
0

>  <SCORE.INTRA.POLAR.0>
0

>  <SCORE.INTRA.REPUL>
0

>  <SCORE.INTRA.REPUL.0>
0

>  <SCORE.INTRA.SOLV>
1.52903

>  <SCORE.INTRA.SOLV.lig_0>
-49.4697

>  <SCORE.INTRA.VDW>
-1.16651

>  <SCORE.INTRA.VDW.0>
-0.896538

>  <SCORE.INTRA.norm>
-0.0826592

>  <SCORE.RESTR>
0

>  <SCORE.RESTR.CAVITY>
0

>  <SCORE.RESTR.norm>
0

>  <SCORE.SYSTEM>
0

>  <SCORE.SYSTEM.CONST>
0

>  <SCORE.SYSTEM.DIHEDRAL>
0

>  <SCORE.SYSTEM.SOLV>
0

>  <SCORE.SYSTEM.norm>
0

>  <SCORE.heavy>
20

>  <SCORE.norm>
-0.500473

>  <RMSD>
2.788

$$$$
1nyi_lig
 OpenBabel11021811403D
libRbt.so/2013.1/901 2013/11/27
 20 22  0  0  0  0  0  0  0  0999 V2000
   25.4952   -2.4890   45.4904 C   0  0  0  0  0  0  0  0  0  0  0  0
   25.4534   -1.1260   45.0678 O   0  0  0  0  0  0  0  0  0  0  0  0
   26.8456   -3.1038   45.1962 C   0  0  1  0  0  0  0  0  0  0  0  0
   26.8694   -4.4602   45.7175 O   0  0  0  0  0  0  0  0  0  0  0  0
   27.1184   -3.2275   43.7013 C   0  0  1  0  0  0  0  0  0  0  0  0
   27.7775   -2.0676   43.1909 O   0  0  0  0  0  0  0  0  0  0  0  0
   27.9693   -4.4940   43.6317 C   0  0  1  0  0  0  0  0  0  0  0  0
   29.3272   -4.2739   43.9829 O   0  0  0  0  0  0  0  0  0  0  0  0
   27.2850   -5.3541   44.6919 C   0  0  2  0  0  0  0  0  0  0  0  0
   22.5917   -5.5969   42.5937 N   0  0  0  0  0  0  0  0  0  0  0  0
   23.3569   -4.4970   42.8966 C   0  0  1  0  0  0  0  0  0  0  0  0
   22.8064   -3.3173   42.6060 N   0  0  0  0  0  0  0  0  0  0  0  0
   24.5670   -4.5499   43.4456 N   0  0  0  0  0  0  0  0  0  0  0  0
   24.9701   -5.8313   43.6879 C   0  0  1  0  0  0  0  0  0  0  0  0
   24.2754   -6.9977   43.4200 C   0  0  1  0  0  0  0  0  0  0  0  0
   22.9867   -6.9147   42.8229 C   0  0  0  0  0  0  0  0  0  0  0  0
   22.2215   -7.8353   42.5089 O   0  0  0  0  0  0  0  0  0  0  0  0
   25.0224   -8.1073   43.7942 N   0  0  0  0  0  0  0  0  0  0  0  0
   26.1265   -7.6078   44.2774 C   0  0  0  0  0  0  0  0  0  0  0  0
   26.1735   -6.2311   44.2567 N   0  0  1  0  0  0  0  0  0  0  0  0
  2  1  1  0  0  0  0
  3  1  1  6  0  0  0
  3  4  1  0  0  0  0
  3  5  1  0  0  0  0
  5  6  1  1  0  0  0
  5  7  1  0  0  0  0
  7  8  1  1  0  0  0
  7  9  1  0  0  0  0
  9  4  1  1  0  0  0
  9 20  1  0  0  0  0
 10 11  1  0  0  0  0
 11 12  1  1  0  0  0
 11 13  1  0  0  0  0
 14 13  1  6  0  0  0
 15 14  1  0  0  0  0
 15 16  1  6  0  0  0
 16 10  1  0  0  0  0
 16 17  2  0  0  0  0
 18 15  1  0  0  0  0
 19 18  1  0  0  0  0
 20 14  1  0  0  0  0
 20 19  1  6  0  0  0
M  END
>  <CHROM.1>
176.46243611,61.34294240,25.49772091,-4.85904616,43.86413859,0.75560129,-0.27971309
0.07993062

>  <Name>
1nyi_lig

>  <RI>
0

>  <Rbt.Current_Directory>
/home/itssahil/PROJECTS/Mol_Feturizer/New_Systems/rnas/1nyi

>  <Rbt.Executable>
rbdock ($Id: //depot/dev/client3/rdock/2013.1/src/exe/rbdock.cxx#4 $)

>  <Rbt.Library>
libRbt.so (2013.1, Build901 2013/11/27)

>  <Rbt.Parameter_File>
/export/apps/rDock/src/rDock_2013.1_src/data/scripts/dock_solv.prm

>  <Rbt.Receptor>
prm/pocket_docking_2.prm

>  <SCORE>
-7.61075

>  <SCORE.INTER>
-6.71191

>  <SCORE.INTER.CONST>
1

>  <SCORE.INTER.POLAR>
-0.690857

>  <SCORE.INTER.ROT>
2

>  <SCORE.INTER.SOLV>
11.5137

>  <SCORE.INTER.VDW>
-10.943

>  <SCORE.INTER.norm>
-0.335595

>  <SCORE.INTRA>
-1.53783

>  <SCORE.INTRA.DIHEDRAL>
-2.46134

>  <SCORE.INTRA.DIHEDRAL.0>
3.72394

>  <SCORE.INTRA.POLAR>
0

>  <SCORE.INTRA.POLAR.0>
0

>  <SCORE.INTRA.REPUL>
0

>  <SCORE.INTRA.REPUL.0>
0

>  <SCORE.INTRA.SOLV>
1.84017

>  <SCORE.INTRA.SOLV.lig_0>
-49.4697

>  <SCORE.INTRA.VDW>
-1.22725

>  <SCORE.INTRA.VDW.0>
-0.896538

>  <SCORE.INTRA.norm>
-0.0768916

>  <SCORE.RESTR>
0.638992

>  <SCORE.RESTR.CAVITY>
0.638992

>  <SCORE.RESTR.norm>
0.0319496

>  <SCORE.SYSTEM>
0

>  <SCORE.SYSTEM.CONST>
0

>  <SCORE.SYSTEM.DIHEDRAL>
0

>  <SCORE.SYSTEM.SOLV>
0

>  <SCORE.SYSTEM.norm>
0

>  <SCORE.heavy>
20

>  <SCORE.norm>
-0.380537

>  <RMSD>
2.791

$$$$
1nyi_lig
 OpenBabel11021811403D
libRbt.so/2013.1/901 2013/11/27
 20 22  0  0  0  0  0  0  0  0999 V2000
   25.6531   -2.2902   44.7463 C   0  0  0  0  0  0  0  0  0  0  0  0
   25.1770   -1.9447   46.0471 O   0  0  0  0  0  0  0  0  0  0  0  0
   26.9719   -3.0261   44.8324 C   0  0  1  0  0  0  0  0  0  0  0  0
   26.7820   -4.2448   45.6011 O   0  0  0  0  0  0  0  0  0  0  0  0
   27.4835   -3.4708   43.4668 C   0  0  1  0  0  0  0  0  0  0  0  0
   28.3235   -2.4795   42.8735 O   0  0  0  0  0  0  0  0  0  0  0  0
   28.2142   -4.7693   43.8024 C   0  0  1  0  0  0  0  0  0  0  0  0
   29.5065   -4.5567   44.3505 O   0  0  0  0  0  0  0  0  0  0  0  0
   27.2831   -5.3529   44.8629 C   0  0  2  0  0  0  0  0  0  0  0  0
   22.6904   -5.6415   42.5579 N   0  0  0  0  0  0  0  0  0  0  0  0
   23.4486   -4.5360   42.8584 C   0  0  1  0  0  0  0  0  0  0  0  0
   22.9207   -3.3640   42.5024 N   0  0  0  0  0  0  0  0  0  0  0  0
   24.6316   -4.5768   43.4647 N   0  0  0  0  0  0  0  0  0  0  0  0
   25.0138   -5.8513   43.7691 C   0  0  1  0  0  0  0  0  0  0  0  0
   24.3240   -7.0223   43.5090 C   0  0  1  0  0  0  0  0  0  0  0  0
   23.0650   -6.9527   42.8500 C   0  0  0  0  0  0  0  0  0  0  0  0
   22.3086   -7.8793   42.5322 O   0  0  0  0  0  0  0  0  0  0  0  0
   25.0448   -8.1225   43.9551 N   0  0  0  0  0  0  0  0  0  0  0  0
   26.1289   -7.6129   44.4719 C   0  0  0  0  0  0  0  0  0  0  0  0
   26.1866   -6.2380   44.4066 N   0  0  1  0  0  0  0  0  0  0  0  0
  2  1  1  0  0  0  0
  3  1  1  6  0  0  0
  3  4  1  0  0  0  0
  3  5  1  0  0  0  0
  5  6  1  1  0  0  0
  5  7  1  0  0  0  0
  7  8  1  1  0  0  0
  7  9  1  0  0  0  0
  9  4  1  6  0  0  0
  9 20  1  0  0  0  0
 10 11  1  0  0  0  0
 11 12  1  1  0  0  0
 11 13  1  0  0  0  0
 14 13  1  6  0  0  0
 15 14  1  0  0  0  0
 15 16  1  6  0  0  0
 16 10  1  0  0  0  0
 16 17  2  0  0  0  0
 18 15  1  0  0  0  0
 19 18  1  0  0  0  0
 20 14  1  0  0  0  0
 20 19  1  6  0  0  0
M  END
>  <CHROM.1>
60.28165234,48.41294766,25.59269019,-4.95858439,43.89486290,0.66177772,-0.26007888
0.07931432

>  <Name>
1nyi_lig

>  <RI>
0

>  <Rbt.Current_Directory>
/home/itssahil/PROJECTS/Mol_Feturizer/New_Systems/rnas/1nyi

>  <Rbt.Executable>
rbdock ($Id: //depot/dev/client3/rdock/2013.1/src/exe/rbdock.cxx#4 $)

>  <Rbt.Library>
libRbt.so (2013.1, Build901 2013/11/27)

>  <Rbt.Parameter_File>
/export/apps/rDock/src/rDock_2013.1_src/data/scripts/dock_solv.prm

>  <Rbt.Receptor>
prm/pocket_docking_2.prm

>  <SCORE>
-7.08097

>  <SCORE.INTER>
-6.48691

>  <SCORE.INTER.CONST>
1

>  <SCORE.INTER.POLAR>
-0.677698

>  <SCORE.INTER.ROT>
2

>  <SCORE.INTER.SOLV>
10.4786

>  <SCORE.INTER.VDW>
-10.4918

>  <SCORE.INTER.norm>
-0.324345

>  <SCORE.INTRA>
-1.32518

>  <SCORE.INTRA.DIHEDRAL>
-2.55633

>  <SCORE.INTRA.DIHEDRAL.0>
3.72394

>  <SCORE.INTRA.POLAR>
0

>  <SCORE.INTRA.POLAR.0>
0

>  <SCORE.INTRA.REPUL>
0

>  <SCORE.INTRA.REPUL.0>
0

>  <SCORE.INTRA.SOLV>
1.75374

>  <SCORE.INTRA.SOLV.lig_0>
-49.4697

>  <SCORE.INTRA.VDW>
-0.923888

>  <SCORE.INTRA.VDW.0>
-0.896538

>  <SCORE.INTRA.norm>
-0.0662592

>  <SCORE.RESTR>
0.731119

>  <SCORE.RESTR.CAVITY>
0.731119

>  <SCORE.RESTR.norm>
0.0365559

>  <SCORE.SYSTEM>
0

>  <SCORE.SYSTEM.CONST>
0

>  <SCORE.SYSTEM.DIHEDRAL>
0

>  <SCORE.SYSTEM.SOLV>
0

>  <SCORE.SYSTEM.norm>
0

>  <SCORE.heavy>
20

>  <SCORE.norm>
-0.354049

>  <RMSD>
2.811

$$$$
1nyi_lig
 OpenBabel11021811403D
libRbt.so/2013.1/901 2013/11/27
 20 22  0  0  0  0  0  0  0  0999 V2000
   25.7597   -2.6063   46.0746 C   0  0  0  0  0  0  0  0  0  0  0  0
   25.5070   -1.2136   45.8885 O   0  0  0  0  0  0  0  0  0  0  0  0
   27.0865   -3.0000   45.4640 C   0  0  1  0  0  0  0  0  0  0  0  0
   27.3284   -4.4081   45.7305 O   0  0  0  0  0  0  0  0  0  0  0  0
   27.0974   -2.8558   43.9463 C   0  0  1  0  0  0  0  0  0  0  0  0
   27.5445   -1.5595   43.5461 O   0  0  0  0  0  0  0  0  0  0  0  0
   28.0352   -3.9838   43.5210 C   0  0  1  0  0  0  0  0  0  0  0  0
   29.4078   -3.6585   43.6816 O   0  0  0  0  0  0  0  0  0  0  0  0
   27.6343   -5.0747   44.5116 C   0  0  2  0  0  0  0  0  0  0  0  0
   22.7130   -5.5411   43.0790 N   0  0  0  0  0  0  0  0  0  0  0  0
   23.4184   -4.4145   43.4260 C   0  0  1  0  0  0  0  0  0  0  0  0
   22.7307   -3.2723   43.3874 N   0  0  0  0  0  0  0  0  0  0  0  0
   24.6984   -4.4092   43.7867 N   0  0  0  0  0  0  0  0  0  0  0  0
   25.2423   -5.6611   43.7841 C   0  0  1  0  0  0  0  0  0  0  0  0
   24.6175   -6.8502   43.4519 C   0  0  1  0  0  0  0  0  0  0  0  0
   23.2501   -6.8280   43.0594 C   0  0  0  0  0  0  0  0  0  0  0  0
   22.5277   -7.7764   42.7272 O   0  0  0  0  0  0  0  0  0  0  0  0
   25.5054   -7.9133   43.5549 N   0  0  0  0  0  0  0  0  0  0  0  0
   26.6235   -7.3661   43.9451 C   0  0  0  0  0  0  0  0  0  0  0  0
   26.5485   -6.0011   44.1155 N   0  0  1  0  0  0  0  0  0  0  0  0
  2  1  1  0  0  0  0
  3  1  1  6  0  0  0
  3  4  1  0  0  0  0
  3  5  1  0  0  0  0
  5  6  1  1  0  0  0
  5  7  1  0  0  0  0
  7  8  1  1  0  0  0
  7  9  1  0  0  0  0
  9  4  1  1  0  0  0
  9 20  1  0  0  0  0
 10 11  1  0  0  0  0
 11 12  1  1  0  0  0
 11 13  1  0  0  0  0
 14 13  1  6  0  0  0
 15 14  1  0  0  0  0
 15 16  1  6  0  0  0
 16 10  1  0  0  0  0
 16 17  2  0  0  0  0
 18 15  1  0  0  0  0
 19 18  1  0  0  0  0
 20 14  1  0  0  0  0
 20 19  1  6  0  0  0
M  END
>  <CHROM.1>
177.43409191,63.61938215,25.69710821,-4.67365977,44.05154310,0.83604194,-0.12171546
0.24875749

>  <Name>
1nyi_lig

>  <RI>
0

>  <Rbt.Current_Directory>
/home/itssahil/PROJECTS/Mol_Feturizer/New_Systems/rnas/1nyi

>  <Rbt.Executable>
rbdock ($Id: //depot/dev/client3/rdock/2013.1/src/exe/rbdock.cxx#4 $)

>  <Rbt.Library>
libRbt.so (2013.1, Build901 2013/11/27)

>  <Rbt.Parameter_File>
/export/apps/rDock/src/rDock_2013.1_src/data/scripts/dock_solv.prm

>  <Rbt.Receptor>
prm/pocket_docking_3.prm

>  <SCORE>
-9.92259

>  <SCORE.INTER>
-8.37814

>  <SCORE.INTER.CONST>
1

>  <SCORE.INTER.POLAR>
-0.762163

>  <SCORE.INTER.ROT>
2

>  <SCORE.INTER.SOLV>
10.6276

>  <SCORE.INTER.VDW>
-11.5208

>  <SCORE.INTER.norm>
-0.418907

>  <SCORE.INTRA>
-1.54444

>  <SCORE.INTRA.DIHEDRAL>
-2.47132

>  <SCORE.INTRA.DIHEDRAL.0>
3.72394

>  <SCORE.INTRA.POLAR>
0

>  <SCORE.INTRA.POLAR.0>
0

>  <SCORE.INTRA.REPUL>
0

>  <SCORE.INTRA.REPUL.0>
0

>  <SCORE.INTRA.SOLV>
1.77157

>  <SCORE.INTRA.SOLV.lig_0>
-49.4697

>  <SCORE.INTRA.VDW>
-1.19457

>  <SCORE.INTRA.VDW.0>
-0.896538

>  <SCORE.INTRA.norm>
-0.0772221

>  <SCORE.RESTR>
0

>  <SCORE.RESTR.CAVITY>
0

>  <SCORE.RESTR.norm>
0

>  <SCORE.SYSTEM>
0

>  <SCORE.SYSTEM.CONST>
0

>  <SCORE.SYSTEM.DIHEDRAL>
0

>  <SCORE.SYSTEM.SOLV>
0

>  <SCORE.SYSTEM.norm>
0

>  <SCORE.heavy>
20

>  <SCORE.norm>
-0.496129

>  <RMSD>
2.811

$$$$
1nyi_lig
 OpenBabel11021811403D
libRbt.so/2013.1/901 2013/11/27
 20 22  0  0  0  0  0  0  0  0999 V2000
   25.7642   -2.6531   46.1736 C   0  0  0  0  0  0  0  0  0  0  0  0
   25.5005   -1.2563   46.0409 O   0  0  0  0  0  0  0  0  0  0  0  0
   27.0816   -3.0173   45.5256 C   0  0  1  0  0  0  0  0  0  0  0  0
   27.3456   -4.4279   45.7552 O   0  0  0  0  0  0  0  0  0  0  0  0
   27.0573   -2.8394   44.0115 C   0  0  1  0  0  0  0  0  0  0  0  0
   27.4804   -1.5294   43.6307 O   0  0  0  0  0  0  0  0  0  0  0  0
   27.9985   -3.9464   43.5409 C   0  0  1  0  0  0  0  0  0  0  0  0
   29.3704   -3.6083   43.6786 O   0  0  0  0  0  0  0  0  0  0  0  0
   27.6322   -5.0637   44.5153 C   0  0  2  0  0  0  0  0  0  0  0  0
   22.7103   -5.5478   43.0905 N   0  0  0  0  0  0  0  0  0  0  0  0
   23.4127   -4.4184   43.4345 C   0  0  1  0  0  0  0  0  0  0  0  0
   22.7215   -3.2783   43.3947 N   0  0  0  0  0  0  0  0  0  0  0  0
   24.6933   -4.4085   43.7934 N   0  0  0  0  0  0  0  0  0  0  0  0
   25.2410   -5.6588   43.7923 C   0  0  1  0  0  0  0  0  0  0  0  0
   24.6193   -6.8504   43.4631 C   0  0  1  0  0  0  0  0  0  0  0  0
   23.2513   -6.8331   43.0725 C   0  0  0  0  0  0  0  0  0  0  0  0
   22.5313   -7.7842   42.7430 O   0  0  0  0  0  0  0  0  0  0  0  0
   25.5106   -7.9105   43.5668 N   0  0  0  0  0  0  0  0  0  0  0  0
   26.6276   -7.3592   43.9544 C   0  0  0  0  0  0  0  0  0  0  0  0
   26.5487   -5.9941   44.1224 N   0  0  1  0  0  0  0  0  0  0  0  0
  2  1  1  0  0  0  0
  3  1  1  6  0  0  0
  3  4  1  0  0  0  0
  3  5  1  0  0  0  0
  5  6  1  1  0  0  0
  5  7  1  0  0  0  0
  7  8  1  1  0  0  0
  7  9  1  0  0  0  0
  9  4  1  1  0  0  0
  9 20  1  0  0  0  0
 10 11  1  0  0  0  0
 11 12  1  1  0  0  0
 11 13  1  0  0  0  0
 14 13  1  6  0  0  0
 15 14  1  0  0  0  0
 15 16  1  6  0  0  0
 16 10  1  0  0  0  0
 16 17  2  0  0  0  0
 18 15  1  0  0  0  0
 19 18  1  0  0  0  0
 20 14  1  0  0  0  0
 20 19  1  6  0  0  0
M  END
>  <CHROM.1>
176.59483907,65.49811698,25.68792128,-4.67326928,44.08358972,0.84475259,-0.12177339
0.26302265

>  <Name>
1nyi_lig

>  <RI>
0

>  <Rbt.Current_Directory>
/home/itssahil/PROJECTS/Mol_Feturizer/New_Systems/rnas/1nyi

>  <Rbt.Executable>
rbdock ($Id: //depot/dev/client3/rdock/2013.1/src/exe/rbdock.cxx#4 $)

>  <Rbt.Library>
libRbt.so (2013.1, Build901 2013/11/27)

>  <Rbt.Parameter_File>
/export/apps/rDock/src/rDock_2013.1_src/data/scripts/dock_solv.prm

>  <Rbt.Receptor>
prm/pocket_docking_3.prm

>  <SCORE>
-9.96018

>  <SCORE.INTER>
-8.39966

>  <SCORE.INTER.CONST>
1

>  <SCORE.INTER.POLAR>
-0.774703

>  <SCORE.INTER.ROT>
2

>  <SCORE.INTER.SOLV>
10.3248

>  <SCORE.INTER.VDW>
-11.3924

>  <SCORE.INTER.norm>
-0.419983

>  <SCORE.INTRA>
-1.56051

>  <SCORE.INTRA.DIHEDRAL>
-2.44581

>  <SCORE.INTRA.DIHEDRAL.0>
3.72394

>  <SCORE.INTRA.POLAR>
0

>  <SCORE.INTRA.POLAR.0>
0

>  <SCORE.INTRA.REPUL>
0

>  <SCORE.INTRA.REPUL.0>
0

>  <SCORE.INTRA.SOLV>
1.67673

>  <SCORE.INTRA.SOLV.lig_0>
-49.4697

>  <SCORE.INTRA.VDW>
-1.17597

>  <SCORE.INTRA.VDW.0>
-0.896538

>  <SCORE.INTRA.norm>
-0.0780257

>  <SCORE.RESTR>
0

>  <SCORE.RESTR.CAVITY>
0

>  <SCORE.RESTR.norm>
0

>  <SCORE.SYSTEM>
0

>  <SCORE.SYSTEM.CONST>
0

>  <SCORE.SYSTEM.DIHEDRAL>
0

>  <SCORE.SYSTEM.SOLV>
0

>  <SCORE.SYSTEM.norm>
0

>  <SCORE.heavy>
20

>  <SCORE.norm>
-0.498009

>  <RMSD>
2.831

$$$$
1nyi_lig
 OpenBabel11021811403D
libRbt.so/2013.1/901 2013/11/27
 20 22  0  0  0  0  0  0  0  0999 V2000
   25.7555   -2.6675   46.1717 C   0  0  0  0  0  0  0  0  0  0  0  0
   25.4966   -1.2684   46.0553 O   0  0  0  0  0  0  0  0  0  0  0  0
   27.0757   -3.0273   45.5270 C   0  0  1  0  0  0  0  0  0  0  0  0
   27.3431   -4.4373   45.7560 O   0  0  0  0  0  0  0  0  0  0  0  0
   27.0550   -2.8481   44.0130 C   0  0  1  0  0  0  0  0  0  0  0  0
   27.4754   -1.5364   43.6346 O   0  0  0  0  0  0  0  0  0  0  0  0
   28.0007   -3.9518   43.5439 C   0  0  1  0  0  0  0  0  0  0  0  0
   29.3713   -3.6099   43.6857 O   0  0  0  0  0  0  0  0  0  0  0  0
   27.6349   -5.0711   44.5163 C   0  0  2  0  0  0  0  0  0  0  0  0
   22.7065   -5.5725   43.1203 N   0  0  0  0  0  0  0  0  0  0  0  0
   23.4034   -4.4425   43.4733 C   0  0  1  0  0  0  0  0  0  0  0  0
   22.7040   -3.3069   43.4526 N   0  0  0  0  0  0  0  0  0  0  0  0
   24.6864   -4.4279   43.8232 N   0  0  0  0  0  0  0  0  0  0  0  0
   25.2429   -5.6742   43.8028 C   0  0  1  0  0  0  0  0  0  0  0  0
   24.6272   -6.8660   43.4633 C   0  0  1  0  0  0  0  0  0  0  0  0
   23.2564   -6.8536   43.0826 C   0  0  0  0  0  0  0  0  0  0  0  0
   22.5407   -7.8057   42.7464 O   0  0  0  0  0  0  0  0  0  0  0  0
   25.5267   -7.9210   43.5475 N   0  0  0  0  0  0  0  0  0  0  0  0
   26.6425   -7.3666   43.9341 C   0  0  0  0  0  0  0  0  0  0  0  0
   26.5552   -6.0043   44.1195 N   0  0  1  0  0  0  0  0  0  0  0  0
  2  1  1  0  0  0  0
  3  1  1  6  0  0  0
  3  4  1  0  0  0  0
  3  5  1  0  0  0  0
  5  6  1  1  0  0  0
  5  7  1  0  0  0  0
  7  8  1  1  0  0  0
  7  9  1  0  0  0  0
  9  4  1  1  0  0  0
  9 20  1  0  0  0  0
 10 11  1  0  0  0  0
 11 12  1  1  0  0  0
 11 13  1  0  0  0  0
 14 13  1  6  0  0  0
 15 14  1  0  0  0  0
 15 16  1  6  0  0  0
 16 10  1  0  0  0  0
 16 17  2  0  0  0  0
 18 15  1  0  0  0  0
 19 18  1  0  0  0  0
 20 14  1  0  0  0  0
 20 19  1  6  0  0  0
M  END
>  <CHROM.1>
175.82082724,64.60233732,25.68797719,-4.68684893,44.09195595,0.84771993,-0.11145472
0.27007925

>  <Name>
1nyi_lig

>  <RI>
0

>  <Rbt.Current_Directory>
/home/itssahil/PROJECTS/Mol_Feturizer/New_Systems/rnas/1nyi

>  <Rbt.Executable>
rbdock ($Id: //depot/dev/client3/rdock/2013.1/src/exe/rbdock.cxx#4 $)

>  <Rbt.Library>
libRbt.so (2013.1, Build901 2013/11/27)

>  <Rbt.Parameter_File>
/export/apps/rDock/src/rDock_2013.1_src/data/scripts/dock_solv.prm

>  <Rbt.Receptor>
prm/pocket_docking_4.prm

>  <SCORE>
-9.95875

>  <SCORE.INTER>
-8.40054

>  <SCORE.INTER.CONST>
1

>  <SCORE.INTER.POLAR>
-0.769821

>  <SCORE.INTER.ROT>
2

>  <SCORE.INTER.SOLV>
10.24

>  <SCORE.INTER.VDW>
-11.3809

>  <SCORE.INTER.norm>
-0.420027

>  <SCORE.INTRA>
-1.55821

>  <SCORE.INTRA.DIHEDRAL>
-2.4296

>  <SCORE.INTRA.DIHEDRAL.0>
3.72394

>  <SCORE.INTRA.POLAR>
0

>  <SCORE.INTRA.POLAR.0>
0

>  <SCORE.INTRA.REPUL>
0

>  <SCORE.INTRA.REPUL.0>
0

>  <SCORE.INTRA.SOLV>
1.69167

>  <SCORE.INTRA.SOLV.lig_0>
-49.4697

>  <SCORE.INTRA.VDW>
-1.18925

>  <SCORE.INTRA.VDW.0>
-0.896538

>  <SCORE.INTRA.norm>
-0.0779107

>  <SCORE.RESTR>
0

>  <SCORE.RESTR.CAVITY>
0

>  <SCORE.RESTR.norm>
0

>  <SCORE.SYSTEM>
0

>  <SCORE.SYSTEM.CONST>
0

>  <SCORE.SYSTEM.DIHEDRAL>
0

>  <SCORE.SYSTEM.SOLV>
0

>  <SCORE.SYSTEM.norm>
0

>  <SCORE.heavy>
20

>  <SCORE.norm>
-0.497938

>  <RMSD>
2.833

$$$$
1nyi_lig
 OpenBabel11021811403D
libRbt.so/2013.1/901 2013/11/27
 20 22  0  0  0  0  0  0  0  0999 V2000
   25.9537   -2.6432   46.3259 C   0  0  0  0  0  0  0  0  0  0  0  0
   24.8690   -3.4823   45.9293 O   0  0  0  0  0  0  0  0  0  0  0  0
   27.2146   -2.9980   45.5693 C   0  0  1  0  0  0  0  0  0  0  0  0
   27.5069   -4.4067   45.7752 O   0  0  0  0  0  0  0  0  0  0  0  0
   27.0621   -2.8203   44.0628 C   0  0  1  0  0  0  0  0  0  0  0  0
   27.4425   -1.5073   43.6486 O   0  0  0  0  0  0  0  0  0  0  0  0
   27.9682   -3.9206   43.5141 C   0  0  1  0  0  0  0  0  0  0  0  0
   29.3445   -3.5727   43.5364 O   0  0  0  0  0  0  0  0  0  0  0  0
   27.6929   -5.0404   44.5152 C   0  0  2  0  0  0  0  0  0  0  0  0
   22.9663   -5.6006   42.5571 N   0  0  0  0  0  0  0  0  0  0  0  0
   23.7203   -4.4620   42.7064 C   0  0  1  0  0  0  0  0  0  0  0  0
   23.1470   -3.3345   42.2832 N   0  0  0  0  0  0  0  0  0  0  0  0
   24.9409   -4.4312   43.2335 N   0  0  0  0  0  0  0  0  0  0  0  0
   25.3675   -5.6675   43.6243 C   0  0  1  0  0  0  0  0  0  0  0  0
   24.6856   -6.8668   43.5165 C   0  0  1  0  0  0  0  0  0  0  0  0
   23.3852   -6.8747   42.9396 C   0  0  0  0  0  0  0  0  0  0  0  0
   22.6283   -7.8367   42.7571 O   0  0  0  0  0  0  0  0  0  0  0  0
   25.4559   -7.9119   44.0101 N   0  0  0  0  0  0  0  0  0  0  0  0
   26.5609   -7.3425   44.4057 C   0  0  0  0  0  0  0  0  0  0  0  0
   26.5869   -5.9785   44.2141 N   0  0  1  0  0  0  0  0  0  0  0  0
  2  1  1  0  0  0  0
  3  1  1  1  0  0  0
  3  4  1  0  0  0  0
  3  5  1  0  0  0  0
  5  6  1  6  0  0  0
  5  7  1  0  0  0  0
  7  8  1  1  0  0  0
  7  9  1  0  0  0  0
  9  4  1  1  0  0  0
  9 20  1  0  0  0  0
 10 11  1  0  0  0  0
 11 12  1  1  0  0  0
 11 13  1  0  0  0  0
 14 13  1  6  0  0  0
 15 14  1  0  0  0  0
 15 16  1  6  0  0  0
 16 10  1  0  0  0  0
 16 17  2  0  0  0  0
 18 15  1  0  0  0  0
 19 18  1  0  0  0  0
 20 14  1  0  0  0  0
 20 19  1  6  0  0  0
M  END
>  <CHROM.1>
-56.08555931,85.59566296,25.75130363,-4.80386116,43.97749236,0.70731249,-0.35698169
0.03541087

>  <Name>
1nyi_lig

>  <RI>
0

>  <Rbt.Current_Directory>
/home/itssahil/PROJECTS/Mol_Feturizer/New_Systems/rnas/1nyi

>  <Rbt.Executable>
rbdock ($Id: //depot/dev/client3/rdock/2013.1/src/exe/rbdock.cxx#4 $)

>  <Rbt.Library>
libRbt.so (2013.1, Build901 2013/11/27)

>  <Rbt.Parameter_File>
/export/apps/rDock/src/rDock_2013.1_src/data/scripts/dock_solv.prm

>  <Rbt.Receptor>
prm/pocket_docking_3.prm

>  <SCORE>
-9.12571

>  <SCORE.INTER>
-7.89504

>  <SCORE.INTER.CONST>
1

>  <SCORE.INTER.POLAR>
-0.766493

>  <SCORE.INTER.ROT>
2

>  <SCORE.INTER.SOLV>
10.3266

>  <SCORE.INTER.VDW>
-11.0839

>  <SCORE.INTER.norm>
-0.394752

>  <SCORE.INTRA>
-1.23067

>  <SCORE.INTRA.DIHEDRAL>
-2.36139

>  <SCORE.INTRA.DIHEDRAL.0>
3.72394

>  <SCORE.INTRA.POLAR>
0

>  <SCORE.INTRA.POLAR.0>
0

>  <SCORE.INTRA.REPUL>
0

>  <SCORE.INTRA.REPUL.0>
0

>  <SCORE.INTRA.SOLV>
2.46843

>  <SCORE.INTRA.SOLV.lig_0>
-49.4697

>  <SCORE.INTRA.VDW>
-1.28419

>  <SCORE.INTRA.VDW.0>
-0.896538

>  <SCORE.INTRA.norm>
-0.0615334

>  <SCORE.RESTR>
0

>  <SCORE.RESTR.CAVITY>
0

>  <SCORE.RESTR.norm>
0

>  <SCORE.SYSTEM>
0

>  <SCORE.SYSTEM.CONST>
0

>  <SCORE.SYSTEM.DIHEDRAL>
0

>  <SCORE.SYSTEM.SOLV>
0

>  <SCORE.SYSTEM.norm>
0

>  <SCORE.heavy>
20

>  <SCORE.norm>
-0.456285

>  <RMSD>
2.890

$$$$
1nyi_lig
 OpenBabel11021811403D
libRbt.so/2013.1/901 2013/11/27
 20 22  0  0  0  0  0  0  0  0999 V2000
   28.5177   -5.7663   44.5169 C   0  0  0  0  0  0  0  0  0  0  0  0
   29.2210   -6.1889   45.6852 O   0  0  0  0  0  0  0  0  0  0  0  0
   28.1676   -4.2971   44.6000 C   0  0  1  0  0  0  0  0  0  0  0  0
   27.5326   -3.8930   43.3567 O   0  0  0  0  0  0  0  0  0  0  0  0
   27.1555   -3.9985   45.7005 C   0  0  1  0  0  0  0  0  0  0  0  0
   27.8011   -3.6920   46.9373 O   0  0  0  0  0  0  0  0  0  0  0  0
   26.3744   -2.8255   45.1119 C   0  0  1  0  0  0  0  0  0  0  0  0
   27.0537   -1.5849   45.2350 O   0  0  0  0  0  0  0  0  0  0  0  0
   26.3012   -3.2413   43.6443 C   0  0  2  0  0  0  0  0  0  0  0  0
   24.1623   -7.9219   43.5674 N   0  0  0  0  0  0  0  0  0  0  0  0
   25.3745   -7.5241   44.0767 C   0  0  1  0  0  0  0  0  0  0  0  0
   26.1076   -8.4893   44.6336 N   0  0  0  0  0  0  0  0  0  0  0  0
   25.8339   -6.2766   44.0394 N   0  0  0  0  0  0  0  0  0  0  0  0
   24.9644   -5.4228   43.4243 C   0  0  1  0  0  0  0  0  0  0  0  0
   23.7277   -5.7259   42.8826 C   0  0  1  0  0  0  0  0  0  0  0  0
   23.2542   -7.0661   42.9443 C   0  0  0  0  0  0  0  0  0  0  0  0
   22.1856   -7.5267   42.5227 O   0  0  0  0  0  0  0  0  0  0  0  0
   23.1319   -4.5859   42.3587 N   0  0  0  0  0  0  0  0  0  0  0  0
   23.9984   -3.6359   42.5791 C   0  0  0  0  0  0  0  0  0  0  0  0
   25.1438   -4.0605   43.2163 N   0  0  1  0  0  0  0  0  0  0  0  0
  2  1  1  0  0  0  0
  3  1  1  6  0  0  0
  3  4  1  0  0  0  0
  3  5  1  0  0  0  0
  5  6  1  1  0  0  0
  5  7  1  0  0  0  0
  7  8  1  6  0  0  0
  7  9  1  0  0  0  0
  9  4  1  1  0  0  0
  9 20  1  0  0  0  0
 10 11  1  0  0  0  0
 11 12  1  6  0  0  0
 11 13  1  0  0  0  0
 14 13  1  1  0  0  0
 15 14  1  0  0  0  0
 15 16  1  1  0  0  0
 16 10  1  0  0  0  0
 16 17  2  0  0  0  0
 18 15  1  0  0  0  0
 19 18  1  0  0  0  0
 20 14  1  0  0  0  0
 20 19  1  1  0  0  0
M  END
>  <CHROM.1>
176.33421771,45.11711394,25.84740907,-5.16264134,44.08029679,-0.52921472
0.52506848,3.09963343

>  <Name>
1nyi_lig

>  <RI>
0

>  <Rbt.Current_Directory>
/home/itssahil/PROJECTS/Mol_Feturizer/New_Systems/rnas/1nyi

>  <Rbt.Executable>
rbdock ($Id: //depot/dev/client3/rdock/2013.1/src/exe/rbdock.cxx#4 $)

>  <Rbt.Library>
libRbt.so (2013.1, Build901 2013/11/27)

>  <Rbt.Parameter_File>
/export/apps/rDock/src/rDock_2013.1_src/data/scripts/dock_solv.prm

>  <Rbt.Receptor>
prm/pocket_docking_4.prm

>  <SCORE>
-9.60988

>  <SCORE.INTER>
-8.66905

>  <SCORE.INTER.CONST>
1

>  <SCORE.INTER.POLAR>
-0.748146

>  <SCORE.INTER.ROT>
2

>  <SCORE.INTER.SOLV>
8.72955

>  <SCORE.INTER.VDW>
-11.1287

>  <SCORE.INTER.norm>
-0.433452

>  <SCORE.INTRA>
-0.940834

>  <SCORE.INTRA.DIHEDRAL>
-2.52307

>  <SCORE.INTRA.DIHEDRAL.0>
3.72394

>  <SCORE.INTRA.POLAR>
0

>  <SCORE.INTRA.POLAR.0>
0

>  <SCORE.INTRA.REPUL>
0

>  <SCORE.INTRA.REPUL.0>
0

>  <SCORE.INTRA.SOLV>
2.22801

>  <SCORE.INTRA.SOLV.lig_0>
-49.4697

>  <SCORE.INTRA.VDW>
-0.793304

>  <SCORE.INTRA.VDW.0>
-0.896538

>  <SCORE.INTRA.norm>
-0.0470417

>  <SCORE.RESTR>
0

>  <SCORE.RESTR.CAVITY>
0

>  <SCORE.RESTR.norm>
0

>  <SCORE.SYSTEM>
0

>  <SCORE.SYSTEM.CONST>
0

>  <SCORE.SYSTEM.DIHEDRAL>
0

>  <SCORE.SYSTEM.SOLV>
0

>  <SCORE.SYSTEM.norm>
0

>  <SCORE.heavy>
20

>  <SCORE.norm>
-0.480494

>  <RMSD>
2.940

$$$$
1nyi_lig
 OpenBabel11021811403D
libRbt.so/2013.1/901 2013/11/27
 20 22  0  0  0  0  0  0  0  0999 V2000
   28.7116   -5.7382   44.4862 C   0  0  0  0  0  0  0  0  0  0  0  0
   29.5143   -6.1439   45.5948 O   0  0  0  0  0  0  0  0  0  0  0  0
   28.3215   -4.2817   44.6070 C   0  0  1  0  0  0  0  0  0  0  0  0
   27.6356   -3.8753   43.3919 O   0  0  0  0  0  0  0  0  0  0  0  0
   27.3368   -4.0325   45.7440 C   0  0  1  0  0  0  0  0  0  0  0  0
   28.0123   -3.7284   46.9653 O   0  0  0  0  0  0  0  0  0  0  0  0
   26.5034   -2.8733   45.2017 C   0  0  1  0  0  0  0  0  0  0  0  0
   27.1497   -1.6154   45.3260 O   0  0  0  0  0  0  0  0  0  0  0  0
   26.3956   -3.2656   43.7298 C   0  0  2  0  0  0  0  0  0  0  0  0
   24.4145   -8.0137   43.5903 N   0  0  0  0  0  0  0  0  0  0  0  0
   25.6330   -7.5895   44.0622 C   0  0  1  0  0  0  0  0  0  0  0  0
   26.4209   -8.5450   44.5574 N   0  0  0  0  0  0  0  0  0  0  0  0
   26.0480   -6.3261   44.0461 N   0  0  0  0  0  0  0  0  0  0  0  0
   25.1251   -5.4849   43.4948 C   0  0  1  0  0  0  0  0  0  0  0  0
   23.8777   -5.8144   42.9947 C   0  0  1  0  0  0  0  0  0  0  0  0
   23.4527   -7.1717   43.0327 C   0  0  0  0  0  0  0  0  0  0  0  0
   22.3836   -7.6563   42.6406 O   0  0  0  0  0  0  0  0  0  0  0  0
   23.2223   -4.6804   42.5324 N   0  0  0  0  0  0  0  0  0  0  0  0
   24.0647   -3.7078   42.7476 C   0  0  0  0  0  0  0  0  0  0  0  0
   25.2495   -4.1113   43.3234 N   0  0  1  0  0  0  0  0  0  0  0  0
  2  1  1  0  0  0  0
  3  1  1  6  0  0  0
  3  4  1  0  0  0  0
  3  5  1  0  0  0  0
  5  6  1  1  0  0  0
  5  7  1  0  0  0  0
  7  8  1  6  0  0  0
  7  9  1  0  0  0  0
  9  4  1  1  0  0  0
  9 20  1  0  0  0  0
 10 11  1  0  0  0  0
 11 12  1  6  0  0  0
 11 13  1  0  0  0  0
 14 13  1  1  0  0  0
 15 14  1  0  0  0  0
 15 16  1  1  0  0  0
 16 10  1  0  0  0  0
 16 17  2  0  0  0  0
 18 15  1  0  0  0  0
 19 18  1  0  0  0  0
 20 14  1  0  0  0  0
 20 19  1  1  0  0  0
M  END
>  <CHROM.1>
173.74155938,44.11650829,26.02096486,-5.20819182,44.13117139,-0.57203325
0.48880015,-3.13215992

>  <Name>
1nyi_lig

>  <RI>
0

>  <Rbt.Current_Directory>
/home/itssahil/PROJECTS/Mol_Feturizer/New_Systems/rnas/1nyi

>  <Rbt.Executable>
rbdock ($Id: //depot/dev/client3/rdock/2013.1/src/exe/rbdock.cxx#4 $)

>  <Rbt.Library>
libRbt.so (2013.1, Build901 2013/11/27)

>  <Rbt.Parameter_File>
/export/apps/rDock/src/rDock_2013.1_src/data/scripts/dock_solv.prm

>  <Rbt.Receptor>
prm/pocket_docking_4.prm

>  <SCORE>
-9.70022

>  <SCORE.INTER>
-8.82142

>  <SCORE.INTER.CONST>
1

>  <SCORE.INTER.POLAR>
-0.748331

>  <SCORE.INTER.ROT>
2

>  <SCORE.INTER.SOLV>
8.76624

>  <SCORE.INTER.VDW>
-11.2419

>  <SCORE.INTER.norm>
-0.441071

>  <SCORE.INTRA>
-0.878797

>  <SCORE.INTRA.DIHEDRAL>
-2.43713

>  <SCORE.INTRA.DIHEDRAL.0>
3.72394

>  <SCORE.INTRA.POLAR>
0

>  <SCORE.INTRA.POLAR.0>
0

>  <SCORE.INTRA.REPUL>
0

>  <SCORE.INTRA.REPUL.0>
0

>  <SCORE.INTRA.SOLV>
2.18052

>  <SCORE.INTRA.SOLV.lig_0>
-49.4697

>  <SCORE.INTRA.VDW>
-0.750493

>  <SCORE.INTRA.VDW.0>
-0.896538

>  <SCORE.INTRA.norm>
-0.0439398

>  <SCORE.RESTR>
0

>  <SCORE.RESTR.CAVITY>
0

>  <SCORE.RESTR.norm>
0

>  <SCORE.SYSTEM>
0

>  <SCORE.SYSTEM.CONST>
0

>  <SCORE.SYSTEM.DIHEDRAL>
0

>  <SCORE.SYSTEM.SOLV>
0

>  <SCORE.SYSTEM.norm>
0

>  <SCORE.heavy>
20

>  <SCORE.norm>
-0.485011

>  <RMSD>
2.941

$$$$
1nyi_lig
 OpenBabel11021811403D
libRbt.so/2013.1/901 2013/11/27
 20 22  0  0  0  0  0  0  0  0999 V2000
   28.7426   -5.8159   44.5556 C   0  0  0  0  0  0  0  0  0  0  0  0
   29.4698   -6.2110   45.7188 O   0  0  0  0  0  0  0  0  0  0  0  0
   28.3789   -4.3490   44.6193 C   0  0  1  0  0  0  0  0  0  0  0  0
   27.7202   -3.9726   43.3797 O   0  0  0  0  0  0  0  0  0  0  0  0
   27.3814   -4.0416   45.7307 C   0  0  1  0  0  0  0  0  0  0  0  0
   28.0434   -3.7075   46.9515 O   0  0  0  0  0  0  0  0  0  0  0  0
   26.5792   -2.8866   45.1347 C   0  0  1  0  0  0  0  0  0  0  0  0
   27.2478   -1.6375   45.2258 O   0  0  0  0  0  0  0  0  0  0  0  0
   26.4870   -3.3282   43.6758 C   0  0  2  0  0  0  0  0  0  0  0  0
   24.4252   -8.0438   43.6523 N   0  0  0  0  0  0  0  0  0  0  0  0
   25.6451   -7.6266   44.1266 C   0  0  1  0  0  0  0  0  0  0  0  0
   26.4102   -8.5802   44.6597 N   0  0  0  0  0  0  0  0  0  0  0  0
   26.0823   -6.3715   44.0782 N   0  0  0  0  0  0  0  0  0  0  0  0
   25.1809   -5.5315   43.4908 C   0  0  1  0  0  0  0  0  0  0  0  0
   23.9340   -5.8544   42.9851 C   0  0  1  0  0  0  0  0  0  0  0  0
   23.4850   -7.2025   43.0580 C   0  0  0  0  0  0  0  0  0  0  0  0
   22.4123   -7.6802   42.6670 O   0  0  0  0  0  0  0  0  0  0  0  0
   23.3042   -4.7237   42.4812 N   0  0  0  0  0  0  0  0  0  0  0  0
   24.1608   -3.7597   42.6780 C   0  0  0  0  0  0  0  0  0  0  0  0
   25.3313   -4.1660   43.2803 N   0  0  1  0  0  0  0  0  0  0  0  0
  2  1  1  0  0  0  0
  3  1  1  6  0  0  0
  3  4  1  0  0  0  0
  3  5  1  0  0  0  0
  5  6  1  1  0  0  0
  5  7  1  0  0  0  0
  7  8  1  6  0  0  0
  7  9  1  0  0  0  0
  9  4  1  1  0  0  0
  9 20  1  0  0  0  0
 10 11  1  0  0  0  0
 11 12  1  6  0  0  0
 11 13  1  0  0  0  0
 14 13  1  1  0  0  0
 15 14  1  0  0  0  0
 15 16  1  1  0  0  0
 16 10  1  0  0  0  0
 16 17  2  0  0  0  0
 18 15  1  0  0  0  0
 19 18  1  0  0  0  0
 20 14  1  0  0  0  0
 20 19  1  1  0  0  0
M  END
>  <CHROM.1>
176.27056280,43.73212559,26.06802408,-5.24992096,44.13542374,-0.55415773
0.50703097,3.10847794

>  <Name>
1nyi_lig

>  <RI>
0

>  <Rbt.Current_Directory>
/home/itssahil/PROJECTS/Mol_Feturizer/New_Systems/rnas/1nyi

>  <Rbt.Executable>
rbdock ($Id: //depot/dev/client3/rdock/2013.1/src/exe/rbdock.cxx#4 $)

>  <Rbt.Library>
libRbt.so (2013.1, Build901 2013/11/27)

>  <Rbt.Parameter_File>
/export/apps/rDock/src/rDock_2013.1_src/data/scripts/dock_solv.prm

>  <Rbt.Receptor>
prm/pocket_docking_5.prm

>  <SCORE>
-9.61564

>  <SCORE.INTER>
-8.74776

>  <SCORE.INTER.CONST>
1

>  <SCORE.INTER.POLAR>
-0.748331

>  <SCORE.INTER.ROT>
2

>  <SCORE.INTER.SOLV>
8.63899

>  <SCORE.INTER.VDW>
-11.1504

>  <SCORE.INTER.norm>
-0.437388

>  <SCORE.INTRA>
-0.867881

>  <SCORE.INTRA.DIHEDRAL>
-2.52541

>  <SCORE.INTRA.DIHEDRAL.0>
3.72394

>  <SCORE.INTRA.POLAR>
0

>  <SCORE.INTRA.POLAR.0>
0

>  <SCORE.INTRA.REPUL>
0

>  <SCORE.INTRA.REPUL.0>
0

>  <SCORE.INTRA.SOLV>
2.24238

>  <SCORE.INTRA.SOLV.lig_0>
-49.4697

>  <SCORE.INTRA.VDW>
-0.726366

>  <SCORE.INTRA.VDW.0>
-0.896538

>  <SCORE.INTRA.norm>
-0.043394

>  <SCORE.RESTR>
0

>  <SCORE.RESTR.CAVITY>
0

>  <SCORE.RESTR.norm>
0

>  <SCORE.SYSTEM>
0

>  <SCORE.SYSTEM.CONST>
0

>  <SCORE.SYSTEM.DIHEDRAL>
0

>  <SCORE.SYSTEM.SOLV>
0

>  <SCORE.SYSTEM.norm>
0

>  <SCORE.heavy>
20

>  <SCORE.norm>
-0.480782

>  <RMSD>
2.959

$$$$
1nyi_lig
 OpenBabel11021811403D
libRbt.so/2013.1/901 2013/11/27
 20 22  0  0  0  0  0  0  0  0999 V2000
   28.9495   -5.9141   45.2835 C   0  0  0  0  0  0  0  0  0  0  0  0
   29.8392   -6.5567   44.3706 O   0  0  0  0  0  0  0  0  0  0  0  0
   28.7090   -4.4761   44.8804 C   0  0  1  0  0  0  0  0  0  0  0  0
   28.0947   -4.4524   43.5634 O   0  0  0  0  0  0  0  0  0  0  0  0
   27.7312   -3.7643   45.8087 C   0  0  1  0  0  0  0  0  0  0  0  0
   28.4082   -3.1207   46.8893 O   0  0  0  0  0  0  0  0  0  0  0  0
   27.0333   -2.7925   44.8594 C   0  0  1  0  0  0  0  0  0  0  0  0
   27.8030   -1.6316   44.5844 O   0  0  0  0  0  0  0  0  0  0  0  0
   26.9171   -3.6554   43.6048 C   0  0  2  0  0  0  0  0  0  0  0  0
   24.8952   -8.3835   43.8201 N   0  0  0  0  0  0  0  0  0  0  0  0
   26.1932   -7.9791   44.0175 C   0  0  1  0  0  0  0  0  0  0  0  0
   27.0593   -8.9511   44.3075 N   0  0  0  0  0  0  0  0  0  0  0  0
   26.6101   -6.7190   43.9332 N   0  0  0  0  0  0  0  0  0  0  0  0
   25.5985   -5.8590   43.6164 C   0  0  1  0  0  0  0  0  0  0  0  0
   24.2672   -6.1679   43.3997 C   0  0  1  0  0  0  0  0  0  0  0  0
   23.8443   -7.5222   43.5058 C   0  0  0  0  0  0  0  0  0  0  0  0
   22.7088   -7.9898   43.3519 O   0  0  0  0  0  0  0  0  0  0  0  0
   23.5399   -5.0192   43.1158 N   0  0  0  0  0  0  0  0  0  0  0  0
   24.4211   -4.0582   43.1566 C   0  0  0  0  0  0  0  0  0  0  0  0
   25.6990   -4.4832   43.4473 N   0  0  1  0  0  0  0  0  0  0  0  0
  2  1  1  0  0  0  0
  3  1  1  1  0  0  0
  3  4  1  0  0  0  0
  3  5  1  0  0  0  0
  5  6  1  1  0  0  0
  5  7  1  0  0  0  0
  7  8  1  6  0  0  0
  7  9  1  0  0  0  0
  9  4  1  1  0  0  0
  9 20  1  0  0  0  0
 10 11  1  0  0  0  0
 11 12  1  6  0  0  0
 11 13  1  0  0  0  0
 14 13  1  1  0  0  0
 15 14  1  0  0  0  0
 15 16  1  1  0  0  0
 16 10  1  0  0  0  0
 16 17  2  0  0  0  0
 18 15  1  0  0  0  0
 19 18  1  0  0  0  0
 20 14  1  0  0  0  0
 20 19  1  1  0  0  0
M  END
>  <CHROM.1>
61.31014231,17.68018112,26.46281672,-5.44727803,44.19053593,-0.75653649,0.33450644
-3.08214074

>  <Name>
1nyi_lig

>  <RI>
0

>  <Rbt.Current_Directory>
/home/itssahil/PROJECTS/Mol_Feturizer/New_Systems/rnas/1nyi

>  <Rbt.Executable>
rbdock ($Id: //depot/dev/client3/rdock/2013.1/src/exe/rbdock.cxx#4 $)

>  <Rbt.Library>
libRbt.so (2013.1, Build901 2013/11/27)

>  <Rbt.Parameter_File>
/export/apps/rDock/src/rDock_2013.1_src/data/scripts/dock_solv.prm

>  <Rbt.Receptor>
prm/pocket_docking_5.prm

>  <SCORE>
-9.20149

>  <SCORE.INTER>
-8.41231

>  <SCORE.INTER.CONST>
1

>  <SCORE.INTER.POLAR>
-0.748331

>  <SCORE.INTER.ROT>
2

>  <SCORE.INTER.SOLV>
9.57668

>  <SCORE.INTER.VDW>
-11.2393

>  <SCORE.INTER.norm>
-0.420616

>  <SCORE.INTRA>
-0.789176

>  <SCORE.INTRA.DIHEDRAL>
-2.56027

>  <SCORE.INTRA.DIHEDRAL.0>
3.72394

>  <SCORE.INTRA.POLAR>
0

>  <SCORE.INTRA.POLAR.0>
0

>  <SCORE.INTRA.REPUL>
0

>  <SCORE.INTRA.REPUL.0>
0

>  <SCORE.INTRA.SOLV>
2.33133

>  <SCORE.INTRA.SOLV.lig_0>
-49.4697

>  <SCORE.INTRA.VDW>
-0.674705

>  <SCORE.INTRA.VDW.0>
-0.896538

>  <SCORE.INTRA.norm>
-0.0394588

>  <SCORE.RESTR>
0

>  <SCORE.RESTR.CAVITY>
0

>  <SCORE.RESTR.norm>
0

>  <SCORE.SYSTEM>
0

>  <SCORE.SYSTEM.CONST>
0

>  <SCORE.SYSTEM.DIHEDRAL>
0

>  <SCORE.SYSTEM.SOLV>
0

>  <SCORE.SYSTEM.norm>
0

>  <SCORE.heavy>
20

>  <SCORE.norm>
-0.460075

>  <RMSD>
2.968

$$$$
1nyi_lig
 OpenBabel11021811403D
libRbt.so/2013.1/901 2013/11/27
 20 22  0  0  0  0  0  0  0  0999 V2000
   29.3959   -2.3731   43.4985 C   0  0  0  0  0  0  0  0  0  0  0  0
   29.5177   -3.7455   43.8720 O   0  0  0  0  0  0  0  0  0  0  0  0
   28.0136   -1.8479   43.8175 C   0  0  1  0  0  0  0  0  0  0  0  0
   27.0363   -2.5904   43.0392 O   0  0  0  0  0  0  0  0  0  0  0  0
   27.6304   -2.0595   45.2779 C   0  0  1  0  0  0  0  0  0  0  0  0
   28.0047   -0.9421   46.0853 O   0  0  0  0  0  0  0  0  0  0  0  0
   26.1204   -2.2703   45.1886 C   0  0  1  0  0  0  0  0  0  0  0  0
   25.3950   -1.0578   45.0496 O   0  0  0  0  0  0  0  0  0  0  0  0
   26.0239   -3.0907   43.9042 C   0  0  2  0  0  0  0  0  0  0  0  0
   23.6697   -7.5750   42.9888 N   0  0  0  0  0  0  0  0  0  0  0  0
   23.2355   -6.2949   42.7439 C   0  0  1  0  0  0  0  0  0  0  0  0
   22.0272   -6.1953   42.1877 N   0  0  0  0  0  0  0  0  0  0  0  0
   23.9310   -5.1971   43.0264 N   0  0  0  0  0  0  0  0  0  0  0  0
   25.1357   -5.4812   43.6018 C   0  0  1  0  0  0  0  0  0  0  0  0
   25.6593   -6.7299   43.8872 C   0  0  1  0  0  0  0  0  0  0  0  0
   24.8998   -7.8893   43.5660 C   0  0  0  0  0  0  0  0  0  0  0  0
   25.1964   -9.0781   43.7400 O   0  0  0  0  0  0  0  0  0  0  0  0
   26.9202   -6.6114   44.4576 N   0  0  0  0  0  0  0  0  0  0  0  0
   27.1318   -5.3254   44.5141 C   0  0  0  0  0  0  0  0  0  0  0  0
   26.0937   -4.5657   44.0209 N   0  0  1  0  0  0  0  0  0  0  0  0
  2  1  1  0  0  0  0
  3  1  1  1  0  0  0
  3  4  1  0  0  0  0
  3  5  1  0  0  0  0
  5  6  1  1  0  0  0
  5  7  1  0  0  0  0
  7  8  1  6  0  0  0
  7  9  1  0  0  0  0
  9  4  1  6  0  0  0
  9 20  1  0  0  0  0
 10 11  1  0  0  0  0
 11 12  1  1  0  0  0
 11 13  1  0  0  0  0
 14 13  1  6  0  0  0
 15 14  1  0  0  0  0
 15 16  1  6  0  0  0
 16 10  1  0  0  0  0
 16 17  2  0  0  0  0
 18 15  1  0  0  0  0
 19 18  1  0  0  0  0
 20 14  1  0  0  0  0
 20 19  1  6  0  0  0
M  END
>  <CHROM.1>
-62.41493564,-115.45439022,26.09697204,-4.49874254,43.93792033,-0.97109759
0.17637057,-2.99717273

>  <Name>
1nyi_lig

>  <RI>
0

>  <Rbt.Current_Directory>
/home/itssahil/PROJECTS/Mol_Feturizer/New_Systems/rnas/1nyi

>  <Rbt.Executable>
rbdock ($Id: //depot/dev/client3/rdock/2013.1/src/exe/rbdock.cxx#4 $)

>  <Rbt.Library>
libRbt.so (2013.1, Build901 2013/11/27)

>  <Rbt.Parameter_File>
/export/apps/rDock/src/rDock_2013.1_src/data/scripts/dock_solv.prm

>  <Rbt.Receptor>
prm/pocket_docking_2.prm

>  <SCORE>
-4.06539

>  <SCORE.INTER>
-3.62673

>  <SCORE.INTER.CONST>
1

>  <SCORE.INTER.POLAR>
-0.0375151

>  <SCORE.INTER.ROT>
2

>  <SCORE.INTER.SOLV>
12.3337

>  <SCORE.INTER.VDW>
-11.3373

>  <SCORE.INTER.norm>
-0.181336

>  <SCORE.INTRA>
-1.56131

>  <SCORE.INTRA.DIHEDRAL>
-2.49818

>  <SCORE.INTRA.DIHEDRAL.0>
3.72394

>  <SCORE.INTRA.POLAR>
0

>  <SCORE.INTRA.POLAR.0>
0

>  <SCORE.INTRA.REPUL>
0

>  <SCORE.INTRA.REPUL.0>
0

>  <SCORE.INTRA.SOLV>
0.118238

>  <SCORE.INTRA.SOLV.lig_0>
-49.4697

>  <SCORE.INTRA.VDW>
-0.371334

>  <SCORE.INTRA.VDW.0>
-0.896538

>  <SCORE.INTRA.norm>
-0.0780653

>  <SCORE.RESTR>
1.12265

>  <SCORE.RESTR.CAVITY>
1.12265

>  <SCORE.RESTR.norm>
0.0561324

>  <SCORE.SYSTEM>
0

>  <SCORE.SYSTEM.CONST>
0

>  <SCORE.SYSTEM.DIHEDRAL>
0

>  <SCORE.SYSTEM.SOLV>
0

>  <SCORE.SYSTEM.norm>
0

>  <SCORE.heavy>
20

>  <SCORE.norm>
-0.203269

>  <RMSD>
3.151

$$$$
1nyi_lig
 OpenBabel11021811403D
libRbt.so/2013.1/901 2013/11/27
 20 22  0  0  0  0  0  0  0  0999 V2000
   29.4101   -2.3720   43.5178 C   0  0  0  0  0  0  0  0  0  0  0  0
   29.5215   -3.7513   43.8686 O   0  0  0  0  0  0  0  0  0  0  0  0
   28.0256   -1.8468   43.8272 C   0  0  1  0  0  0  0  0  0  0  0  0
   27.0537   -2.5899   43.0428 O   0  0  0  0  0  0  0  0  0  0  0  0
   27.6327   -2.0576   45.2851 C   0  0  1  0  0  0  0  0  0  0  0  0
   28.0013   -0.9398   46.0943 O   0  0  0  0  0  0  0  0  0  0  0  0
   26.1233   -2.2688   45.1858 C   0  0  1  0  0  0  0  0  0  0  0  0
   25.3987   -1.0565   45.0412 O   0  0  0  0  0  0  0  0  0  0  0  0
   26.0355   -3.0899   43.9013 C   0  0  2  0  0  0  0  0  0  0  0  0
   23.6882   -7.5751   42.9728 N   0  0  0  0  0  0  0  0  0  0  0  0
   23.2554   -6.2952   42.7243 C   0  0  1  0  0  0  0  0  0  0  0  0
   22.0509   -6.1962   42.1600 N   0  0  0  0  0  0  0  0  0  0  0  0
   23.9489   -5.1972   43.0107 N   0  0  0  0  0  0  0  0  0  0  0  0
   25.1498   -5.4807   43.5944 C   0  0  1  0  0  0  0  0  0  0  0  0
   25.6717   -6.7292   43.8840 C   0  0  1  0  0  0  0  0  0  0  0  0
   24.9145   -7.8889   43.5584 C   0  0  0  0  0  0  0  0  0  0  0  0
   25.2101   -9.0776   43.7351 O   0  0  0  0  0  0  0  0  0  0  0  0
   26.9287   -6.6102   44.4627 N   0  0  0  0  0  0  0  0  0  0  0  0
   27.1397   -5.3241   44.5198 C   0  0  0  0  0  0  0  0  0  0  0  0
   26.1048   -4.5648   44.0193 N   0  0  1  0  0  0  0  0  0  0  0  0
  2  1  1  0  0  0  0
  3  1  1  1  0  0  0
  3  4  1  0  0  0  0
  3  5  1  0  0  0  0
  5  6  1  1  0  0  0
  5  7  1  0  0  0  0
  7  8  1  6  0  0  0
  7  9  1  0  0  0  0
  9  4  1  6  0  0  0
  9 20  1  0  0  0  0
 10 11  1  0  0  0  0
 11 12  1  1  0  0  0
 11 13  1  0  0  0  0
 14 13  1  6  0  0  0
 15 14  1  0  0  0  0
 15 16  1  6  0  0  0
 16 10  1  0  0  0  0
 16 17  2  0  0  0  0
 18 15  1  0  0  0  0
 19 18  1  0  0  0  0
 20 14  1  0  0  0  0
 20 19  1  6  0  0  0
M  END
>  <CHROM.1>
-61.27285688,-115.45694498,26.10814573,-4.49834039,43.93492718,-0.97282412
0.18121981,-2.99672242

>  <Name>
1nyi_lig

>  <RI>
0

>  <Rbt.Current_Directory>
/home/itssahil/PROJECTS/Mol_Feturizer/New_Systems/rnas/1nyi

>  <Rbt.Executable>
rbdock ($Id: //depot/dev/client3/rdock/2013.1/src/exe/rbdock.cxx#4 $)

>  <Rbt.Library>
libRbt.so (2013.1, Build901 2013/11/27)

>  <Rbt.Parameter_File>
/export/apps/rDock/src/rDock_2013.1_src/data/scripts/dock_solv.prm

>  <Rbt.Receptor>
prm/pocket_docking_2.prm

>  <SCORE>
-4.07561

>  <SCORE.INTER>
-3.63529

>  <SCORE.INTER.CONST>
1

>  <SCORE.INTER.POLAR>
-0.0364774

>  <SCORE.INTER.ROT>
2

>  <SCORE.INTER.SOLV>
12.4591

>  <SCORE.INTER.VDW>
-11.3883

>  <SCORE.INTER.norm>
-0.181765

>  <SCORE.INTRA>
-1.56919

>  <SCORE.INTRA.DIHEDRAL>
-2.51216

>  <SCORE.INTRA.DIHEDRAL.0>
3.72394

>  <SCORE.INTRA.POLAR>
0

>  <SCORE.INTRA.POLAR.0>
0

>  <SCORE.INTRA.REPUL>
0

>  <SCORE.INTRA.REPUL.0>
0

>  <SCORE.INTRA.SOLV>
0.120545

>  <SCORE.INTRA.SOLV.lig_0>
-49.4697

>  <SCORE.INTRA.VDW>
-0.373377

>  <SCORE.INTRA.VDW.0>
-0.896538

>  <SCORE.INTRA.norm>
-0.0784593

>  <SCORE.RESTR>
1.12887

>  <SCORE.RESTR.CAVITY>
1.12887

>  <SCORE.RESTR.norm>
0.0564433

>  <SCORE.SYSTEM>
0

>  <SCORE.SYSTEM.CONST>
0

>  <SCORE.SYSTEM.DIHEDRAL>
0

>  <SCORE.SYSTEM.SOLV>
0

>  <SCORE.SYSTEM.norm>
0

>  <SCORE.heavy>
20

>  <SCORE.norm>
-0.203781

>  <RMSD>
3.152

$$$$
1nyi_lig
 OpenBabel11021811403D
libRbt.so/2013.1/901 2013/11/27
 20 22  0  0  0  0  0  0  0  0999 V2000
   29.1006   -2.0009   43.3617 C   0  0  0  0  0  0  0  0  0  0  0  0
   29.5188   -3.3063   43.7604 O   0  0  0  0  0  0  0  0  0  0  0  0
   27.6466   -1.7705   43.7097 C   0  0  1  0  0  0  0  0  0  0  0  0
   26.8298   -2.7211   42.9740 O   0  0  0  0  0  0  0  0  0  0  0  0
   27.3515   -2.0216   45.1842 C   0  0  1  0  0  0  0  0  0  0  0  0
   27.5006   -0.8308   45.9589 O   0  0  0  0  0  0  0  0  0  0  0  0
   25.9182   -2.5475   45.1421 C   0  0  1  0  0  0  0  0  0  0  0  0
   24.9503   -1.5186   45.0003 O   0  0  0  0  0  0  0  0  0  0  0  0
   25.9665   -3.4016   43.8770 C   0  0  2  0  0  0  0  0  0  0  0  0
   24.4553   -8.3038   43.4603 N   0  0  0  0  0  0  0  0  0  0  0  0
   23.7406   -7.1491   43.2529 C   0  0  1  0  0  0  0  0  0  0  0  0
   22.4682   -7.3191   42.8904 N   0  0  0  0  0  0  0  0  0  0  0  0
   24.2346   -5.9225   43.3938 N   0  0  0  0  0  0  0  0  0  0  0  0
   25.5436   -5.9327   43.7807 C   0  0  1  0  0  0  0  0  0  0  0  0
   26.3445   -7.0369   44.0133 C   0  0  1  0  0  0  0  0  0  0  0  0
   25.7952   -8.3386   43.8457 C   0  0  0  0  0  0  0  0  0  0  0  0
   26.3478   -9.4348   44.0024 O   0  0  0  0  0  0  0  0  0  0  0  0
   27.6260   -6.6424   44.3757 N   0  0  0  0  0  0  0  0  0  0  0  0
   27.5800   -5.3387   44.3644 C   0  0  0  0  0  0  0  0  0  0  0  0
   26.3487   -4.8255   44.0202 N   0  0  1  0  0  0  0  0  0  0  0  0
  2  1  1  0  0  0  0
  3  1  1  1  0  0  0
  3  4  1  0  0  0  0
  3  5  1  0  0  0  0
  5  6  1  1  0  0  0
  5  7  1  0  0  0  0
  7  8  1  6  0  0  0
  7  9  1  0  0  0  0
  9  4  1  6  0  0  0
  9 20  1  0  0  0  0
 10 11  1  0  0  0  0
 11 12  1  1  0  0  0
 11 13  1  0  0  0  0
 14 13  1  6  0  0  0
 15 14  1  0  0  0  0
 15 16  1  6  0  0  0
 16 10  1  0  0  0  0
 16 17  2  0  0  0  0
 18 15  1  0  0  0  0
 19 18  1  0  0  0  0
 20 14  1  0  0  0  0
 20 19  1  6  0  0  0
M  END
>  <CHROM.1>
-62.52821999,-122.88594818,26.29880446,-4.76208275,44.02805895,-1.15898706
0.03583826,-3.00458684

>  <Name>
1nyi_lig

>  <RI>
0

>  <Rbt.Current_Directory>
/home/itssahil/PROJECTS/Mol_Feturizer/New_Systems/rnas/1nyi

>  <Rbt.Executable>
rbdock ($Id: //depot/dev/client3/rdock/2013.1/src/exe/rbdock.cxx#4 $)

>  <Rbt.Library>
libRbt.so (2013.1, Build901 2013/11/27)

>  <Rbt.Parameter_File>
/export/apps/rDock/src/rDock_2013.1_src/data/scripts/dock_solv.prm

>  <Rbt.Receptor>
prm/pocket_docking_2.prm

>  <SCORE>
-6.38596

>  <SCORE.INTER>
-6.56352

>  <SCORE.INTER.CONST>
1

>  <SCORE.INTER.POLAR>
-0.76846

>  <SCORE.INTER.ROT>
2

>  <SCORE.INTER.SOLV>
14.9703

>  <SCORE.INTER.VDW>
-11.7376

>  <SCORE.INTER.norm>
-0.328176

>  <SCORE.INTRA>
-1.42021

>  <SCORE.INTRA.DIHEDRAL>
-2.46285

>  <SCORE.INTRA.DIHEDRAL.0>
3.72394

>  <SCORE.INTRA.POLAR>
0

>  <SCORE.INTRA.POLAR.0>
0

>  <SCORE.INTRA.REPUL>
0

>  <SCORE.INTRA.REPUL.0>
0

>  <SCORE.INTRA.SOLV>
0.135983

>  <SCORE.INTRA.SOLV.lig_0>
-49.4697

>  <SCORE.INTRA.VDW>
-0.256782

>  <SCORE.INTRA.VDW.0>
-0.896538

>  <SCORE.INTRA.norm>
-0.0710107

>  <SCORE.RESTR>
1.59777

>  <SCORE.RESTR.CAVITY>
1.59777

>  <SCORE.RESTR.norm>
0.0798886

>  <SCORE.SYSTEM>
0

>  <SCORE.SYSTEM.CONST>
0

>  <SCORE.SYSTEM.DIHEDRAL>
0

>  <SCORE.SYSTEM.SOLV>
0

>  <SCORE.SYSTEM.norm>
0

>  <SCORE.heavy>
20

>  <SCORE.norm>
-0.319298

>  <RMSD>
3.181

$$$$
1nyi_lig
 OpenBabel11021811403D
libRbt.so/2013.1/901 2013/11/27
 20 22  0  0  0  0  0  0  0  0999 V2000
   28.9267   -1.7016   43.5679 C   0  0  0  0  0  0  0  0  0  0  0  0
   28.8986   -1.2549   42.2123 O   0  0  0  0  0  0  0  0  0  0  0  0
   27.5377   -1.6951   44.1669 C   0  0  1  0  0  0  0  0  0  0  0  0
   26.7075   -2.6423   43.4419 O   0  0  0  0  0  0  0  0  0  0  0  0
   27.5252   -2.1575   45.6197 C   0  0  1  0  0  0  0  0  0  0  0  0
   27.6834   -1.0602   46.5204 O   0  0  0  0  0  0  0  0  0  0  0  0
   26.1663   -2.8461   45.7282 C   0  0  1  0  0  0  0  0  0  0  0  0
   25.0895   -1.9340   45.8842 O   0  0  0  0  0  0  0  0  0  0  0  0
   26.0840   -3.5280   44.3642 C   0  0  2  0  0  0  0  0  0  0  0  0
   25.0495   -8.4703   43.3683 N   0  0  0  0  0  0  0  0  0  0  0  0
   24.1985   -7.3930   43.4186 C   0  0  1  0  0  0  0  0  0  0  0  0
   22.9154   -7.6634   43.1743 N   0  0  0  0  0  0  0  0  0  0  0  0
   24.5763   -6.1474   43.6913 N   0  0  0  0  0  0  0  0  0  0  0  0
   25.9173   -6.0531   43.9280 C   0  0  1  0  0  0  0  0  0  0  0  0
   26.8512   -7.0739   43.9009 C   0  0  1  0  0  0  0  0  0  0  0  0
   26.4233   -8.3962   43.5966 C   0  0  0  0  0  0  0  0  0  0  0  0
   27.1019   -9.4285   43.5229 O   0  0  0  0  0  0  0  0  0  0  0  0
   28.1200   -6.5817   44.1786 N   0  0  0  0  0  0  0  0  0  0  0  0
   27.9380   -5.3045   44.3719 C   0  0  0  0  0  0  0  0  0  0  0  0
   26.6267   -4.9010   44.2456 N   0  0  1  0  0  0  0  0  0  0  0  0
  2  1  1  0  0  0  0
  3  1  1  6  0  0  0
  3  4  1  0  0  0  0
  3  5  1  0  0  0  0
  5  6  1  1  0  0  0
  5  7  1  0  0  0  0
  7  8  1  6  0  0  0
  7  9  1  0  0  0  0
  9  4  1  6  0  0  0
  9 20  1  0  0  0  0
 10 11  1  0  0  0  0
 11 12  1  1  0  0  0
 11 13  1  0  0  0  0
 14 13  1  6  0  0  0
 15 14  1  0  0  0  0
 15 16  1  6  0  0  0
 16 10  1  0  0  0  0
 16 17  2  0  0  0  0
 18 15  1  0  0  0  0
 19 18  1  0  0  0  0
 20 14  1  0  0  0  0
 20 19  1  6  0  0  0
M  END
>  <CHROM.1>
63.33842355,-120.03795489,26.54301851,-4.74148183,44.14766159,-1.24069145
-0.27971005,-2.87425191

>  <Name>
1nyi_lig

>  <RI>
0

>  <Rbt.Current_Directory>
/home/itssahil/PROJECTS/Mol_Feturizer/New_Systems/rnas/1nyi

>  <Rbt.Executable>
rbdock ($Id: //depot/dev/client3/rdock/2013.1/src/exe/rbdock.cxx#4 $)

>  <Rbt.Library>
libRbt.so (2013.1, Build901 2013/11/27)

>  <Rbt.Parameter_File>
/export/apps/rDock/src/rDock_2013.1_src/data/scripts/dock_solv.prm

>  <Rbt.Receptor>
prm/pocket_docking_3.prm

>  <SCORE>
-10.7151

>  <SCORE.INTER>
-8.61534

>  <SCORE.INTER.CONST>
1

>  <SCORE.INTER.POLAR>
-0.809976

>  <SCORE.INTER.ROT>
2

>  <SCORE.INTER.SOLV>
14.446

>  <SCORE.INTER.VDW>
-12.7923

>  <SCORE.INTER.norm>
-0.430767

>  <SCORE.INTRA>
-2.10015

>  <SCORE.INTRA.DIHEDRAL>
-2.45295

>  <SCORE.INTRA.DIHEDRAL.0>
3.72394

>  <SCORE.INTRA.POLAR>
0

>  <SCORE.INTRA.POLAR.0>
0

>  <SCORE.INTRA.REPUL>
0

>  <SCORE.INTRA.REPUL.0>
0

>  <SCORE.INTRA.SOLV>
-0.895314

>  <SCORE.INTRA.SOLV.lig_0>
-49.4697

>  <SCORE.INTRA.VDW>
-0.426012

>  <SCORE.INTRA.VDW.0>
-0.896538

>  <SCORE.INTRA.norm>
-0.105007

>  <SCORE.RESTR>
0.00038167

>  <SCORE.RESTR.CAVITY>
0.00038167

>  <SCORE.RESTR.norm>
1.90835e-05

>  <SCORE.SYSTEM>
0

>  <SCORE.SYSTEM.CONST>
0

>  <SCORE.SYSTEM.DIHEDRAL>
0

>  <SCORE.SYSTEM.SOLV>
0

>  <SCORE.SYSTEM.norm>
0

>  <SCORE.heavy>
20

>  <SCORE.norm>
-0.535755

>  <RMSD>
3.187

$$$$
1nyi_lig
 OpenBabel11021811403D
libRbt.so/2013.1/901 2013/11/27
 20 22  0  0  0  0  0  0  0  0999 V2000
   28.9207   -1.6694   43.6414 C   0  0  0  0  0  0  0  0  0  0  0  0
   28.9061   -1.2385   42.2805 O   0  0  0  0  0  0  0  0  0  0  0  0
   27.5227   -1.6795   44.2190 C   0  0  1  0  0  0  0  0  0  0  0  0
   26.7087   -2.6190   43.4662 O   0  0  0  0  0  0  0  0  0  0  0  0
   27.4906   -2.1653   45.6638 C   0  0  1  0  0  0  0  0  0  0  0  0
   27.6291   -1.0820   46.5844 O   0  0  0  0  0  0  0  0  0  0  0  0
   26.1338   -2.8624   45.7404 C   0  0  1  0  0  0  0  0  0  0  0  0
   25.0500   -1.9584   45.8945 O   0  0  0  0  0  0  0  0  0  0  0  0
   26.0759   -3.5226   44.3645 C   0  0  2  0  0  0  0  0  0  0  0  0
   25.0680   -8.4667   43.3505 N   0  0  0  0  0  0  0  0  0  0  0  0
   24.2095   -7.3962   43.4160 C   0  0  1  0  0  0  0  0  0  0  0  0
   22.9260   -7.6748   43.1835 N   0  0  0  0  0  0  0  0  0  0  0  0
   24.5808   -6.1494   43.6920 N   0  0  0  0  0  0  0  0  0  0  0  0
   25.9235   -6.0464   43.9153 C   0  0  1  0  0  0  0  0  0  0  0  0
   26.8647   -7.0598   43.8724 C   0  0  1  0  0  0  0  0  0  0  0  0
   26.4435   -8.3836   43.5648 C   0  0  0  0  0  0  0  0  0  0  0  0
   27.1290   -9.4103   43.4780 O   0  0  0  0  0  0  0  0  0  0  0  0
   28.1326   -6.5598   44.1396 N   0  0  0  0  0  0  0  0  0  0  0  0
   27.9431   -5.2851   44.3424 C   0  0  0  0  0  0  0  0  0  0  0  0
   26.6276   -4.8908   44.2321 N   0  0  1  0  0  0  0  0  0  0  0  0
  2  1  1  0  0  0  0
  3  1  1  6  0  0  0
  3  4  1  0  0  0  0
  3  5  1  0  0  0  0
  5  6  1  1  0  0  0
  5  7  1  0  0  0  0
  7  8  1  6  0  0  0
  7  9  1  0  0  0  0
  9  4  1  6  0  0  0
  9 20  1  0  0  0  0
 10 11  1  0  0  0  0
 11 12  1  1  0  0  0
 11 13  1  0  0  0  0
 14 13  1  6  0  0  0
 15 14  1  0  0  0  0
 15 16  1  6  0  0  0
 16 10  1  0  0  0  0
 16 17  2  0  0  0  0
 18 15  1  0  0  0  0
 19 18  1  0  0  0  0
 20 14  1  0  0  0  0
 20 19  1  6  0  0  0
M  END
>  <CHROM.1>
61.62696735,-121.63507651,26.54012230,-4.73592415,44.15541475,-1.24582022
-0.28433835,-2.86415351

>  <Name>
1nyi_lig

>  <RI>
0

>  <Rbt.Current_Directory>
/home/itssahil/PROJECTS/Mol_Feturizer/New_Systems/rnas/1nyi

>  <Rbt.Executable>
rbdock ($Id: //depot/dev/client3/rdock/2013.1/src/exe/rbdock.cxx#4 $)

>  <Rbt.Library>
libRbt.so (2013.1, Build901 2013/11/27)

>  <Rbt.Parameter_File>
/export/apps/rDock/src/rDock_2013.1_src/data/scripts/dock_solv.prm

>  <Rbt.Receptor>
prm/pocket_docking_5.prm

>  <SCORE>
-10.7383

>  <SCORE.INTER>
-8.62997

>  <SCORE.INTER.CONST>
1

>  <SCORE.INTER.POLAR>
-0.792407

>  <SCORE.INTER.ROT>
2

>  <SCORE.INTER.SOLV>
14.5428

>  <SCORE.INTER.VDW>
-12.8929

>  <SCORE.INTER.norm>
-0.431499

>  <SCORE.INTRA>
-2.10834

>  <SCORE.INTRA.DIHEDRAL>
-2.47782

>  <SCORE.INTRA.DIHEDRAL.0>
3.72394

>  <SCORE.INTRA.POLAR>
0

>  <SCORE.INTRA.POLAR.0>
0

>  <SCORE.INTRA.REPUL>
0

>  <SCORE.INTRA.REPUL.0>
0

>  <SCORE.INTRA.SOLV>
-0.889012

>  <SCORE.INTRA.SOLV.lig_0>
-49.4697

>  <SCORE.INTRA.VDW>
-0.424927

>  <SCORE.INTRA.VDW.0>
-0.896538

>  <SCORE.INTRA.norm>
-0.105417

>  <SCORE.RESTR>
0

>  <SCORE.RESTR.CAVITY>
0

>  <SCORE.RESTR.norm>
0

>  <SCORE.SYSTEM>
0

>  <SCORE.SYSTEM.CONST>
0

>  <SCORE.SYSTEM.DIHEDRAL>
0

>  <SCORE.SYSTEM.SOLV>
0

>  <SCORE.SYSTEM.norm>
0

>  <SCORE.heavy>
20

>  <SCORE.norm>
-0.536916

>  <RMSD>
3.194

$$$$
1nyi_lig
 OpenBabel11021811403D
libRbt.so/2013.1/901 2013/11/27
 20 22  0  0  0  0  0  0  0  0999 V2000
   29.0039   -1.6720   43.7172 C   0  0  0  0  0  0  0  0  0  0  0  0
   29.1419   -1.2795   42.3515 O   0  0  0  0  0  0  0  0  0  0  0  0
   27.5520   -1.6486   44.1410 C   0  0  1  0  0  0  0  0  0  0  0  0
   26.8092   -2.5990   43.3304 O   0  0  0  0  0  0  0  0  0  0  0  0
   27.3577   -2.0932   45.5864 C   0  0  1  0  0  0  0  0  0  0  0  0
   27.4133   -0.9861   46.4873 O   0  0  0  0  0  0  0  0  0  0  0  0
   25.9901   -2.7711   45.5351 C   0  0  1  0  0  0  0  0  0  0  0  0
   24.9099   -1.8498   45.5475 O   0  0  0  0  0  0  0  0  0  0  0  0
   26.0701   -3.4690   44.1791 C   0  0  2  0  0  0  0  0  0  0  0  0
   25.0429   -8.4560   43.4286 N   0  0  0  0  0  0  0  0  0  0  0  0
   24.1935   -7.3766   43.4062 C   0  0  1  0  0  0  0  0  0  0  0  0
   22.9144   -7.6580   43.1534 N   0  0  0  0  0  0  0  0  0  0  0  0
   24.5690   -6.1187   43.6191 N   0  0  0  0  0  0  0  0  0  0  0  0
   25.9058   -6.0136   43.8748 C   0  0  1  0  0  0  0  0  0  0  0  0
   26.8378   -7.0354   43.9188 C   0  0  1  0  0  0  0  0  0  0  0  0
   26.4126   -8.3715   43.6775 C   0  0  0  0  0  0  0  0  0  0  0  0
   27.0901   -9.4072   43.6711 O   0  0  0  0  0  0  0  0  0  0  0  0
   28.1024   -6.5308   44.1929 N   0  0  0  0  0  0  0  0  0  0  0  0
   27.9197   -5.2448   44.3148 C   0  0  0  0  0  0  0  0  0  0  0  0
   26.6118   -4.8471   44.1435 N   0  0  1  0  0  0  0  0  0  0  0  0
  2  1  1  0  0  0  0
  3  1  1  6  0  0  0
  3  4  1  0  0  0  0
  3  5  1  0  0  0  0
  5  6  1  1  0  0  0
  5  7  1  0  0  0  0
  7  8  1  6  0  0  0
  7  9  1  0  0  0  0
  9  4  1  6  0  0  0
  9 20  1  0  0  0  0
 10 11  1  0  0  0  0
 11 12  1  1  0  0  0
 11 13  1  0  0  0  0
 14 13  1  6  0  0  0
 15 14  1  0  0  0  0
 15 16  1  6  0  0  0
 16 10  1  0  0  0  0
 16 17  2  0  0  0  0
 18 15  1  0  0  0  0
 19 18  1  0  0  0  0
 20 14  1  0  0  0  0
 20 19  1  6  0  0  0
M  END
>  <CHROM.1>
61.62476866,-126.50761681,26.51923070,-4.70135860,44.11622265,-1.24681455
-0.22706241,-2.90916576

>  <Name>
1nyi_lig

>  <RI>
0

>  <Rbt.Current_Directory>
/home/itssahil/PROJECTS/Mol_Feturizer/New_Systems/rnas/1nyi

>  <Rbt.Executable>
rbdock ($Id: //depot/dev/client3/rdock/2013.1/src/exe/rbdock.cxx#4 $)

>  <Rbt.Library>
libRbt.so (2013.1, Build901 2013/11/27)

>  <Rbt.Parameter_File>
/export/apps/rDock/src/rDock_2013.1_src/data/scripts/dock_solv.prm

>  <Rbt.Receptor>
prm/pocket_docking_3.prm

>  <SCORE>
-10.7288

>  <SCORE.INTER>
-8.61415

>  <SCORE.INTER.CONST>
1

>  <SCORE.INTER.POLAR>
-0.802377

>  <SCORE.INTER.ROT>
2

>  <SCORE.INTER.SOLV>
14.6643

>  <SCORE.INTER.VDW>
-12.8896

>  <SCORE.INTER.norm>
-0.430707

>  <SCORE.INTRA>
-2.11468

>  <SCORE.INTRA.DIHEDRAL>
-2.45673

>  <SCORE.INTRA.DIHEDRAL.0>
3.72394

>  <SCORE.INTRA.POLAR>
0

>  <SCORE.INTRA.POLAR.0>
0

>  <SCORE.INTRA.REPUL>
0

>  <SCORE.INTRA.REPUL.0>
0

>  <SCORE.INTRA.SOLV>
-0.883401

>  <SCORE.INTRA.SOLV.lig_0>
-49.4697

>  <SCORE.INTRA.VDW>
-0.444617

>  <SCORE.INTRA.VDW.0>
-0.896538

>  <SCORE.INTRA.norm>
-0.105734

>  <SCORE.RESTR>
0

>  <SCORE.RESTR.CAVITY>
0

>  <SCORE.RESTR.norm>
0

>  <SCORE.SYSTEM>
0

>  <SCORE.SYSTEM.CONST>
0

>  <SCORE.SYSTEM.DIHEDRAL>
0

>  <SCORE.SYSTEM.SOLV>
0

>  <SCORE.SYSTEM.norm>
0

>  <SCORE.heavy>
20

>  <SCORE.norm>
-0.536441

>  <RMSD>
3.202

$$$$
1nyi_lig
 OpenBabel11021811403D
libRbt.so/2013.1/901 2013/11/27
 20 22  0  0  0  0  0  0  0  0999 V2000
   28.9846   -1.6784   43.7491 C   0  0  0  0  0  0  0  0  0  0  0  0
   29.0761   -1.2636   42.3862 O   0  0  0  0  0  0  0  0  0  0  0  0
   27.5471   -1.6704   44.2200 C   0  0  1  0  0  0  0  0  0  0  0  0
   26.7815   -2.6052   43.4124 O   0  0  0  0  0  0  0  0  0  0  0  0
   27.4011   -2.1481   45.6605 C   0  0  1  0  0  0  0  0  0  0  0  0
   27.4822   -1.0615   46.5840 O   0  0  0  0  0  0  0  0  0  0  0  0
   26.0347   -2.8302   45.6380 C   0  0  1  0  0  0  0  0  0  0  0  0
   24.9525   -1.9138   45.7061 O   0  0  0  0  0  0  0  0  0  0  0  0
   26.0731   -3.4970   44.2647 C   0  0  2  0  0  0  0  0  0  0  0  0
   25.0482   -8.4628   43.3817 N   0  0  0  0  0  0  0  0  0  0  0  0
   24.1957   -7.3858   43.4036 C   0  0  1  0  0  0  0  0  0  0  0  0
   22.9139   -7.6635   43.1612 N   0  0  0  0  0  0  0  0  0  0  0  0
   24.5710   -6.1336   43.6482 N   0  0  0  0  0  0  0  0  0  0  0  0
   25.9111   -6.0320   43.8875 C   0  0  1  0  0  0  0  0  0  0  0  0
   26.8463   -7.0518   43.8877 C   0  0  1  0  0  0  0  0  0  0  0  0
   26.4212   -8.3815   43.6131 C   0  0  0  0  0  0  0  0  0  0  0  0
   27.1012   -9.4144   43.5661 O   0  0  0  0  0  0  0  0  0  0  0  0
   28.1135   -6.5516   44.1582 N   0  0  0  0  0  0  0  0  0  0  0  0
   27.9292   -5.2704   44.3208 C   0  0  0  0  0  0  0  0  0  0  0  0
   26.6179   -4.8718   44.1803 N   0  0  1  0  0  0  0  0  0  0  0  0
  2  1  1  0  0  0  0
  3  1  1  6  0  0  0
  3  4  1  0  0  0  0
  3  5  1  0  0  0  0
  5  6  1  1  0  0  0
  5  7  1  0  0  0  0
  7  8  1  6  0  0  0
  7  9  1  0  0  0  0
  9  4  1  6  0  0  0
  9 20  1  0  0  0  0
 10 11  1  0  0  0  0
 11 12  1  1  0  0  0
 11 13  1  0  0  0  0
 14 13  1  6  0  0  0
 15 14  1  0  0  0  0
 15 16  1  6  0  0  0
 16 10  1  0  0  0  0
 16 17  2  0  0  0  0
 18 15  1  0  0  0  0
 19 18  1  0  0  0  0
 20 14  1  0  0  0  0
 20 19  1  6  0  0  0
M  END
>  <CHROM.1>
61.22100815,-125.41315159,26.52668681,-4.72440782,44.14499845,-1.24532888
-0.24834520,-2.88213762

>  <Name>
1nyi_lig

>  <RI>
0

>  <Rbt.Current_Directory>
/home/itssahil/PROJECTS/Mol_Feturizer/New_Systems/rnas/1nyi

>  <Rbt.Executable>
rbdock ($Id: //depot/dev/client3/rdock/2013.1/src/exe/rbdock.cxx#4 $)

>  <Rbt.Library>
libRbt.so (2013.1, Build901 2013/11/27)

>  <Rbt.Parameter_File>
/export/apps/rDock/src/rDock_2013.1_src/data/scripts/dock_solv.prm

>  <Rbt.Receptor>
prm/pocket_docking_4.prm

>  <SCORE>
-10.6981

>  <SCORE.INTER>
-8.57982

>  <SCORE.INTER.CONST>
1

>  <SCORE.INTER.POLAR>
-0.786414

>  <SCORE.INTER.ROT>
2

>  <SCORE.INTER.SOLV>
14.5458

>  <SCORE.INTER.VDW>
-12.8804

>  <SCORE.INTER.norm>
-0.428991

>  <SCORE.INTRA>
-2.11826

>  <SCORE.INTRA.DIHEDRAL>
-2.46583

>  <SCORE.INTRA.DIHEDRAL.0>
3.72394

>  <SCORE.INTRA.POLAR>
0

>  <SCORE.INTRA.POLAR.0>
0

>  <SCORE.INTRA.REPUL>
0

>  <SCORE.INTRA.REPUL.0>
0

>  <SCORE.INTRA.SOLV>
-0.882966

>  <SCORE.INTRA.SOLV.lig_0>
-49.4697

>  <SCORE.INTRA.VDW>
-0.443866

>  <SCORE.INTRA.VDW.0>
-0.896538

>  <SCORE.INTRA.norm>
-0.105913

>  <SCORE.RESTR>
0

>  <SCORE.RESTR.CAVITY>
0

>  <SCORE.RESTR.norm>
0

>  <SCORE.SYSTEM>
0

>  <SCORE.SYSTEM.CONST>
0

>  <SCORE.SYSTEM.DIHEDRAL>
0

>  <SCORE.SYSTEM.SOLV>
0

>  <SCORE.SYSTEM.norm>
0

>  <SCORE.heavy>
20

>  <SCORE.norm>
-0.534904

>  <RMSD>
3.207

$$$$
1nyi_lig
 OpenBabel11021811403D
libRbt.so/2013.1/901 2013/11/27
 20 22  0  0  0  0  0  0  0  0999 V2000
   28.3943   -1.7014   43.7235 C   0  0  0  0  0  0  0  0  0  0  0  0
   27.9203   -1.1562   42.4922 O   0  0  0  0  0  0  0  0  0  0  0  0
   27.2626   -1.8595   44.7146 C   0  0  1  0  0  0  0  0  0  0  0  0
   26.3062   -2.8190   44.1884 O   0  0  0  0  0  0  0  0  0  0  0  0
   27.7300   -2.4272   46.0501 C   0  0  1  0  0  0  0  0  0  0  0  0
   28.0945   -1.3899   46.9619 O   0  0  0  0  0  0  0  0  0  0  0  0
   26.5158   -3.2372   46.4999 C   0  0  1  0  0  0  0  0  0  0  0  0
   25.4885   -2.4359   47.0640 O   0  0  0  0  0  0  0  0  0  0  0  0
   26.0544   -3.8210   45.1663 C   0  0  2  0  0  0  0  0  0  0  0  0
   25.0711   -8.4662   43.1802 N   0  0  0  0  0  0  0  0  0  0  0  0
   24.2060   -7.4386   43.4677 C   0  0  1  0  0  0  0  0  0  0  0  0
   22.9223   -7.6754   43.1935 N   0  0  0  0  0  0  0  0  0  0  0  0
   24.5713   -6.2702   43.9875 N   0  0  0  0  0  0  0  0  0  0  0  0
   25.9152   -6.2029   44.2167 C   0  0  1  0  0  0  0  0  0  0  0  0
   26.8629   -7.1786   43.9623 C   0  0  1  0  0  0  0  0  0  0  0  0
   26.4480   -8.4163   43.3964 C   0  0  0  0  0  0  0  0  0  0  0  0
   27.1397   -9.3983   43.0983 O   0  0  0  0  0  0  0  0  0  0  0  0
   28.1298   -6.7321   44.3155 N   0  0  0  0  0  0  0  0  0  0  0  0
   27.9333   -5.5264   44.7736 C   0  0  0  0  0  0  0  0  0  0  0  0
   26.6142   -5.1294   44.7555 N   0  0  1  0  0  0  0  0  0  0  0  0
  2  1  1  0  0  0  0
  3  1  1  6  0  0  0
  3  4  1  0  0  0  0
  3  5  1  0  0  0  0
  5  6  1  1  0  0  0
  5  7  1  0  0  0  0
  7  8  1  6  0  0  0
  7  9  1  0  0  0  0
  9  4  1  6  0  0  0
  9 20  1  0  0  0  0
 10 11  1  0  0  0  0
 11 12  1  1  0  0  0
 11 13  1  0  0  0  0
 14 13  1  6  0  0  0
 15 14  1  0  0  0  0
 15 16  1  6  0  0  0
 16 10  1  0  0  0  0
 16 17  2  0  0  0  0
 18 15  1  0  0  0  0
 19 18  1  0  0  0  0
 20 14  1  0  0  0  0
 20 19  1  6  0  0  0
M  END
>  <CHROM.1>
63.50828642,-101.45347661,26.50041318,-4.89446262,44.46854820,-1.26355467
-0.35879439,-2.73821040

>  <Name>
1nyi_lig

>  <RI>
0

>  <Rbt.Current_Directory>
/home/itssahil/PROJECTS/Mol_Feturizer/New_Systems/rnas/1nyi

>  <Rbt.Executable>
rbdock ($Id: //depot/dev/client3/rdock/2013.1/src/exe/rbdock.cxx#4 $)

>  <Rbt.Library>
libRbt.so (2013.1, Build901 2013/11/27)

>  <Rbt.Parameter_File>
/export/apps/rDock/src/rDock_2013.1_src/data/scripts/dock_solv.prm

>  <Rbt.Receptor>
prm/pocket_docking_3.prm

>  <SCORE>
-11.7194

>  <SCORE.INTER>
-9.65442

>  <SCORE.INTER.CONST>
1

>  <SCORE.INTER.POLAR>
-1.23786

>  <SCORE.INTER.ROT>
2

>  <SCORE.INTER.SOLV>
13.9802

>  <SCORE.INTER.VDW>
-11.9035

>  <SCORE.INTER.norm>
-0.482721

>  <SCORE.INTRA>
-2.06497

>  <SCORE.INTRA.DIHEDRAL>
-2.52278

>  <SCORE.INTRA.DIHEDRAL.0>
3.72394

>  <SCORE.INTRA.POLAR>
0

>  <SCORE.INTRA.POLAR.0>
0

>  <SCORE.INTRA.REPUL>
0

>  <SCORE.INTRA.REPUL.0>
0

>  <SCORE.INTRA.SOLV>
-0.873768

>  <SCORE.INTRA.SOLV.lig_0>
-49.4697

>  <SCORE.INTRA.VDW>
-0.366699

>  <SCORE.INTRA.VDW.0>
-0.896538

>  <SCORE.INTRA.norm>
-0.103249

>  <SCORE.RESTR>
0

>  <SCORE.RESTR.CAVITY>
0

>  <SCORE.RESTR.norm>
0

>  <SCORE.SYSTEM>
0

>  <SCORE.SYSTEM.CONST>
0

>  <SCORE.SYSTEM.DIHEDRAL>
0

>  <SCORE.SYSTEM.SOLV>
0

>  <SCORE.SYSTEM.norm>
0

>  <SCORE.heavy>
20

>  <SCORE.norm>
-0.58597

>  <RMSD>
3.221

$$$$
1nyi_lig
 OpenBabel11021811403D
libRbt.so/2013.1/901 2013/11/27
 20 22  0  0  0  0  0  0  0  0999 V2000
   29.0654   -1.6828   44.1435 C   0  0  0  0  0  0  0  0  0  0  0  0
   29.4318   -1.2346   42.8386 O   0  0  0  0  0  0  0  0  0  0  0  0
   27.5637   -1.6520   44.3225 C   0  0  1  0  0  0  0  0  0  0  0  0
   26.9572   -2.5703   43.3733 O   0  0  0  0  0  0  0  0  0  0  0  0
   27.1294   -2.1330   45.7026 C   0  0  1  0  0  0  0  0  0  0  0  0
   27.0445   -1.0516   46.6319 O   0  0  0  0  0  0  0  0  0  0  0  0
   25.7835   -2.7915   45.4067 C   0  0  1  0  0  0  0  0  0  0  0  0
   24.7238   -1.8570   45.2673 O   0  0  0  0  0  0  0  0  0  0  0  0
   26.0806   -3.4533   44.0629 C   0  0  2  0  0  0  0  0  0  0  0  0
   25.0169   -8.4508   43.4442 N   0  0  0  0  0  0  0  0  0  0  0  0
   24.1786   -7.3646   43.3756 C   0  0  1  0  0  0  0  0  0  0  0  0
   22.9012   -7.6415   43.1099 N   0  0  0  0  0  0  0  0  0  0  0  0
   24.5630   -6.1045   43.5571 N   0  0  0  0  0  0  0  0  0  0  0  0
   25.8963   -6.0042   43.8318 C   0  0  1  0  0  0  0  0  0  0  0  0
   26.8174   -7.0330   43.9217 C   0  0  1  0  0  0  0  0  0  0  0  0
   26.3831   -8.3717   43.7132 C   0  0  0  0  0  0  0  0  0  0  0  0
   27.0504   -9.4133   43.7490 O   0  0  0  0  0  0  0  0  0  0  0  0
   28.0823   -6.5322   44.2017 N   0  0  0  0  0  0  0  0  0  0  0  0
   27.9102   -5.2415   44.2822 C   0  0  0  0  0  0  0  0  0  0  0  0
   26.6094   -4.8369   44.0773 N   0  0  1  0  0  0  0  0  0  0  0  0
  2  1  1  0  0  0  0
  3  1  1  1  0  0  0
  3  4  1  0  0  0  0
  3  5  1  0  0  0  0
  5  6  1  1  0  0  0
  5  7  1  0  0  0  0
  7  8  1  6  0  0  0
  7  9  1  0  0  0  0
  9  4  1  1  0  0  0
  9 20  1  0  0  0  0
 10 11  1  0  0  0  0
 11 12  1  1  0  0  0
 11 13  1  0  0  0  0
 14 13  1  6  0  0  0
 15 14  1  0  0  0  0
 15 16  1  6  0  0  0
 16 10  1  0  0  0  0
 16 17  2  0  0  0  0
 18 15  1  0  0  0  0
 19 18  1  0  0  0  0
 20 14  1  0  0  0  0
 20 19  1  6  0  0  0
M  END
>  <CHROM.1>
62.56698915,-135.69166371,26.48709553,-4.70092495,44.15610425,-1.25062159
-0.15382276,-2.91440221

>  <Name>
1nyi_lig

>  <RI>
0

>  <Rbt.Current_Directory>
/home/itssahil/PROJECTS/Mol_Feturizer/New_Systems/rnas/1nyi

>  <Rbt.Executable>
rbdock ($Id: //depot/dev/client3/rdock/2013.1/src/exe/rbdock.cxx#4 $)

>  <Rbt.Library>
libRbt.so (2013.1, Build901 2013/11/27)

>  <Rbt.Parameter_File>
/export/apps/rDock/src/rDock_2013.1_src/data/scripts/dock_solv.prm

>  <Rbt.Receptor>
prm/pocket_docking_3.prm

>  <SCORE>
-10.6248

>  <SCORE.INTER>
-8.53576

>  <SCORE.INTER.CONST>
1

>  <SCORE.INTER.POLAR>
-0.767067

>  <SCORE.INTER.ROT>
2

>  <SCORE.INTER.SOLV>
14.5814

>  <SCORE.INTER.VDW>
-12.9274

>  <SCORE.INTER.norm>
-0.426788

>  <SCORE.INTRA>
-2.08905

>  <SCORE.INTRA.DIHEDRAL>
-2.40897

>  <SCORE.INTRA.DIHEDRAL.0>
3.72394

>  <SCORE.INTRA.POLAR>
0

>  <SCORE.INTRA.POLAR.0>
0

>  <SCORE.INTRA.REPUL>
0

>  <SCORE.INTRA.REPUL.0>
0

>  <SCORE.INTRA.SOLV>
-0.869907

>  <SCORE.INTRA.SOLV.lig_0>
-49.4697

>  <SCORE.INTRA.VDW>
-0.449611

>  <SCORE.INTRA.VDW.0>
-0.896538

>  <SCORE.INTRA.norm>
-0.104452

>  <SCORE.RESTR>
0

>  <SCORE.RESTR.CAVITY>
0

>  <SCORE.RESTR.norm>
0

>  <SCORE.SYSTEM>
0

>  <SCORE.SYSTEM.CONST>
0

>  <SCORE.SYSTEM.DIHEDRAL>
0

>  <SCORE.SYSTEM.SOLV>
0

>  <SCORE.SYSTEM.norm>
0

>  <SCORE.heavy>
20

>  <SCORE.norm>
-0.53124

>  <RMSD>
3.248

$$$$
1nyi_lig
 OpenBabel11021811403D
libRbt.so/2013.1/901 2013/11/27
 20 22  0  0  0  0  0  0  0  0999 V2000
   29.0669   -1.7818   43.6124 C   0  0  0  0  0  0  0  0  0  0  0  0
   29.8804   -0.8366   44.3073 O   0  0  0  0  0  0  0  0  0  0  0  0
   27.6399   -1.7355   44.1119 C   0  0  1  0  0  0  0  0  0  0  0  0
   26.8417   -2.6778   43.3457 O   0  0  0  0  0  0  0  0  0  0  0  0
   27.5155   -2.1717   45.5676 C   0  0  1  0  0  0  0  0  0  0  0  0
   27.6344   -1.0621   46.4593 O   0  0  0  0  0  0  0  0  0  0  0  0
   26.1373   -2.8296   45.5913 C   0  0  1  0  0  0  0  0  0  0  0  0
   25.0728   -1.8925   45.6563 O   0  0  0  0  0  0  0  0  0  0  0  0
   26.1357   -3.5337   44.2362 C   0  0  2  0  0  0  0  0  0  0  0  0
   25.0270   -8.4905   43.4060 N   0  0  0  0  0  0  0  0  0  0  0  0
   24.1954   -7.3971   43.4010 C   0  0  1  0  0  0  0  0  0  0  0  0
   22.9119   -7.6534   43.1439 N   0  0  0  0  0  0  0  0  0  0  0  0
   24.5915   -6.1491   43.6340 N   0  0  0  0  0  0  0  0  0  0  0  0
   25.9297   -6.0700   43.8911 C   0  0  1  0  0  0  0  0  0  0  0  0
   26.8448   -7.1076   43.9186 C   0  0  1  0  0  0  0  0  0  0  0  0
   26.3978   -8.4325   43.6559 C   0  0  0  0  0  0  0  0  0  0  0  0
   27.0583   -9.4789   43.6328 O   0  0  0  0  0  0  0  0  0  0  0  0
   28.1176   -6.6282   44.2005 N   0  0  0  0  0  0  0  0  0  0  0  0
   27.9559   -5.3415   44.3430 C   0  0  0  0  0  0  0  0  0  0  0  0
   26.6548   -4.9197   44.1783 N   0  0  1  0  0  0  0  0  0  0  0  0
  2  1  1  0  0  0  0
  3  1  1  6  0  0  0
  3  4  1  0  0  0  0
  3  5  1  0  0  0  0
  5  6  1  1  0  0  0
  5  7  1  0  0  0  0
  7  8  1  6  0  0  0
  7  9  1  0  0  0  0
  9  4  1  6  0  0  0
  9 20  1  0  0  0  0
 10 11  1  0  0  0  0
 11 12  1  1  0  0  0
 11 13  1  0  0  0  0
 14 13  1  6  0  0  0
 15 14  1  0  0  0  0
 15 16  1  6  0  0  0
 16 10  1  0  0  0  0
 16 17  2  0  0  0  0
 18 15  1  0  0  0  0
 19 18  1  0  0  0  0
 20 14  1  0  0  0  0
 20 19  1  6  0  0  0
M  END
>  <CHROM.1>
178.01177779,-123.27841683,26.61329185,-4.73611775,44.23081354,-1.21048284
-0.07359980,-2.90754449

>  <Name>
1nyi_lig

>  <RI>
0

>  <Rbt.Current_Directory>
/home/itssahil/PROJECTS/Mol_Feturizer/New_Systems/rnas/1nyi

>  <Rbt.Executable>
rbdock ($Id: //depot/dev/client3/rdock/2013.1/src/exe/rbdock.cxx#4 $)

>  <Rbt.Library>
libRbt.so (2013.1, Build901 2013/11/27)

>  <Rbt.Parameter_File>
/export/apps/rDock/src/rDock_2013.1_src/data/scripts/dock_solv.prm

>  <Rbt.Receptor>
prm/pocket_docking_3.prm

>  <SCORE>
-10.4443

>  <SCORE.INTER>
-8.45752

>  <SCORE.INTER.CONST>
1

>  <SCORE.INTER.POLAR>
-0.758163

>  <SCORE.INTER.ROT>
2

>  <SCORE.INTER.SOLV>
13.645

>  <SCORE.INTER.VDW>
-12.5928

>  <SCORE.INTER.norm>
-0.422876

>  <SCORE.INTRA>
-1.9872

>  <SCORE.INTRA.DIHEDRAL>
-2.46933

>  <SCORE.INTRA.DIHEDRAL.0>
3.72394

>  <SCORE.INTRA.POLAR>
0

>  <SCORE.INTRA.POLAR.0>
0

>  <SCORE.INTRA.REPUL>
0

>  <SCORE.INTRA.REPUL.0>
0

>  <SCORE.INTRA.SOLV>
-0.660933

>  <SCORE.INTRA.SOLV.lig_0>
-49.4697

>  <SCORE.INTRA.VDW>
-0.422066

>  <SCORE.INTRA.VDW.0>
-0.896538

>  <SCORE.INTRA.norm>
-0.09936

>  <SCORE.RESTR>
0.000420914

>  <SCORE.RESTR.CAVITY>
0.000420914

>  <SCORE.RESTR.norm>
2.10457e-05

>  <SCORE.SYSTEM>
0

>  <SCORE.SYSTEM.CONST>
0

>  <SCORE.SYSTEM.DIHEDRAL>
0

>  <SCORE.SYSTEM.SOLV>
0

>  <SCORE.SYSTEM.norm>
0

>  <SCORE.heavy>
20

>  <SCORE.norm>
-0.522215

>  <RMSD>
3.259

$$$$
1nyi_lig
 OpenBabel11021811403D
libRbt.so/2013.1/901 2013/11/27
 20 22  0  0  0  0  0  0  0  0999 V2000
   29.1941   -1.8440   43.6046 C   0  0  0  0  0  0  0  0  0  0  0  0
   29.9564   -0.8694   44.3166 O   0  0  0  0  0  0  0  0  0  0  0  0
   27.7295   -1.7574   43.9726 C   0  0  1  0  0  0  0  0  0  0  0  0
   26.9859   -2.7191   43.1761 O   0  0  0  0  0  0  0  0  0  0  0  0
   27.4691   -2.1320   45.4274 C   0  0  1  0  0  0  0  0  0  0  0  0
   27.5280   -0.9887   46.2817 O   0  0  0  0  0  0  0  0  0  0  0  0
   26.0830   -2.7691   45.3541 C   0  0  1  0  0  0  0  0  0  0  0  0
   25.0334   -1.8155   45.2869 O   0  0  0  0  0  0  0  0  0  0  0  0
   26.1890   -3.5280   44.0331 C   0  0  2  0  0  0  0  0  0  0  0  0
   25.0136   -8.5126   43.5223 N   0  0  0  0  0  0  0  0  0  0  0  0
   24.1996   -7.4098   43.4313 C   0  0  1  0  0  0  0  0  0  0  0  0
   22.9159   -7.6638   43.1729 N   0  0  0  0  0  0  0  0  0  0  0  0
   24.6121   -6.1549   43.5855 N   0  0  0  0  0  0  0  0  0  0  0  0
   25.9477   -6.0785   43.8566 C   0  0  1  0  0  0  0  0  0  0  0  0
   26.8459   -7.1253   43.9676 C   0  0  1  0  0  0  0  0  0  0  0  0
   26.3816   -8.4582   43.7882 C   0  0  0  0  0  0  0  0  0  0  0  0
   27.0257   -9.5134   43.8455 O   0  0  0  0  0  0  0  0  0  0  0  0
   28.1220   -6.6469   44.2356 N   0  0  0  0  0  0  0  0  0  0  0  0
   27.9788   -5.3513   44.2886 C   0  0  0  0  0  0  0  0  0  0  0  0
   26.6869   -4.9223   44.0765 N   0  0  1  0  0  0  0  0  0  0  0  0
  2  1  1  0  0  0  0
  3  1  1  6  0  0  0
  3  4  1  0  0  0  0
  3  5  1  0  0  0  0
  5  6  1  1  0  0  0
  5  7  1  0  0  0  0
  7  8  1  6  0  0  0
  7  9  1  0  0  0  0
  9  4  1  6  0  0  0
  9 20  1  0  0  0  0
 10 11  1  0  0  0  0
 11 12  1  1  0  0  0
 11 13  1  0  0  0  0
 14 13  1  6  0  0  0
 15 14  1  0  0  0  0
 15 16  1  6  0  0  0
 16 10  1  0  0  0  0
 16 17  2  0  0  0  0
 18 15  1  0  0  0  0
 19 18  1  0  0  0  0
 20 14  1  0  0  0  0
 20 19  1  6  0  0  0
M  END
>  <CHROM.1>
177.15372627,-127.82916223,26.62786890,-4.73929903,44.17548503,-1.20493343
-0.03223233,-2.95859909

>  <Name>
1nyi_lig

>  <RI>
0

>  <Rbt.Current_Directory>
/home/itssahil/PROJECTS/Mol_Feturizer/New_Systems/rnas/1nyi

>  <Rbt.Executable>
rbdock ($Id: //depot/dev/client3/rdock/2013.1/src/exe/rbdock.cxx#4 $)

>  <Rbt.Library>
libRbt.so (2013.1, Build901 2013/11/27)

>  <Rbt.Parameter_File>
/export/apps/rDock/src/rDock_2013.1_src/data/scripts/dock_solv.prm

>  <Rbt.Receptor>
prm/pocket_docking_3.prm

>  <SCORE>
-10.5966

>  <SCORE.INTER>
-8.6036

>  <SCORE.INTER.CONST>
1

>  <SCORE.INTER.POLAR>
-0.75959

>  <SCORE.INTER.ROT>
2

>  <SCORE.INTER.SOLV>
13.8566

>  <SCORE.INTER.VDW>
-12.756

>  <SCORE.INTER.norm>
-0.43018

>  <SCORE.INTRA>
-1.99303

>  <SCORE.INTRA.DIHEDRAL>
-2.43608

>  <SCORE.INTRA.DIHEDRAL.0>
3.72394

>  <SCORE.INTRA.POLAR>
0

>  <SCORE.INTRA.POLAR.0>
0

>  <SCORE.INTRA.REPUL>
0

>  <SCORE.INTRA.REPUL.0>
0

>  <SCORE.INTRA.SOLV>
-0.663969

>  <SCORE.INTRA.SOLV.lig_0>
-49.4697

>  <SCORE.INTRA.VDW>
-0.443004

>  <SCORE.INTRA.VDW.0>
-0.896538

>  <SCORE.INTRA.norm>
-0.0996515

>  <SCORE.RESTR>
0

>  <SCORE.RESTR.CAVITY>
0

>  <SCORE.RESTR.norm>
0

>  <SCORE.SYSTEM>
0

>  <SCORE.SYSTEM.CONST>
0

>  <SCORE.SYSTEM.DIHEDRAL>
0

>  <SCORE.SYSTEM.SOLV>
0

>  <SCORE.SYSTEM.norm>
0

>  <SCORE.heavy>
20

>  <SCORE.norm>
-0.529832

>  <RMSD>
3.260

$$$$
1nyi_lig
 OpenBabel11021811403D
libRbt.so/2013.1/901 2013/11/27
 20 22  0  0  0  0  0  0  0  0999 V2000
   29.2139   -1.8558   43.5930 C   0  0  0  0  0  0  0  0  0  0  0  0
   29.9689   -0.8680   44.2946 O   0  0  0  0  0  0  0  0  0  0  0  0
   27.7462   -1.7657   43.9480 C   0  0  1  0  0  0  0  0  0  0  0  0
   27.0084   -2.7310   43.1505 O   0  0  0  0  0  0  0  0  0  0  0  0
   27.4730   -2.1318   45.4026 C   0  0  1  0  0  0  0  0  0  0  0  0
   27.5258   -0.9839   46.2510 O   0  0  0  0  0  0  0  0  0  0  0  0
   26.0868   -2.7679   45.3210 C   0  0  1  0  0  0  0  0  0  0  0  0
   25.0389   -1.8135   45.2394 O   0  0  0  0  0  0  0  0  0  0  0  0
   26.2033   -3.5342   44.0052 C   0  0  2  0  0  0  0  0  0  0  0  0
   25.0192   -8.5217   43.5451 N   0  0  0  0  0  0  0  0  0  0  0  0
   24.2066   -7.4185   43.4457 C   0  0  1  0  0  0  0  0  0  0  0  0
   22.9219   -7.6731   43.1931 N   0  0  0  0  0  0  0  0  0  0  0  0
   24.6214   -6.1629   43.5868 N   0  0  0  0  0  0  0  0  0  0  0  0
   25.9578   -6.0859   43.8537 C   0  0  1  0  0  0  0  0  0  0  0  0
   26.8547   -7.1330   43.9724 C   0  0  1  0  0  0  0  0  0  0  0  0
   26.3880   -8.4668   43.8069 C   0  0  0  0  0  0  0  0  0  0  0  0
   27.0307   -9.5224   43.8726 O   0  0  0  0  0  0  0  0  0  0  0  0
   28.1322   -6.6539   44.2324 N   0  0  0  0  0  0  0  0  0  0  0  0
   27.9910   -5.3577   44.2735 C   0  0  0  0  0  0  0  0  0  0  0  0
   26.6992   -4.9288   44.0606 N   0  0  1  0  0  0  0  0  0  0  0  0
  2  1  1  0  0  0  0
  3  1  1  6  0  0  0
  3  4  1  0  0  0  0
  3  5  1  0  0  0  0
  5  6  1  1  0  0  0
  5  7  1  0  0  0  0
  7  8  1  6  0  0  0
  7  9  1  0  0  0  0
  9  4  1  6  0  0  0
  9 20  1  0  0  0  0
 10 11  1  0  0  0  0
 11 12  1  1  0  0  0
 11 13  1  0  0  0  0
 14 13  1  6  0  0  0
 15 14  1  0  0  0  0
 15 16  1  6  0  0  0
 16 10  1  0  0  0  0
 16 17  2  0  0  0  0
 18 15  1  0  0  0  0
 19 18  1  0  0  0  0
 20 14  1  0  0  0  0
 20 19  1  6  0  0  0
M  END
>  <CHROM.1>
176.48725129,-128.50892044,26.63735625,-4.74497676,44.16623772,-1.20419562
-0.03164242,-2.96586972

>  <Name>
1nyi_lig

>  <RI>
0

>  <Rbt.Current_Directory>
/home/itssahil/PROJECTS/Mol_Feturizer/New_Systems/rnas/1nyi

>  <Rbt.Executable>
rbdock ($Id: //depot/dev/client3/rdock/2013.1/src/exe/rbdock.cxx#4 $)

>  <Rbt.Library>
libRbt.so (2013.1, Build901 2013/11/27)

>  <Rbt.Parameter_File>
/export/apps/rDock/src/rDock_2013.1_src/data/scripts/dock_solv.prm

>  <Rbt.Receptor>
prm/pocket_docking_3.prm

>  <SCORE>
-10.6029

>  <SCORE.INTER>
-8.61414

>  <SCORE.INTER.CONST>
1

>  <SCORE.INTER.POLAR>
-0.758092

>  <SCORE.INTER.ROT>
2

>  <SCORE.INTER.SOLV>
13.8637

>  <SCORE.INTER.VDW>
-12.7703

>  <SCORE.INTER.norm>
-0.430707

>  <SCORE.INTRA>
-1.98871

>  <SCORE.INTRA.DIHEDRAL>
-2.41888

>  <SCORE.INTRA.DIHEDRAL.0>
3.72394

>  <SCORE.INTRA.POLAR>
0

>  <SCORE.INTRA.POLAR.0>
0

>  <SCORE.INTRA.REPUL>
0

>  <SCORE.INTRA.REPUL.0>
0

>  <SCORE.INTRA.SOLV>
-0.66708

>  <SCORE.INTRA.SOLV.lig_0>
-49.4697

>  <SCORE.INTRA.VDW>
-0.445735

>  <SCORE.INTRA.VDW.0>
-0.896538

>  <SCORE.INTRA.norm>
-0.0994356

>  <SCORE.RESTR>
0

>  <SCORE.RESTR.CAVITY>
0

>  <SCORE.RESTR.norm>
0

>  <SCORE.SYSTEM>
0

>  <SCORE.SYSTEM.CONST>
0

>  <SCORE.SYSTEM.DIHEDRAL>
0

>  <SCORE.SYSTEM.SOLV>
0

>  <SCORE.SYSTEM.norm>
0

>  <SCORE.heavy>
20

>  <SCORE.norm>
-0.530143

>  <RMSD>
3.261

$$$$
1nyi_lig
 OpenBabel11021811403D
libRbt.so/2013.1/901 2013/11/27
 20 22  0  0  0  0  0  0  0  0999 V2000
   29.2158   -1.8738   43.5530 C   0  0  0  0  0  0  0  0  0  0  0  0
   29.9872   -0.8858   44.2362 O   0  0  0  0  0  0  0  0  0  0  0  0
   27.7565   -1.7817   43.9404 C   0  0  1  0  0  0  0  0  0  0  0  0
   27.0001   -2.7465   43.1599 O   0  0  0  0  0  0  0  0  0  0  0  0
   27.5152   -2.1469   45.4008 C   0  0  1  0  0  0  0  0  0  0  0  0
   27.5882   -0.9986   46.2473 O   0  0  0  0  0  0  0  0  0  0  0  0
   26.1268   -2.7813   45.3502 C   0  0  1  0  0  0  0  0  0  0  0  0
   25.0785   -1.8257   45.2915 O   0  0  0  0  0  0  0  0  0  0  0  0
   26.2132   -3.5483   44.0325 C   0  0  2  0  0  0  0  0  0  0  0  0
   25.0244   -8.5324   43.5480 N   0  0  0  0  0  0  0  0  0  0  0  0
   24.2120   -7.4283   43.4585 C   0  0  1  0  0  0  0  0  0  0  0  0
   22.9260   -7.6806   43.2098 N   0  0  0  0  0  0  0  0  0  0  0  0
   24.6280   -6.1737   43.6053 N   0  0  0  0  0  0  0  0  0  0  0  0
   25.9656   -6.0990   43.8670 C   0  0  1  0  0  0  0  0  0  0  0  0
   26.8624   -7.1472   43.9757 C   0  0  1  0  0  0  0  0  0  0  0  0
   26.3943   -8.4798   43.8043 C   0  0  0  0  0  0  0  0  0  0  0  0
   27.0366   -9.5361   43.8611 O   0  0  0  0  0  0  0  0  0  0  0  0
   28.1412   -6.6704   44.2332 N   0  0  0  0  0  0  0  0  0  0  0  0
   28.0010   -5.3743   44.2825 C   0  0  0  0  0  0  0  0  0  0  0  0
   26.7085   -4.9435   44.0776 N   0  0  1  0  0  0  0  0  0  0  0  0
  2  1  1  0  0  0  0
  3  1  1  6  0  0  0
  3  4  1  0  0  0  0
  3  5  1  0  0  0  0
  5  6  1  1  0  0  0
  5  7  1  0  0  0  0
  7  8  1  6  0  0  0
  7  9  1  0  0  0  0
  9  4  1  6  0  0  0
  9 20  1  0  0  0  0
 10 11  1  0  0  0  0
 11 12  1  1  0  0  0
 11 13  1  0  0  0  0
 14 13  1  6  0  0  0
 15 14  1  0  0  0  0
 15 16  1  6  0  0  0
 16 10  1  0  0  0  0
 16 17  2  0  0  0  0
 18 15  1  0  0  0  0
 19 18  1  0  0  0  0
 20 14  1  0  0  0  0
 20 19  1  6  0  0  0
M  END
>  <CHROM.1>
176.43879711,-127.41561590,26.65234021,-4.75890195,44.17021227,-1.20117465
-0.04189545,-2.96367805

>  <Name>
1nyi_lig

>  <RI>
0

>  <Rbt.Current_Directory>
/home/itssahil/PROJECTS/Mol_Feturizer/New_Systems/rnas/1nyi

>  <Rbt.Executable>
rbdock ($Id: //depot/dev/client3/rdock/2013.1/src/exe/rbdock.cxx#4 $)

>  <Rbt.Library>
libRbt.so (2013.1, Build901 2013/11/27)

>  <Rbt.Parameter_File>
/export/apps/rDock/src/rDock_2013.1_src/data/scripts/dock_solv.prm

>  <Rbt.Receptor>
prm/pocket_docking_3.prm

>  <SCORE>
-10.5865

>  <SCORE.INTER>
-8.59444

>  <SCORE.INTER.CONST>
1

>  <SCORE.INTER.POLAR>
-0.755489

>  <SCORE.INTER.ROT>
2

>  <SCORE.INTER.SOLV>
13.7638

>  <SCORE.INTER.VDW>
-12.7326

>  <SCORE.INTER.norm>
-0.429722

>  <SCORE.INTRA>
-1.9921

>  <SCORE.INTRA.DIHEDRAL>
-2.42207

>  <SCORE.INTRA.DIHEDRAL.0>
3.72394

>  <SCORE.INTRA.POLAR>
0

>  <SCORE.INTRA.POLAR.0>
0

>  <SCORE.INTRA.REPUL>
0

>  <SCORE.INTRA.REPUL.0>
0

>  <SCORE.INTRA.SOLV>
-0.66785

>  <SCORE.INTRA.SOLV.lig_0>
-49.4697

>  <SCORE.INTRA.VDW>
-0.447139

>  <SCORE.INTRA.VDW.0>
-0.896538

>  <SCORE.INTRA.norm>
-0.0996049

>  <SCORE.RESTR>
0

>  <SCORE.RESTR.CAVITY>
0

>  <SCORE.RESTR.norm>
0

>  <SCORE.SYSTEM>
0

>  <SCORE.SYSTEM.CONST>
0

>  <SCORE.SYSTEM.DIHEDRAL>
0

>  <SCORE.SYSTEM.SOLV>
0

>  <SCORE.SYSTEM.norm>
0

>  <SCORE.heavy>
20

>  <SCORE.norm>
-0.529327

>  <RMSD>
3.263

$$$$
1nyi_lig
 OpenBabel11021811403D
libRbt.so/2013.1/901 2013/11/27
 20 22  0  0  0  0  0  0  0  0999 V2000
   29.0690   -1.7177   43.7889 C   0  0  0  0  0  0  0  0  0  0  0  0
   29.8131   -0.7649   44.5483 O   0  0  0  0  0  0  0  0  0  0  0  0
   27.6041   -1.6808   44.1640 C   0  0  1  0  0  0  0  0  0  0  0  0
   26.8797   -2.6231   43.3276 O   0  0  0  0  0  0  0  0  0  0  0  0
   27.3573   -2.1251   45.6015 C   0  0  1  0  0  0  0  0  0  0  0  0
   27.3932   -1.0196   46.5053 O   0  0  0  0  0  0  0  0  0  0  0  0
   25.9857   -2.7898   45.5035 C   0  0  1  0  0  0  0  0  0  0  0  0
   24.9146   -1.8582   45.4810 O   0  0  0  0  0  0  0  0  0  0  0  0
   26.1043   -3.4869   44.1499 C   0  0  2  0  0  0  0  0  0  0  0  0
   25.0349   -8.4720   43.4471 N   0  0  0  0  0  0  0  0  0  0  0  0
   24.1954   -7.3853   43.4105 C   0  0  1  0  0  0  0  0  0  0  0  0
   22.9147   -7.6578   43.1560 N   0  0  0  0  0  0  0  0  0  0  0  0
   24.5815   -6.1287   43.6118 N   0  0  0  0  0  0  0  0  0  0  0  0
   25.9182   -6.0330   43.8712 C   0  0  1  0  0  0  0  0  0  0  0  0
   26.8408   -7.0626   43.9292 C   0  0  1  0  0  0  0  0  0  0  0  0
   26.4044   -8.3973   43.7001 C   0  0  0  0  0  0  0  0  0  0  0  0
   27.0726   -9.4390   43.7068 O   0  0  0  0  0  0  0  0  0  0  0  0
   28.1089   -6.5665   44.2026 N   0  0  0  0  0  0  0  0  0  0  0  0
   27.9374   -5.2778   44.3106 C   0  0  0  0  0  0  0  0  0  0  0  0
   26.6338   -4.8701   44.1304 N   0  0  1  0  0  0  0  0  0  0  0  0
  2  1  1  0  0  0  0
  3  1  1  6  0  0  0
  3  4  1  0  0  0  0
  3  5  1  0  0  0  0
  5  6  1  1  0  0  0
  5  7  1  0  0  0  0
  7  8  1  6  0  0  0
  7  9  1  0  0  0  0
  9  4  1  6  0  0  0
  9 20  1  0  0  0  0
 10 11  1  0  0  0  0
 11 12  1  1  0  0  0
 11 13  1  0  0  0  0
 14 13  1  6  0  0  0
 15 14  1  0  0  0  0
 15 16  1  6  0  0  0
 16 10  1  0  0  0  0
 16 17  2  0  0  0  0
 18 15  1  0  0  0  0
 19 18  1  0  0  0  0
 20 14  1  0  0  0  0
 20 19  1  6  0  0  0
M  END
>  <CHROM.1>
177.56148578,-128.34509580,26.56956284,-4.69410717,44.24462293,-1.22558692
-0.04454644,-2.91638151

>  <Name>
1nyi_lig

>  <RI>
0

>  <Rbt.Current_Directory>
/home/itssahil/PROJECTS/Mol_Feturizer/New_Systems/rnas/1nyi

>  <Rbt.Executable>
rbdock ($Id: //depot/dev/client3/rdock/2013.1/src/exe/rbdock.cxx#4 $)

>  <Rbt.Library>
libRbt.so (2013.1, Build901 2013/11/27)

>  <Rbt.Parameter_File>
/export/apps/rDock/src/rDock_2013.1_src/data/scripts/dock_solv.prm

>  <Rbt.Receptor>
prm/pocket_docking_4.prm

>  <SCORE>
-10.6162

>  <SCORE.INTER>
-8.62449

>  <SCORE.INTER.CONST>
1

>  <SCORE.INTER.POLAR>
-0.764854

>  <SCORE.INTER.ROT>
2

>  <SCORE.INTER.SOLV>
13.7171

>  <SCORE.INTER.VDW>
-12.7058

>  <SCORE.INTER.norm>
-0.431224

>  <SCORE.INTRA>
-1.99169

>  <SCORE.INTRA.DIHEDRAL>
-2.44135

>  <SCORE.INTRA.DIHEDRAL.0>
3.72394

>  <SCORE.INTRA.POLAR>
0

>  <SCORE.INTRA.POLAR.0>
0

>  <SCORE.INTRA.REPUL>
0

>  <SCORE.INTRA.REPUL.0>
0

>  <SCORE.INTRA.SOLV>
-0.661621

>  <SCORE.INTRA.SOLV.lig_0>
-49.4697

>  <SCORE.INTRA.VDW>
-0.440203

>  <SCORE.INTRA.VDW.0>
-0.896538

>  <SCORE.INTRA.norm>
-0.0995844

>  <SCORE.RESTR>
0

>  <SCORE.RESTR.CAVITY>
0

>  <SCORE.RESTR.norm>
0

>  <SCORE.SYSTEM>
0

>  <SCORE.SYSTEM.CONST>
0

>  <SCORE.SYSTEM.DIHEDRAL>
0

>  <SCORE.SYSTEM.SOLV>
0

>  <SCORE.SYSTEM.norm>
0

>  <SCORE.heavy>
20

>  <SCORE.norm>
-0.530809

>  <RMSD>
3.267

$$$$
1nyi_lig
 OpenBabel11021811403D
libRbt.so/2013.1/901 2013/11/27
 20 22  0  0  0  0  0  0  0  0999 V2000
   29.1944   -1.8590   43.6227 C   0  0  0  0  0  0  0  0  0  0  0  0
   29.9738   -0.9139   44.3558 O   0  0  0  0  0  0  0  0  0  0  0  0
   27.7355   -1.7736   44.0132 C   0  0  1  0  0  0  0  0  0  0  0  0
   26.9792   -2.7292   43.2214 O   0  0  0  0  0  0  0  0  0  0  0  0
   27.4965   -2.1577   45.4692 C   0  0  1  0  0  0  0  0  0  0  0  0
   27.5693   -1.0203   46.3301 O   0  0  0  0  0  0  0  0  0  0  0  0
   26.1088   -2.7931   45.4123 C   0  0  1  0  0  0  0  0  0  0  0  0
   25.0593   -1.8381   45.3671 O   0  0  0  0  0  0  0  0  0  0  0  0
   26.1944   -3.5431   44.0847 C   0  0  2  0  0  0  0  0  0  0  0  0
   25.0160   -8.5206   43.5148 N   0  0  0  0  0  0  0  0  0  0  0  0
   24.2025   -7.4163   43.4372 C   0  0  1  0  0  0  0  0  0  0  0  0
   22.9186   -7.6664   43.1762 N   0  0  0  0  0  0  0  0  0  0  0  0
   24.6158   -6.1636   43.6063 N   0  0  0  0  0  0  0  0  0  0  0  0
   25.9516   -6.0912   43.8779 C   0  0  1  0  0  0  0  0  0  0  0  0
   26.8491   -7.1398   43.9761 C   0  0  1  0  0  0  0  0  0  0  0  0
   26.3841   -8.4701   43.7808 C   0  0  0  0  0  0  0  0  0  0  0  0
   27.0275   -9.5264   43.8253 O   0  0  0  0  0  0  0  0  0  0  0  0
   28.1256   -6.6653   44.2493 N   0  0  0  0  0  0  0  0  0  0  0  0
   27.9832   -5.3704   44.3179 C   0  0  0  0  0  0  0  0  0  0  0  0
   26.6914   -4.9382   44.1113 N   0  0  1  0  0  0  0  0  0  0  0  0
  2  1  1  0  0  0  0
  3  1  1  6  0  0  0
  3  4  1  0  0  0  0
  3  5  1  0  0  0  0
  5  6  1  1  0  0  0
  5  7  1  0  0  0  0
  7  8  1  6  0  0  0
  7  9  1  0  0  0  0
  9  4  1  6  0  0  0
  9 20  1  0  0  0  0
 10 11  1  0  0  0  0
 11 12  1  1  0  0  0
 11 13  1  0  0  0  0
 14 13  1  6  0  0  0
 15 14  1  0  0  0  0
 15 16  1  6  0  0  0
 16 10  1  0  0  0  0
 16 17  2  0  0  0  0
 18 15  1  0  0  0  0
 19 18  1  0  0  0  0
 20 14  1  0  0  0  0
 20 19  1  6  0  0  0
M  END
>  <CHROM.1>
178.69190680,-126.93941579,26.63704936,-4.75641630,44.20229549,-1.20269729
-0.03529441,-2.94942101

>  <Name>
1nyi_lig

>  <RI>
0

>  <Rbt.Current_Directory>
/home/itssahil/PROJECTS/Mol_Feturizer/New_Systems/rnas/1nyi

>  <Rbt.Executable>
rbdock ($Id: //depot/dev/client3/rdock/2013.1/src/exe/rbdock.cxx#4 $)

>  <Rbt.Library>
libRbt.so (2013.1, Build901 2013/11/27)

>  <Rbt.Parameter_File>
/export/apps/rDock/src/rDock_2013.1_src/data/scripts/dock_solv.prm

>  <Rbt.Receptor>
prm/pocket_docking_5.prm

>  <SCORE>
-10.5645

>  <SCORE.INTER>
-8.57078

>  <SCORE.INTER.CONST>
1

>  <SCORE.INTER.POLAR>
-0.755653

>  <SCORE.INTER.ROT>
2

>  <SCORE.INTER.SOLV>
13.6502

>  <SCORE.INTER.VDW>
-12.6784

>  <SCORE.INTER.norm>
-0.428539

>  <SCORE.INTRA>
-1.99376

>  <SCORE.INTRA.DIHEDRAL>
-2.4611

>  <SCORE.INTRA.DIHEDRAL.0>
3.72394

>  <SCORE.INTRA.POLAR>
0

>  <SCORE.INTRA.POLAR.0>
0

>  <SCORE.INTRA.REPUL>
0

>  <SCORE.INTRA.REPUL.0>
0

>  <SCORE.INTRA.SOLV>
-0.656469

>  <SCORE.INTRA.SOLV.lig_0>
-49.4697

>  <SCORE.INTRA.VDW>
-0.434974

>  <SCORE.INTRA.VDW.0>
-0.896538

>  <SCORE.INTRA.norm>
-0.0996881

>  <SCORE.RESTR>
0

>  <SCORE.RESTR.CAVITY>
0

>  <SCORE.RESTR.norm>
0

>  <SCORE.SYSTEM>
0

>  <SCORE.SYSTEM.CONST>
0

>  <SCORE.SYSTEM.DIHEDRAL>
0

>  <SCORE.SYSTEM.SOLV>
0

>  <SCORE.SYSTEM.norm>
0

>  <SCORE.heavy>
20

>  <SCORE.norm>
-0.528227

>  <RMSD>
3.269

$$$$
1nyi_lig
 OpenBabel11021811403D
libRbt.so/2013.1/901 2013/11/27
 20 22  0  0  0  0  0  0  0  0999 V2000
   27.4650   -6.2003   44.9467 C   0  0  0  0  0  0  0  0  0  0  0  0
   28.6267   -6.5728   44.2052 O   0  0  0  0  0  0  0  0  0  0  0  0
   27.2796   -4.6991   44.9404 C   0  0  1  0  0  0  0  0  0  0  0  0
   27.0354   -4.2602   43.5766 O   0  0  0  0  0  0  0  0  0  0  0  0
   26.0618   -4.2570   45.7443 C   0  0  1  0  0  0  0  0  0  0  0  0
   26.4009   -3.9916   47.1063 O   0  0  0  0  0  0  0  0  0  0  0  0
   25.5999   -3.0197   44.9774 C   0  0  1  0  0  0  0  0  0  0  0  0
   26.3654   -1.8614   45.2740 O   0  0  0  0  0  0  0  0  0  0  0  0
   25.8564   -3.4651   43.5393 C   0  0  2  0  0  0  0  0  0  0  0  0
   22.9305   -7.6899   43.2572 N   0  0  0  0  0  0  0  0  0  0  0  0
   23.9630   -7.3985   44.1153 C   0  0  1  0  0  0  0  0  0  0  0  0
   24.2528   -8.3468   45.0074 N   0  0  0  0  0  0  0  0  0  0  0  0
   24.6599   -6.2659   44.0973 N   0  0  0  0  0  0  0  0  0  0  0  0
   24.2402   -5.4152   43.1158 C   0  0  1  0  0  0  0  0  0  0  0  0
   23.2156   -5.6169   42.2078 C   0  0  1  0  0  0  0  0  0  0  0  0
   22.4783   -6.8328   42.2543 C   0  0  0  0  0  0  0  0  0  0  0  0
   21.5362   -7.1913   41.5363 O   0  0  0  0  0  0  0  0  0  0  0  0
   23.0780   -4.5141   41.3747 N   0  0  0  0  0  0  0  0  0  0  0  0
   24.0028   -3.6861   41.7762 C   0  0  0  0  0  0  0  0  0  0  0  0
   24.7593   -4.1590   42.8260 N   0  0  1  0  0  0  0  0  0  0  0  0
  2  1  1  0  0  0  0
  3  1  1  6  0  0  0
  3  4  1  0  0  0  0
  3  5  1  0  0  0  0
  5  6  1  1  0  0  0
  5  7  1  0  0  0  0
  7  8  1  1  0  0  0
  7  9  1  0  0  0  0
  9  4  1  1  0  0  0
  9 20  1  0  0  0  0
 10 11  1  0  0  0  0
 11 12  1  6  0  0  0
 11 13  1  0  0  0  0
 14 13  1  1  0  0  0
 15 14  1  0  0  0  0
 15 16  1  1  0  0  0
 16 10  1  0  0  0  0
 16 17  2  0  0  0  0
 18 15  1  0  0  0  0
 19 18  1  0  0  0  0
 20 14  1  0  0  0  0
 20 19  1  1  0  0  0
M  END
>  <CHROM.1>
63.99782246,55.71046953,25.03933036,-5.25412143,43.81681465,-0.34296401,0.67654378
2.92762355

>  <Name>
1nyi_lig

>  <RI>
0

>  <Rbt.Current_Directory>
/home/itssahil/PROJECTS/Mol_Feturizer/New_Systems/rnas/1nyi

>  <Rbt.Executable>
rbdock ($Id: //depot/dev/client3/rdock/2013.1/src/exe/rbdock.cxx#4 $)

>  <Rbt.Library>
libRbt.so (2013.1, Build901 2013/11/27)

>  <Rbt.Parameter_File>
/export/apps/rDock/src/rDock_2013.1_src/data/scripts/dock_solv.prm

>  <Rbt.Receptor>
prm/pocket_docking_5.prm

>  <SCORE>
-7.67745

>  <SCORE.INTER>
-6.11067

>  <SCORE.INTER.CONST>
1

>  <SCORE.INTER.POLAR>
-0.737948

>  <SCORE.INTER.ROT>
2

>  <SCORE.INTER.SOLV>
9.5555

>  <SCORE.INTER.VDW>
-9.73246

>  <SCORE.INTER.norm>
-0.305534

>  <SCORE.INTRA>
-1.56677

>  <SCORE.INTRA.DIHEDRAL>
-2.46687

>  <SCORE.INTRA.DIHEDRAL.0>
3.72394

>  <SCORE.INTRA.POLAR>
0

>  <SCORE.INTRA.POLAR.0>
0

>  <SCORE.INTRA.REPUL>
0

>  <SCORE.INTRA.REPUL.0>
0

>  <SCORE.INTRA.SOLV>
1.58768

>  <SCORE.INTRA.SOLV.lig_0>
-49.4697

>  <SCORE.INTRA.VDW>
-1.12718

>  <SCORE.INTRA.VDW.0>
-0.896538

>  <SCORE.INTRA.norm>
-0.0783386

>  <SCORE.RESTR>
0

>  <SCORE.RESTR.CAVITY>
0

>  <SCORE.RESTR.norm>
0

>  <SCORE.SYSTEM>
0

>  <SCORE.SYSTEM.CONST>
0

>  <SCORE.SYSTEM.DIHEDRAL>
0

>  <SCORE.SYSTEM.SOLV>
0

>  <SCORE.SYSTEM.norm>
0

>  <SCORE.heavy>
20

>  <SCORE.norm>
-0.383872

>  <RMSD>
3.277

$$$$
1nyi_lig
 OpenBabel11021811403D
libRbt.so/2013.1/901 2013/11/27
 20 22  0  0  0  0  0  0  0  0999 V2000
   29.0609   -1.7264   43.7215 C   0  0  0  0  0  0  0  0  0  0  0  0
   29.6193   -3.0210   43.9453 O   0  0  0  0  0  0  0  0  0  0  0  0
   27.6059   -1.6879   44.1334 C   0  0  1  0  0  0  0  0  0  0  0  0
   26.8607   -2.6336   43.3194 O   0  0  0  0  0  0  0  0  0  0  0  0
   27.3956   -2.1263   45.5784 C   0  0  1  0  0  0  0  0  0  0  0  0
   27.4544   -1.0171   46.4766 O   0  0  0  0  0  0  0  0  0  0  0  0
   26.0220   -2.7913   45.5179 C   0  0  1  0  0  0  0  0  0  0  0  0
   24.9506   -1.8598   45.5188 O   0  0  0  0  0  0  0  0  0  0  0  0
   26.1064   -3.4940   44.1647 C   0  0  2  0  0  0  0  0  0  0  0  0
   25.0344   -8.4750   43.4369 N   0  0  0  0  0  0  0  0  0  0  0  0
   24.1952   -7.3877   43.4067 C   0  0  1  0  0  0  0  0  0  0  0  0
   22.9142   -7.6584   43.1520 N   0  0  0  0  0  0  0  0  0  0  0  0
   24.5820   -6.1323   43.6142 N   0  0  0  0  0  0  0  0  0  0  0  0
   25.9190   -6.0385   43.8728 C   0  0  1  0  0  0  0  0  0  0  0  0
   26.8412   -7.0688   43.9245 C   0  0  1  0  0  0  0  0  0  0  0  0
   26.4041   -8.4020   43.6889 C   0  0  0  0  0  0  0  0  0  0  0  0
   27.0719   -9.4440   43.6895 O   0  0  0  0  0  0  0  0  0  0  0  0
   28.1098   -6.5746   44.1993 N   0  0  0  0  0  0  0  0  0  0  0  0
   27.9389   -5.2864   44.3142 C   0  0  0  0  0  0  0  0  0  0  0  0
   26.6353   -4.8773   44.1374 N   0  0  1  0  0  0  0  0  0  0  0  0
  2  1  1  0  0  0  0
  3  1  1  6  0  0  0
  3  4  1  0  0  0  0
  3  5  1  0  0  0  0
  5  6  1  1  0  0  0
  5  7  1  0  0  0  0
  7  8  1  6  0  0  0
  7  9  1  0  0  0  0
  9  4  1  6  0  0  0
  9 20  1  0  0  0  0
 10 11  1  0  0  0  0
 11 12  1  1  0  0  0
 11 13  1  0  0  0  0
 14 13  1  6  0  0  0
 15 14  1  0  0  0  0
 15 16  1  6  0  0  0
 16 10  1  0  0  0  0
 16 17  2  0  0  0  0
 18 15  1  0  0  0  0
 19 18  1  0  0  0  0
 20 14  1  0  0  0  0
 20 19  1  6  0  0  0
M  END
>  <CHROM.1>
-61.82613256,-126.85096630,26.56639113,-4.82690023,44.20386217,-1.24484237
-0.06067089,-2.90553470

>  <Name>
1nyi_lig

>  <RI>
0

>  <Rbt.Current_Directory>
/home/itssahil/PROJECTS/Mol_Feturizer/New_Systems/rnas/1nyi

>  <Rbt.Executable>
rbdock ($Id: //depot/dev/client3/rdock/2013.1/src/exe/rbdock.cxx#4 $)

>  <Rbt.Library>
libRbt.so (2013.1, Build901 2013/11/27)

>  <Rbt.Parameter_File>
/export/apps/rDock/src/rDock_2013.1_src/data/scripts/dock_solv.prm

>  <Rbt.Receptor>
prm/pocket_docking_3.prm

>  <SCORE>
-10.1961

>  <SCORE.INTER>
-8.83586

>  <SCORE.INTER.CONST>
1

>  <SCORE.INTER.POLAR>
-0.764261

>  <SCORE.INTER.ROT>
2

>  <SCORE.INTER.SOLV>
14.211

>  <SCORE.INTER.VDW>
-13.0134

>  <SCORE.INTER.norm>
-0.441793

>  <SCORE.INTRA>
-1.36026

>  <SCORE.INTRA.DIHEDRAL>
-2.45615

>  <SCORE.INTRA.DIHEDRAL.0>
3.72394

>  <SCORE.INTRA.POLAR>
0

>  <SCORE.INTRA.POLAR.0>
0

>  <SCORE.INTRA.REPUL>
0

>  <SCORE.INTRA.REPUL.0>
0

>  <SCORE.INTRA.SOLV>
0.146272

>  <SCORE.INTRA.SOLV.lig_0>
-49.4697

>  <SCORE.INTRA.VDW>
-0.205321

>  <SCORE.INTRA.VDW.0>
-0.896538

>  <SCORE.INTRA.norm>
-0.0680129

>  <SCORE.RESTR>
0

>  <SCORE.RESTR.CAVITY>
0

>  <SCORE.RESTR.norm>
0

>  <SCORE.SYSTEM>
0

>  <SCORE.SYSTEM.CONST>
0

>  <SCORE.SYSTEM.DIHEDRAL>
0

>  <SCORE.SYSTEM.SOLV>
0

>  <SCORE.SYSTEM.norm>
0

>  <SCORE.heavy>
20

>  <SCORE.norm>
-0.509806

>  <RMSD>
3.286

$$$$
1nyi_lig
 OpenBabel11021811403D
libRbt.so/2013.1/901 2013/11/27
 20 22  0  0  0  0  0  0  0  0999 V2000
   29.0229   -1.7041   43.7333 C   0  0  0  0  0  0  0  0  0  0  0  0
   29.5983   -2.9973   43.9194 O   0  0  0  0  0  0  0  0  0  0  0  0
   27.5803   -1.6852   44.1882 C   0  0  1  0  0  0  0  0  0  0  0  0
   26.8193   -2.6236   43.3806 O   0  0  0  0  0  0  0  0  0  0  0  0
   27.4162   -2.1493   45.6312 C   0  0  1  0  0  0  0  0  0  0  0  0
   27.4923   -1.0548   46.5458 O   0  0  0  0  0  0  0  0  0  0  0  0
   26.0469   -2.8251   45.5996 C   0  0  1  0  0  0  0  0  0  0  0  0
   24.9684   -1.9031   45.6476 O   0  0  0  0  0  0  0  0  0  0  0  0
   26.0972   -3.5044   44.2329 C   0  0  2  0  0  0  0  0  0  0  0  0
   25.0543   -8.4757   43.4032 N   0  0  0  0  0  0  0  0  0  0  0  0
   24.2065   -7.3948   43.4090 C   0  0  1  0  0  0  0  0  0  0  0  0
   22.9244   -7.6697   43.1643 N   0  0  0  0  0  0  0  0  0  0  0  0
   24.5862   -6.1414   43.6406 N   0  0  0  0  0  0  0  0  0  0  0  0
   25.9256   -6.0429   43.8844 C   0  0  1  0  0  0  0  0  0  0  0  0
   26.8564   -7.0667   43.9004 C   0  0  1  0  0  0  0  0  0  0  0  0
   26.4266   -8.3976   43.6394 C   0  0  0  0  0  0  0  0  0  0  0  0
   27.1023   -9.4340   43.6074 O   0  0  0  0  0  0  0  0  0  0  0  0
   28.1246   -6.5689   44.1705 N   0  0  0  0  0  0  0  0  0  0  0  0
   27.9452   -5.2851   44.3175 C   0  0  0  0  0  0  0  0  0  0  0  0
   26.6363   -4.8824   44.1668 N   0  0  1  0  0  0  0  0  0  0  0  0
  2  1  1  0  0  0  0
  3  1  1  6  0  0  0
  3  4  1  0  0  0  0
  3  5  1  0  0  0  0
  5  6  1  1  0  0  0
  5  7  1  0  0  0  0
  7  8  1  6  0  0  0
  7  9  1  0  0  0  0
  9  4  1  6  0  0  0
  9 20  1  0  0  0  0
 10 11  1  0  0  0  0
 11 12  1  1  0  0  0
 11 13  1  0  0  0  0
 14 13  1  6  0  0  0
 15 14  1  0  0  0  0
 15 16  1  6  0  0  0
 16 10  1  0  0  0  0
 16 17  2  0  0  0  0
 18 15  1  0  0  0  0
 19 18  1  0  0  0  0
 20 14  1  0  0  0  0
 20 19  1  6  0  0  0
M  END
>  <CHROM.1>
-61.85281126,-125.83292484,26.57164075,-4.83210350,44.22284453,-1.24798437
-0.08024836,-2.88568054

>  <Name>
1nyi_lig

>  <RI>
0

>  <Rbt.Current_Directory>
/home/itssahil/PROJECTS/Mol_Feturizer/New_Systems/rnas/1nyi

>  <Rbt.Executable>
rbdock ($Id: //depot/dev/client3/rdock/2013.1/src/exe/rbdock.cxx#4 $)

>  <Rbt.Library>
libRbt.so (2013.1, Build901 2013/11/27)

>  <Rbt.Parameter_File>
/export/apps/rDock/src/rDock_2013.1_src/data/scripts/dock_solv.prm

>  <Rbt.Receptor>
prm/pocket_docking_5.prm

>  <SCORE>
-10.1351

>  <SCORE.INTER>
-8.7549

>  <SCORE.INTER.CONST>
1

>  <SCORE.INTER.POLAR>
-0.756974

>  <SCORE.INTER.ROT>
2

>  <SCORE.INTER.SOLV>
14.1418

>  <SCORE.INTER.VDW>
-12.9606

>  <SCORE.INTER.norm>
-0.437745

>  <SCORE.INTRA>
-1.38024

>  <SCORE.INTRA.DIHEDRAL>
-2.46006

>  <SCORE.INTRA.DIHEDRAL.0>
3.72394

>  <SCORE.INTRA.POLAR>
0

>  <SCORE.INTRA.POLAR.0>
0

>  <SCORE.INTRA.REPUL>
0

>  <SCORE.INTRA.REPUL.0>
0

>  <SCORE.INTRA.SOLV>
0.144096

>  <SCORE.INTRA.SOLV.lig_0>
-49.4697

>  <SCORE.INTRA.VDW>
-0.22226

>  <SCORE.INTRA.VDW.0>
-0.896538

>  <SCORE.INTRA.norm>
-0.0690121

>  <SCORE.RESTR>
0

>  <SCORE.RESTR.CAVITY>
0

>  <SCORE.RESTR.norm>
0

>  <SCORE.SYSTEM>
0

>  <SCORE.SYSTEM.CONST>
0

>  <SCORE.SYSTEM.DIHEDRAL>
0

>  <SCORE.SYSTEM.SOLV>
0

>  <SCORE.SYSTEM.norm>
0

>  <SCORE.heavy>
20

>  <SCORE.norm>
-0.506757

>  <RMSD>
3.289

$$$$
1nyi_lig
 OpenBabel11021811403D
libRbt.so/2013.1/901 2013/11/27
 20 22  0  0  0  0  0  0  0  0999 V2000
   29.2042   -1.8564   43.6236 C   0  0  0  0  0  0  0  0  0  0  0  0
   29.7258   -3.1483   43.9349 O   0  0  0  0  0  0  0  0  0  0  0  0
   27.7380   -1.7655   43.9841 C   0  0  1  0  0  0  0  0  0  0  0  0
   26.9957   -2.7255   43.1843 O   0  0  0  0  0  0  0  0  0  0  0  0
   27.4691   -2.1385   45.4378 C   0  0  1  0  0  0  0  0  0  0  0  0
   27.5269   -0.9949   46.2917 O   0  0  0  0  0  0  0  0  0  0  0  0
   26.0816   -2.7717   45.3578 C   0  0  1  0  0  0  0  0  0  0  0  0
   25.0351   -1.8151   45.2846 O   0  0  0  0  0  0  0  0  0  0  0  0
   26.1922   -3.5316   44.0377 C   0  0  2  0  0  0  0  0  0  0  0  0
   25.0063   -8.5129   43.5193 N   0  0  0  0  0  0  0  0  0  0  0  0
   24.1959   -7.4078   43.4229 C   0  0  1  0  0  0  0  0  0  0  0  0
   22.9133   -7.6583   43.1561 N   0  0  0  0  0  0  0  0  0  0  0  0
   24.6109   -6.1541   43.5798 N   0  0  0  0  0  0  0  0  0  0  0  0
   25.9450   -6.0814   43.8597 C   0  0  1  0  0  0  0  0  0  0  0  0
   26.8394   -7.1308   43.9767 C   0  0  1  0  0  0  0  0  0  0  0  0
   26.3727   -8.4623   43.7942 C   0  0  0  0  0  0  0  0  0  0  0  0
   27.0134   -9.5193   43.8558 O   0  0  0  0  0  0  0  0  0  0  0  0
   28.1150   -6.6559   44.2530 N   0  0  0  0  0  0  0  0  0  0  0  0
   27.9751   -5.3599   44.3051 C   0  0  0  0  0  0  0  0  0  0  0  0
   26.6859   -4.9273   44.0844 N   0  0  1  0  0  0  0  0  0  0  0  0
  2  1  1  0  0  0  0
  3  1  1  6  0  0  0
  3  4  1  0  0  0  0
  3  5  1  0  0  0  0
  5  6  1  1  0  0  0
  5  7  1  0  0  0  0
  7  8  1  6  0  0  0
  7  9  1  0  0  0  0
  9  4  1  6  0  0  0
  9 20  1  0  0  0  0
 10 11  1  0  0  0  0
 11 12  1  1  0  0  0
 11 13  1  0  0  0  0
 14 13  1  6  0  0  0
 15 14  1  0  0  0  0
 15 16  1  6  0  0  0
 16 10  1  0  0  0  0
 16 17  2  0  0  0  0
 18 15  1  0  0  0  0
 19 18  1  0  0  0  0
 20 14  1  0  0  0  0
 20 19  1  6  0  0  0
M  END
>  <CHROM.1>
-62.59744707,-127.73841709,26.61351488,-4.87286963,44.15885161,-1.22528245
-0.03094657,-2.94850833

>  <Name>
1nyi_lig

>  <RI>
0

>  <Rbt.Current_Directory>
/home/itssahil/PROJECTS/Mol_Feturizer/New_Systems/rnas/1nyi

>  <Rbt.Executable>
rbdock ($Id: //depot/dev/client3/rdock/2013.1/src/exe/rbdock.cxx#4 $)

>  <Rbt.Library>
libRbt.so (2013.1, Build901 2013/11/27)

>  <Rbt.Parameter_File>
/export/apps/rDock/src/rDock_2013.1_src/data/scripts/dock_solv.prm

>  <Rbt.Receptor>
prm/pocket_docking_3.prm

>  <SCORE>
-10.18

>  <SCORE.INTER>
-8.83511

>  <SCORE.INTER.CONST>
1

>  <SCORE.INTER.POLAR>
-0.757545

>  <SCORE.INTER.ROT>
2

>  <SCORE.INTER.SOLV>
14.2965

>  <SCORE.INTER.VDW>
-13.0638

>  <SCORE.INTER.norm>
-0.441756

>  <SCORE.INTRA>
-1.34492

>  <SCORE.INTRA.DIHEDRAL>
-2.44106

>  <SCORE.INTRA.DIHEDRAL.0>
3.72394

>  <SCORE.INTRA.POLAR>
0

>  <SCORE.INTRA.POLAR.0>
0

>  <SCORE.INTRA.REPUL>
0

>  <SCORE.INTRA.REPUL.0>
0

>  <SCORE.INTRA.SOLV>
0.145956

>  <SCORE.INTRA.SOLV.lig_0>
-49.4697

>  <SCORE.INTRA.VDW>
-0.197369

>  <SCORE.INTRA.VDW.0>
-0.896538

>  <SCORE.INTRA.norm>
-0.0672459

>  <SCORE.RESTR>
0

>  <SCORE.RESTR.CAVITY>
0

>  <SCORE.RESTR.norm>
0

>  <SCORE.SYSTEM>
0

>  <SCORE.SYSTEM.CONST>
0

>  <SCORE.SYSTEM.DIHEDRAL>
0

>  <SCORE.SYSTEM.SOLV>
0

>  <SCORE.SYSTEM.norm>
0

>  <SCORE.heavy>
20

>  <SCORE.norm>
-0.509002

>  <RMSD>
3.292

$$$$
1nyi_lig
 OpenBabel11021811403D
libRbt.so/2013.1/901 2013/11/27
 20 22  0  0  0  0  0  0  0  0999 V2000
   29.2260   -1.8789   43.6010 C   0  0  0  0  0  0  0  0  0  0  0  0
   29.7428   -3.1697   43.9248 O   0  0  0  0  0  0  0  0  0  0  0  0
   27.7590   -1.7805   43.9566 C   0  0  1  0  0  0  0  0  0  0  0  0
   27.0159   -2.7438   43.1615 O   0  0  0  0  0  0  0  0  0  0  0  0
   27.4847   -2.1422   45.4121 C   0  0  1  0  0  0  0  0  0  0  0  0
   27.5438   -0.9928   46.2580 O   0  0  0  0  0  0  0  0  0  0  0  0
   26.0953   -2.7714   45.3325 C   0  0  1  0  0  0  0  0  0  0  0  0
   25.0522   -1.8119   45.2495 O   0  0  0  0  0  0  0  0  0  0  0  0
   26.2071   -3.5411   44.0182 C   0  0  2  0  0  0  0  0  0  0  0  0
   25.0062   -8.5220   43.5316 N   0  0  0  0  0  0  0  0  0  0  0  0
   24.1998   -7.4149   43.4249 C   0  0  1  0  0  0  0  0  0  0  0  0
   22.9171   -7.6630   43.1560 N   0  0  0  0  0  0  0  0  0  0  0  0
   24.6185   -6.1615   43.5742 N   0  0  0  0  0  0  0  0  0  0  0  0
   25.9519   -6.0913   43.8576 C   0  0  1  0  0  0  0  0  0  0  0  0
   26.8425   -7.1427   43.9847 C   0  0  1  0  0  0  0  0  0  0  0  0
   26.3718   -8.4740   43.8102 C   0  0  0  0  0  0  0  0  0  0  0  0
   27.0089   -9.5327   43.8812 O   0  0  0  0  0  0  0  0  0  0  0  0
   28.1189   -6.6701   44.2615 N   0  0  0  0  0  0  0  0  0  0  0  0
   27.9832   -5.3733   44.3039 C   0  0  0  0  0  0  0  0  0  0  0  0
   26.6960   -4.9381   44.0763 N   0  0  1  0  0  0  0  0  0  0  0  0
  2  1  1  0  0  0  0
  3  1  1  6  0  0  0
  3  4  1  0  0  0  0
  3  5  1  0  0  0  0
  5  6  1  1  0  0  0
  5  7  1  0  0  0  0
  7  8  1  6  0  0  0
  7  9  1  0  0  0  0
  9  4  1  6  0  0  0
  9 20  1  0  0  0  0
 10 11  1  0  0  0  0
 11 12  1  1  0  0  0
 11 13  1  0  0  0  0
 14 13  1  6  0  0  0
 15 14  1  0  0  0  0
 15 16  1  6  0  0  0
 16 10  1  0  0  0  0
 16 17  2  0  0  0  0
 18 15  1  0  0  0  0
 19 18  1  0  0  0  0
 20 14  1  0  0  0  0
 20 19  1  6  0  0  0
M  END
>  <CHROM.1>
-62.67987067,-127.73288559,26.62367849,-4.88279985,44.15017246,-1.22253770
-0.02725190,-2.95556458

>  <Name>
1nyi_lig

>  <RI>
0

>  <Rbt.Current_Directory>
/home/itssahil/PROJECTS/Mol_Feturizer/New_Systems/rnas/1nyi

>  <Rbt.Executable>
rbdock ($Id: //depot/dev/client3/rdock/2013.1/src/exe/rbdock.cxx#4 $)

>  <Rbt.Library>
libRbt.so (2013.1, Build901 2013/11/27)

>  <Rbt.Parameter_File>
/export/apps/rDock/src/rDock_2013.1_src/data/scripts/dock_solv.prm

>  <Rbt.Receptor>
prm/pocket_docking_5.prm

>  <SCORE>
-10.18

>  <SCORE.INTER>
-8.83492

>  <SCORE.INTER.CONST>
1

>  <SCORE.INTER.POLAR>
-0.753234

>  <SCORE.INTER.ROT>
2

>  <SCORE.INTER.SOLV>
14.3315

>  <SCORE.INTER.VDW>
-13.0897

>  <SCORE.INTER.norm>
-0.441746

>  <SCORE.INTRA>
-1.34508

>  <SCORE.INTRA.DIHEDRAL>
-2.4396

>  <SCORE.INTRA.DIHEDRAL.0>
3.72394

>  <SCORE.INTRA.POLAR>
0

>  <SCORE.INTRA.POLAR.0>
0

>  <SCORE.INTRA.REPUL>
0

>  <SCORE.INTRA.REPUL.0>
0

>  <SCORE.INTRA.SOLV>
0.145708

>  <SCORE.INTRA.SOLV.lig_0>
-49.4697

>  <SCORE.INTRA.VDW>
-0.198131

>  <SCORE.INTRA.VDW.0>
-0.896538

>  <SCORE.INTRA.norm>
-0.0672538

>  <SCORE.RESTR>
0

>  <SCORE.RESTR.CAVITY>
0

>  <SCORE.RESTR.norm>
0

>  <SCORE.SYSTEM>
0

>  <SCORE.SYSTEM.CONST>
0

>  <SCORE.SYSTEM.DIHEDRAL>
0

>  <SCORE.SYSTEM.SOLV>
0

>  <SCORE.SYSTEM.norm>
0

>  <SCORE.heavy>
20

>  <SCORE.norm>
-0.509

>  <RMSD>
3.293

$$$$
1nyi_lig
 OpenBabel11021811403D
libRbt.so/2013.1/901 2013/11/27
 20 22  0  0  0  0  0  0  0  0999 V2000
   27.0137   -4.1237   47.3998 C   0  0  0  0  0  0  0  0  0  0  0  0
   26.7561   -2.8312   47.9486 O   0  0  0  0  0  0  0  0  0  0  0  0
   27.9075   -4.0249   46.1834 C   0  0  1  0  0  0  0  0  0  0  0  0
   28.1950   -5.3649   45.6999 O   0  0  0  0  0  0  0  0  0  0  0  0
   27.2371   -3.2985   45.0227 C   0  0  1  0  0  0  0  0  0  0  0  0
   27.4997   -1.8949   45.0608 O   0  0  0  0  0  0  0  0  0  0  0  0
   27.8425   -4.0006   43.8090 C   0  0  1  0  0  0  0  0  0  0  0  0
   29.1500   -3.5449   43.4955 O   0  0  0  0  0  0  0  0  0  0  0  0
   27.8946   -5.4417   44.3116 C   0  0  2  0  0  0  0  0  0  0  0  0
   22.9870   -5.6418   42.7738 N   0  0  0  0  0  0  0  0  0  0  0  0
   23.8132   -4.5537   42.9179 C   0  0  1  0  0  0  0  0  0  0  0  0
   23.2674   -3.3747   42.6163 N   0  0  0  0  0  0  0  0  0  0  0  0
   25.0762   -4.6169   43.3298 N   0  0  0  0  0  0  0  0  0  0  0  0
   25.4672   -5.8951   43.6066 C   0  0  1  0  0  0  0  0  0  0  0  0
   24.7132   -7.0498   43.4934 C   0  0  1  0  0  0  0  0  0  0  0  0
   23.3676   -6.9567   43.0408 C   0  0  0  0  0  0  0  0  0  0  0  0
   22.5453   -7.8665   42.8742 O   0  0  0  0  0  0  0  0  0  0  0  0
   25.4658   -8.1609   43.8514 N   0  0  0  0  0  0  0  0  0  0  0  0
   26.6318   -7.6732   44.1746 C   0  0  0  0  0  0  0  0  0  0  0  0
   26.7158   -6.3028   44.0609 N   0  0  1  0  0  0  0  0  0  0  0  0
  2  1  1  0  0  0  0
  3  1  1  1  0  0  0
  3  4  1  0  0  0  0
  3  5  1  0  0  0  0
  5  6  1  6  0  0  0
  5  7  1  0  0  0  0
  7  8  1  1  0  0  0
  7  9  1  0  0  0  0
  9  4  1  1  0  0  0
  9 20  1  0  0  0  0
 10 11  1  0  0  0  0
 11 12  1  1  0  0  0
 11 13  1  0  0  0  0
 14 13  1  6  0  0  0
 15 14  1  0  0  0  0
 15 16  1  6  0  0  0
 16 10  1  0  0  0  0
 16 17  2  0  0  0  0
 18 15  1  0  0  0  0
 19 18  1  0  0  0  0
 20 14  1  0  0  0  0
 20 19  1  6  0  0  0
M  END
>  <CHROM.1>
177.22637975,111.59938060,26.01550177,-5.09440057,44.32078124,-0.65176239
0.49675789,-2.98970550

>  <Name>
1nyi_lig

>  <RI>
0

>  <Rbt.Current_Directory>
/home/itssahil/PROJECTS/Mol_Feturizer/New_Systems/rnas/1nyi

>  <Rbt.Executable>
rbdock ($Id: //depot/dev/client3/rdock/2013.1/src/exe/rbdock.cxx#4 $)

>  <Rbt.Library>
libRbt.so (2013.1, Build901 2013/11/27)

>  <Rbt.Parameter_File>
/export/apps/rDock/src/rDock_2013.1_src/data/scripts/dock_solv.prm

>  <Rbt.Receptor>
prm/pocket_docking_4.prm

>  <SCORE>
-9.01426

>  <SCORE.INTER>
-7.53551

>  <SCORE.INTER.CONST>
1

>  <SCORE.INTER.POLAR>
-0.748002

>  <SCORE.INTER.ROT>
2

>  <SCORE.INTER.SOLV>
9.81245

>  <SCORE.INTER.VDW>
-10.7345

>  <SCORE.INTER.norm>
-0.376776

>  <SCORE.INTRA>
-1.47875

>  <SCORE.INTRA.DIHEDRAL>
-2.4352

>  <SCORE.INTRA.DIHEDRAL.0>
3.72394

>  <SCORE.INTRA.POLAR>
0

>  <SCORE.INTRA.POLAR.0>
0

>  <SCORE.INTRA.REPUL>
0

>  <SCORE.INTRA.REPUL.0>
0

>  <SCORE.INTRA.SOLV>
0.460549

>  <SCORE.INTRA.SOLV.lig_0>
-49.4697

>  <SCORE.INTRA.VDW>
-0.491423

>  <SCORE.INTRA.VDW.0>
-0.896538

>  <SCORE.INTRA.norm>
-0.0739374

>  <SCORE.RESTR>
0

>  <SCORE.RESTR.CAVITY>
0

>  <SCORE.RESTR.norm>
0

>  <SCORE.SYSTEM>
0

>  <SCORE.SYSTEM.CONST>
0

>  <SCORE.SYSTEM.DIHEDRAL>
0

>  <SCORE.SYSTEM.SOLV>
0

>  <SCORE.SYSTEM.norm>
0

>  <SCORE.heavy>
20

>  <SCORE.norm>
-0.450713

>  <RMSD>
3.354

$$$$
1nyi_lig
 OpenBabel11021811403D
libRbt.so/2013.1/901 2013/11/27
 20 22  0  0  0  0  0  0  0  0999 V2000
   24.6753   -2.5665   44.8889 C   0  0  0  0  0  0  0  0  0  0  0  0
   24.1136   -2.1977   46.1484 O   0  0  0  0  0  0  0  0  0  0  0  0
   25.7786   -3.5857   45.0681 C   0  0  1  0  0  0  0  0  0  0  0  0
   25.2173   -4.7885   45.6602 O   0  0  0  0  0  0  0  0  0  0  0  0
   26.3926   -4.0219   43.7424 C   0  0  1  0  0  0  0  0  0  0  0  0
   27.5055   -3.2010   43.3849 O   0  0  0  0  0  0  0  0  0  0  0  0
   26.7704   -5.4748   44.0236 C   0  0  1  0  0  0  0  0  0  0  0  0
   27.9761   -5.6048   44.7619 O   0  0  0  0  0  0  0  0  0  0  0  0
   25.5824   -5.9172   44.8751 C   0  0  2  0  0  0  0  0  0  0  0  0
   22.1859   -5.3701   41.0472 N   0  0  0  0  0  0  0  0  0  0  0  0
   23.2038   -4.5341   41.4375 C   0  0  1  0  0  0  0  0  0  0  0  0
   23.3342   -3.4158   40.7223 N   0  0  0  0  0  0  0  0  0  0  0  0
   24.0278   -4.7747   42.4533 N   0  0  0  0  0  0  0  0  0  0  0  0
   23.7450   -5.9531   43.0815 C   0  0  1  0  0  0  0  0  0  0  0  0
   22.7472   -6.8581   42.7649 C   0  0  1  0  0  0  0  0  0  0  0  0
   21.8851   -6.5826   41.6672 C   0  0  0  0  0  0  0  0  0  0  0  0
   20.9471   -7.2636   41.2334 O   0  0  0  0  0  0  0  0  0  0  0  0
   22.7860   -7.9477   43.6254 N   0  0  0  0  0  0  0  0  0  0  0  0
   23.7766   -7.6884   44.4336 C   0  0  0  0  0  0  0  0  0  0  0  0
   24.4092   -6.4918   44.1770 N   0  0  1  0  0  0  0  0  0  0  0  0
  2  1  1  0  0  0  0
  3  1  1  6  0  0  0
  3  4  1  0  0  0  0
  3  5  1  0  0  0  0
  5  6  1  1  0  0  0
  5  7  1  0  0  0  0
  7  8  1  1  0  0  0
  7  9  1  0  0  0  0
  9  4  1  6  0  0  0
  9 20  1  0  0  0  0
 10 11  1  0  0  0  0
 11 12  1  1  0  0  0
 11 13  1  0  0  0  0
 14 13  1  6  0  0  0
 15 14  1  0  0  0  0
 15 16  1  6  0  0  0
 16 10  1  0  0  0  0
 16 17  2  0  0  0  0
 18 15  1  0  0  0  0
 19 18  1  0  0  0  0
 20 14  1  0  0  0  0
 20 19  1  6  0  0  0
M  END
>  <CHROM.1>
62.12768549,73.31832455,24.38561669,-5.18136606,43.49758495,0.28107044,-0.71472920
-0.29911537

>  <Name>
1nyi_lig

>  <RI>
0

>  <Rbt.Current_Directory>
/home/itssahil/PROJECTS/Mol_Feturizer/New_Systems/rnas/1nyi

>  <Rbt.Executable>
rbdock ($Id: //depot/dev/client3/rdock/2013.1/src/exe/rbdock.cxx#4 $)

>  <Rbt.Library>
libRbt.so (2013.1, Build901 2013/11/27)

>  <Rbt.Parameter_File>
/export/apps/rDock/src/rDock_2013.1_src/data/scripts/dock_solv.prm

>  <Rbt.Receptor>
prm/pocket_docking_4.prm

>  <SCORE>
-8.48673

>  <SCORE.INTER>
-6.8585

>  <SCORE.INTER.CONST>
1

>  <SCORE.INTER.POLAR>
-0.748109

>  <SCORE.INTER.ROT>
2

>  <SCORE.INTER.SOLV>
9.81031

>  <SCORE.INTER.VDW>
-10.2821

>  <SCORE.INTER.norm>
-0.342925

>  <SCORE.INTRA>
-1.62823

>  <SCORE.INTRA.DIHEDRAL>
-2.43364

>  <SCORE.INTRA.DIHEDRAL.0>
3.72394

>  <SCORE.INTRA.POLAR>
0

>  <SCORE.INTRA.POLAR.0>
0

>  <SCORE.INTRA.REPUL>
0

>  <SCORE.INTRA.REPUL.0>
0

>  <SCORE.INTRA.SOLV>
1.13886

>  <SCORE.INTRA.SOLV.lig_0>
-49.4697

>  <SCORE.INTRA.VDW>
-0.980844

>  <SCORE.INTRA.VDW.0>
-0.896538

>  <SCORE.INTRA.norm>
-0.0814117

>  <SCORE.RESTR>
0

>  <SCORE.RESTR.CAVITY>
0

>  <SCORE.RESTR.norm>
0

>  <SCORE.SYSTEM>
0

>  <SCORE.SYSTEM.CONST>
0

>  <SCORE.SYSTEM.DIHEDRAL>
0

>  <SCORE.SYSTEM.SOLV>
0

>  <SCORE.SYSTEM.norm>
0

>  <SCORE.heavy>
20

>  <SCORE.norm>
-0.424337

>  <RMSD>
3.377

$$$$
1nyi_lig
 OpenBabel11021811403D
libRbt.so/2013.1/901 2013/11/27
 20 22  0  0  0  0  0  0  0  0999 V2000
   24.7710   -2.6139   44.8673 C   0  0  0  0  0  0  0  0  0  0  0  0
   24.2133   -2.1991   46.1143 O   0  0  0  0  0  0  0  0  0  0  0  0
   25.8471   -3.6560   45.0777 C   0  0  1  0  0  0  0  0  0  0  0  0
   25.2500   -4.8341   45.6840 O   0  0  0  0  0  0  0  0  0  0  0  0
   26.4658   -4.1304   43.7675 C   0  0  1  0  0  0  0  0  0  0  0  0
   27.6023   -3.3429   43.4090 O   0  0  0  0  0  0  0  0  0  0  0  0
   26.8050   -5.5866   44.0787 C   0  0  1  0  0  0  0  0  0  0  0  0
   27.9985   -5.7324   44.8337 O   0  0  0  0  0  0  0  0  0  0  0  0
   25.5968   -5.9851   44.9234 C   0  0  2  0  0  0  0  0  0  0  0  0
   22.1767   -5.3556   41.1293 N   0  0  0  0  0  0  0  0  0  0  0  0
   23.1984   -4.5292   41.5299 C   0  0  1  0  0  0  0  0  0  0  0  0
   23.3259   -3.3969   40.8366 N   0  0  0  0  0  0  0  0  0  0  0  0
   24.0285   -4.7915   42.5352 N   0  0  0  0  0  0  0  0  0  0  0  0
   23.7479   -5.9820   43.1413 C   0  0  1  0  0  0  0  0  0  0  0  0
   22.7467   -6.8790   42.8128 C   0  0  1  0  0  0  0  0  0  0  0  0
   21.8780   -6.5800   41.7265 C   0  0  0  0  0  0  0  0  0  0  0  0
   20.9362   -7.2507   41.2850 O   0  0  0  0  0  0  0  0  0  0  0  0
   22.7892   -7.9859   43.6508 N   0  0  0  0  0  0  0  0  0  0  0  0
   23.7855   -7.7445   44.4577 C   0  0  0  0  0  0  0  0  0  0  0  0
   24.4183   -6.5437   44.2213 N   0  0  1  0  0  0  0  0  0  0  0  0
  2  1  1  0  0  0  0
  3  1  1  6  0  0  0
  3  4  1  0  0  0  0
  3  5  1  0  0  0  0
  5  6  1  1  0  0  0
  5  7  1  0  0  0  0
  7  8  1  1  0  0  0
  7  9  1  0  0  0  0
  9  4  1  6  0  0  0
  9 20  1  0  0  0  0
 10 11  1  0  0  0  0
 11 12  1  1  0  0  0
 11 13  1  0  0  0  0
 14 13  1  6  0  0  0
 15 14  1  0  0  0  0
 15 16  1  6  0  0  0
 16 10  1  0  0  0  0
 16 17  2  0  0  0  0
 18 15  1  0  0  0  0
 19 18  1  0  0  0  0
 20 14  1  0  0  0  0
 20 19  1  6  0  0  0
M  END
>  <CHROM.1>
62.73044734,70.57697326,24.41268844,-5.22602326,43.54103228,0.28807849,-0.68680804
-0.26798537

>  <Name>
1nyi_lig

>  <RI>
0

>  <Rbt.Current_Directory>
/home/itssahil/PROJECTS/Mol_Feturizer/New_Systems/rnas/1nyi

>  <Rbt.Executable>
rbdock ($Id: //depot/dev/client3/rdock/2013.1/src/exe/rbdock.cxx#4 $)

>  <Rbt.Library>
libRbt.so (2013.1, Build901 2013/11/27)

>  <Rbt.Parameter_File>
/export/apps/rDock/src/rDock_2013.1_src/data/scripts/dock_solv.prm

>  <Rbt.Receptor>
prm/pocket_docking_4.prm

>  <SCORE>
-8.41863

>  <SCORE.INTER>
-6.77285

>  <SCORE.INTER.CONST>
1

>  <SCORE.INTER.POLAR>
-0.735199

>  <SCORE.INTER.ROT>
2

>  <SCORE.INTER.SOLV>
9.78808

>  <SCORE.INTER.VDW>
-10.2606

>  <SCORE.INTER.norm>
-0.338642

>  <SCORE.INTRA>
-1.64578

>  <SCORE.INTRA.DIHEDRAL>
-2.43314

>  <SCORE.INTRA.DIHEDRAL.0>
3.72394

>  <SCORE.INTRA.POLAR>
0

>  <SCORE.INTRA.POLAR.0>
0

>  <SCORE.INTRA.REPUL>
0

>  <SCORE.INTRA.REPUL.0>
0

>  <SCORE.INTRA.SOLV>
1.21746

>  <SCORE.INTRA.SOLV.lig_0>
-49.4697

>  <SCORE.INTRA.VDW>
-1.03794

>  <SCORE.INTRA.VDW.0>
-0.896538

>  <SCORE.INTRA.norm>
-0.0822891

>  <SCORE.RESTR>
0

>  <SCORE.RESTR.CAVITY>
0

>  <SCORE.RESTR.norm>
0

>  <SCORE.SYSTEM>
0

>  <SCORE.SYSTEM.CONST>
0

>  <SCORE.SYSTEM.DIHEDRAL>
0

>  <SCORE.SYSTEM.SOLV>
0

>  <SCORE.SYSTEM.norm>
0

>  <SCORE.heavy>
20

>  <SCORE.norm>
-0.420932

>  <RMSD>
3.387

$$$$
1nyi_lig
 OpenBabel11021811403D
libRbt.so/2013.1/901 2013/11/27
 20 22  0  0  0  0  0  0  0  0999 V2000
   24.5927   -2.5541   44.8499 C   0  0  0  0  0  0  0  0  0  0  0  0
   24.0227   -2.1842   46.1054 O   0  0  0  0  0  0  0  0  0  0  0  0
   25.7041   -3.5628   45.0385 C   0  0  1  0  0  0  0  0  0  0  0  0
   25.1501   -4.7692   45.6300 O   0  0  0  0  0  0  0  0  0  0  0  0
   26.3303   -3.9966   43.7178 C   0  0  1  0  0  0  0  0  0  0  0  0
   27.4379   -3.1664   43.3652 O   0  0  0  0  0  0  0  0  0  0  0  0
   26.7196   -5.4452   44.0049 C   0  0  1  0  0  0  0  0  0  0  0  0
   27.9217   -5.5626   44.7510 O   0  0  0  0  0  0  0  0  0  0  0  0
   25.5304   -5.8964   44.8500 C   0  0  2  0  0  0  0  0  0  0  0  0
   22.1149   -5.3592   41.0375 N   0  0  0  0  0  0  0  0  0  0  0  0
   23.1174   -4.5096   41.4379 C   0  0  1  0  0  0  0  0  0  0  0  0
   23.2246   -3.3787   40.7388 N   0  0  0  0  0  0  0  0  0  0  0  0
   23.9483   -4.7490   42.4483 N   0  0  0  0  0  0  0  0  0  0  0  0
   23.6897   -5.9416   43.0599 C   0  0  1  0  0  0  0  0  0  0  0  0
   22.7089   -6.8610   42.7321 C   0  0  1  0  0  0  0  0  0  0  0  0
   21.8390   -6.5862   41.6403 C   0  0  0  0  0  0  0  0  0  0  0  0
   20.9134   -7.2788   41.1985 O   0  0  0  0  0  0  0  0  0  0  0  0
   22.7706   -7.9621   43.5765 N   0  0  0  0  0  0  0  0  0  0  0  0
   23.7580   -7.6956   44.3864 C   0  0  0  0  0  0  0  0  0  0  0  0
   24.3668   -6.4833   44.1460 N   0  0  1  0  0  0  0  0  0  0  0  0
  2  1  1  0  0  0  0
  3  1  1  6  0  0  0
  3  4  1  0  0  0  0
  3  5  1  0  0  0  0
  5  6  1  1  0  0  0
  5  7  1  0  0  0  0
  7  8  1  1  0  0  0
  7  9  1  0  0  0  0
  9  4  1  6  0  0  0
  9 20  1  0  0  0  0
 10 11  1  0  0  0  0
 11 12  1  1  0  0  0
 11 13  1  0  0  0  0
 14 13  1  6  0  0  0
 15 14  1  0  0  0  0
 15 16  1  6  0  0  0
 16 10  1  0  0  0  0
 16 17  2  0  0  0  0
 18 15  1  0  0  0  0
 19 18  1  0  0  0  0
 20 14  1  0  0  0  0
 20 19  1  6  0  0  0
M  END
>  <CHROM.1>
62.31397961,72.08311466,24.32549267,-5.16641664,43.47330609,0.30991305,-0.70804402
-0.26253576

>  <Name>
1nyi_lig

>  <RI>
0

>  <Rbt.Current_Directory>
/home/itssahil/PROJECTS/Mol_Feturizer/New_Systems/rnas/1nyi

>  <Rbt.Executable>
rbdock ($Id: //depot/dev/client3/rdock/2013.1/src/exe/rbdock.cxx#4 $)

>  <Rbt.Library>
libRbt.so (2013.1, Build901 2013/11/27)

>  <Rbt.Parameter_File>
/export/apps/rDock/src/rDock_2013.1_src/data/scripts/dock_solv.prm

>  <Rbt.Receptor>
prm/pocket_docking_8.prm

>  <SCORE>
-8.467

>  <SCORE.INTER>
-6.83044

>  <SCORE.INTER.CONST>
1

>  <SCORE.INTER.POLAR>
-0.748331

>  <SCORE.INTER.ROT>
2

>  <SCORE.INTER.SOLV>
9.79823

>  <SCORE.INTER.VDW>
-10.2586

>  <SCORE.INTER.norm>
-0.341522

>  <SCORE.INTRA>
-1.63656

>  <SCORE.INTRA.DIHEDRAL>
-2.43514

>  <SCORE.INTRA.DIHEDRAL.0>
3.72394

>  <SCORE.INTRA.POLAR>
0

>  <SCORE.INTRA.POLAR.0>
0

>  <SCORE.INTRA.REPUL>
0

>  <SCORE.INTRA.REPUL.0>
0

>  <SCORE.INTRA.SOLV>
1.1758

>  <SCORE.INTRA.SOLV.lig_0>
-49.4697

>  <SCORE.INTRA.VDW>
-1.00689

>  <SCORE.INTRA.VDW.0>
-0.896538

>  <SCORE.INTRA.norm>
-0.081828

>  <SCORE.RESTR>
0

>  <SCORE.RESTR.CAVITY>
0

>  <SCORE.RESTR.norm>
0

>  <SCORE.SYSTEM>
0

>  <SCORE.SYSTEM.CONST>
0

>  <SCORE.SYSTEM.DIHEDRAL>
0

>  <SCORE.SYSTEM.SOLV>
0

>  <SCORE.SYSTEM.norm>
0

>  <SCORE.heavy>
20

>  <SCORE.norm>
-0.42335

>  <RMSD>
3.404

$$$$
1nyi_lig
 OpenBabel11021811403D
libRbt.so/2013.1/901 2013/11/27
 20 22  0  0  0  0  0  0  0  0999 V2000
   28.1291   -2.4877   43.1937 C   0  0  0  0  0  0  0  0  0  0  0  0
   28.1025   -1.0771   43.4115 O   0  0  0  0  0  0  0  0  0  0  0  0
   27.2953   -3.2092   44.2292 C   0  0  1  0  0  0  0  0  0  0  0  0
   25.9168   -2.7622   44.1190 O   0  0  0  0  0  0  0  0  0  0  0  0
   27.2629   -4.7172   44.0065 C   0  0  1  0  0  0  0  0  0  0  0  0
   28.3164   -5.3742   44.7128 O   0  0  0  0  0  0  0  0  0  0  0  0
   25.8681   -5.0879   44.5063 C   0  0  1  0  0  0  0  0  0  0  0  0
   25.7872   -5.1746   45.9210 O   0  0  0  0  0  0  0  0  0  0  0  0
   25.0604   -3.8924   44.0059 C   0  0  2  0  0  0  0  0  0  0  0  0
   21.4471   -6.0751   41.0616 N   0  0  0  0  0  0  0  0  0  0  0  0
   21.7418   -6.2905   42.3859 C   0  0  1  0  0  0  0  0  0  0  0  0
   20.9826   -7.1974   43.0026 N   0  0  0  0  0  0  0  0  0  0  0  0
   22.7088   -5.6671   43.0530 N   0  0  0  0  0  0  0  0  0  0  0  0
   23.3932   -4.7845   42.2683 C   0  0  1  0  0  0  0  0  0  0  0  0
   23.1731   -4.4989   40.9323 C   0  0  1  0  0  0  0  0  0  0  0  0
   22.1256   -5.1719   40.2437 C   0  0  0  0  0  0  0  0  0  0  0  0
   21.7772   -5.0510   39.0623 O   0  0  0  0  0  0  0  0  0  0  0  0
   24.0650   -3.5320   40.4868 N   0  0  0  0  0  0  0  0  0  0  0  0
   24.7975   -3.2595   41.5314 C   0  0  0  0  0  0  0  0  0  0  0  0
   24.4602   -3.9822   42.6548 N   0  0  1  0  0  0  0  0  0  0  0  0
  2  1  1  0  0  0  0
  3  1  1  6  0  0  0
  3  4  1  0  0  0  0
  3  5  1  0  0  0  0
  5  6  1  1  0  0  0
  5  7  1  0  0  0  0
  7  8  1  1  0  0  0
  7  9  1  0  0  0  0
  9  4  1  6  0  0  0
  9 20  1  0  0  0  0
 10 11  1  0  0  0  0
 11 12  1  6  0  0  0
 11 13  1  0  0  0  0
 14 13  1  1  0  0  0
 15 14  1  0  0  0  0
 15 16  1  1  0  0  0
 16 10  1  0  0  0  0
 16 17  2  0  0  0  0
 18 15  1  0  0  0  0
 19 18  1  0  0  0  0
 20 14  1  0  0  0  0
 20 19  1  1  0  0  0
M  END
>  <CHROM.1>
61.20699288,-166.42653267,24.68159380,-4.43463058,42.77100301,-0.16377698
-0.58443253,-0.92291880

>  <Name>
1nyi_lig

>  <RI>
0

>  <Rbt.Current_Directory>
/home/itssahil/PROJECTS/Mol_Feturizer/New_Systems/rnas/1nyi

>  <Rbt.Executable>
rbdock ($Id: //depot/dev/client3/rdock/2013.1/src/exe/rbdock.cxx#4 $)

>  <Rbt.Library>
libRbt.so (2013.1, Build901 2013/11/27)

>  <Rbt.Parameter_File>
/export/apps/rDock/src/rDock_2013.1_src/data/scripts/dock_solv.prm

>  <Rbt.Receptor>
prm/pocket_docking_6.prm

>  <SCORE>
-7.90664

>  <SCORE.INTER>
-6.03362

>  <SCORE.INTER.CONST>
1

>  <SCORE.INTER.POLAR>
-0.748331

>  <SCORE.INTER.ROT>
2

>  <SCORE.INTER.SOLV>
9.77201

>  <SCORE.INTER.VDW>
-9.71865

>  <SCORE.INTER.norm>
-0.301681

>  <SCORE.INTRA>
-1.87302

>  <SCORE.INTRA.DIHEDRAL>
-2.4446

>  <SCORE.INTRA.DIHEDRAL.0>
3.72394

>  <SCORE.INTRA.POLAR>
0

>  <SCORE.INTRA.POLAR.0>
0

>  <SCORE.INTRA.REPUL>
0

>  <SCORE.INTRA.REPUL.0>
0

>  <SCORE.INTRA.SOLV>
-0.672255

>  <SCORE.INTRA.SOLV.lig_0>
-49.4697

>  <SCORE.INTRA.VDW>
-0.314593

>  <SCORE.INTRA.VDW.0>
-0.896538

>  <SCORE.INTRA.norm>
-0.0936511

>  <SCORE.RESTR>
0

>  <SCORE.RESTR.CAVITY>
0

>  <SCORE.RESTR.norm>
0

>  <SCORE.SYSTEM>
0

>  <SCORE.SYSTEM.CONST>
0

>  <SCORE.SYSTEM.DIHEDRAL>
0

>  <SCORE.SYSTEM.SOLV>
0

>  <SCORE.SYSTEM.norm>
0

>  <SCORE.heavy>
20

>  <SCORE.norm>
-0.395332

>  <RMSD>
3.434

$$$$
1nyi_lig
 OpenBabel11021811403D
libRbt.so/2013.1/901 2013/11/27
 20 22  0  0  0  0  0  0  0  0999 V2000
   29.8764   -4.4965   44.5923 C   0  0  0  0  0  0  0  0  0  0  0  0
   30.8128   -4.2955   45.6510 O   0  0  0  0  0  0  0  0  0  0  0  0
   29.0100   -3.2717   44.3988 C   0  0  1  0  0  0  0  0  0  0  0  0
   28.1257   -3.4942   43.2671 O   0  0  0  0  0  0  0  0  0  0  0  0
   28.0995   -3.0052   45.5924 C   0  0  1  0  0  0  0  0  0  0  0  0
   28.7243   -2.1454   46.5466 O   0  0  0  0  0  0  0  0  0  0  0  0
   26.8689   -2.3900   44.9292 C   0  0  1  0  0  0  0  0  0  0  0  0
   27.0388   -1.0193   44.6005 O   0  0  0  0  0  0  0  0  0  0  0  0
   26.7833   -3.2290   43.6561 C   0  0  2  0  0  0  0  0  0  0  0  0
   22.5430   -5.6477   42.0256 N   0  0  0  0  0  0  0  0  0  0  0  0
   22.9717   -4.3681   41.7687 C   0  0  1  0  0  0  0  0  0  0  0  0
   22.1750   -3.6430   40.9821 N   0  0  0  0  0  0  0  0  0  0  0  0
   24.0932   -3.8392   42.2494 N   0  0  0  0  0  0  0  0  0  0  0  0
   24.7786   -4.7125   43.0438 C   0  0  1  0  0  0  0  0  0  0  0  0
   24.4309   -6.0139   43.3604 C   0  0  1  0  0  0  0  0  0  0  0  0
   23.2311   -6.5600   42.8252 C   0  0  0  0  0  0  0  0  0  0  0  0
   22.7585   -7.6919   42.9896 O   0  0  0  0  0  0  0  0  0  0  0  0
   25.3904   -6.5885   44.1839 N   0  0  0  0  0  0  0  0  0  0  0  0
   26.2777   -5.6476   44.3547 C   0  0  0  0  0  0  0  0  0  0  0  0
   25.9788   -4.4719   43.7018 N   0  0  1  0  0  0  0  0  0  0  0  0
  2  1  1  0  0  0  0
  3  1  1  1  0  0  0
  3  4  1  0  0  0  0
  3  5  1  0  0  0  0
  5  6  1  1  0  0  0
  5  7  1  0  0  0  0
  7  8  1  6  0  0  0
  7  9  1  0  0  0  0
  9  4  1  1  0  0  0
  9 20  1  0  0  0  0
 10 11  1  0  0  0  0
 11 12  1  1  0  0  0
 11 13  1  0  0  0  0
 14 13  1  6  0  0  0
 15 14  1  0  0  0  0
 15 16  1  6  0  0  0
 16 10  1  0  0  0  0
 16 17  2  0  0  0  0
 18 15  1  0  0  0  0
 19 18  1  0  0  0  0
 20 14  1  0  0  0  0
 20 19  1  6  0  0  0
M  END
>  <CHROM.1>
176.89610227,-125.67885694,26.06794029,-4.30122223,43.77142714,-0.31927561
0.47943775,3.04773488

>  <Name>
1nyi_lig

>  <RI>
0

>  <Rbt.Current_Directory>
/home/itssahil/PROJECTS/Mol_Feturizer/New_Systems/rnas/1nyi

>  <Rbt.Executable>
rbdock ($Id: //depot/dev/client3/rdock/2013.1/src/exe/rbdock.cxx#4 $)

>  <Rbt.Library>
libRbt.so (2013.1, Build901 2013/11/27)

>  <Rbt.Parameter_File>
/export/apps/rDock/src/rDock_2013.1_src/data/scripts/dock_solv.prm

>  <Rbt.Receptor>
prm/pocket_docking_4.prm

>  <SCORE>
-9.13237

>  <SCORE.INTER>
-7.13362

>  <SCORE.INTER.CONST>
1

>  <SCORE.INTER.POLAR>
-0.748331

>  <SCORE.INTER.ROT>
2

>  <SCORE.INTER.SOLV>
7.3507

>  <SCORE.INTER.VDW>
-9.64487

>  <SCORE.INTER.norm>
-0.356681

>  <SCORE.INTRA>
-1.99876

>  <SCORE.INTRA.DIHEDRAL>
-2.43971

>  <SCORE.INTRA.DIHEDRAL.0>
3.72394

>  <SCORE.INTRA.POLAR>
0

>  <SCORE.INTRA.POLAR.0>
0

>  <SCORE.INTRA.REPUL>
0

>  <SCORE.INTRA.REPUL.0>
0

>  <SCORE.INTRA.SOLV>
-0.666132

>  <SCORE.INTRA.SOLV.lig_0>
-49.4697

>  <SCORE.INTRA.VDW>
-0.445836

>  <SCORE.INTRA.VDW.0>
-0.896538

>  <SCORE.INTRA.norm>
-0.0999379

>  <SCORE.RESTR>
0

>  <SCORE.RESTR.CAVITY>
0

>  <SCORE.RESTR.norm>
0

>  <SCORE.SYSTEM>
0

>  <SCORE.SYSTEM.CONST>
0

>  <SCORE.SYSTEM.DIHEDRAL>
0

>  <SCORE.SYSTEM.SOLV>
0

>  <SCORE.SYSTEM.norm>
0

>  <SCORE.heavy>
20

>  <SCORE.norm>
-0.456619

>  <RMSD>
3.630

$$$$
1nyi_lig
 OpenBabel11021811403D
libRbt.so/2013.1/901 2013/11/27
 20 22  0  0  0  0  0  0  0  0999 V2000
   29.0000   -5.5961   46.9971 C   0  0  0  0  0  0  0  0  0  0  0  0
   27.9028   -6.5091   46.9733 O   0  0  0  0  0  0  0  0  0  0  0  0
   28.7844   -4.4679   46.0128 C   0  0  1  0  0  0  0  0  0  0  0  0
   28.6530   -5.0264   44.6775 O   0  0  0  0  0  0  0  0  0  0  0  0
   27.4911   -3.7037   46.2735 C   0  0  1  0  0  0  0  0  0  0  0  0
   27.7024   -2.6019   47.1576 O   0  0  0  0  0  0  0  0  0  0  0  0
   27.0732   -3.2855   44.8652 C   0  0  1  0  0  0  0  0  0  0  0  0
   27.7849   -2.1550   44.3846 O   0  0  0  0  0  0  0  0  0  0  0  0
   27.4655   -4.5298   44.0716 C   0  0  2  0  0  0  0  0  0  0  0  0
   22.6230   -5.6785   42.7603 N   0  0  0  0  0  0  0  0  0  0  0  0
   23.2469   -4.4557   42.8121 C   0  0  1  0  0  0  0  0  0  0  0  0
   22.4903   -3.4106   42.4740 N   0  0  0  0  0  0  0  0  0  0  0  0
   24.5141   -4.2718   43.1716 N   0  0  0  0  0  0  0  0  0  0  0  0
   25.1352   -5.4430   43.4968 C   0  0  1  0  0  0  0  0  0  0  0  0
   24.5951   -6.7168   43.4761 C   0  0  1  0  0  0  0  0  0  0  0  0
   23.2400   -6.8882   43.0780 C   0  0  0  0  0  0  0  0  0  0  0  0
   22.5875   -7.9365   42.9944 O   0  0  0  0  0  0  0  0  0  0  0  0
   25.5449   -7.6556   43.8580 N   0  0  0  0  0  0  0  0  0  0  0  0
   26.6157   -6.9526   44.1048 C   0  0  0  0  0  0  0  0  0  0  0  0
   26.4508   -5.5978   43.9170 N   0  0  1  0  0  0  0  0  0  0  0  0
  2  1  1  0  0  0  0
  3  1  1  1  0  0  0
  3  4  1  0  0  0  0
  3  5  1  0  0  0  0
  5  6  1  1  0  0  0
  5  7  1  0  0  0  0
  7  8  1  6  0  0  0
  7  9  1  0  0  0  0
  9  4  1  1  0  0  0
  9 20  1  0  0  0  0
 10 11  1  0  0  0  0
 11 12  1  1  0  0  0
 11 13  1  0  0  0  0
 14 13  1  6  0  0  0
 15 14  1  0  0  0  0
 15 16  1  6  0  0  0
 16 10  1  0  0  0  0
 16 17  2  0  0  0  0
 18 15  1  0  0  0  0
 19 18  1  0  0  0  0
 20 14  1  0  0  0  0
 20 19  1  6  0  0  0
M  END
>  <CHROM.1>
-59.68015550,172.77740853,25.99161728,-5.13330048,44.41639005,-0.26685367
0.57681377,3.08187192

>  <Name>
1nyi_lig

>  <RI>
0

>  <Rbt.Current_Directory>
/home/itssahil/PROJECTS/Mol_Feturizer/New_Systems/rnas/1nyi

>  <Rbt.Executable>
rbdock ($Id: //depot/dev/client3/rdock/2013.1/src/exe/rbdock.cxx#4 $)

>  <Rbt.Library>
libRbt.so (2013.1, Build901 2013/11/27)

>  <Rbt.Parameter_File>
/export/apps/rDock/src/rDock_2013.1_src/data/scripts/dock_solv.prm

>  <Rbt.Receptor>
prm/pocket_docking_4.prm

>  <SCORE>
-7.32395

>  <SCORE.INTER>
-5.81135

>  <SCORE.INTER.CONST>
1

>  <SCORE.INTER.POLAR>
-0.748331

>  <SCORE.INTER.ROT>
2

>  <SCORE.INTER.SOLV>
7.19084

>  <SCORE.INTER.VDW>
-8.71007

>  <SCORE.INTER.norm>
-0.290567

>  <SCORE.INTRA>
-1.5126

>  <SCORE.INTRA.DIHEDRAL>
-2.53955

>  <SCORE.INTRA.DIHEDRAL.0>
3.72394

>  <SCORE.INTRA.POLAR>
0

>  <SCORE.INTRA.POLAR.0>
0

>  <SCORE.INTRA.REPUL>
0

>  <SCORE.INTRA.REPUL.0>
0

>  <SCORE.INTRA.SOLV>
0.429352

>  <SCORE.INTRA.SOLV.lig_0>
-49.4697

>  <SCORE.INTRA.VDW>
-0.457501

>  <SCORE.INTRA.VDW.0>
-0.896538

>  <SCORE.INTRA.norm>
-0.07563

>  <SCORE.RESTR>
0

>  <SCORE.RESTR.CAVITY>
0

>  <SCORE.RESTR.norm>
0

>  <SCORE.SYSTEM>
0

>  <SCORE.SYSTEM.CONST>
0

>  <SCORE.SYSTEM.DIHEDRAL>
0

>  <SCORE.SYSTEM.SOLV>
0

>  <SCORE.SYSTEM.norm>
0

>  <SCORE.heavy>
20

>  <SCORE.norm>
-0.366197

>  <RMSD>
3.881

$$$$
1nyi_lig
 OpenBabel11021811403D
libRbt.so/2013.1/901 2013/11/27
 20 22  0  0  0  0  0  0  0  0999 V2000
   24.6241   -4.4852   47.0369 C   0  0  0  0  0  0  0  0  0  0  0  0
   24.3919   -3.2681   47.7458 O   0  0  0  0  0  0  0  0  0  0  0  0
   25.5903   -4.2676   45.8936 C   0  0  1  0  0  0  0  0  0  0  0  0
   25.8230   -5.5370   45.2252 O   0  0  0  0  0  0  0  0  0  0  0  0
   25.0328   -3.3316   44.8270 C   0  0  1  0  0  0  0  0  0  0  0  0
   25.3777   -1.9709   45.0914 O   0  0  0  0  0  0  0  0  0  0  0  0
   25.6627   -3.8845   43.5503 C   0  0  1  0  0  0  0  0  0  0  0  0
   27.0113   -3.4782   43.3722 O   0  0  0  0  0  0  0  0  0  0  0  0
   25.5982   -5.3847   43.8287 C   0  0  2  0  0  0  0  0  0  0  0  0
   21.4886   -5.4012   40.7304 N   0  0  0  0  0  0  0  0  0  0  0  0
   22.4611   -4.4434   40.8858 C   0  0  1  0  0  0  0  0  0  0  0  0
   22.3237   -3.3571   40.1241 N   0  0  0  0  0  0  0  0  0  0  0  0
   23.4871   -4.5419   41.7262 N   0  0  0  0  0  0  0  0  0  0  0  0
   23.4660   -5.7085   42.4347 C   0  0  1  0  0  0  0  0  0  0  0  0
   22.5352   -6.7288   42.3497 C   0  0  1  0  0  0  0  0  0  0  0  0
   21.4523   -6.6040   41.4354 C   0  0  0  0  0  0  0  0  0  0  0  0
   20.5318   -7.4018   41.2167 O   0  0  0  0  0  0  0  0  0  0  0  0
   22.8621   -7.7611   43.2194 N   0  0  0  0  0  0  0  0  0  0  0  0
   23.9540   -7.3567   43.8079 C   0  0  0  0  0  0  0  0  0  0  0  0
   24.3854   -6.1155   43.3941 N   0  0  1  0  0  0  0  0  0  0  0  0
  2  1  1  0  0  0  0
  3  1  1  1  0  0  0
  3  4  1  0  0  0  0
  3  5  1  0  0  0  0
  5  6  1  1  0  0  0
  5  7  1  0  0  0  0
  7  8  1  1  0  0  0
  7  9  1  0  0  0  0
  9  4  1  1  0  0  0
  9 20  1  0  0  0  0
 10 11  1  0  0  0  0
 11 12  1  1  0  0  0
 11 13  1  0  0  0  0
 14 13  1  6  0  0  0
 15 14  1  0  0  0  0
 15 16  1  6  0  0  0
 16 10  1  0  0  0  0
 16 17  2  0  0  0  0
 18 15  1  0  0  0  0
 19 18  1  0  0  0  0
 20 14  1  0  0  0  0
 20 19  1  6  0  0  0
M  END
>  <CHROM.1>
178.50676854,142.97037057,23.93545180,-5.02062052,43.44918330,0.23948989
0.92958856,2.35052880

>  <Name>
1nyi_lig

>  <RI>
0

>  <Rbt.Current_Directory>
/home/itssahil/PROJECTS/Mol_Feturizer/New_Systems/rnas/1nyi

>  <Rbt.Executable>
rbdock ($Id: //depot/dev/client3/rdock/2013.1/src/exe/rbdock.cxx#4 $)

>  <Rbt.Library>
libRbt.so (2013.1, Build901 2013/11/27)

>  <Rbt.Parameter_File>
/export/apps/rDock/src/rDock_2013.1_src/data/scripts/dock_solv.prm

>  <Rbt.Receptor>
prm/pocket_docking_5.prm

>  <SCORE>
-8.21346

>  <SCORE.INTER>
-6.71468

>  <SCORE.INTER.CONST>
1

>  <SCORE.INTER.POLAR>
-0.748331

>  <SCORE.INTER.ROT>
2

>  <SCORE.INTER.SOLV>
8.38717

>  <SCORE.INTER.VDW>
-9.71107

>  <SCORE.INTER.norm>
-0.335734

>  <SCORE.INTRA>
-1.49878

>  <SCORE.INTRA.DIHEDRAL>
-2.57421

>  <SCORE.INTRA.DIHEDRAL.0>
3.72394

>  <SCORE.INTRA.POLAR>
0

>  <SCORE.INTRA.POLAR.0>
0

>  <SCORE.INTRA.REPUL>
0

>  <SCORE.INTRA.REPUL.0>
0

>  <SCORE.INTRA.SOLV>
0.0204831

>  <SCORE.INTRA.SOLV.lig_0>
-49.4697

>  <SCORE.INTRA.VDW>
-0.221917

>  <SCORE.INTRA.VDW.0>
-0.896538

>  <SCORE.INTRA.norm>
-0.0749391

>  <SCORE.RESTR>
0

>  <SCORE.RESTR.CAVITY>
0

>  <SCORE.RESTR.norm>
0

>  <SCORE.SYSTEM>
0

>  <SCORE.SYSTEM.CONST>
0

>  <SCORE.SYSTEM.DIHEDRAL>
0

>  <SCORE.SYSTEM.SOLV>
0

>  <SCORE.SYSTEM.norm>
0

>  <SCORE.heavy>
20

>  <SCORE.norm>
-0.410673

>  <RMSD>
4.008

$$$$
1nyi_lig
 OpenBabel11021811403D
libRbt.so/2013.1/901 2013/11/27
 20 22  0  0  0  0  0  0  0  0999 V2000
   26.2154   -6.7512   44.3151 C   0  0  0  0  0  0  0  0  0  0  0  0
   27.4913   -7.1470   43.8116 O   0  0  0  0  0  0  0  0  0  0  0  0
   26.2118   -5.2836   44.6816 C   0  0  1  0  0  0  0  0  0  0  0  0
   26.4514   -4.4980   43.4826 O   0  0  0  0  0  0  0  0  0  0  0  0
   24.8637   -4.8190   45.2212 C   0  0  1  0  0  0  0  0  0  0  0  0
   24.7938   -4.9511   46.6417 O   0  0  0  0  0  0  0  0  0  0  0  0
   24.8037   -3.3712   44.7385 C   0  0  1  0  0  0  0  0  0  0  0  0
   25.5661   -2.4832   45.5421 O   0  0  0  0  0  0  0  0  0  0  0  0
   25.4392   -3.5064   43.3564 C   0  0  2  0  0  0  0  0  0  0  0  0
   21.6724   -6.4817   41.4997 N   0  0  0  0  0  0  0  0  0  0  0  0
   22.3271   -6.5526   42.7053 C   0  0  1  0  0  0  0  0  0  0  0  0
   21.9317   -7.5350   43.5162 N   0  0  0  0  0  0  0  0  0  0  0  0
   23.2974   -5.7259   43.0847 N   0  0  0  0  0  0  0  0  0  0  0  0
   23.5839   -4.7917   42.1316 C   0  0  1  0  0  0  0  0  0  0  0  0
   22.9839   -4.6397   40.8940 C   0  0  1  0  0  0  0  0  0  0  0  0
   21.9411   -5.5306   40.5157 C   0  0  0  0  0  0  0  0  0  0  0  0
   21.2891   -5.5524   39.4640 O   0  0  0  0  0  0  0  0  0  0  0  0
   23.5374   -3.5635   40.2124 N   0  0  0  0  0  0  0  0  0  0  0  0
   24.4459   -3.0972   41.0243 C   0  0  0  0  0  0  0  0  0  0  0  0
   24.5446   -3.7907   42.2106 N   0  0  1  0  0  0  0  0  0  0  0  0
  2  1  1  0  0  0  0
  3  1  1  6  0  0  0
  3  4  1  0  0  0  0
  3  5  1  0  0  0  0
  5  6  1  1  0  0  0
  5  7  1  0  0  0  0
  7  8  1  1  0  0  0
  7  9  1  0  0  0  0
  9  4  1  1  0  0  0
  9 20  1  0  0  0  0
 10 11  1  0  0  0  0
 11 12  1  6  0  0  0
 11 13  1  0  0  0  0
 14 13  1  1  0  0  0
 15 14  1  0  0  0  0
 15 16  1  1  0  0  0
 16 10  1  0  0  0  0
 16 17  2  0  0  0  0
 18 15  1  0  0  0  0
 19 18  1  0  0  0  0
 20 14  1  0  0  0  0
 20 19  1  1  0  0  0
M  END
>  <CHROM.1>
62.79729956,72.52002376,24.21555022,-5.00433971,42.98857162,0.33468148,0.79858182
2.53604249

>  <Name>
1nyi_lig

>  <RI>
0

>  <Rbt.Current_Directory>
/home/itssahil/PROJECTS/Mol_Feturizer/New_Systems/rnas/1nyi

>  <Rbt.Executable>
rbdock ($Id: //depot/dev/client3/rdock/2013.1/src/exe/rbdock.cxx#4 $)

>  <Rbt.Library>
libRbt.so (2013.1, Build901 2013/11/27)

>  <Rbt.Parameter_File>
/export/apps/rDock/src/rDock_2013.1_src/data/scripts/dock_solv.prm

>  <Rbt.Receptor>
prm/pocket_docking_5.prm

>  <SCORE>
-7.98678

>  <SCORE.INTER>
-6.35645

>  <SCORE.INTER.CONST>
1

>  <SCORE.INTER.POLAR>
-0.748331

>  <SCORE.INTER.ROT>
2

>  <SCORE.INTER.SOLV>
10.3604

>  <SCORE.INTER.VDW>
-10.13

>  <SCORE.INTER.norm>
-0.317823

>  <SCORE.INTRA>
-1.63033

>  <SCORE.INTRA.DIHEDRAL>
-2.42417

>  <SCORE.INTRA.DIHEDRAL.0>
3.72394

>  <SCORE.INTRA.POLAR>
0

>  <SCORE.INTRA.POLAR.0>
0

>  <SCORE.INTRA.REPUL>
0

>  <SCORE.INTRA.REPUL.0>
0

>  <SCORE.INTRA.SOLV>
1.16093

>  <SCORE.INTRA.SOLV.lig_0>
-49.4697

>  <SCORE.INTRA.VDW>
-0.998712

>  <SCORE.INTRA.VDW.0>
-0.896538

>  <SCORE.INTRA.norm>
-0.0815167

>  <SCORE.RESTR>
0

>  <SCORE.RESTR.CAVITY>
0

>  <SCORE.RESTR.norm>
0

>  <SCORE.SYSTEM>
0

>  <SCORE.SYSTEM.CONST>
0

>  <SCORE.SYSTEM.DIHEDRAL>
0

>  <SCORE.SYSTEM.SOLV>
0

>  <SCORE.SYSTEM.norm>
0

>  <SCORE.heavy>
20

>  <SCORE.norm>
-0.399339

>  <RMSD>
4.137

$$$$
1nyi_lig
 OpenBabel11021811403D
libRbt.so/2013.1/901 2013/11/27
 20 22  0  0  0  0  0  0  0  0999 V2000
   21.6722   -2.9693   44.4052 C   0  0  0  0  0  0  0  0  0  0  0  0
   21.4077   -4.3081   44.8244 O   0  0  0  0  0  0  0  0  0  0  0  0
   22.5433   -2.9535   43.1686 C   0  0  1  0  0  0  0  0  0  0  0  0
   23.7881   -3.6444   43.4604 O   0  0  0  0  0  0  0  0  0  0  0  0
   21.9141   -3.7048   42.0006 C   0  0  1  0  0  0  0  0  0  0  0  0
   21.1198   -2.8396   41.1877 O   0  0  0  0  0  0  0  0  0  0  0  0
   23.1382   -4.2664   41.2804 C   0  0  1  0  0  0  0  0  0  0  0  0
   23.7948   -3.3071   40.4653 O   0  0  0  0  0  0  0  0  0  0  0  0
   24.0213   -4.6382   42.4695 C   0  0  2  0  0  0  0  0  0  0  0  0
   26.4093   -8.5979   44.7294 N   0  0  0  0  0  0  0  0  0  0  0  0
   26.9254   -7.4040   44.2874 C   0  0  1  0  0  0  0  0  0  0  0  0
   28.2371   -7.2437   44.4686 N   0  0  0  0  0  0  0  0  0  0  0  0
   26.2107   -6.4430   43.7090 N   0  0  0  0  0  0  0  0  0  0  0  0
   24.8926   -6.7775   43.5913 C   0  0  1  0  0  0  0  0  0  0  0  0
   24.2807   -7.9483   44.0034 C   0  0  1  0  0  0  0  0  0  0  0  0
   25.0653   -8.9569   44.6289 C   0  0  0  0  0  0  0  0  0  0  0  0
   24.7027  -10.0577   45.0629 O   0  0  0  0  0  0  0  0  0  0  0  0
   22.9204   -7.9116   43.7255 N   0  0  0  0  0  0  0  0  0  0  0  0
   22.7359   -6.7519   43.1573 C   0  0  0  0  0  0  0  0  0  0  0  0
   23.8848   -6.0023   43.0303 N   0  0  1  0  0  0  0  0  0  0  0  0
  2  1  1  0  0  0  0
  3  1  1  1  0  0  0
  3  4  1  0  0  0  0
  3  5  1  0  0  0  0
  5  6  1  6  0  0  0
  5  7  1  0  0  0  0
  7  8  1  6  0  0  0
  7  9  1  0  0  0  0
  9  4  1  1  0  0  0
  9 20  1  0  0  0  0
 10 11  1  0  0  0  0
 11 12  1  6  0  0  0
 11 13  1  0  0  0  0
 14 13  1  1  0  0  0
 15 14  1  0  0  0  0
 15 16  1  1  0  0  0
 16 10  1  0  0  0  0
 16 17  2  0  0  0  0
 18 15  1  0  0  0  0
 19 18  1  0  0  0  0
 20 14  1  0  0  0  0
 20 19  1  1  0  0  0
M  END
>  <CHROM.1>
-58.51368668,-90.66824829,23.93970434,-5.78951659,43.37058193,2.17496908
0.18934975,-0.53396231

>  <Name>
1nyi_lig

>  <RI>
0

>  <Rbt.Current_Directory>
/home/itssahil/PROJECTS/Mol_Feturizer/New_Systems/rnas/1nyi

>  <Rbt.Executable>
rbdock ($Id: //depot/dev/client3/rdock/2013.1/src/exe/rbdock.cxx#4 $)

>  <Rbt.Library>
libRbt.so (2013.1, Build901 2013/11/27)

>  <Rbt.Parameter_File>
/export/apps/rDock/src/rDock_2013.1_src/data/scripts/dock_solv.prm

>  <Rbt.Receptor>
prm/pocket_docking_5.prm

>  <SCORE>
-9.40552

>  <SCORE.INTER>
-7.60608

>  <SCORE.INTER.CONST>
1

>  <SCORE.INTER.POLAR>
-0.720634

>  <SCORE.INTER.ROT>
2

>  <SCORE.INTER.SOLV>
10.721

>  <SCORE.INTER.VDW>
-11.1756

>  <SCORE.INTER.norm>
-0.380304

>  <SCORE.INTRA>
-1.79944

>  <SCORE.INTRA.DIHEDRAL>
-2.57918

>  <SCORE.INTRA.DIHEDRAL.0>
3.72394

>  <SCORE.INTRA.POLAR>
0

>  <SCORE.INTRA.POLAR.0>
0

>  <SCORE.INTRA.REPUL>
0

>  <SCORE.INTRA.REPUL.0>
0

>  <SCORE.INTRA.SOLV>
0.0860862

>  <SCORE.INTRA.SOLV.lig_0>
-49.4697

>  <SCORE.INTRA.VDW>
-0.552892

>  <SCORE.INTRA.VDW.0>
-0.896538

>  <SCORE.INTRA.norm>
-0.089972

>  <SCORE.RESTR>
0

>  <SCORE.RESTR.CAVITY>
0

>  <SCORE.RESTR.norm>
0

>  <SCORE.SYSTEM>
0

>  <SCORE.SYSTEM.CONST>
0

>  <SCORE.SYSTEM.DIHEDRAL>
0

>  <SCORE.SYSTEM.SOLV>
0

>  <SCORE.SYSTEM.norm>
0

>  <SCORE.heavy>
20

>  <SCORE.norm>
-0.470276

>  <RMSD>
4.309

$$$$
1nyi_lig
 OpenBabel11021811403D
libRbt.so/2013.1/901 2013/11/27
 20 22  0  0  0  0  0  0  0  0999 V2000
   20.4433   -3.0686   42.0805 C   0  0  0  0  0  0  0  0  0  0  0  0
   20.2617   -2.2774   43.2548 O   0  0  0  0  0  0  0  0  0  0  0  0
   21.8185   -2.8494   41.4897 C   0  0  1  0  0  0  0  0  0  0  0  0
   22.8195   -3.2167   42.4772 O   0  0  0  0  0  0  0  0  0  0  0  0
   22.0829   -3.7371   40.2787 C   0  0  1  0  0  0  0  0  0  0  0  0
   21.6961   -3.0945   39.0632 O   0  0  0  0  0  0  0  0  0  0  0  0
   23.5854   -3.9897   40.3850 C   0  0  1  0  0  0  0  0  0  0  0  0
   24.3685   -2.9047   39.9106 O   0  0  0  0  0  0  0  0  0  0  0  0
   23.7433   -4.1301   41.8974 C   0  0  2  0  0  0  0  0  0  0  0  0
   25.8824   -7.7552   44.8591 N   0  0  0  0  0  0  0  0  0  0  0  0
   26.3762   -6.5286   44.4865 C   0  0  1  0  0  0  0  0  0  0  0  0
   27.5870   -6.2297   44.9593 N   0  0  0  0  0  0  0  0  0  0  0  0
   25.7335   -5.6636   43.7072 N   0  0  0  0  0  0  0  0  0  0  0  0
   24.5174   -6.1345   43.3037 C   0  0  1  0  0  0  0  0  0  0  0  0
   23.9360   -7.3487   43.6238 C   0  0  1  0  0  0  0  0  0  0  0  0
   24.6396   -8.2525   44.4677 C   0  0  0  0  0  0  0  0  0  0  0  0
   24.2876   -9.3711   44.8634 O   0  0  0  0  0  0  0  0  0  0  0  0
   22.6828   -7.4596   43.0352 N   0  0  0  0  0  0  0  0  0  0  0  0
   22.5321   -6.3424   42.3786 C   0  0  0  0  0  0  0  0  0  0  0  0
   23.6042   -5.4835   42.4829 N   0  0  1  0  0  0  0  0  0  0  0  0
  2  1  1  0  0  0  0
  3  1  1  1  0  0  0
  3  4  1  0  0  0  0
  3  5  1  0  0  0  0
  5  6  1  6  0  0  0
  5  7  1  0  0  0  0
  7  8  1  1  0  0  0
  7  9  1  0  0  0  0
  9  4  1  1  0  0  0
  9 20  1  0  0  0  0
 10 11  1  0  0  0  0
 11 12  1  6  0  0  0
 11 13  1  0  0  0  0
 14 13  1  1  0  0  0
 15 14  1  0  0  0  0
 15 16  1  1  0  0  0
 16 10  1  0  0  0  0
 16 17  2  0  0  0  0
 18 15  1  0  0  0  0
 19 18  1  0  0  0  0
 20 14  1  0  0  0  0
 20 19  1  1  0  0  0
M  END
>  <CHROM.1>
59.63568776,-111.08265605,23.58673639,-5.23930515,42.62202070,2.12261795
0.01216763,-0.66371404

>  <Name>
1nyi_lig

>  <RI>
0

>  <Rbt.Current_Directory>
/home/itssahil/PROJECTS/Mol_Feturizer/New_Systems/rnas/1nyi

>  <Rbt.Executable>
rbdock ($Id: //depot/dev/client3/rdock/2013.1/src/exe/rbdock.cxx#4 $)

>  <Rbt.Library>
libRbt.so (2013.1, Build901 2013/11/27)

>  <Rbt.Parameter_File>
/export/apps/rDock/src/rDock_2013.1_src/data/scripts/dock_solv.prm

>  <Rbt.Receptor>
prm/pocket_docking_6.prm

>  <SCORE>
-10.7501

>  <SCORE.INTER>
-8.65212

>  <SCORE.INTER.CONST>
1

>  <SCORE.INTER.POLAR>
-0.748331

>  <SCORE.INTER.ROT>
2

>  <SCORE.INTER.SOLV>
9.01608

>  <SCORE.INTER.VDW>
-11.2123

>  <SCORE.INTER.norm>
-0.432606

>  <SCORE.INTRA>
-2.09793

>  <SCORE.INTRA.DIHEDRAL>
-2.53563

>  <SCORE.INTRA.DIHEDRAL.0>
3.72394

>  <SCORE.INTRA.POLAR>
0

>  <SCORE.INTRA.POLAR.0>
0

>  <SCORE.INTRA.REPUL>
0

>  <SCORE.INTRA.REPUL.0>
0

>  <SCORE.INTRA.SOLV>
-0.877033

>  <SCORE.INTRA.SOLV.lig_0>
-49.4697

>  <SCORE.INTRA.VDW>
-0.3916

>  <SCORE.INTRA.VDW.0>
-0.896538

>  <SCORE.INTRA.norm>
-0.104897

>  <SCORE.RESTR>
0

>  <SCORE.RESTR.CAVITY>
0

>  <SCORE.RESTR.norm>
0

>  <SCORE.SYSTEM>
0

>  <SCORE.SYSTEM.CONST>
0

>  <SCORE.SYSTEM.DIHEDRAL>
0

>  <SCORE.SYSTEM.SOLV>
0

>  <SCORE.SYSTEM.norm>
0

>  <SCORE.heavy>
20

>  <SCORE.norm>
-0.537503

>  <RMSD>
4.478

$$$$
1nyi_lig
 OpenBabel11021811403D
libRbt.so/2013.1/901 2013/11/27
 20 22  0  0  0  0  0  0  0  0999 V2000
   20.5588   -3.1896   42.5865 C   0  0  0  0  0  0  0  0  0  0  0  0
   20.4977   -2.3713   43.7547 O   0  0  0  0  0  0  0  0  0  0  0  0
   21.8566   -2.9697   41.8412 C   0  0  1  0  0  0  0  0  0  0  0  0
   22.9635   -3.3661   42.6955 O   0  0  0  0  0  0  0  0  0  0  0  0
   21.9660   -3.8342   40.5901 C   0  0  1  0  0  0  0  0  0  0  0  0
   21.4450   -3.1631   39.4419 O   0  0  0  0  0  0  0  0  0  0  0  0
   23.4677   -4.1017   40.5123 C   0  0  1  0  0  0  0  0  0  0  0  0
   24.2009   -3.0137   39.9699 O   0  0  0  0  0  0  0  0  0  0  0  0
   23.8021   -4.2749   41.9923 C   0  0  2  0  0  0  0  0  0  0  0  0
   26.1274   -7.8729   44.8447 N   0  0  0  0  0  0  0  0  0  0  0  0
   26.5749   -6.6279   44.4749 C   0  0  1  0  0  0  0  0  0  0  0  0
   27.7895   -6.2997   44.9178 N   0  0  0  0  0  0  0  0  0  0  0  0
   25.8859   -5.7723   43.7254 N   0  0  0  0  0  0  0  0  0  0  0  0
   24.6730   -6.2734   43.3497 C   0  0  1  0  0  0  0  0  0  0  0  0
   24.1360   -7.5079   43.6696 C   0  0  1  0  0  0  0  0  0  0  0  0
   24.8889   -8.4013   44.4814 C   0  0  0  0  0  0  0  0  0  0  0  0
   24.5805   -9.5345   44.8718 O   0  0  0  0  0  0  0  0  0  0  0  0
   22.8705   -7.6480   43.1147 N   0  0  0  0  0  0  0  0  0  0  0  0
   22.6692   -6.5275   42.4775 C   0  0  0  0  0  0  0  0  0  0  0  0
   23.7186   -5.6391   42.5633 N   0  0  1  0  0  0  0  0  0  0  0  0
  2  1  1  0  0  0  0
  3  1  1  1  0  0  0
  3  4  1  0  0  0  0
  3  5  1  0  0  0  0
  5  6  1  6  0  0  0
  5  7  1  0  0  0  0
  7  8  1  1  0  0  0
  7  9  1  0  0  0  0
  9  4  1  1  0  0  0
  9 20  1  0  0  0  0
 10 11  1  0  0  0  0
 11 12  1  6  0  0  0
 11 13  1  0  0  0  0
 14 13  1  1  0  0  0
 15 14  1  0  0  0  0
 15 16  1  1  0  0  0
 16 10  1  0  0  0  0
 16 17  2  0  0  0  0
 18 15  1  0  0  0  0
 19 18  1  0  0  0  0
 20 14  1  0  0  0  0
 20 19  1  1  0  0  0
M  END
>  <CHROM.1>
62.53107327,-105.41116079,23.68864212,-5.36642546,42.76980576,2.16528971
0.03608457,-0.63325613

>  <Name>
1nyi_lig

>  <RI>
0

>  <Rbt.Current_Directory>
/home/itssahil/PROJECTS/Mol_Feturizer/New_Systems/rnas/1nyi

>  <Rbt.Executable>
rbdock ($Id: //depot/dev/client3/rdock/2013.1/src/exe/rbdock.cxx#4 $)

>  <Rbt.Library>
libRbt.so (2013.1, Build901 2013/11/27)

>  <Rbt.Parameter_File>
/export/apps/rDock/src/rDock_2013.1_src/data/scripts/dock_solv.prm

>  <Rbt.Receptor>
prm/pocket_docking_8.prm

>  <SCORE>
-10.8267

>  <SCORE.INTER>
-8.73329

>  <SCORE.INTER.CONST>
1

>  <SCORE.INTER.POLAR>
-0.748331

>  <SCORE.INTER.ROT>
2

>  <SCORE.INTER.SOLV>
9.44445

>  <SCORE.INTER.VDW>
-11.4092

>  <SCORE.INTER.norm>
-0.436664

>  <SCORE.INTRA>
-2.09345

>  <SCORE.INTRA.DIHEDRAL>
-2.53227

>  <SCORE.INTRA.DIHEDRAL.0>
3.72394

>  <SCORE.INTRA.POLAR>
0

>  <SCORE.INTRA.POLAR.0>
0

>  <SCORE.INTRA.REPUL>
0

>  <SCORE.INTRA.REPUL.0>
0

>  <SCORE.INTRA.SOLV>
-0.878199

>  <SCORE.INTRA.SOLV.lig_0>
-49.4697

>  <SCORE.INTRA.VDW>
-0.388214

>  <SCORE.INTRA.VDW.0>
-0.896538

>  <SCORE.INTRA.norm>
-0.104672

>  <SCORE.RESTR>
0

>  <SCORE.RESTR.CAVITY>
0

>  <SCORE.RESTR.norm>
0

>  <SCORE.SYSTEM>
0

>  <SCORE.SYSTEM.CONST>
0

>  <SCORE.SYSTEM.DIHEDRAL>
0

>  <SCORE.SYSTEM.SOLV>
0

>  <SCORE.SYSTEM.norm>
0

>  <SCORE.heavy>
20

>  <SCORE.norm>
-0.541337

>  <RMSD>
4.481

$$$$
1nyi_lig
 OpenBabel11021811403D
libRbt.so/2013.1/901 2013/11/27
 20 22  0  0  0  0  0  0  0  0999 V2000
   20.4576   -3.0148   42.2741 C   0  0  0  0  0  0  0  0  0  0  0  0
   20.3587   -2.2223   43.4574 O   0  0  0  0  0  0  0  0  0  0  0  0
   21.7967   -2.8128   41.6000 C   0  0  1  0  0  0  0  0  0  0  0  0
   22.8508   -3.2129   42.5170 O   0  0  0  0  0  0  0  0  0  0  0  0
   21.9665   -3.6880   40.3632 C   0  0  1  0  0  0  0  0  0  0  0  0
   21.5161   -3.0210   39.1831 O   0  0  0  0  0  0  0  0  0  0  0  0
   23.4675   -3.9701   40.3704 C   0  0  1  0  0  0  0  0  0  0  0  0
   24.2401   -2.8933   39.8614 O   0  0  0  0  0  0  0  0  0  0  0  0
   23.7180   -4.1350   41.8678 C   0  0  2  0  0  0  0  0  0  0  0  0
   25.8582   -7.7413   44.8516 N   0  0  0  0  0  0  0  0  0  0  0  0
   26.3389   -6.5047   44.4953 C   0  0  1  0  0  0  0  0  0  0  0  0
   27.5352   -6.1886   44.9935 N   0  0  0  0  0  0  0  0  0  0  0  0
   25.6974   -5.6459   43.7081 N   0  0  0  0  0  0  0  0  0  0  0  0
   24.4974   -6.1343   43.2784 C   0  0  1  0  0  0  0  0  0  0  0  0
   23.9299   -7.3597   43.5804 C   0  0  1  0  0  0  0  0  0  0  0  0
   24.6317   -8.2566   44.4332 C   0  0  0  0  0  0  0  0  0  0  0  0
   24.2905   -9.3830   44.8159 O   0  0  0  0  0  0  0  0  0  0  0  0
   22.6905   -7.4878   42.9667 N   0  0  0  0  0  0  0  0  0  0  0  0
   22.5343   -6.3696   42.3133 C   0  0  0  0  0  0  0  0  0  0  0  0
   23.5899   -5.4938   42.4432 N   0  0  1  0  0  0  0  0  0  0  0  0
  2  1  1  0  0  0  0
  3  1  1  1  0  0  0
  3  4  1  0  0  0  0
  3  5  1  0  0  0  0
  5  6  1  6  0  0  0
  5  7  1  0  0  0  0
  7  8  1  1  0  0  0
  7  9  1  0  0  0  0
  9  4  1  1  0  0  0
  9 20  1  0  0  0  0
 10 11  1  0  0  0  0
 11 12  1  6  0  0  0
 11 13  1  0  0  0  0
 14 13  1  1  0  0  0
 15 14  1  0  0  0  0
 15 16  1  1  0  0  0
 16 10  1  0  0  0  0
 16 17  2  0  0  0  0
 18 15  1  0  0  0  0
 19 18  1  0  0  0  0
 20 14  1  0  0  0  0
 20 19  1  1  0  0  0
M  END
>  <CHROM.1>
60.47849835,-105.88260635,23.55525963,-5.22368830,42.64223541,2.12610620
0.00507331,-0.64271403

>  <Name>
1nyi_lig

>  <RI>
0

>  <Rbt.Current_Directory>
/home/itssahil/PROJECTS/Mol_Feturizer/New_Systems/rnas/1nyi

>  <Rbt.Executable>
rbdock ($Id: //depot/dev/client3/rdock/2013.1/src/exe/rbdock.cxx#4 $)

>  <Rbt.Library>
libRbt.so (2013.1, Build901 2013/11/27)

>  <Rbt.Parameter_File>
/export/apps/rDock/src/rDock_2013.1_src/data/scripts/dock_solv.prm

>  <Rbt.Receptor>
prm/pocket_docking_6.prm

>  <SCORE>
-10.7281

>  <SCORE.INTER>
-8.62875

>  <SCORE.INTER.CONST>
1

>  <SCORE.INTER.POLAR>
-0.748331

>  <SCORE.INTER.ROT>
2

>  <SCORE.INTER.SOLV>
9.06004

>  <SCORE.INTER.VDW>
-11.2114

>  <SCORE.INTER.norm>
-0.431438

>  <SCORE.INTRA>
-2.0993

>  <SCORE.INTRA.DIHEDRAL>
-2.55473

>  <SCORE.INTRA.DIHEDRAL.0>
3.72394

>  <SCORE.INTRA.POLAR>
0

>  <SCORE.INTRA.POLAR.0>
0

>  <SCORE.INTRA.REPUL>
0

>  <SCORE.INTRA.REPUL.0>
0

>  <SCORE.INTRA.SOLV>
-0.871452

>  <SCORE.INTRA.SOLV.lig_0>
-49.4697

>  <SCORE.INTRA.VDW>
-0.386213

>  <SCORE.INTRA.VDW.0>
-0.896538

>  <SCORE.INTRA.norm>
-0.104965

>  <SCORE.RESTR>
0

>  <SCORE.RESTR.CAVITY>
0

>  <SCORE.RESTR.norm>
0

>  <SCORE.SYSTEM>
0

>  <SCORE.SYSTEM.CONST>
0

>  <SCORE.SYSTEM.DIHEDRAL>
0

>  <SCORE.SYSTEM.SOLV>
0

>  <SCORE.SYSTEM.norm>
0

>  <SCORE.heavy>
20

>  <SCORE.norm>
-0.536403

>  <RMSD>
4.495

$$$$
1nyi_lig
 OpenBabel11021811403D
libRbt.so/2013.1/901 2013/11/27
 20 22  0  0  0  0  0  0  0  0999 V2000
   20.4810   -3.0567   42.3031 C   0  0  0  0  0  0  0  0  0  0  0  0
   20.3893   -2.2575   43.4824 O   0  0  0  0  0  0  0  0  0  0  0  0
   21.8120   -2.8512   41.6144 C   0  0  1  0  0  0  0  0  0  0  0  0
   22.8776   -3.2400   42.5230 O   0  0  0  0  0  0  0  0  0  0  0  0
   21.9743   -3.7327   40.3810 C   0  0  1  0  0  0  0  0  0  0  0  0
   21.5084   -3.0751   39.2017 O   0  0  0  0  0  0  0  0  0  0  0  0
   23.4769   -4.0064   40.3747 C   0  0  1  0  0  0  0  0  0  0  0  0
   24.2382   -2.9283   39.8517 O   0  0  0  0  0  0  0  0  0  0  0  0
   23.7434   -4.1611   41.8705 C   0  0  2  0  0  0  0  0  0  0  0  0
   25.9253   -7.7309   44.8679 N   0  0  0  0  0  0  0  0  0  0  0  0
   26.3945   -6.4928   44.5017 C   0  0  1  0  0  0  0  0  0  0  0  0
   27.5903   -6.1639   44.9926 N   0  0  0  0  0  0  0  0  0  0  0  0
   25.7427   -5.6442   43.7118 N   0  0  0  0  0  0  0  0  0  0  0  0
   24.5449   -6.1450   43.2903 C   0  0  1  0  0  0  0  0  0  0  0  0
   23.9886   -7.3729   43.6026 C   0  0  1  0  0  0  0  0  0  0  0  0
   24.7012   -8.2588   44.4580 C   0  0  0  0  0  0  0  0  0  0  0  0
   24.3707   -9.3854   44.8493 O   0  0  0  0  0  0  0  0  0  0  0  0
   22.7477   -7.5150   42.9951 N   0  0  0  0  0  0  0  0  0  0  0  0
   22.5796   -6.4022   42.3353 C   0  0  0  0  0  0  0  0  0  0  0  0
   23.6286   -5.5172   42.4550 N   0  0  1  0  0  0  0  0  0  0  0  0
  2  1  1  0  0  0  0
  3  1  1  1  0  0  0
  3  4  1  0  0  0  0
  3  5  1  0  0  0  0
  5  6  1  6  0  0  0
  5  7  1  0  0  0  0
  7  8  1  1  0  0  0
  7  9  1  0  0  0  0
  9  4  1  1  0  0  0
  9 20  1  0  0  0  0
 10 11  1  0  0  0  0
 11 12  1  6  0  0  0
 11 13  1  0  0  0  0
 14 13  1  1  0  0  0
 15 14  1  0  0  0  0
 15 16  1  1  0  0  0
 16 10  1  0  0  0  0
 16 17  2  0  0  0  0
 18 15  1  0  0  0  0
 19 18  1  0  0  0  0
 20 14  1  0  0  0  0
 20 19  1  1  0  0  0
M  END
>  <CHROM.1>
60.49695658,-105.52253271,23.59222098,-5.24423138,42.65665224,2.13522508
0.00457252,-0.64784763

>  <Name>
1nyi_lig

>  <RI>
0

>  <Rbt.Current_Directory>
/home/itssahil/PROJECTS/Mol_Feturizer/New_Systems/rnas/1nyi

>  <Rbt.Executable>
rbdock ($Id: //depot/dev/client3/rdock/2013.1/src/exe/rbdock.cxx#4 $)

>  <Rbt.Library>
libRbt.so (2013.1, Build901 2013/11/27)

>  <Rbt.Parameter_File>
/export/apps/rDock/src/rDock_2013.1_src/data/scripts/dock_solv.prm

>  <Rbt.Receptor>
prm/pocket_docking_6.prm

>  <SCORE>
-10.765

>  <SCORE.INTER>
-8.66738

>  <SCORE.INTER.CONST>
1

>  <SCORE.INTER.POLAR>
-0.748331

>  <SCORE.INTER.ROT>
2

>  <SCORE.INTER.SOLV>
9.01005

>  <SCORE.INTER.VDW>
-11.2205

>  <SCORE.INTER.norm>
-0.433369

>  <SCORE.INTRA>
-2.09766

>  <SCORE.INTRA.DIHEDRAL>
-2.55592

>  <SCORE.INTRA.DIHEDRAL.0>
3.72394

>  <SCORE.INTRA.POLAR>
0

>  <SCORE.INTRA.POLAR.0>
0

>  <SCORE.INTRA.REPUL>
0

>  <SCORE.INTRA.REPUL.0>
0

>  <SCORE.INTRA.SOLV>
-0.870846

>  <SCORE.INTRA.SOLV.lig_0>
-49.4697

>  <SCORE.INTRA.VDW>
-0.38428

>  <SCORE.INTRA.VDW.0>
-0.896538

>  <SCORE.INTRA.norm>
-0.104883

>  <SCORE.RESTR>
0

>  <SCORE.RESTR.CAVITY>
0

>  <SCORE.RESTR.norm>
0

>  <SCORE.SYSTEM>
0

>  <SCORE.SYSTEM.CONST>
0

>  <SCORE.SYSTEM.DIHEDRAL>
0

>  <SCORE.SYSTEM.SOLV>
0

>  <SCORE.SYSTEM.norm>
0

>  <SCORE.heavy>
20

>  <SCORE.norm>
-0.538252

>  <RMSD>
4.499

$$$$
1nyi_lig
 OpenBabel11021811403D
libRbt.so/2013.1/901 2013/11/27
 20 22  0  0  0  0  0  0  0  0999 V2000
   28.0528   -6.9841   47.7369 C   0  0  0  0  0  0  0  0  0  0  0  0
   28.7609   -8.1571   48.1377 O   0  0  0  0  0  0  0  0  0  0  0  0
   28.7272   -6.3246   46.5543 C   0  0  1  0  0  0  0  0  0  0  0  0
   28.7317   -7.2533   45.4364 O   0  0  0  0  0  0  0  0  0  0  0  0
   27.9769   -5.0901   46.0669 C   0  0  1  0  0  0  0  0  0  0  0  0
   28.4404   -3.9049   46.7156 O   0  0  0  0  0  0  0  0  0  0  0  0
   28.2560   -5.1139   44.5655 C   0  0  1  0  0  0  0  0  0  0  0  0
   29.5410   -4.6129   44.2289 O   0  0  0  0  0  0  0  0  0  0  0  0
   28.1874   -6.6140   44.2879 C   0  0  2  0  0  0  0  0  0  0  0  0
   23.2538   -5.6542   43.1802 N   0  0  0  0  0  0  0  0  0  0  0  0
   24.2551   -4.7823   43.5332 C   0  0  1  0  0  0  0  0  0  0  0  0
   23.9008   -3.4981   43.5999 N   0  0  0  0  0  0  0  0  0  0  0  0
   25.5063   -5.1427   43.8036 N   0  0  0  0  0  0  0  0  0  0  0  0
   25.6906   -6.4913   43.7005 C   0  0  1  0  0  0  0  0  0  0  0  0
   24.7506   -7.4457   43.3535 C   0  0  1  0  0  0  0  0  0  0  0  0
   23.4211   -7.0334   43.0589 C   0  0  0  0  0  0  0  0  0  0  0  0
   22.4525   -7.7303   42.7307 O   0  0  0  0  0  0  0  0  0  0  0  0
   25.3223   -8.7114   43.3410 N   0  0  0  0  0  0  0  0  0  0  0  0
   26.5660   -8.5096   43.6793 C   0  0  0  0  0  0  0  0  0  0  0  0
   26.8720   -7.1886   43.9225 N   0  0  1  0  0  0  0  0  0  0  0  0
  2  1  1  0  0  0  0
  3  1  1  1  0  0  0
  3  4  1  0  0  0  0
  3  5  1  0  0  0  0
  5  6  1  1  0  0  0
  5  7  1  0  0  0  0
  7  8  1  1  0  0  0
  7  9  1  0  0  0  0
  9  4  1  1  0  0  0
  9 20  1  0  0  0  0
 10 11  1  0  0  0  0
 11 12  1  1  0  0  0
 11 13  1  0  0  0  0
 14 13  1  6  0  0  0
 15 14  1  0  0  0  0
 15 16  1  6  0  0  0
 16 10  1  0  0  0  0
 16 17  2  0  0  0  0
 18 15  1  0  0  0  0
 19 18  1  0  0  0  0
 20 14  1  0  0  0  0
 20 19  1  6  0  0  0
M  END
>  <CHROM.1>
61.16994443,128.22562685,26.48570895,-6.31606871,44.62344239,-0.01483563
0.58602744,3.06283134

>  <Name>
1nyi_lig

>  <RI>
0

>  <Rbt.Current_Directory>
/home/itssahil/PROJECTS/Mol_Feturizer/New_Systems/rnas/1nyi

>  <Rbt.Executable>
rbdock ($Id: //depot/dev/client3/rdock/2013.1/src/exe/rbdock.cxx#4 $)

>  <Rbt.Library>
libRbt.so (2013.1, Build901 2013/11/27)

>  <Rbt.Parameter_File>
/export/apps/rDock/src/rDock_2013.1_src/data/scripts/dock_solv.prm

>  <Rbt.Receptor>
prm/pocket_docking_6.prm

>  <SCORE>
-10.4882

>  <SCORE.INTER>
-8.87749

>  <SCORE.INTER.CONST>
1

>  <SCORE.INTER.POLAR>
-0.748331

>  <SCORE.INTER.ROT>
2

>  <SCORE.INTER.SOLV>
10.2323

>  <SCORE.INTER.VDW>
-11.768

>  <SCORE.INTER.norm>
-0.443875

>  <SCORE.INTRA>
-1.61069

>  <SCORE.INTRA.DIHEDRAL>
-2.5268

>  <SCORE.INTRA.DIHEDRAL.0>
3.72394

>  <SCORE.INTRA.POLAR>
0

>  <SCORE.INTRA.POLAR.0>
0

>  <SCORE.INTRA.REPUL>
0

>  <SCORE.INTRA.REPUL.0>
0

>  <SCORE.INTRA.SOLV>
-0.0420295

>  <SCORE.INTRA.SOLV.lig_0>
-49.4697

>  <SCORE.INTRA.VDW>
-0.326277

>  <SCORE.INTRA.VDW.0>
-0.896538

>  <SCORE.INTRA.norm>
-0.0805345

>  <SCORE.RESTR>
0

>  <SCORE.RESTR.CAVITY>
0

>  <SCORE.RESTR.norm>
0

>  <SCORE.SYSTEM>
0

>  <SCORE.SYSTEM.CONST>
0

>  <SCORE.SYSTEM.DIHEDRAL>
0

>  <SCORE.SYSTEM.SOLV>
0

>  <SCORE.SYSTEM.norm>
0

>  <SCORE.heavy>
20

>  <SCORE.norm>
-0.524409

>  <RMSD>
4.534

$$$$
1nyi_lig
 OpenBabel11021811403D
libRbt.so/2013.1/901 2013/11/27
 20 22  0  0  0  0  0  0  0  0999 V2000
   20.7055   -2.3790   41.9651 C   0  0  0  0  0  0  0  0  0  0  0  0
   20.3061   -3.6536   42.4688 O   0  0  0  0  0  0  0  0  0  0  0  0
   22.0158   -2.4814   41.2163 C   0  0  1  0  0  0  0  0  0  0  0  0
   23.0270   -3.0236   42.1082 O   0  0  0  0  0  0  0  0  0  0  0  0
   21.9414   -3.4446   40.0367 C   0  0  1  0  0  0  0  0  0  0  0  0
   21.5571   -2.7739   38.8356 O   0  0  0  0  0  0  0  0  0  0  0  0
   23.3587   -4.0121   39.9929 C   0  0  1  0  0  0  0  0  0  0  0  0
   24.2908   -3.1379   39.3743 O   0  0  0  0  0  0  0  0  0  0  0  0
   23.6620   -4.1335   41.4847 C   0  0  2  0  0  0  0  0  0  0  0  0
   25.1414   -7.7598   44.8238 N   0  0  0  0  0  0  0  0  0  0  0  0
   25.8155   -6.6435   44.3917 C   0  0  1  0  0  0  0  0  0  0  0  0
   27.0318   -6.4706   44.9111 N   0  0  0  0  0  0  0  0  0  0  0  0
   25.3350   -5.7665   43.5149 N   0  0  0  0  0  0  0  0  0  0  0  0
   24.0868   -6.1030   43.0769 C   0  0  1  0  0  0  0  0  0  0  0  0
   23.3302   -7.1996   43.4506 C   0  0  1  0  0  0  0  0  0  0  0  0
   23.8625   -8.1179   44.3981 C   0  0  0  0  0  0  0  0  0  0  0  0
   23.3424   -9.1444   44.8536 O   0  0  0  0  0  0  0  0  0  0  0  0
   22.1033   -7.1906   42.7998 N   0  0  0  0  0  0  0  0  0  0  0  0
   22.1382   -6.1198   42.0554 C   0  0  0  0  0  0  0  0  0  0  0  0
   23.3114   -5.4050   42.1587 N   0  0  1  0  0  0  0  0  0  0  0  0
  2  1  1  0  0  0  0
  3  1  1  1  0  0  0
  3  4  1  0  0  0  0
  3  5  1  0  0  0  0
  5  6  1  6  0  0  0
  5  7  1  0  0  0  0
  7  8  1  6  0  0  0
  7  9  1  0  0  0  0
  9  4  1  1  0  0  0
  9 20  1  0  0  0  0
 10 11  1  0  0  0  0
 11 12  1  6  0  0  0
 11 13  1  0  0  0  0
 14 13  1  1  0  0  0
 15 14  1  0  0  0  0
 15 16  1  1  0  0  0
 16 10  1  0  0  0  0
 16 17  2  0  0  0  0
 18 15  1  0  0  0  0
 19 18  1  0  0  0  0
 20 14  1  0  0  0  0
 20 19  1  1  0  0  0
M  END
>  <CHROM.1>
-57.82524530,-100.25162852,23.28173389,-5.20511512,42.36180863,1.99280713
-0.05171775,-0.69481089

>  <Name>
1nyi_lig

>  <RI>
0

>  <Rbt.Current_Directory>
/home/itssahil/PROJECTS/Mol_Feturizer/New_Systems/rnas/1nyi

>  <Rbt.Executable>
rbdock ($Id: //depot/dev/client3/rdock/2013.1/src/exe/rbdock.cxx#4 $)

>  <Rbt.Library>
libRbt.so (2013.1, Build901 2013/11/27)

>  <Rbt.Parameter_File>
/export/apps/rDock/src/rDock_2013.1_src/data/scripts/dock_solv.prm

>  <Rbt.Receptor>
prm/pocket_docking_6.prm

>  <SCORE>
-10.1713

>  <SCORE.INTER>
-8.39519

>  <SCORE.INTER.CONST>
1

>  <SCORE.INTER.POLAR>
-0.748331

>  <SCORE.INTER.ROT>
2

>  <SCORE.INTER.SOLV>
8.59559

>  <SCORE.INTER.VDW>
-10.9009

>  <SCORE.INTER.norm>
-0.41976

>  <SCORE.INTRA>
-1.77611

>  <SCORE.INTRA.DIHEDRAL>
-2.55441

>  <SCORE.INTRA.DIHEDRAL.0>
3.72394

>  <SCORE.INTRA.POLAR>
0

>  <SCORE.INTRA.POLAR.0>
0

>  <SCORE.INTRA.REPUL>
0

>  <SCORE.INTRA.REPUL.0>
0

>  <SCORE.INTRA.SOLV>
0.0885683

>  <SCORE.INTRA.SOLV.lig_0>
-49.4697

>  <SCORE.INTRA.VDW>
-0.543187

>  <SCORE.INTRA.VDW.0>
-0.896538

>  <SCORE.INTRA.norm>
-0.0888054

>  <SCORE.RESTR>
0

>  <SCORE.RESTR.CAVITY>
0

>  <SCORE.RESTR.norm>
0

>  <SCORE.SYSTEM>
0

>  <SCORE.SYSTEM.CONST>
0

>  <SCORE.SYSTEM.DIHEDRAL>
0

>  <SCORE.SYSTEM.SOLV>
0

>  <SCORE.SYSTEM.norm>
0

>  <SCORE.heavy>
20

>  <SCORE.norm>
-0.508565

>  <RMSD>
4.536

$$$$
1nyi_lig
 OpenBabel11021811403D
libRbt.so/2013.1/901 2013/11/27
 20 22  0  0  0  0  0  0  0  0999 V2000
   20.9645   -2.7733   41.3344 C   0  0  0  0  0  0  0  0  0  0  0  0
   19.8978   -3.0012   40.4134 O   0  0  0  0  0  0  0  0  0  0  0  0
   22.2672   -2.5360   40.6031 C   0  0  1  0  0  0  0  0  0  0  0  0
   23.3084   -2.2502   41.5760 O   0  0  0  0  0  0  0  0  0  0  0  0
   22.7400   -3.7663   39.8367 C   0  0  1  0  0  0  0  0  0  0  0  0
   22.2411   -3.7739   38.4983 O   0  0  0  0  0  0  0  0  0  0  0  0
   24.2593   -3.6360   39.9217 C   0  0  1  0  0  0  0  0  0  0  0  0
   24.7923   -2.7045   38.9922 O   0  0  0  0  0  0  0  0  0  0  0  0
   24.4196   -3.1079   41.3456 C   0  0  2  0  0  0  0  0  0  0  0  0
   22.8818   -7.6262   43.2715 N   0  0  0  0  0  0  0  0  0  0  0  0
   22.4445   -6.9597   42.1526 C   0  0  1  0  0  0  0  0  0  0  0  0
   21.4803   -7.5694   41.4616 N   0  0  0  0  0  0  0  0  0  0  0  0
   22.9143   -5.7841   41.7452 N   0  0  0  0  0  0  0  0  0  0  0  0
   23.8846   -5.2989   42.5736 C   0  0  1  0  0  0  0  0  0  0  0  0
   24.3899   -5.8922   43.7170 C   0  0  1  0  0  0  0  0  0  0  0  0
   23.8779   -7.1550   44.1262 C   0  0  0  0  0  0  0  0  0  0  0  0
   24.2009   -7.8369   45.1072 O   0  0  0  0  0  0  0  0  0  0  0  0
   25.3807   -5.0989   44.2811 N   0  0  0  0  0  0  0  0  0  0  0  0
   25.4526   -4.0605   43.4946 C   0  0  0  0  0  0  0  0  0  0  0  0
   24.5721   -4.0990   42.4358 N   0  0  1  0  0  0  0  0  0  0  0  0
  2  1  1  0  0  0  0
  3  1  1  1  0  0  0
  3  4  1  0  0  0  0
  3  5  1  0  0  0  0
  5  6  1  6  0  0  0
  5  7  1  0  0  0  0
  7  8  1  6  0  0  0
  7  9  1  0  0  0  0
  9  4  1  1  0  0  0
  9 20  1  0  0  0  0
 10 11  1  0  0  0  0
 11 12  1  1  0  0  0
 11 13  1  0  0  0  0
 14 13  1  6  0  0  0
 15 14  1  0  0  0  0
 15 16  1  6  0  0  0
 16 10  1  0  0  0  0
 16 17  2  0  0  0  0
 18 15  1  0  0  0  0
 19 18  1  0  0  0  0
 20 14  1  0  0  0  0
 20 19  1  6  0  0  0
M  END
>  <CHROM.1>
177.47679701,82.23947820,23.29511673,-4.70681724,41.80512623,1.86451271,-0.50301267
-0.65127184

>  <Name>
1nyi_lig

>  <RI>
0

>  <Rbt.Current_Directory>
/home/itssahil/PROJECTS/Mol_Feturizer/New_Systems/rnas/1nyi

>  <Rbt.Executable>
rbdock ($Id: //depot/dev/client3/rdock/2013.1/src/exe/rbdock.cxx#4 $)

>  <Rbt.Library>
libRbt.so (2013.1, Build901 2013/11/27)

>  <Rbt.Parameter_File>
/export/apps/rDock/src/rDock_2013.1_src/data/scripts/dock_solv.prm

>  <Rbt.Receptor>
prm/pocket_docking_6.prm

>  <SCORE>
-7.7536

>  <SCORE.INTER>
-6.30088

>  <SCORE.INTER.CONST>
1

>  <SCORE.INTER.POLAR>
-1.04303

>  <SCORE.INTER.ROT>
2

>  <SCORE.INTER.SOLV>
13.6725

>  <SCORE.INTER.VDW>
-10.2146

>  <SCORE.INTER.norm>
-0.315044

>  <SCORE.INTRA>
-1.45272

>  <SCORE.INTRA.DIHEDRAL>
-2.40536

>  <SCORE.INTRA.DIHEDRAL.0>
3.72394

>  <SCORE.INTRA.POLAR>
0

>  <SCORE.INTRA.POLAR.0>
0

>  <SCORE.INTRA.REPUL>
0

>  <SCORE.INTRA.REPUL.0>
0

>  <SCORE.INTRA.SOLV>
1.12275

>  <SCORE.INTRA.SOLV.lig_0>
-49.4697

>  <SCORE.INTRA.VDW>
-0.811416

>  <SCORE.INTRA.VDW.0>
-0.896538

>  <SCORE.INTRA.norm>
-0.0726359

>  <SCORE.RESTR>
0

>  <SCORE.RESTR.CAVITY>
0

>  <SCORE.RESTR.norm>
0

>  <SCORE.SYSTEM>
0

>  <SCORE.SYSTEM.CONST>
0

>  <SCORE.SYSTEM.DIHEDRAL>
0

>  <SCORE.SYSTEM.SOLV>
0

>  <SCORE.SYSTEM.norm>
0

>  <SCORE.heavy>
20

>  <SCORE.norm>
-0.38768

>  <RMSD>
4.597

$$$$
1nyi_lig
 OpenBabel11021811403D
libRbt.so/2013.1/901 2013/11/27
 20 22  0  0  0  0  0  0  0  0999 V2000
   25.9014   -6.7344   43.9862 C   0  0  0  0  0  0  0  0  0  0  0  0
   25.6315   -7.6448   45.0522 O   0  0  0  0  0  0  0  0  0  0  0  0
   25.7364   -5.3024   44.4451 C   0  0  1  0  0  0  0  0  0  0  0  0
   26.0837   -4.4135   43.3491 O   0  0  0  0  0  0  0  0  0  0  0  0
   24.2946   -4.9683   44.8113 C   0  0  1  0  0  0  0  0  0  0  0  0
   24.0348   -5.2131   46.1944 O   0  0  0  0  0  0  0  0  0  0  0  0
   24.1955   -3.4947   44.4225 C   0  0  1  0  0  0  0  0  0  0  0  0
   24.7682   -2.6236   45.3863 O   0  0  0  0  0  0  0  0  0  0  0  0
   25.0282   -3.4823   43.1424 C   0  0  2  0  0  0  0  0  0  0  0  0
   21.3438   -6.1444   40.7283 N   0  0  0  0  0  0  0  0  0  0  0  0
   21.7582   -6.2158   42.0362 C   0  0  1  0  0  0  0  0  0  0  0  0
   21.1139   -7.1038   42.7947 N   0  0  0  0  0  0  0  0  0  0  0  0
   22.7319   -5.4758   42.5587 N   0  0  0  0  0  0  0  0  0  0  0  0
   23.2899   -4.6321   41.6422 C   0  0  1  0  0  0  0  0  0  0  0  0
   22.9440   -4.4877   40.3102 C   0  0  1  0  0  0  0  0  0  0  0  0
   21.8919   -5.2838   39.7775 C   0  0  0  0  0  0  0  0  0  0  0  0
   21.4419   -5.2961   38.6247 O   0  0  0  0  0  0  0  0  0  0  0  0
   23.7301   -3.5159   39.7046 N   0  0  0  0  0  0  0  0  0  0  0  0
   24.5245   -3.1029   40.6534 C   0  0  0  0  0  0  0  0  0  0  0  0
   24.3283   -3.7349   41.8617 N   0  0  1  0  0  0  0  0  0  0  0  0
  2  1  1  0  0  0  0
  3  1  1  6  0  0  0
  3  4  1  0  0  0  0
  3  5  1  0  0  0  0
  5  6  1  1  0  0  0
  5  7  1  0  0  0  0
  7  8  1  1  0  0  0
  7  9  1  0  0  0  0
  9  4  1  1  0  0  0
  9 20  1  0  0  0  0
 10 11  1  0  0  0  0
 11 12  1  6  0  0  0
 11 13  1  0  0  0  0
 14 13  1  1  0  0  0
 15 14  1  0  0  0  0
 15 16  1  1  0  0  0
 16 10  1  0  0  0  0
 16 17  2  0  0  0  0
 18 15  1  0  0  0  0
 19 18  1  0  0  0  0
 20 14  1  0  0  0  0
 20 19  1  1  0  0  0
M  END
>  <CHROM.1>
177.25269893,85.07859056,23.77132311,-4.95155087,42.62474555,0.69374019,0.81872893
2.28089903

>  <Name>
1nyi_lig

>  <RI>
0

>  <Rbt.Current_Directory>
/home/itssahil/PROJECTS/Mol_Feturizer/New_Systems/rnas/1nyi

>  <Rbt.Executable>
rbdock ($Id: //depot/dev/client3/rdock/2013.1/src/exe/rbdock.cxx#4 $)

>  <Rbt.Library>
libRbt.so (2013.1, Build901 2013/11/27)

>  <Rbt.Parameter_File>
/export/apps/rDock/src/rDock_2013.1_src/data/scripts/dock_solv.prm

>  <Rbt.Receptor>
prm/pocket_docking_8.prm

>  <SCORE>
-8.18337

>  <SCORE.INTER>
-6.73731

>  <SCORE.INTER.CONST>
1

>  <SCORE.INTER.POLAR>
-0.748331

>  <SCORE.INTER.ROT>
2

>  <SCORE.INTER.SOLV>
8.50964

>  <SCORE.INTER.VDW>
-9.76698

>  <SCORE.INTER.norm>
-0.336866

>  <SCORE.INTRA>
-1.44606

>  <SCORE.INTRA.DIHEDRAL>
-2.39629

>  <SCORE.INTRA.DIHEDRAL.0>
3.72394

>  <SCORE.INTRA.POLAR>
0

>  <SCORE.INTRA.POLAR.0>
0

>  <SCORE.INTRA.REPUL>
0

>  <SCORE.INTRA.REPUL.0>
0

>  <SCORE.INTRA.SOLV>
1.08079

>  <SCORE.INTRA.SOLV.lig_0>
-49.4697

>  <SCORE.INTRA.VDW>
-0.788312

>  <SCORE.INTRA.VDW.0>
-0.896538

>  <SCORE.INTRA.norm>
-0.072303

>  <SCORE.RESTR>
0

>  <SCORE.RESTR.CAVITY>
0

>  <SCORE.RESTR.norm>
0

>  <SCORE.SYSTEM>
0

>  <SCORE.SYSTEM.CONST>
0

>  <SCORE.SYSTEM.DIHEDRAL>
0

>  <SCORE.SYSTEM.SOLV>
0

>  <SCORE.SYSTEM.norm>
0

>  <SCORE.heavy>
20

>  <SCORE.norm>
-0.409168

>  <RMSD>
4.608

$$$$
1nyi_lig
 OpenBabel11021811403D
libRbt.so/2013.1/901 2013/11/27
 20 22  0  0  0  0  0  0  0  0999 V2000
   25.8462   -6.7658   43.9667 C   0  0  0  0  0  0  0  0  0  0  0  0
   25.5522   -7.6736   45.0285 O   0  0  0  0  0  0  0  0  0  0  0  0
   25.7135   -5.3321   44.4305 C   0  0  1  0  0  0  0  0  0  0  0  0
   26.0736   -4.4473   43.3352 O   0  0  0  0  0  0  0  0  0  0  0  0
   24.2810   -4.9691   44.8052 C   0  0  1  0  0  0  0  0  0  0  0  0
   24.0233   -5.2124   46.1889 O   0  0  0  0  0  0  0  0  0  0  0  0
   24.2106   -3.4925   44.4211 C   0  0  1  0  0  0  0  0  0  0  0  0
   24.8064   -2.6365   45.3844 O   0  0  0  0  0  0  0  0  0  0  0  0
   25.0367   -3.4938   43.1367 C   0  0  2  0  0  0  0  0  0  0  0  0
   21.3348   -6.1261   40.7168 N   0  0  0  0  0  0  0  0  0  0  0  0
   21.7619   -6.2169   42.0194 C   0  0  1  0  0  0  0  0  0  0  0  0
   21.1268   -7.1182   42.7700 N   0  0  0  0  0  0  0  0  0  0  0  0
   22.7391   -5.4831   42.5440 N   0  0  0  0  0  0  0  0  0  0  0  0
   23.2864   -4.6240   41.6354 C   0  0  1  0  0  0  0  0  0  0  0  0
   22.9274   -4.4595   40.3092 C   0  0  1  0  0  0  0  0  0  0  0  0
   21.8719   -5.2495   39.7744 C   0  0  0  0  0  0  0  0  0  0  0  0
   21.4109   -5.2449   38.6259 O   0  0  0  0  0  0  0  0  0  0  0  0
   23.7056   -3.4766   39.7114 N   0  0  0  0  0  0  0  0  0  0  0  0
   24.5083   -3.0767   40.6588 C   0  0  0  0  0  0  0  0  0  0  0  0
   24.3250   -3.7279   41.8590 N   0  0  1  0  0  0  0  0  0  0  0  0
  2  1  1  0  0  0  0
  3  1  1  6  0  0  0
  3  4  1  0  0  0  0
  3  5  1  0  0  0  0
  5  6  1  1  0  0  0
  5  7  1  0  0  0  0
  7  8  1  1  0  0  0
  7  9  1  0  0  0  0
  9  4  1  1  0  0  0
  9 20  1  0  0  0  0
 10 11  1  0  0  0  0
 11 12  1  6  0  0  0
 11 13  1  0  0  0  0
 14 13  1  1  0  0  0
 15 14  1  0  0  0  0
 15 16  1  1  0  0  0
 16 10  1  0  0  0  0
 16 17  2  0  0  0  0
 18 15  1  0  0  0  0
 19 18  1  0  0  0  0
 20 14  1  0  0  0  0
 20 19  1  1  0  0  0
M  END
>  <CHROM.1>
177.72586806,83.54985653,23.75938926,-4.94977233,42.61665854,0.69090729,0.82256887
2.29446542

>  <Name>
1nyi_lig

>  <RI>
0

>  <Rbt.Current_Directory>
/home/itssahil/PROJECTS/Mol_Feturizer/New_Systems/rnas/1nyi

>  <Rbt.Executable>
rbdock ($Id: //depot/dev/client3/rdock/2013.1/src/exe/rbdock.cxx#4 $)

>  <Rbt.Library>
libRbt.so (2013.1, Build901 2013/11/27)

>  <Rbt.Parameter_File>
/export/apps/rDock/src/rDock_2013.1_src/data/scripts/dock_solv.prm

>  <Rbt.Receptor>
prm/pocket_docking_6.prm

>  <SCORE>
-8.1619

>  <SCORE.INTER>
-6.72103

>  <SCORE.INTER.CONST>
1

>  <SCORE.INTER.POLAR>
-0.748331

>  <SCORE.INTER.ROT>
2

>  <SCORE.INTER.SOLV>
8.51482

>  <SCORE.INTER.VDW>
-9.75785

>  <SCORE.INTER.norm>
-0.336051

>  <SCORE.INTRA>
-1.44087

>  <SCORE.INTRA.DIHEDRAL>
-2.40684

>  <SCORE.INTRA.DIHEDRAL.0>
3.72394

>  <SCORE.INTRA.POLAR>
0

>  <SCORE.INTRA.POLAR.0>
0

>  <SCORE.INTRA.REPUL>
0

>  <SCORE.INTRA.REPUL.0>
0

>  <SCORE.INTRA.SOLV>
1.10527

>  <SCORE.INTRA.SOLV.lig_0>
-49.4697

>  <SCORE.INTRA.VDW>
-0.790086

>  <SCORE.INTRA.VDW.0>
-0.896538

>  <SCORE.INTRA.norm>
-0.0720435

>  <SCORE.RESTR>
0

>  <SCORE.RESTR.CAVITY>
0

>  <SCORE.RESTR.norm>
0

>  <SCORE.SYSTEM>
0

>  <SCORE.SYSTEM.CONST>
0

>  <SCORE.SYSTEM.DIHEDRAL>
0

>  <SCORE.SYSTEM.SOLV>
0

>  <SCORE.SYSTEM.norm>
0

>  <SCORE.heavy>
20

>  <SCORE.norm>
-0.408095

>  <RMSD>
4.616

$$$$
1nyi_lig
 OpenBabel11021811403D
libRbt.so/2013.1/901 2013/11/27
 20 22  0  0  0  0  0  0  0  0999 V2000
   29.3665   -6.4508   44.8488 C   0  0  0  0  0  0  0  0  0  0  0  0
   28.8594   -5.3227   44.1358 O   0  0  0  0  0  0  0  0  0  0  0  0
   28.2839   -7.4857   45.0612 C   0  0  1  0  0  0  0  0  0  0  0  0
   27.1239   -6.8397   45.6522 O   0  0  0  0  0  0  0  0  0  0  0  0
   27.7971   -8.0996   43.7533 C   0  0  1  0  0  0  0  0  0  0  0  0
   28.5449   -9.2679   43.4122 O   0  0  0  0  0  0  0  0  0  0  0  0
   26.3270   -8.3820   44.0561 C   0  0  1  0  0  0  0  0  0  0  0  0
   26.1316   -9.5617   44.8214 O   0  0  0  0  0  0  0  0  0  0  0  0
   25.9668   -7.1516   44.8858 C   0  0  2  0  0  0  0  0  0  0  0  0
   22.4216   -5.2926   41.6508 N   0  0  0  0  0  0  0  0  0  0  0  0
   22.6072   -6.5783   42.0978 C   0  0  1  0  0  0  0  0  0  0  0  0
   21.7443   -7.4798   41.6268 N   0  0  0  0  0  0  0  0  0  0  0  0
   23.5672   -6.9515   42.9391 N   0  0  0  0  0  0  0  0  0  0  0  0
   24.3656   -5.9082   43.3094 C   0  0  1  0  0  0  0  0  0  0  0  0
   24.2600   -4.5858   42.9159 C   0  0  1  0  0  0  0  0  0  0  0  0
   23.2180   -4.2099   42.0231 C   0  0  0  0  0  0  0  0  0  0  0  0
   22.9622   -3.0892   41.5645 O   0  0  0  0  0  0  0  0  0  0  0  0
   25.2473   -3.8171   43.5188 N   0  0  0  0  0  0  0  0  0  0  0  0
   25.9227   -4.6659   44.2436 C   0  0  0  0  0  0  0  0  0  0  0  0
   25.4574   -5.9604   44.1678 N   0  0  1  0  0  0  0  0  0  0  0  0
  2  1  1  0  0  0  0
  3  1  1  6  0  0  0
  3  4  1  0  0  0  0
  3  5  1  0  0  0  0
  5  6  1  1  0  0  0
  5  7  1  0  0  0  0
  7  8  1  1  0  0  0
  7  9  1  0  0  0  0
  9  4  1  6  0  0  0
  9 20  1  0  0  0  0
 10 11  1  0  0  0  0
 11 12  1  6  0  0  0
 11 13  1  0  0  0  0
 14 13  1  1  0  0  0
 15 14  1  0  0  0  0
 15 16  1  1  0  0  0
 16 10  1  0  0  0  0
 16 17  2  0  0  0  0
 18 15  1  0  0  0  0
 19 18  1  0  0  0  0
 20 14  1  0  0  0  0
 20 19  1  1  0  0  0
M  END
>  <CHROM.1>
-51.73986190,178.54710177,25.56469741,-6.37343692,43.55395330,-0.45631513
-0.42160524,-0.06712345

>  <Name>
1nyi_lig

>  <RI>
0

>  <Rbt.Current_Directory>
/home/itssahil/PROJECTS/Mol_Feturizer/New_Systems/rnas/1nyi

>  <Rbt.Executable>
rbdock ($Id: //depot/dev/client3/rdock/2013.1/src/exe/rbdock.cxx#4 $)

>  <Rbt.Library>
libRbt.so (2013.1, Build901 2013/11/27)

>  <Rbt.Parameter_File>
/export/apps/rDock/src/rDock_2013.1_src/data/scripts/dock_solv.prm

>  <Rbt.Receptor>
prm/pocket_docking_5.prm

>  <SCORE>
-7.49144

>  <SCORE.INTER>
-6.17912

>  <SCORE.INTER.CONST>
1

>  <SCORE.INTER.POLAR>
-0.618802

>  <SCORE.INTER.ROT>
2

>  <SCORE.INTER.SOLV>
13.9944

>  <SCORE.INTER.VDW>
-11.6549

>  <SCORE.INTER.norm>
-0.308956

>  <SCORE.INTRA>
-1.31232

>  <SCORE.INTRA.DIHEDRAL>
-2.2665

>  <SCORE.INTRA.DIHEDRAL.0>
3.72394

>  <SCORE.INTRA.POLAR>
0

>  <SCORE.INTRA.POLAR.0>
0

>  <SCORE.INTRA.REPUL>
0

>  <SCORE.INTRA.REPUL.0>
0

>  <SCORE.INTRA.SOLV>
0.410533

>  <SCORE.INTRA.SOLV.lig_0>
-49.4697

>  <SCORE.INTRA.VDW>
-0.384336

>  <SCORE.INTRA.VDW.0>
-0.896538

>  <SCORE.INTRA.norm>
-0.0656159

>  <SCORE.RESTR>
0

>  <SCORE.RESTR.CAVITY>
0

>  <SCORE.RESTR.norm>
0

>  <SCORE.SYSTEM>
0

>  <SCORE.SYSTEM.CONST>
0

>  <SCORE.SYSTEM.DIHEDRAL>
0

>  <SCORE.SYSTEM.SOLV>
0

>  <SCORE.SYSTEM.norm>
0

>  <SCORE.heavy>
20

>  <SCORE.norm>
-0.374572

>  <RMSD>
4.741

$$$$
1nyi_lig
 OpenBabel11021811403D
libRbt.so/2013.1/901 2013/11/27
 20 22  0  0  0  0  0  0  0  0999 V2000
   21.1837   -4.1573   39.8104 C   0  0  0  0  0  0  0  0  0  0  0  0
   20.1239   -3.2757   40.1814 O   0  0  0  0  0  0  0  0  0  0  0  0
   22.4613   -3.3881   39.5569 C   0  0  1  0  0  0  0  0  0  0  0  0
   22.8624   -2.7228   40.7852 O   0  0  0  0  0  0  0  0  0  0  0  0
   23.6251   -4.2966   39.1765 C   0  0  1  0  0  0  0  0  0  0  0  0
   23.7089   -4.4768   37.7620 O   0  0  0  0  0  0  0  0  0  0  0  0
   24.8213   -3.5553   39.7700 C   0  0  1  0  0  0  0  0  0  0  0  0
   25.2549   -2.4653   38.9704 O   0  0  0  0  0  0  0  0  0  0  0  0
   24.2179   -3.0421   41.0756 C   0  0  2  0  0  0  0  0  0  0  0  0
   22.7074   -7.4036   43.3525 N   0  0  0  0  0  0  0  0  0  0  0  0
   22.3315   -6.8754   42.1414 C   0  0  1  0  0  0  0  0  0  0  0  0
   21.4453   -7.5951   41.4516 N   0  0  0  0  0  0  0  0  0  0  0  0
   22.7867   -5.7278   41.6468 N   0  0  0  0  0  0  0  0  0  0  0  0
   23.6732   -5.1175   42.4865 C   0  0  1  0  0  0  0  0  0  0  0  0
   24.1125   -5.5675   43.7190 C   0  0  1  0  0  0  0  0  0  0  0  0
   23.6181   -6.8033   44.2216 C   0  0  0  0  0  0  0  0  0  0  0  0
   23.8912   -7.3661   45.2895 O   0  0  0  0  0  0  0  0  0  0  0  0
   25.0278   -4.6772   44.2655 N   0  0  0  0  0  0  0  0  0  0  0  0
   25.1204   -3.7226   43.3811 C   0  0  0  0  0  0  0  0  0  0  0  0
   24.3242   -3.9085   42.2722 N   0  0  1  0  0  0  0  0  0  0  0  0
  2  1  1  0  0  0  0
  3  1  1  1  0  0  0
  3  4  1  0  0  0  0
  3  5  1  0  0  0  0
  5  6  1  6  0  0  0
  5  7  1  0  0  0  0
  7  8  1  6  0  0  0
  7  9  1  0  0  0  0
  9  4  1  6  0  0  0
  9 20  1  0  0  0  0
 10 11  1  0  0  0  0
 11 12  1  1  0  0  0
 11 13  1  0  0  0  0
 14 13  1  6  0  0  0
 15 14  1  0  0  0  0
 15 16  1  6  0  0  0
 16 10  1  0  0  0  0
 16 17  2  0  0  0  0
 18 15  1  0  0  0  0
 19 18  1  0  0  0  0
 20 14  1  0  0  0  0
 20 19  1  6  0  0  0
M  END
>  <CHROM.1>
62.13670048,53.96480827,23.35016154,-4.77286170,41.52332978,1.65036534,-0.58803346
-0.93202477

>  <Name>
1nyi_lig

>  <RI>
0

>  <Rbt.Current_Directory>
/home/itssahil/PROJECTS/Mol_Feturizer/New_Systems/rnas/1nyi

>  <Rbt.Executable>
rbdock ($Id: //depot/dev/client3/rdock/2013.1/src/exe/rbdock.cxx#4 $)

>  <Rbt.Library>
libRbt.so (2013.1, Build901 2013/11/27)

>  <Rbt.Parameter_File>
/export/apps/rDock/src/rDock_2013.1_src/data/scripts/dock_solv.prm

>  <Rbt.Receptor>
prm/pocket_docking_6.prm

>  <SCORE>
-9.92476

>  <SCORE.INTER>
-8.53038

>  <SCORE.INTER.CONST>
1

>  <SCORE.INTER.POLAR>
-1.68122

>  <SCORE.INTER.ROT>
2

>  <SCORE.INTER.SOLV>
12.7891

>  <SCORE.INTER.VDW>
-9.27921

>  <SCORE.INTER.norm>
-0.426519

>  <SCORE.INTRA>
-1.53235

>  <SCORE.INTRA.DIHEDRAL>
-2.51688

>  <SCORE.INTRA.DIHEDRAL.0>
3.72394

>  <SCORE.INTRA.POLAR>
0

>  <SCORE.INTRA.POLAR.0>
0

>  <SCORE.INTRA.REPUL>
0

>  <SCORE.INTRA.REPUL.0>
0

>  <SCORE.INTRA.SOLV>
1.62999

>  <SCORE.INTRA.SOLV.lig_0>
-49.4697

>  <SCORE.INTRA.VDW>
-1.0889

>  <SCORE.INTRA.VDW.0>
-0.896538

>  <SCORE.INTRA.norm>
-0.0766173

>  <SCORE.RESTR>
0.13796

>  <SCORE.RESTR.CAVITY>
0.13796

>  <SCORE.RESTR.norm>
0.00689798

>  <SCORE.SYSTEM>
0

>  <SCORE.SYSTEM.CONST>
0

>  <SCORE.SYSTEM.DIHEDRAL>
0

>  <SCORE.SYSTEM.SOLV>
0

>  <SCORE.SYSTEM.norm>
0

>  <SCORE.heavy>
20

>  <SCORE.norm>
-0.496238

>  <RMSD>
4.746

$$$$
1nyi_lig
 OpenBabel11021811403D
libRbt.so/2013.1/901 2013/11/27
 20 22  0  0  0  0  0  0  0  0999 V2000
   21.4696   -4.3653   40.2732 C   0  0  0  0  0  0  0  0  0  0  0  0
   20.9024   -5.1035   39.1908 O   0  0  0  0  0  0  0  0  0  0  0  0
   22.6040   -3.4880   39.7919 C   0  0  1  0  0  0  0  0  0  0  0  0
   23.0991   -2.7025   40.9099 O   0  0  0  0  0  0  0  0  0  0  0  0
   23.7958   -4.2961   39.2907 C   0  0  1  0  0  0  0  0  0  0  0  0
   23.6968   -4.5631   37.8910 O   0  0  0  0  0  0  0  0  0  0  0  0
   24.9740   -3.3969   39.6593 C   0  0  1  0  0  0  0  0  0  0  0  0
   25.1647   -2.3253   38.7476 O   0  0  0  0  0  0  0  0  0  0  0  0
   24.5093   -2.8602   41.0113 C   0  0  2  0  0  0  0  0  0  0  0  0
   23.4215   -6.8788   44.0373 N   0  0  0  0  0  0  0  0  0  0  0  0
   22.7680   -6.4277   42.9163 C   0  0  1  0  0  0  0  0  0  0  0  0
   21.6937   -7.1315   42.5561 N   0  0  0  0  0  0  0  0  0  0  0  0
   23.1375   -5.3661   42.2056 N   0  0  0  0  0  0  0  0  0  0  0  0
   24.2457   -4.7582   42.7209 C   0  0  1  0  0  0  0  0  0  0  0  0
   24.9702   -5.1347   43.8381 C   0  0  1  0  0  0  0  0  0  0  0  0
   24.5604   -6.2803   44.5756 C   0  0  0  0  0  0  0  0  0  0  0  0
   25.0752   -6.7698   45.5890 O   0  0  0  0  0  0  0  0  0  0  0  0
   26.0439   -4.2760   44.0355 N   0  0  0  0  0  0  0  0  0  0  0  0
   25.9508   -3.4107   43.0637 C   0  0  0  0  0  0  0  0  0  0  0  0
   24.8812   -3.6271   42.2228 N   0  0  1  0  0  0  0  0  0  0  0  0
  2  1  1  0  0  0  0
  3  1  1  1  0  0  0
  3  4  1  0  0  0  0
  3  5  1  0  0  0  0
  5  6  1  6  0  0  0
  5  7  1  0  0  0  0
  7  8  1  6  0  0  0
  7  9  1  0  0  0  0
  9  4  1  6  0  0  0
  9 20  1  0  0  0  0
 10 11  1  0  0  0  0
 11 12  1  1  0  0  0
 11 13  1  0  0  0  0
 14 13  1  6  0  0  0
 15 14  1  0  0  0  0
 15 16  1  6  0  0  0
 16 10  1  0  0  0  0
 16 17  2  0  0  0  0
 18 15  1  0  0  0  0
 19 18  1  0  0  0  0
 20 14  1  0  0  0  0
 20 19  1  6  0  0  0
M  END
>  <CHROM.1>
176.83955860,41.72150094,23.83061406,-4.64141116,41.67145844,1.81663728,-0.59673894
-1.00537078

>  <Name>
1nyi_lig

>  <RI>
0

>  <Rbt.Current_Directory>
/home/itssahil/PROJECTS/Mol_Feturizer/New_Systems/rnas/1nyi

>  <Rbt.Executable>
rbdock ($Id: //depot/dev/client3/rdock/2013.1/src/exe/rbdock.cxx#4 $)

>  <Rbt.Library>
libRbt.so (2013.1, Build901 2013/11/27)

>  <Rbt.Parameter_File>
/export/apps/rDock/src/rDock_2013.1_src/data/scripts/dock_solv.prm

>  <Rbt.Receptor>
prm/pocket_docking_6.prm

>  <SCORE>
-10.2639

>  <SCORE.INTER>
-9.49822

>  <SCORE.INTER.CONST>
1

>  <SCORE.INTER.POLAR>
-1.52637

>  <SCORE.INTER.ROT>
2

>  <SCORE.INTER.SOLV>
10.0683

>  <SCORE.INTER.VDW>
-9.53371

>  <SCORE.INTER.norm>
-0.474911

>  <SCORE.INTRA>
-0.766313

>  <SCORE.INTRA.DIHEDRAL>
-2.54395

>  <SCORE.INTRA.DIHEDRAL.0>
3.72394

>  <SCORE.INTRA.POLAR>
0

>  <SCORE.INTRA.POLAR.0>
0

>  <SCORE.INTRA.REPUL>
0

>  <SCORE.INTRA.REPUL.0>
0

>  <SCORE.INTRA.SOLV>
2.26961

>  <SCORE.INTRA.SOLV.lig_0>
-49.4697

>  <SCORE.INTRA.VDW>
-0.629143

>  <SCORE.INTRA.VDW.0>
-0.896538

>  <SCORE.INTRA.norm>
-0.0383156

>  <SCORE.RESTR>
0.000681689

>  <SCORE.RESTR.CAVITY>
0.000681689

>  <SCORE.RESTR.norm>
3.40844e-05

>  <SCORE.SYSTEM>
0

>  <SCORE.SYSTEM.CONST>
0

>  <SCORE.SYSTEM.DIHEDRAL>
0

>  <SCORE.SYSTEM.SOLV>
0

>  <SCORE.SYSTEM.norm>
0

>  <SCORE.heavy>
20

>  <SCORE.norm>
-0.513193

>  <RMSD>
4.755

$$$$
1nyi_lig
 OpenBabel11021811403D
libRbt.so/2013.1/901 2013/11/27
 20 22  0  0  0  0  0  0  0  0999 V2000
   20.8152   -2.5037   40.7049 C   0  0  0  0  0  0  0  0  0  0  0  0
   20.3672   -1.4017   41.4942 O   0  0  0  0  0  0  0  0  0  0  0  0
   22.1803   -2.2254   40.1157 C   0  0  1  0  0  0  0  0  0  0  0  0
   23.1240   -2.0022   41.1982 O   0  0  0  0  0  0  0  0  0  0  0  0
   22.7273   -3.4078   39.3238 C   0  0  1  0  0  0  0  0  0  0  0  0
   22.3571   -3.3324   37.9463 O   0  0  0  0  0  0  0  0  0  0  0  0
   24.2315   -3.2868   39.5596 C   0  0  1  0  0  0  0  0  0  0  0  0
   24.8467   -2.3017   38.7432 O   0  0  0  0  0  0  0  0  0  0  0  0
   24.2549   -2.8471   41.0219 C   0  0  2  0  0  0  0  0  0  0  0  0
   22.1474   -7.1800   42.8310 N   0  0  0  0  0  0  0  0  0  0  0  0
   21.7642   -6.4010   41.7664 C   0  0  1  0  0  0  0  0  0  0  0  0
   20.6889   -6.8264   41.1017 N   0  0  0  0  0  0  0  0  0  0  0  0
   22.3856   -5.2886   41.3854 N   0  0  0  0  0  0  0  0  0  0  0  0
   23.4545   -4.9940   42.1815 C   0  0  1  0  0  0  0  0  0  0  0  0
   23.9171   -5.7120   43.2702 C   0  0  1  0  0  0  0  0  0  0  0  0
   23.2410   -6.9043   43.6515 C   0  0  0  0  0  0  0  0  0  0  0  0
   23.5028   -7.6748   44.5839 O   0  0  0  0  0  0  0  0  0  0  0  0
   25.0403   -5.1028   43.8147 N   0  0  0  0  0  0  0  0  0  0  0  0
   25.2309   -4.0482   43.0707 C   0  0  0  0  0  0  0  0  0  0  0  0
   24.3069   -3.9032   42.0591 N   0  0  1  0  0  0  0  0  0  0  0  0
  2  1  1  0  0  0  0
  3  1  1  1  0  0  0
  3  4  1  0  0  0  0
  3  5  1  0  0  0  0
  5  6  1  6  0  0  0
  5  7  1  0  0  0  0
  7  8  1  6  0  0  0
  7  9  1  0  0  0  0
  9  4  1  1  0  0  0
  9 20  1  0  0  0  0
 10 11  1  0  0  0  0
 11 12  1  1  0  0  0
 11 13  1  0  0  0  0
 14 13  1  6  0  0  0
 15 14  1  0  0  0  0
 15 16  1  6  0  0  0
 16 10  1  0  0  0  0
 16 17  2  0  0  0  0
 18 15  1  0  0  0  0
 19 18  1  0  0  0  0
 20 14  1  0  0  0  0
 20 19  1  6  0  0  0
M  END
>  <CHROM.1>
59.97829798,70.31020468,23.01631359,-4.31869927,41.46242432,1.67860040,-0.35369956
-0.68783781

>  <Name>
1nyi_lig

>  <RI>
0

>  <Rbt.Current_Directory>
/home/itssahil/PROJECTS/Mol_Feturizer/New_Systems/rnas/1nyi

>  <Rbt.Executable>
rbdock ($Id: //depot/dev/client3/rdock/2013.1/src/exe/rbdock.cxx#4 $)

>  <Rbt.Library>
libRbt.so (2013.1, Build901 2013/11/27)

>  <Rbt.Parameter_File>
/export/apps/rDock/src/rDock_2013.1_src/data/scripts/dock_solv.prm

>  <Rbt.Receptor>
prm/pocket_docking_6.prm

>  <SCORE>
-8.08808

>  <SCORE.INTER>
-6.43607

>  <SCORE.INTER.CONST>
1

>  <SCORE.INTER.POLAR>
-0.747889

>  <SCORE.INTER.ROT>
2

>  <SCORE.INTER.SOLV>
11.8561

>  <SCORE.INTER.VDW>
-10.6831

>  <SCORE.INTER.norm>
-0.321803

>  <SCORE.INTRA>
-1.65201

>  <SCORE.INTRA.DIHEDRAL>
-2.46358

>  <SCORE.INTRA.DIHEDRAL.0>
3.72394

>  <SCORE.INTRA.POLAR>
0

>  <SCORE.INTRA.POLAR.0>
0

>  <SCORE.INTRA.REPUL>
0

>  <SCORE.INTRA.REPUL.0>
0

>  <SCORE.INTRA.SOLV>
1.23501

>  <SCORE.INTRA.SOLV.lig_0>
-49.4697

>  <SCORE.INTRA.VDW>
-1.03772

>  <SCORE.INTRA.VDW.0>
-0.896538

>  <SCORE.INTRA.norm>
-0.0826004

>  <SCORE.RESTR>
0

>  <SCORE.RESTR.CAVITY>
0

>  <SCORE.RESTR.norm>
0

>  <SCORE.SYSTEM>
0

>  <SCORE.SYSTEM.CONST>
0

>  <SCORE.SYSTEM.DIHEDRAL>
0

>  <SCORE.SYSTEM.SOLV>
0

>  <SCORE.SYSTEM.norm>
0

>  <SCORE.heavy>
20

>  <SCORE.norm>
-0.404404

>  <RMSD>
4.794

$$$$
1nyi_lig
 OpenBabel11021811403D
libRbt.so/2013.1/901 2013/11/27
 20 22  0  0  0  0  0  0  0  0999 V2000
   29.8281   -6.5946   44.4973 C   0  0  0  0  0  0  0  0  0  0  0  0
   30.3874   -5.9081   45.6171 O   0  0  0  0  0  0  0  0  0  0  0  0
   28.7012   -7.5057   44.9310 C   0  0  1  0  0  0  0  0  0  0  0  0
   27.6815   -6.7107   45.5947 O   0  0  0  0  0  0  0  0  0  0  0  0
   28.0045   -8.1759   43.7520 C   0  0  1  0  0  0  0  0  0  0  0  0
   28.6061   -9.4313   43.4323 O   0  0  0  0  0  0  0  0  0  0  0  0
   26.5666   -8.2973   44.2526 C   0  0  1  0  0  0  0  0  0  0  0  0
   26.3752   -9.3886   45.1403 O   0  0  0  0  0  0  0  0  0  0  0  0
   26.4152   -6.9762   45.0035 C   0  0  2  0  0  0  0  0  0  0  0  0
   22.5966   -5.0276   42.1557 N   0  0  0  0  0  0  0  0  0  0  0  0
   22.7240   -6.2799   42.7060 C   0  0  1  0  0  0  0  0  0  0  0  0
   21.7121   -7.1162   42.4699 N   0  0  0  0  0  0  0  0  0  0  0  0
   23.7653   -6.6820   43.4289 N   0  0  0  0  0  0  0  0  0  0  0  0
   24.7118   -5.7072   43.5604 C   0  0  1  0  0  0  0  0  0  0  0  0
   24.6750   -4.4228   43.0468 C   0  0  1  0  0  0  0  0  0  0  0  0
   23.5451   -4.0135   42.2852 C   0  0  0  0  0  0  0  0  0  0  0  0
   23.3306   -2.9175   41.7518 O   0  0  0  0  0  0  0  0  0  0  0  0
   25.8173   -3.7201   43.4081 N   0  0  0  0  0  0  0  0  0  0  0  0
   26.5135   -4.5707   44.1107 C   0  0  0  0  0  0  0  0  0  0  0  0
   25.9168   -5.8051   44.2458 N   0  0  1  0  0  0  0  0  0  0  0  0
  2  1  1  0  0  0  0
  3  1  1  6  0  0  0
  3  4  1  0  0  0  0
  3  5  1  0  0  0  0
  5  6  1  1  0  0  0
  5  7  1  0  0  0  0
  7  8  1  1  0  0  0
  7  9  1  0  0  0  0
  9  4  1  6  0  0  0
  9 20  1  0  0  0  0
 10 11  1  0  0  0  0
 11 12  1  6  0  0  0
 11 13  1  0  0  0  0
 14 13  1  1  0  0  0
 15 14  1  0  0  0  0
 15 16  1  1  0  0  0
 16 10  1  0  0  0  0
 16 17  2  0  0  0  0
 18 15  1  0  0  0  0
 19 18  1  0  0  0  0
 20 14  1  0  0  0  0
 20 19  1  1  0  0  0
M  END
>  <CHROM.1>
58.48083055,-179.08817166,25.95775464,-6.28759876,43.79612503,-0.46524012
-0.33946990,-0.12290851

>  <Name>
1nyi_lig

>  <RI>
0

>  <Rbt.Current_Directory>
/home/itssahil/PROJECTS/Mol_Feturizer/New_Systems/rnas/1nyi

>  <Rbt.Executable>
rbdock ($Id: //depot/dev/client3/rdock/2013.1/src/exe/rbdock.cxx#4 $)

>  <Rbt.Library>
libRbt.so (2013.1, Build901 2013/11/27)

>  <Rbt.Parameter_File>
/export/apps/rDock/src/rDock_2013.1_src/data/scripts/dock_solv.prm

>  <Rbt.Receptor>
prm/pocket_docking_4.prm

>  <SCORE>
-8.60902

>  <SCORE.INTER>
-6.82265

>  <SCORE.INTER.CONST>
1

>  <SCORE.INTER.POLAR>
-0.748331

>  <SCORE.INTER.ROT>
2

>  <SCORE.INTER.SOLV>
10.4005

>  <SCORE.INTER.VDW>
-10.4542

>  <SCORE.INTER.norm>
-0.341133

>  <SCORE.INTRA>
-1.78679

>  <SCORE.INTRA.DIHEDRAL>
-2.49787

>  <SCORE.INTRA.DIHEDRAL.0>
3.72394

>  <SCORE.INTRA.POLAR>
0

>  <SCORE.INTRA.POLAR.0>
0

>  <SCORE.INTRA.REPUL>
0

>  <SCORE.INTRA.REPUL.0>
0

>  <SCORE.INTRA.SOLV>
-0.52896

>  <SCORE.INTRA.SOLV.lig_0>
-49.4697

>  <SCORE.INTRA.VDW>
-0.273374

>  <SCORE.INTRA.VDW.0>
-0.896538

>  <SCORE.INTRA.norm>
-0.0893395

>  <SCORE.RESTR>
0.000423791

>  <SCORE.RESTR.CAVITY>
0.000423791

>  <SCORE.RESTR.norm>
2.11896e-05

>  <SCORE.SYSTEM>
0

>  <SCORE.SYSTEM.CONST>
0

>  <SCORE.SYSTEM.DIHEDRAL>
0

>  <SCORE.SYSTEM.SOLV>
0

>  <SCORE.SYSTEM.norm>
0

>  <SCORE.heavy>
20

>  <SCORE.norm>
-0.430451

>  <RMSD>
4.883

$$$$
1nyi_lig
 OpenBabel11021811403D
libRbt.so/2013.1/901 2013/11/27
 20 22  0  0  0  0  0  0  0  0999 V2000
   27.4997   -5.6045   44.8984 C   0  0  0  0  0  0  0  0  0  0  0  0
   27.1218   -4.7650   43.8073 O   0  0  0  0  0  0  0  0  0  0  0  0
   26.6003   -6.8178   44.9821 C   0  0  1  0  0  0  0  0  0  0  0  0
   25.2336   -6.3767   45.2053 O   0  0  0  0  0  0  0  0  0  0  0  0
   26.5732   -7.6162   43.6835 C   0  0  1  0  0  0  0  0  0  0  0  0
   27.5780   -8.6314   43.6712 O   0  0  0  0  0  0  0  0  0  0  0  0
   25.1485   -8.1664   43.6719 C   0  0  1  0  0  0  0  0  0  0  0  0
   24.9810   -9.2989   44.5116 O   0  0  0  0  0  0  0  0  0  0  0  0
   24.3794   -6.9745   44.2375 C   0  0  2  0  0  0  0  0  0  0  0  0
   20.7048   -5.8005   40.8304 N   0  0  0  0  0  0  0  0  0  0  0  0
   20.8804   -6.9483   41.5646 C   0  0  1  0  0  0  0  0  0  0  0  0
   19.9670   -7.9003   41.3685 N   0  0  0  0  0  0  0  0  0  0  0  0
   21.8771   -7.1483   42.4221 N   0  0  0  0  0  0  0  0  0  0  0  0
   22.7243   -6.0801   42.4895 C   0  0  1  0  0  0  0  0  0  0  0  0
   22.6326   -4.8871   41.7945 C   0  0  1  0  0  0  0  0  0  0  0  0
   21.5511   -4.6936   40.8905 C   0  0  0  0  0  0  0  0  0  0  0  0
   21.3002   -3.7058   40.1884 O   0  0  0  0  0  0  0  0  0  0  0  0
   23.6742   -4.0375   42.1442 N   0  0  0  0  0  0  0  0  0  0  0  0
   24.3668   -4.7150   43.0177 C   0  0  0  0  0  0  0  0  0  0  0  0
   23.8623   -5.9699   43.2797 N   0  0  1  0  0  0  0  0  0  0  0  0
  2  1  1  0  0  0  0
  3  1  1  6  0  0  0
  3  4  1  0  0  0  0
  3  5  1  0  0  0  0
  5  6  1  1  0  0  0
  5  7  1  0  0  0  0
  7  8  1  1  0  0  0
  7  9  1  0  0  0  0
  9  4  1  1  0  0  0
  9 20  1  0  0  0  0
 10 11  1  0  0  0  0
 11 12  1  6  0  0  0
 11 13  1  0  0  0  0
 14 13  1  1  0  0  0
 15 14  1  0  0  0  0
 15 16  1  1  0  0  0
 16 10  1  0  0  0  0
 16 17  2  0  0  0  0
 18 15  1  0  0  0  0
 19 18  1  0  0  0  0
 20 14  1  0  0  0  0
 20 19  1  1  0  0  0
M  END
>  <CHROM.1>
-61.20893793,-158.47364754,23.99147664,-6.31524000,42.96020261,-0.36296443
-0.46591903,-0.26628665

>  <Name>
1nyi_lig

>  <RI>
0

>  <Rbt.Current_Directory>
/home/itssahil/PROJECTS/Mol_Feturizer/New_Systems/rnas/1nyi

>  <Rbt.Executable>
rbdock ($Id: //depot/dev/client3/rdock/2013.1/src/exe/rbdock.cxx#4 $)

>  <Rbt.Library>
libRbt.so (2013.1, Build901 2013/11/27)

>  <Rbt.Parameter_File>
/export/apps/rDock/src/rDock_2013.1_src/data/scripts/dock_solv.prm

>  <Rbt.Receptor>
prm/pocket_docking_6.prm

>  <SCORE>
-8.52702

>  <SCORE.INTER>
-7.2541

>  <SCORE.INTER.CONST>
1

>  <SCORE.INTER.POLAR>
-0.807131

>  <SCORE.INTER.ROT>
2

>  <SCORE.INTER.SOLV>
12.4938

>  <SCORE.INTER.VDW>
-11.2436

>  <SCORE.INTER.norm>
-0.362705

>  <SCORE.INTRA>
-1.27292

>  <SCORE.INTRA.DIHEDRAL>
-2.42321

>  <SCORE.INTRA.DIHEDRAL.0>
3.72394

>  <SCORE.INTRA.POLAR>
0

>  <SCORE.INTRA.POLAR.0>
0

>  <SCORE.INTRA.REPUL>
0

>  <SCORE.INTRA.REPUL.0>
0

>  <SCORE.INTRA.SOLV>
0.23904

>  <SCORE.INTRA.SOLV.lig_0>
-49.4697

>  <SCORE.INTRA.VDW>
-0.180837

>  <SCORE.INTRA.VDW.0>
-0.896538

>  <SCORE.INTRA.norm>
-0.0636461

>  <SCORE.RESTR>
0

>  <SCORE.RESTR.CAVITY>
0

>  <SCORE.RESTR.norm>
0

>  <SCORE.SYSTEM>
0

>  <SCORE.SYSTEM.CONST>
0

>  <SCORE.SYSTEM.DIHEDRAL>
0

>  <SCORE.SYSTEM.SOLV>
0

>  <SCORE.SYSTEM.norm>
0

>  <SCORE.heavy>
20

>  <SCORE.norm>
-0.426351

>  <RMSD>
4.908

$$$$
1nyi_lig
 OpenBabel11021811403D
libRbt.so/2013.1/901 2013/11/27
 20 22  0  0  0  0  0  0  0  0999 V2000
   29.4353   -6.3188   46.1888 C   0  0  0  0  0  0  0  0  0  0  0  0
   30.8339   -6.5626   46.0380 O   0  0  0  0  0  0  0  0  0  0  0  0
   28.6264   -7.5030   45.7076 C   0  0  1  0  0  0  0  0  0  0  0  0
   27.2154   -7.2272   45.9199 O   0  0  0  0  0  0  0  0  0  0  0  0
   28.7821   -7.7479   44.2108 C   0  0  1  0  0  0  0  0  0  0  0  0
   29.8575   -8.6469   43.9358 O   0  0  0  0  0  0  0  0  0  0  0  0
   27.4105   -8.3011   43.8294 C   0  0  1  0  0  0  0  0  0  0  0  0
   27.2509   -9.6728   44.1587 O   0  0  0  0  0  0  0  0  0  0  0  0
   26.5037   -7.4410   44.7069 C   0  0  2  0  0  0  0  0  0  0  0  0
   22.5957   -5.0236   42.3889 N   0  0  0  0  0  0  0  0  0  0  0  0
   22.7095   -6.3409   42.7620 C   0  0  1  0  0  0  0  0  0  0  0  0
   21.6550   -7.1091   42.4846 N   0  0  0  0  0  0  0  0  0  0  0  0
   23.7768   -6.8649   43.3578 N   0  0  0  0  0  0  0  0  0  0  0  0
   24.7648   -5.9437   43.5540 C   0  0  1  0  0  0  0  0  0  0  0  0
   24.7448   -4.6021   43.2155 C   0  0  1  0  0  0  0  0  0  0  0  0
   23.5872   -4.0633   42.5881 C   0  0  0  0  0  0  0  0  0  0  0  0
   23.3817   -2.9006   42.2170 O   0  0  0  0  0  0  0  0  0  0  0  0
   25.9319   -3.9866   43.5911 N   0  0  0  0  0  0  0  0  0  0  0  0
   26.6371   -4.9424   44.1306 C   0  0  0  0  0  0  0  0  0  0  0  0
   26.0044   -6.1661   44.1418 N   0  0  1  0  0  0  0  0  0  0  0  0
  2  1  1  0  0  0  0
  3  1  1  6  0  0  0
  3  4  1  0  0  0  0
  3  5  1  0  0  0  0
  5  6  1  1  0  0  0
  5  7  1  0  0  0  0
  7  8  1  1  0  0  0
  7  9  1  0  0  0  0
  9  4  1  1  0  0  0
  9 20  1  0  0  0  0
 10 11  1  0  0  0  0
 11 12  1  6  0  0  0
 11 13  1  0  0  0  0
 14 13  1  1  0  0  0
 15 14  1  0  0  0  0
 15 16  1  1  0  0  0
 16 10  1  0  0  0  0
 16 17  2  0  0  0  0
 18 15  1  0  0  0  0
 19 18  1  0  0  0  0
 20 14  1  0  0  0  0
 20 19  1  1  0  0  0
M  END
>  <CHROM.1>
178.18217104,-139.21310101,26.15740558,-6.39533802,43.98284460,-0.37701737
-0.39606479,0.00371313

>  <Name>
1nyi_lig

>  <RI>
0

>  <Rbt.Current_Directory>
/home/itssahil/PROJECTS/Mol_Feturizer/New_Systems/rnas/1nyi

>  <Rbt.Executable>
rbdock ($Id: //depot/dev/client3/rdock/2013.1/src/exe/rbdock.cxx#4 $)

>  <Rbt.Library>
libRbt.so (2013.1, Build901 2013/11/27)

>  <Rbt.Parameter_File>
/export/apps/rDock/src/rDock_2013.1_src/data/scripts/dock_solv.prm

>  <Rbt.Receptor>
prm/pocket_docking_5.prm

>  <SCORE>
-8.1882

>  <SCORE.INTER>
-6.22962

>  <SCORE.INTER.CONST>
1

>  <SCORE.INTER.POLAR>
-0.748331

>  <SCORE.INTER.ROT>
2

>  <SCORE.INTER.SOLV>
9.99661

>  <SCORE.INTER.VDW>
-9.92418

>  <SCORE.INTER.norm>
-0.311481

>  <SCORE.INTRA>
-1.95858

>  <SCORE.INTRA.DIHEDRAL>
-2.41617

>  <SCORE.INTRA.DIHEDRAL.0>
3.72394

>  <SCORE.INTRA.POLAR>
0

>  <SCORE.INTRA.POLAR.0>
0

>  <SCORE.INTRA.REPUL>
0

>  <SCORE.INTRA.REPUL.0>
0

>  <SCORE.INTRA.SOLV>
-0.648874

>  <SCORE.INTRA.SOLV.lig_0>
-49.4697

>  <SCORE.INTRA.VDW>
-0.426052

>  <SCORE.INTRA.VDW.0>
-0.896538

>  <SCORE.INTRA.norm>
-0.0979288

>  <SCORE.RESTR>
0

>  <SCORE.RESTR.CAVITY>
0

>  <SCORE.RESTR.norm>
0

>  <SCORE.SYSTEM>
0

>  <SCORE.SYSTEM.CONST>
0

>  <SCORE.SYSTEM.DIHEDRAL>
0

>  <SCORE.SYSTEM.SOLV>
0

>  <SCORE.SYSTEM.norm>
0

>  <SCORE.heavy>
20

>  <SCORE.norm>
-0.40941

>  <RMSD>
4.916

$$$$
1nyi_lig
 OpenBabel11021811403D
libRbt.so/2013.1/901 2013/11/27
 20 22  0  0  0  0  0  0  0  0999 V2000
   21.5127   -6.1164   43.2130 C   0  0  0  0  0  0  0  0  0  0  0  0
   22.1611   -7.3063   42.7638 O   0  0  0  0  0  0  0  0  0  0  0  0
   22.5261   -5.0510   43.5680 C   0  0  1  0  0  0  0  0  0  0  0  0
   23.4225   -5.5738   44.5855 O   0  0  0  0  0  0  0  0  0  0  0  0
   23.4129   -4.6710   42.3874 C   0  0  1  0  0  0  0  0  0  0  0  0
   22.8570   -3.5868   41.6419 O   0  0  0  0  0  0  0  0  0  0  0  0
   24.7338   -4.3274   43.0727 C   0  0  1  0  0  0  0  0  0  0  0  0
   24.7420   -3.0305   43.6502 O   0  0  0  0  0  0  0  0  0  0  0  0
   24.7701   -5.3907   44.1682 C   0  0  2  0  0  0  0  0  0  0  0  0
   29.1431   -8.1049   44.1775 N   0  0  0  0  0  0  0  0  0  0  0  0
   28.9236   -6.8015   44.5519 C   0  0  1  0  0  0  0  0  0  0  0  0
   29.9987   -6.1389   44.9812 N   0  0  0  0  0  0  0  0  0  0  0  0
   27.7415   -6.1938   44.5053 N   0  0  0  0  0  0  0  0  0  0  0  0
   26.7572   -7.0116   44.0306 C   0  0  1  0  0  0  0  0  0  0  0  0
   26.8782   -8.3307   43.6305 C   0  0  1  0  0  0  0  0  0  0  0  0
   28.1516   -8.9614   43.6996 C   0  0  0  0  0  0  0  0  0  0  0  0
   28.4555  -10.1212   43.3926 O   0  0  0  0  0  0  0  0  0  0  0  0
   25.6483   -8.8320   43.2239 N   0  0  0  0  0  0  0  0  0  0  0  0
   24.8243   -7.8317   43.3733 C   0  0  0  0  0  0  0  0  0  0  0  0
   25.4182   -6.6847   43.8525 N   0  0  1  0  0  0  0  0  0  0  0  0
  2  1  1  0  0  0  0
  3  1  1  6  0  0  0
  3  4  1  0  0  0  0
  3  5  1  0  0  0  0
  5  6  1  1  0  0  0
  5  7  1  0  0  0  0
  7  8  1  1  0  0  0
  7  9  1  0  0  0  0
  9  4  1  6  0  0  0
  9 20  1  0  0  0  0
 10 11  1  0  0  0  0
 11 12  1  6  0  0  0
 11 13  1  0  0  0  0
 14 13  1  1  0  0  0
 15 14  1  0  0  0  0
 15 16  1  1  0  0  0
 16 10  1  0  0  0  0
 16 17  2  0  0  0  0
 18 15  1  0  0  0  0
 19 18  1  0  0  0  0
 20 14  1  0  0  0  0
 20 19  1  1  0  0  0
M  END
>  <CHROM.1>
-57.46723262,-147.17657064,25.54457058,-6.47923299,43.60797279,2.65643519
-0.23456750,0.08257757

>  <Name>
1nyi_lig

>  <RI>
0

>  <Rbt.Current_Directory>
/home/itssahil/PROJECTS/Mol_Feturizer/New_Systems/rnas/1nyi

>  <Rbt.Executable>
rbdock ($Id: //depot/dev/client3/rdock/2013.1/src/exe/rbdock.cxx#4 $)

>  <Rbt.Library>
libRbt.so (2013.1, Build901 2013/11/27)

>  <Rbt.Parameter_File>
/export/apps/rDock/src/rDock_2013.1_src/data/scripts/dock_solv.prm

>  <Rbt.Receptor>
prm/pocket_docking_4.prm

>  <SCORE>
-11.6235

>  <SCORE.INTER>
-10.555

>  <SCORE.INTER.CONST>
1

>  <SCORE.INTER.POLAR>
-0.748331

>  <SCORE.INTER.ROT>
2

>  <SCORE.INTER.SOLV>
11.6719

>  <SCORE.INTER.VDW>
-13.3662

>  <SCORE.INTER.norm>
-0.527749

>  <SCORE.INTRA>
-1.0685

>  <SCORE.INTRA.DIHEDRAL>
-2.39082

>  <SCORE.INTRA.DIHEDRAL.0>
3.72394

>  <SCORE.INTRA.POLAR>
0

>  <SCORE.INTRA.POLAR.0>
0

>  <SCORE.INTRA.REPUL>
0

>  <SCORE.INTRA.REPUL.0>
0

>  <SCORE.INTRA.SOLV>
0.204784

>  <SCORE.INTRA.SOLV.lig_0>
-49.4697

>  <SCORE.INTRA.VDW>
0.0245135

>  <SCORE.INTRA.VDW.0>
-0.896538

>  <SCORE.INTRA.norm>
-0.0534252

>  <SCORE.RESTR>
0

>  <SCORE.RESTR.CAVITY>
0

>  <SCORE.RESTR.norm>
0

>  <SCORE.SYSTEM>
0

>  <SCORE.SYSTEM.CONST>
0

>  <SCORE.SYSTEM.DIHEDRAL>
0

>  <SCORE.SYSTEM.SOLV>
0

>  <SCORE.SYSTEM.norm>
0

>  <SCORE.heavy>
20

>  <SCORE.norm>
-0.581174

>  <RMSD>
4.932

$$$$
1nyi_lig
 OpenBabel11021811403D
libRbt.so/2013.1/901 2013/11/27
 20 22  0  0  0  0  0  0  0  0999 V2000
   28.3616   -5.9995   44.8282 C   0  0  0  0  0  0  0  0  0  0  0  0
   29.6135   -6.5998   44.4959 O   0  0  0  0  0  0  0  0  0  0  0  0
   27.2746   -7.0456   44.9400 C   0  0  1  0  0  0  0  0  0  0  0  0
   26.0202   -6.3885   45.2667 O   0  0  0  0  0  0  0  0  0  0  0  0
   27.0308   -7.7781   43.6252 C   0  0  1  0  0  0  0  0  0  0  0  0
   27.8441   -8.9474   43.5179 O   0  0  0  0  0  0  0  0  0  0  0  0
   25.5350   -8.0787   43.6952 C   0  0  1  0  0  0  0  0  0  0  0  0
   25.2284   -9.1975   44.5137 O   0  0  0  0  0  0  0  0  0  0  0  0
   25.0179   -6.7961   44.3431 C   0  0  2  0  0  0  0  0  0  0  0  0
   21.6180   -5.0893   40.8766 N   0  0  0  0  0  0  0  0  0  0  0  0
   21.6757   -6.3021   41.5192 C   0  0  1  0  0  0  0  0  0  0  0  0
   20.7113   -7.1668   41.2008 N   0  0  0  0  0  0  0  0  0  0  0  0
   22.6095   -6.6420   42.4031 N   0  0  0  0  0  0  0  0  0  0  0  0
   23.5227   -5.6468   42.6001 C   0  0  1  0  0  0  0  0  0  0  0  0
   23.5496   -4.3982   42.0042 C   0  0  1  0  0  0  0  0  0  0  0  0
   22.5334   -4.0549   41.0695 C   0  0  0  0  0  0  0  0  0  0  0  0
   22.3880   -2.9982   40.4418 O   0  0  0  0  0  0  0  0  0  0  0  0
   24.6266   -3.6570   42.4730 N   0  0  0  0  0  0  0  0  0  0  0  0
   25.2241   -4.4508   43.3183 C   0  0  0  0  0  0  0  0  0  0  0  0
   24.6220   -5.6830   43.4497 N   0  0  1  0  0  0  0  0  0  0  0  0
  2  1  1  0  0  0  0
  3  1  1  6  0  0  0
  3  4  1  0  0  0  0
  3  5  1  0  0  0  0
  5  6  1  1  0  0  0
  5  7  1  0  0  0  0
  7  8  1  1  0  0  0
  7  9  1  0  0  0  0
  9  4  1  1  0  0  0
  9 20  1  0  0  0  0
 10 11  1  0  0  0  0
 11 12  1  6  0  0  0
 11 13  1  0  0  0  0
 14 13  1  1  0  0  0
 15 14  1  0  0  0  0
 15 16  1  1  0  0  0
 16 10  1  0  0  0  0
 16 17  2  0  0  0  0
 18 15  1  0  0  0  0
 19 18  1  0  0  0  0
 20 14  1  0  0  0  0
 20 19  1  1  0  0  0
M  END
>  <CHROM.1>
-179.49361790,-167.70664551,24.81716051,-6.17420772,43.05972683,-0.48229593
-0.42582127,-0.24425336

>  <Name>
1nyi_lig

>  <RI>
0

>  <Rbt.Current_Directory>
/home/itssahil/PROJECTS/Mol_Feturizer/New_Systems/rnas/1nyi

>  <Rbt.Executable>
rbdock ($Id: //depot/dev/client3/rdock/2013.1/src/exe/rbdock.cxx#4 $)

>  <Rbt.Library>
libRbt.so (2013.1, Build901 2013/11/27)

>  <Rbt.Parameter_File>
/export/apps/rDock/src/rDock_2013.1_src/data/scripts/dock_solv.prm

>  <Rbt.Receptor>
prm/pocket_docking_4.prm

>  <SCORE>
-6.43148

>  <SCORE.INTER>
-4.69923

>  <SCORE.INTER.CONST>
1

>  <SCORE.INTER.POLAR>
0

>  <SCORE.INTER.ROT>
2

>  <SCORE.INTER.SOLV>
12.3051

>  <SCORE.INTER.VDW>
-12.1678

>  <SCORE.INTER.norm>
-0.234962

>  <SCORE.INTRA>
-1.73225

>  <SCORE.INTRA.DIHEDRAL>
-2.45436

>  <SCORE.INTRA.DIHEDRAL.0>
3.72394

>  <SCORE.INTRA.POLAR>
0

>  <SCORE.INTRA.POLAR.0>
0

>  <SCORE.INTRA.REPUL>
0

>  <SCORE.INTRA.REPUL.0>
0

>  <SCORE.INTRA.SOLV>
-0.45833

>  <SCORE.INTRA.SOLV.lig_0>
-49.4697

>  <SCORE.INTRA.VDW>
-0.275904

>  <SCORE.INTRA.VDW.0>
-0.896538

>  <SCORE.INTRA.norm>
-0.0866123

>  <SCORE.RESTR>
0

>  <SCORE.RESTR.CAVITY>
0

>  <SCORE.RESTR.norm>
0

>  <SCORE.SYSTEM>
0

>  <SCORE.SYSTEM.CONST>
0

>  <SCORE.SYSTEM.DIHEDRAL>
0

>  <SCORE.SYSTEM.SOLV>
0

>  <SCORE.SYSTEM.norm>
0

>  <SCORE.heavy>
20

>  <SCORE.norm>
-0.321574

>  <RMSD>
4.970

$$$$
1nyi_lig
 OpenBabel11021811403D
libRbt.so/2013.1/901 2013/11/27
 20 22  0  0  0  0  0  0  0  0999 V2000
   21.3199   -6.2479   43.2449 C   0  0  0  0  0  0  0  0  0  0  0  0
   21.9715   -7.4088   42.7294 O   0  0  0  0  0  0  0  0  0  0  0  0
   22.3166   -5.1395   43.5024 C   0  0  1  0  0  0  0  0  0  0  0  0
   23.2648   -5.5833   44.5104 O   0  0  0  0  0  0  0  0  0  0  0  0
   23.1473   -4.8021   42.2692 C   0  0  1  0  0  0  0  0  0  0  0  0
   22.5342   -3.7746   41.4892 O   0  0  0  0  0  0  0  0  0  0  0  0
   24.4834   -4.3885   42.8827 C   0  0  1  0  0  0  0  0  0  0  0  0
   24.4780   -3.0622   43.3893 O   0  0  0  0  0  0  0  0  0  0  0  0
   24.5902   -5.3893   44.0313 C   0  0  2  0  0  0  0  0  0  0  0  0
   29.0015   -8.0369   44.1704 N   0  0  0  0  0  0  0  0  0  0  0  0
   28.7584   -6.7269   44.5054 C   0  0  1  0  0  0  0  0  0  0  0  0
   29.8182   -6.0367   44.9291 N   0  0  0  0  0  0  0  0  0  0  0  0
   27.5684   -6.1384   44.4272 N   0  0  0  0  0  0  0  0  0  0  0  0
   26.6021   -6.9837   43.9636 C   0  0  1  0  0  0  0  0  0  0  0  0
   26.7473   -8.3115   43.6022 C   0  0  1  0  0  0  0  0  0  0  0  0
   28.0288   -8.9211   43.7045 C   0  0  0  0  0  0  0  0  0  0  0  0
   28.3533  -10.0843   43.4340 O   0  0  0  0  0  0  0  0  0  0  0  0
   25.5301   -8.8421   43.1947 N   0  0  0  0  0  0  0  0  0  0  0  0
   24.6898   -7.8504   43.3059 C   0  0  0  0  0  0  0  0  0  0  0  0
   25.2609   -6.6818   43.7599 N   0  0  1  0  0  0  0  0  0  0  0  0
  2  1  1  0  0  0  0
  3  1  1  6  0  0  0
  3  4  1  0  0  0  0
  3  5  1  0  0  0  0
  5  6  1  1  0  0  0
  5  7  1  0  0  0  0
  7  8  1  1  0  0  0
  7  9  1  0  0  0  0
  9  4  1  6  0  0  0
  9 20  1  0  0  0  0
 10 11  1  0  0  0  0
 11 12  1  6  0  0  0
 11 13  1  0  0  0  0
 14 13  1  1  0  0  0
 15 14  1  0  0  0  0
 15 16  1  1  0  0  0
 16 10  1  0  0  0  0
 16 17  2  0  0  0  0
 18 15  1  0  0  0  0
 19 18  1  0  0  0  0
 20 14  1  0  0  0  0
 20 19  1  1  0  0  0
M  END
>  <CHROM.1>
-62.26852666,-143.82220254,25.36285910,-6.49818373,43.53588918,2.68193478
-0.23225018,0.05757186

>  <Name>
1nyi_lig

>  <RI>
0

>  <Rbt.Current_Directory>
/home/itssahil/PROJECTS/Mol_Feturizer/New_Systems/rnas/1nyi

>  <Rbt.Executable>
rbdock ($Id: //depot/dev/client3/rdock/2013.1/src/exe/rbdock.cxx#4 $)

>  <Rbt.Library>
libRbt.so (2013.1, Build901 2013/11/27)

>  <Rbt.Parameter_File>
/export/apps/rDock/src/rDock_2013.1_src/data/scripts/dock_solv.prm

>  <Rbt.Receptor>
prm/pocket_docking_4.prm

>  <SCORE>
-11.5282

>  <SCORE.INTER>
-10.3449

>  <SCORE.INTER.CONST>
1

>  <SCORE.INTER.POLAR>
-0.748331

>  <SCORE.INTER.ROT>
2

>  <SCORE.INTER.SOLV>
12.031

>  <SCORE.INTER.VDW>
-13.3458

>  <SCORE.INTER.norm>
-0.517245

>  <SCORE.INTRA>
-1.18329

>  <SCORE.INTRA.DIHEDRAL>
-2.40245

>  <SCORE.INTRA.DIHEDRAL.0>
3.72394

>  <SCORE.INTRA.POLAR>
0

>  <SCORE.INTRA.POLAR.0>
0

>  <SCORE.INTRA.REPUL>
0

>  <SCORE.INTRA.REPUL.0>
0

>  <SCORE.INTRA.SOLV>
0.179007

>  <SCORE.INTRA.SOLV.lig_0>
-49.4697

>  <SCORE.INTRA.VDW>
-0.0715662

>  <SCORE.INTRA.VDW.0>
-0.896538

>  <SCORE.INTRA.norm>
-0.0591643

>  <SCORE.RESTR>
0

>  <SCORE.RESTR.CAVITY>
0

>  <SCORE.RESTR.norm>
0

>  <SCORE.SYSTEM>
0

>  <SCORE.SYSTEM.CONST>
0

>  <SCORE.SYSTEM.DIHEDRAL>
0

>  <SCORE.SYSTEM.SOLV>
0

>  <SCORE.SYSTEM.norm>
0

>  <SCORE.heavy>
20

>  <SCORE.norm>
-0.576409

>  <RMSD>
5.011

$$$$
1nyi_lig
 OpenBabel11021811403D
libRbt.so/2013.1/901 2013/11/27
 20 22  0  0  0  0  0  0  0  0999 V2000
   27.8723   -8.4418   43.8948 C   0  0  0  0  0  0  0  0  0  0  0  0
   26.6662   -9.0442   43.4252 O   0  0  0  0  0  0  0  0  0  0  0  0
   27.5855   -7.1257   44.5831 C   0  0  1  0  0  0  0  0  0  0  0  0
   26.8286   -6.2762   43.6788 O   0  0  0  0  0  0  0  0  0  0  0  0
   26.7153   -7.2923   45.8239 C   0  0  1  0  0  0  0  0  0  0  0  0
   27.5068   -7.4849   46.9972 O   0  0  0  0  0  0  0  0  0  0  0  0
   25.9142   -5.9919   45.8339 C   0  0  1  0  0  0  0  0  0  0  0  0
   26.6461   -4.8897   46.3487 O   0  0  0  0  0  0  0  0  0  0  0  0
   25.6612   -5.8030   44.3398 C   0  0  2  0  0  0  0  0  0  0  0  0
   21.8647   -5.3261   40.8977 N   0  0  0  0  0  0  0  0  0  0  0  0
   22.8975   -4.4664   41.1832 C   0  0  1  0  0  0  0  0  0  0  0  0
   22.9238   -3.3425   40.4655 N   0  0  0  0  0  0  0  0  0  0  0  0
   23.8305   -4.6903   42.1042 N   0  0  0  0  0  0  0  0  0  0  0  0
   23.6450   -5.8779   42.7511 C   0  0  1  0  0  0  0  0  0  0  0  0
   22.6417   -6.8063   42.5363 C   0  0  1  0  0  0  0  0  0  0  0  0
   21.6612   -6.5481   41.5381 C   0  0  0  0  0  0  0  0  0  0  0  0
   20.6995   -7.2507   41.2019 O   0  0  0  0  0  0  0  0  0  0  0  0
   22.7983   -7.8979   43.3806 N   0  0  0  0  0  0  0  0  0  0  0  0
   23.8626   -7.6171   44.0808 C   0  0  0  0  0  0  0  0  0  0  0  0
   24.4349   -6.4040   43.7664 N   0  0  1  0  0  0  0  0  0  0  0  0
  2  1  1  0  0  0  0
  3  1  1  6  0  0  0
  3  4  1  0  0  0  0
  3  5  1  0  0  0  0
  5  6  1  1  0  0  0
  5  7  1  0  0  0  0
  7  8  1  6  0  0  0
  7  9  1  0  0  0  0
  9  4  1  6  0  0  0
  9 20  1  0  0  0  0
 10 11  1  0  0  0  0
 11 12  1  1  0  0  0
 11 13  1  0  0  0  0
 14 13  1  6  0  0  0
 15 14  1  0  0  0  0
 15 16  1  6  0  0  0
 16 10  1  0  0  0  0
 16 17  2  0  0  0  0
 18 15  1  0  0  0  0
 19 18  1  0  0  0  0
 20 14  1  0  0  0  0
 20 19  1  6  0  0  0
M  END
>  <CHROM.1>
-54.46888612,-92.63569636,24.68153591,-6.45384872,43.47623157,0.29372093
0.65965841,3.03022249

>  <Name>
1nyi_lig

>  <RI>
0

>  <Rbt.Current_Directory>
/home/itssahil/PROJECTS/Mol_Feturizer/New_Systems/rnas/1nyi

>  <Rbt.Executable>
rbdock ($Id: //depot/dev/client3/rdock/2013.1/src/exe/rbdock.cxx#4 $)

>  <Rbt.Library>
libRbt.so (2013.1, Build901 2013/11/27)

>  <Rbt.Parameter_File>
/export/apps/rDock/src/rDock_2013.1_src/data/scripts/dock_solv.prm

>  <Rbt.Receptor>
prm/pocket_docking_7.prm

>  <SCORE>
-10.0365

>  <SCORE.INTER>
-8.28428

>  <SCORE.INTER.CONST>
1

>  <SCORE.INTER.POLAR>
-0.748331

>  <SCORE.INTER.ROT>
2

>  <SCORE.INTER.SOLV>
9.18025

>  <SCORE.INTER.VDW>
-11.0218

>  <SCORE.INTER.norm>
-0.414214

>  <SCORE.INTRA>
-1.75224

>  <SCORE.INTRA.DIHEDRAL>
-2.47281

>  <SCORE.INTRA.DIHEDRAL.0>
3.72394

>  <SCORE.INTRA.POLAR>
0

>  <SCORE.INTRA.POLAR.0>
0

>  <SCORE.INTRA.REPUL>
0

>  <SCORE.INTRA.REPUL.0>
0

>  <SCORE.INTRA.SOLV>
0.0875783

>  <SCORE.INTRA.SOLV.lig_0>
-49.4697

>  <SCORE.INTRA.VDW>
-0.559622

>  <SCORE.INTRA.VDW.0>
-0.896538

>  <SCORE.INTRA.norm>
-0.0876119

>  <SCORE.RESTR>
0

>  <SCORE.RESTR.CAVITY>
0

>  <SCORE.RESTR.norm>
0

>  <SCORE.SYSTEM>
0

>  <SCORE.SYSTEM.CONST>
0

>  <SCORE.SYSTEM.DIHEDRAL>
0

>  <SCORE.SYSTEM.SOLV>
0

>  <SCORE.SYSTEM.norm>
0

>  <SCORE.heavy>
20

>  <SCORE.norm>
-0.501826

>  <RMSD>
5.035

$$$$
1nyi_lig
 OpenBabel11021811403D
libRbt.so/2013.1/901 2013/11/27
 20 22  0  0  0  0  0  0  0  0999 V2000
   21.1619   -6.2753   43.4091 C   0  0  0  0  0  0  0  0  0  0  0  0
   21.8059   -7.3950   42.8011 O   0  0  0  0  0  0  0  0  0  0  0  0
   22.1430   -5.1466   43.6360 C   0  0  1  0  0  0  0  0  0  0  0  0
   23.1393   -5.5756   44.6032 O   0  0  0  0  0  0  0  0  0  0  0  0
   22.9175   -4.7825   42.3742 C   0  0  1  0  0  0  0  0  0  0  0  0
   22.2519   -3.7639   41.6261 O   0  0  0  0  0  0  0  0  0  0  0  0
   24.2669   -4.3431   42.9386 C   0  0  1  0  0  0  0  0  0  0  0  0
   24.2518   -3.0206   43.4548 O   0  0  0  0  0  0  0  0  0  0  0  0
   24.4404   -5.3488   44.0747 C   0  0  2  0  0  0  0  0  0  0  0  0
   28.8731   -7.9611   44.2017 N   0  0  0  0  0  0  0  0  0  0  0  0
   28.6110   -6.6671   44.5812 C   0  0  1  0  0  0  0  0  0  0  0  0
   29.6557   -5.9844   45.0520 N   0  0  0  0  0  0  0  0  0  0  0  0
   27.4172   -6.0864   44.5016 N   0  0  0  0  0  0  0  0  0  0  0  0
   26.4683   -6.9218   43.9869 C   0  0  1  0  0  0  0  0  0  0  0  0
   26.6332   -8.2336   43.5783 C   0  0  1  0  0  0  0  0  0  0  0  0
   27.9181   -8.8353   43.6832 C   0  0  0  0  0  0  0  0  0  0  0  0
   28.2589   -9.9846   43.3752 O   0  0  0  0  0  0  0  0  0  0  0  0
   25.4294   -8.7588   43.1266 N   0  0  0  0  0  0  0  0  0  0  0  0
   24.5777   -7.7794   43.2585 C   0  0  0  0  0  0  0  0  0  0  0  0
   25.1286   -6.6240   43.7680 N   0  0  1  0  0  0  0  0  0  0  0  0
  2  1  1  0  0  0  0
  3  1  1  6  0  0  0
  3  4  1  0  0  0  0
  3  5  1  0  0  0  0
  5  6  1  1  0  0  0
  5  7  1  0  0  0  0
  7  8  1  1  0  0  0
  7  9  1  0  0  0  0
  9  4  1  6  0  0  0
  9 20  1  0  0  0  0
 10 11  1  0  0  0  0
 11 12  1  6  0  0  0
 11 13  1  0  0  0  0
 14 13  1  1  0  0  0
 15 14  1  0  0  0  0
 15 16  1  1  0  0  0
 16 10  1  0  0  0  0
 16 17  2  0  0  0  0
 18 15  1  0  0  0  0
 19 18  1  0  0  0  0
 20 14  1  0  0  0  0
 20 19  1  1  0  0  0
M  END
>  <CHROM.1>
-65.04293807,-139.94229120,25.20625977,-6.45268124,43.58585984,2.70190682
-0.23214980,0.09361525

>  <Name>
1nyi_lig

>  <RI>
0

>  <Rbt.Current_Directory>
/home/itssahil/PROJECTS/Mol_Feturizer/New_Systems/rnas/1nyi

>  <Rbt.Executable>
rbdock ($Id: //depot/dev/client3/rdock/2013.1/src/exe/rbdock.cxx#4 $)

>  <Rbt.Library>
libRbt.so (2013.1, Build901 2013/11/27)

>  <Rbt.Parameter_File>
/export/apps/rDock/src/rDock_2013.1_src/data/scripts/dock_solv.prm

>  <Rbt.Receptor>
prm/pocket_docking_5.prm

>  <SCORE>
-11.419

>  <SCORE.INTER>
-10.2005

>  <SCORE.INTER.CONST>
1

>  <SCORE.INTER.POLAR>
-0.748331

>  <SCORE.INTER.ROT>
2

>  <SCORE.INTER.SOLV>
11.6401

>  <SCORE.INTER.VDW>
-13.1193

>  <SCORE.INTER.norm>
-0.510026

>  <SCORE.INTRA>
-1.2185

>  <SCORE.INTRA.DIHEDRAL>
-2.33883

>  <SCORE.INTRA.DIHEDRAL.0>
3.72394

>  <SCORE.INTRA.POLAR>
0

>  <SCORE.INTRA.POLAR.0>
0

>  <SCORE.INTRA.REPUL>
0

>  <SCORE.INTRA.REPUL.0>
0

>  <SCORE.INTRA.SOLV>
0.155549

>  <SCORE.INTRA.SOLV.lig_0>
-49.4697

>  <SCORE.INTRA.VDW>
-0.12686

>  <SCORE.INTRA.VDW.0>
-0.896538

>  <SCORE.INTRA.norm>
-0.060925

>  <SCORE.RESTR>
0

>  <SCORE.RESTR.CAVITY>
0

>  <SCORE.RESTR.norm>
0

>  <SCORE.SYSTEM>
0

>  <SCORE.SYSTEM.CONST>
0

>  <SCORE.SYSTEM.DIHEDRAL>
0

>  <SCORE.SYSTEM.SOLV>
0

>  <SCORE.SYSTEM.norm>
0

>  <SCORE.heavy>
20

>  <SCORE.norm>
-0.570951

>  <RMSD>
5.037

$$$$
1nyi_lig
 OpenBabel11021811403D
libRbt.so/2013.1/901 2013/11/27
 20 22  0  0  0  0  0  0  0  0999 V2000
   21.2313   -6.3076   43.1397 C   0  0  0  0  0  0  0  0  0  0  0  0
   21.9318   -7.4718   42.7016 O   0  0  0  0  0  0  0  0  0  0  0  0
   22.1924   -5.1744   43.4229 C   0  0  1  0  0  0  0  0  0  0  0  0
   23.1255   -5.5949   44.4548 O   0  0  0  0  0  0  0  0  0  0  0  0
   23.0457   -4.8149   42.2116 C   0  0  1  0  0  0  0  0  0  0  0  0
   22.4268   -3.8025   41.4164 O   0  0  0  0  0  0  0  0  0  0  0  0
   24.3546   -4.3680   42.8593 C   0  0  1  0  0  0  0  0  0  0  0  0
   24.3025   -3.0428   43.3659 O   0  0  0  0  0  0  0  0  0  0  0  0
   24.4574   -5.3668   44.0099 C   0  0  2  0  0  0  0  0  0  0  0  0
   28.9546   -7.8656   44.1516 N   0  0  0  0  0  0  0  0  0  0  0  0
   28.6719   -6.5582   44.4648 C   0  0  1  0  0  0  0  0  0  0  0  0
   29.7125   -5.8259   44.8645 N   0  0  0  0  0  0  0  0  0  0  0  0
   27.4624   -6.0105   44.3883 N   0  0  0  0  0  0  0  0  0  0  0  0
   26.5199   -6.8956   43.9506 C   0  0  1  0  0  0  0  0  0  0  0  0
   26.7051   -8.2245   43.6123 C   0  0  1  0  0  0  0  0  0  0  0  0
   28.0069   -8.7897   43.7125 C   0  0  0  0  0  0  0  0  0  0  0  0
   28.3668   -9.9467   43.4601 O   0  0  0  0  0  0  0  0  0  0  0  0
   25.5020   -8.8022   43.2276 N   0  0  0  0  0  0  0  0  0  0  0  0
   24.6307   -7.8366   43.3292 C   0  0  0  0  0  0  0  0  0  0  0  0
   25.1675   -6.6415   43.7555 N   0  0  1  0  0  0  0  0  0  0  0  0
  2  1  1  0  0  0  0
  3  1  1  6  0  0  0
  3  4  1  0  0  0  0
  3  5  1  0  0  0  0
  5  6  1  1  0  0  0
  5  7  1  0  0  0  0
  7  8  1  1  0  0  0
  7  9  1  0  0  0  0
  9  4  1  6  0  0  0
  9 20  1  0  0  0  0
 10 11  1  0  0  0  0
 11 12  1  6  0  0  0
 11 13  1  0  0  0  0
 14 13  1  1  0  0  0
 15 14  1  0  0  0  0
 15 16  1  1  0  0  0
 16 10  1  0  0  0  0
 16 17  2  0  0  0  0
 18 15  1  0  0  0  0
 19 18  1  0  0  0  0
 20 14  1  0  0  0  0
 20 19  1  1  0  0  0
M  END
>  <CHROM.1>
-59.48844493,-146.19534454,25.27778617,-6.44666452,43.50831136,2.70865822
-0.23074253,0.04803774

>  <Name>
1nyi_lig

>  <RI>
0

>  <Rbt.Current_Directory>
/home/itssahil/PROJECTS/Mol_Feturizer/New_Systems/rnas/1nyi

>  <Rbt.Executable>
rbdock ($Id: //depot/dev/client3/rdock/2013.1/src/exe/rbdock.cxx#4 $)

>  <Rbt.Library>
libRbt.so (2013.1, Build901 2013/11/27)

>  <Rbt.Parameter_File>
/export/apps/rDock/src/rDock_2013.1_src/data/scripts/dock_solv.prm

>  <Rbt.Receptor>
prm/pocket_docking_4.prm

>  <SCORE>
-11.5039

>  <SCORE.INTER>
-10.3773

>  <SCORE.INTER.CONST>
1

>  <SCORE.INTER.POLAR>
-0.748331

>  <SCORE.INTER.ROT>
2

>  <SCORE.INTER.SOLV>
12.1729

>  <SCORE.INTER.VDW>
-13.4147

>  <SCORE.INTER.norm>
-0.518864

>  <SCORE.INTRA>
-1.1266

>  <SCORE.INTRA.DIHEDRAL>
-2.41526

>  <SCORE.INTRA.DIHEDRAL.0>
3.72394

>  <SCORE.INTRA.POLAR>
0

>  <SCORE.INTRA.POLAR.0>
0

>  <SCORE.INTRA.REPUL>
0

>  <SCORE.INTRA.REPUL.0>
0

>  <SCORE.INTRA.SOLV>
0.196492

>  <SCORE.INTRA.SOLV.lig_0>
-49.4697

>  <SCORE.INTRA.VDW>
-0.0172157

>  <SCORE.INTRA.VDW.0>
-0.896538

>  <SCORE.INTRA.norm>
-0.0563301

>  <SCORE.RESTR>
0

>  <SCORE.RESTR.CAVITY>
0

>  <SCORE.RESTR.norm>
0

>  <SCORE.SYSTEM>
0

>  <SCORE.SYSTEM.CONST>
0

>  <SCORE.SYSTEM.DIHEDRAL>
0

>  <SCORE.SYSTEM.SOLV>
0

>  <SCORE.SYSTEM.norm>
0

>  <SCORE.heavy>
20

>  <SCORE.norm>
-0.575194

>  <RMSD>
5.050

$$$$
1nyi_lig
 OpenBabel11021811403D
libRbt.so/2013.1/901 2013/11/27
 20 22  0  0  0  0  0  0  0  0999 V2000
   27.9077   -8.4909   43.7535 C   0  0  0  0  0  0  0  0  0  0  0  0
   26.6959   -9.0595   43.2572 O   0  0  0  0  0  0  0  0  0  0  0  0
   27.6315   -7.2153   44.5181 C   0  0  1  0  0  0  0  0  0  0  0  0
   26.8616   -6.3172   43.6738 O   0  0  0  0  0  0  0  0  0  0  0  0
   26.7797   -7.4511   45.7604 C   0  0  1  0  0  0  0  0  0  0  0  0
   27.5883   -7.7084   46.9094 O   0  0  0  0  0  0  0  0  0  0  0  0
   25.9792   -6.1538   45.8547 C   0  0  1  0  0  0  0  0  0  0  0  0
   26.7190   -5.0816   46.4192 O   0  0  0  0  0  0  0  0  0  0  0  0
   25.7042   -5.8821   44.3773 C   0  0  2  0  0  0  0  0  0  0  0  0
   21.9548   -5.3000   40.9000 N   0  0  0  0  0  0  0  0  0  0  0  0
   23.0053   -4.4668   41.1991 C   0  0  1  0  0  0  0  0  0  0  0  0
   23.0660   -3.3411   40.4862 N   0  0  0  0  0  0  0  0  0  0  0  0
   23.9234   -4.7168   42.1283 N   0  0  0  0  0  0  0  0  0  0  0  0
   23.7026   -5.9019   42.7687 C   0  0  1  0  0  0  0  0  0  0  0  0
   22.6792   -6.8048   42.5403 C   0  0  1  0  0  0  0  0  0  0  0  0
   21.7153   -6.5191   41.5336 C   0  0  0  0  0  0  0  0  0  0  0  0
   20.7401   -7.1967   41.1851 O   0  0  0  0  0  0  0  0  0  0  0  0
   22.8008   -7.9031   43.3818 N   0  0  0  0  0  0  0  0  0  0  0  0
   23.8647   -7.6509   44.0935 C   0  0  0  0  0  0  0  0  0  0  0  0
   24.4693   -6.4509   43.7895 N   0  0  1  0  0  0  0  0  0  0  0  0
  2  1  1  0  0  0  0
  3  1  1  6  0  0  0
  3  4  1  0  0  0  0
  3  5  1  0  0  0  0
  5  6  1  1  0  0  0
  5  7  1  0  0  0  0
  7  8  1  6  0  0  0
  7  9  1  0  0  0  0
  9  4  1  6  0  0  0
  9 20  1  0  0  0  0
 10 11  1  0  0  0  0
 11 12  1  1  0  0  0
 11 13  1  0  0  0  0
 14 13  1  6  0  0  0
 15 14  1  0  0  0  0
 15 16  1  6  0  0  0
 16 10  1  0  0  0  0
 16 17  2  0  0  0  0
 18 15  1  0  0  0  0
 19 18  1  0  0  0  0
 20 14  1  0  0  0  0
 20 19  1  6  0  0  0
M  END
>  <CHROM.1>
-53.87547693,-89.05928248,24.73792846,-6.50675382,43.45989577,0.32246138
0.65052772,3.01639618

>  <Name>
1nyi_lig

>  <RI>
0

>  <Rbt.Current_Directory>
/home/itssahil/PROJECTS/Mol_Feturizer/New_Systems/rnas/1nyi

>  <Rbt.Executable>
rbdock ($Id: //depot/dev/client3/rdock/2013.1/src/exe/rbdock.cxx#4 $)

>  <Rbt.Library>
libRbt.so (2013.1, Build901 2013/11/27)

>  <Rbt.Parameter_File>
/export/apps/rDock/src/rDock_2013.1_src/data/scripts/dock_solv.prm

>  <Rbt.Receptor>
prm/pocket_docking_6.prm

>  <SCORE>
-10.0449

>  <SCORE.INTER>
-8.29427

>  <SCORE.INTER.CONST>
1

>  <SCORE.INTER.POLAR>
-0.748197

>  <SCORE.INTER.ROT>
2

>  <SCORE.INTER.SOLV>
9.70776

>  <SCORE.INTER.VDW>
-11.2048

>  <SCORE.INTER.norm>
-0.414714

>  <SCORE.INTRA>
-1.75061

>  <SCORE.INTRA.DIHEDRAL>
-2.44971

>  <SCORE.INTRA.DIHEDRAL.0>
3.72394

>  <SCORE.INTRA.POLAR>
0

>  <SCORE.INTRA.POLAR.0>
0

>  <SCORE.INTRA.REPUL>
0

>  <SCORE.INTRA.REPUL.0>
0

>  <SCORE.INTRA.SOLV>
0.0880824

>  <SCORE.INTRA.SOLV.lig_0>
-49.4697

>  <SCORE.INTRA.VDW>
-0.569796

>  <SCORE.INTRA.VDW.0>
-0.896538

>  <SCORE.INTRA.norm>
-0.0875305

>  <SCORE.RESTR>
0

>  <SCORE.RESTR.CAVITY>
0

>  <SCORE.RESTR.norm>
0

>  <SCORE.SYSTEM>
0

>  <SCORE.SYSTEM.CONST>
0

>  <SCORE.SYSTEM.DIHEDRAL>
0

>  <SCORE.SYSTEM.SOLV>
0

>  <SCORE.SYSTEM.norm>
0

>  <SCORE.heavy>
20

>  <SCORE.norm>
-0.502244

>  <RMSD>
5.057

$$$$
1nyi_lig
 OpenBabel11021811403D
libRbt.so/2013.1/901 2013/11/27
 20 22  0  0  0  0  0  0  0  0999 V2000
   21.3247   -6.3853   43.3025 C   0  0  0  0  0  0  0  0  0  0  0  0
   22.0055   -7.5091   42.7444 O   0  0  0  0  0  0  0  0  0  0  0  0
   22.2897   -5.2544   43.5819 C   0  0  1  0  0  0  0  0  0  0  0  0
   23.2572   -5.6945   44.5731 O   0  0  0  0  0  0  0  0  0  0  0  0
   23.1021   -4.8620   42.3528 C   0  0  1  0  0  0  0  0  0  0  0  0
   22.4538   -3.8341   41.6022 O   0  0  0  0  0  0  0  0  0  0  0  0
   24.4293   -4.4240   42.9689 C   0  0  1  0  0  0  0  0  0  0  0  0
   24.3878   -3.1114   43.5084 O   0  0  0  0  0  0  0  0  0  0  0  0
   24.5731   -5.4493   44.0914 C   0  0  2  0  0  0  0  0  0  0  0  0
   29.0629   -7.9649   44.1343 N   0  0  0  0  0  0  0  0  0  0  0  0
   28.7833   -6.6713   44.5025 C   0  0  1  0  0  0  0  0  0  0  0  0
   29.8253   -5.9597   44.9348 N   0  0  0  0  0  0  0  0  0  0  0  0
   27.5756   -6.1173   44.4473 N   0  0  0  0  0  0  0  0  0  0  0  0
   26.6314   -6.9802   43.9706 C   0  0  1  0  0  0  0  0  0  0  0  0
   26.8134   -8.2940   43.5762 C   0  0  1  0  0  0  0  0  0  0  0  0
   28.1134   -8.8668   43.6545 C   0  0  0  0  0  0  0  0  0  0  0  0
   28.4705  -10.0129   43.3536 O   0  0  0  0  0  0  0  0  0  0  0  0
   25.6095   -8.8512   43.1651 N   0  0  0  0  0  0  0  0  0  0  0  0
   24.7407   -7.8883   43.3063 C   0  0  0  0  0  0  0  0  0  0  0  0
   25.2801   -6.7141   43.7842 N   0  0  1  0  0  0  0  0  0  0  0  0
  2  1  1  0  0  0  0
  3  1  1  6  0  0  0
  3  4  1  0  0  0  0
  3  5  1  0  0  0  0
  5  6  1  1  0  0  0
  5  7  1  0  0  0  0
  7  8  1  1  0  0  0
  7  9  1  0  0  0  0
  9  4  1  6  0  0  0
  9 20  1  0  0  0  0
 10 11  1  0  0  0  0
 11 12  1  6  0  0  0
 11 13  1  0  0  0  0
 14 13  1  1  0  0  0
 15 14  1  0  0  0  0
 15 16  1  1  0  0  0
 16 10  1  0  0  0  0
 16 17  2  0  0  0  0
 18 15  1  0  0  0  0
 19 18  1  0  0  0  0
 20 14  1  0  0  0  0
 20 19  1  1  0  0  0
M  END
>  <CHROM.1>
-62.73885250,-143.93425800,25.37533524,-6.52132722,43.56223709,2.71218107
-0.22345789,0.08920375

>  <Name>
1nyi_lig

>  <RI>
0

>  <Rbt.Current_Directory>
/home/itssahil/PROJECTS/Mol_Feturizer/New_Systems/rnas/1nyi

>  <Rbt.Executable>
rbdock ($Id: //depot/dev/client3/rdock/2013.1/src/exe/rbdock.cxx#4 $)

>  <Rbt.Library>
libRbt.so (2013.1, Build901 2013/11/27)

>  <Rbt.Parameter_File>
/export/apps/rDock/src/rDock_2013.1_src/data/scripts/dock_solv.prm

>  <Rbt.Receptor>
prm/pocket_docking_4.prm

>  <SCORE>
-11.5545

>  <SCORE.INTER>
-10.3655

>  <SCORE.INTER.CONST>
1

>  <SCORE.INTER.POLAR>
-0.748331

>  <SCORE.INTER.ROT>
2

>  <SCORE.INTER.SOLV>
12.0884

>  <SCORE.INTER.VDW>
-13.3786

>  <SCORE.INTER.norm>
-0.518273

>  <SCORE.INTRA>
-1.18905

>  <SCORE.INTRA.DIHEDRAL>
-2.39435

>  <SCORE.INTRA.DIHEDRAL.0>
3.72394

>  <SCORE.INTRA.POLAR>
0

>  <SCORE.INTRA.POLAR.0>
0

>  <SCORE.INTRA.REPUL>
0

>  <SCORE.INTRA.REPUL.0>
0

>  <SCORE.INTRA.SOLV>
0.177721

>  <SCORE.INTRA.SOLV.lig_0>
-49.4697

>  <SCORE.INTRA.VDW>
-0.0807394

>  <SCORE.INTRA.VDW.0>
-0.896538

>  <SCORE.INTRA.norm>
-0.0594526

>  <SCORE.RESTR>
0

>  <SCORE.RESTR.CAVITY>
0

>  <SCORE.RESTR.norm>
0

>  <SCORE.SYSTEM>
0

>  <SCORE.SYSTEM.CONST>
0

>  <SCORE.SYSTEM.DIHEDRAL>
0

>  <SCORE.SYSTEM.SOLV>
0

>  <SCORE.SYSTEM.norm>
0

>  <SCORE.heavy>
20

>  <SCORE.norm>
-0.577725

>  <RMSD>
5.069

$$$$
1nyi_lig
 OpenBabel11021811403D
libRbt.so/2013.1/901 2013/11/27
 20 22  0  0  0  0  0  0  0  0999 V2000
   29.8419   -6.9363   44.6874 C   0  0  0  0  0  0  0  0  0  0  0  0
   30.3448   -6.4163   45.9181 O   0  0  0  0  0  0  0  0  0  0  0  0
   28.6978   -7.8946   44.9343 C   0  0  1  0  0  0  0  0  0  0  0  0
   27.6256   -7.1839   45.6108 O   0  0  0  0  0  0  0  0  0  0  0  0
   28.0923   -8.4278   43.6406 C   0  0  1  0  0  0  0  0  0  0  0  0
   28.7287   -9.6366   43.2232 O   0  0  0  0  0  0  0  0  0  0  0  0
   26.6246   -8.6102   44.0217 C   0  0  1  0  0  0  0  0  0  0  0  0
   26.3840   -9.7964   44.7637 O   0  0  0  0  0  0  0  0  0  0  0  0
   26.4065   -7.3841   44.9056 C   0  0  2  0  0  0  0  0  0  0  0  0
   22.6161   -5.0372   42.3337 N   0  0  0  0  0  0  0  0  0  0  0  0
   22.6933   -6.3322   42.7856 C   0  0  1  0  0  0  0  0  0  0  0  0
   21.6327   -7.0965   42.5210 N   0  0  0  0  0  0  0  0  0  0  0  0
   23.7322   -6.8394   43.4430 N   0  0  0  0  0  0  0  0  0  0  0  0
   24.7317   -5.9260   43.6157 C   0  0  1  0  0  0  0  0  0  0  0  0
   24.7478   -4.6064   43.1998 C   0  0  1  0  0  0  0  0  0  0  0  0
   23.6199   -4.0846   42.5073 C   0  0  0  0  0  0  0  0  0  0  0  0
   23.4481   -2.9421   42.0635 O   0  0  0  0  0  0  0  0  0  0  0  0
   25.9351   -3.9911   43.5751 N   0  0  0  0  0  0  0  0  0  0  0  0
   26.6054   -4.9261   44.1902 C   0  0  0  0  0  0  0  0  0  0  0  0
   25.9489   -6.1357   44.2528 N   0  0  1  0  0  0  0  0  0  0  0  0
  2  1  1  0  0  0  0
  3  1  1  6  0  0  0
  3  4  1  0  0  0  0
  3  5  1  0  0  0  0
  5  6  1  1  0  0  0
  5  7  1  0  0  0  0
  7  8  1  1  0  0  0
  7  9  1  0  0  0  0
  9  4  1  6  0  0  0
  9 20  1  0  0  0  0
 10 11  1  0  0  0  0
 11 12  1  6  0  0  0
 11 13  1  0  0  0  0
 14 13  1  1  0  0  0
 15 14  1  0  0  0  0
 15 16  1  1  0  0  0
 16 10  1  0  0  0  0
 16 17  2  0  0  0  0
 18 15  1  0  0  0  0
 19 18  1  0  0  0  0
 20 14  1  0  0  0  0
 20 19  1  1  0  0  0
M  END
>  <CHROM.1>
60.50837985,-172.05347141,25.98667773,-6.53890423,43.83539315,-0.48175471
-0.34437674,-0.04337068

>  <Name>
1nyi_lig

>  <RI>
0

>  <Rbt.Current_Directory>
/home/itssahil/PROJECTS/Mol_Feturizer/New_Systems/rnas/1nyi

>  <Rbt.Executable>
rbdock ($Id: //depot/dev/client3/rdock/2013.1/src/exe/rbdock.cxx#4 $)

>  <Rbt.Library>
libRbt.so (2013.1, Build901 2013/11/27)

>  <Rbt.Parameter_File>
/export/apps/rDock/src/rDock_2013.1_src/data/scripts/dock_solv.prm

>  <Rbt.Receptor>
prm/pocket_docking_6.prm

>  <SCORE>
-9.15581

>  <SCORE.INTER>
-7.31522

>  <SCORE.INTER.CONST>
1

>  <SCORE.INTER.POLAR>
-0.748331

>  <SCORE.INTER.ROT>
2

>  <SCORE.INTER.SOLV>
10.3802

>  <SCORE.INTER.VDW>
-10.7758

>  <SCORE.INTER.norm>
-0.365761

>  <SCORE.INTRA>
-1.84059

>  <SCORE.INTRA.DIHEDRAL>
-2.47198

>  <SCORE.INTRA.DIHEDRAL.0>
3.72394

>  <SCORE.INTRA.POLAR>
0

>  <SCORE.INTRA.POLAR.0>
0

>  <SCORE.INTRA.REPUL>
0

>  <SCORE.INTRA.REPUL.0>
0

>  <SCORE.INTRA.SOLV>
-0.619507

>  <SCORE.INTRA.SOLV.lig_0>
-49.4697

>  <SCORE.INTRA.VDW>
-0.294844

>  <SCORE.INTRA.VDW.0>
-0.896538

>  <SCORE.INTRA.norm>
-0.0920293

>  <SCORE.RESTR>
0

>  <SCORE.RESTR.CAVITY>
0

>  <SCORE.RESTR.norm>
0

>  <SCORE.SYSTEM>
0

>  <SCORE.SYSTEM.CONST>
0

>  <SCORE.SYSTEM.DIHEDRAL>
0

>  <SCORE.SYSTEM.SOLV>
0

>  <SCORE.SYSTEM.norm>
0

>  <SCORE.heavy>
20

>  <SCORE.norm>
-0.45779

>  <RMSD>
5.078

$$$$
1nyi_lig
 OpenBabel11021811403D
libRbt.so/2013.1/901 2013/11/27
 20 22  0  0  0  0  0  0  0  0999 V2000
   27.6958   -6.0083   44.4349 C   0  0  0  0  0  0  0  0  0  0  0  0
   27.8985   -5.1431   45.5522 O   0  0  0  0  0  0  0  0  0  0  0  0
   26.6534   -7.0587   44.7483 C   0  0  1  0  0  0  0  0  0  0  0  0
   25.3974   -6.3975   45.0607 O   0  0  0  0  0  0  0  0  0  0  0  0
   26.3615   -7.9660   43.5583 C   0  0  1  0  0  0  0  0  0  0  0  0
   27.2071   -9.1171   43.5568 O   0  0  0  0  0  0  0  0  0  0  0  0
   24.8831   -8.2942   43.7569 C   0  0  1  0  0  0  0  0  0  0  0  0
   24.6615   -9.3018   44.7322 O   0  0  0  0  0  0  0  0  0  0  0  0
   24.3595   -6.9510   44.2606 C   0  0  2  0  0  0  0  0  0  0  0  0
   20.7507   -5.8440   40.7620 N   0  0  0  0  0  0  0  0  0  0  0  0
   20.8918   -6.9624   41.5471 C   0  0  1  0  0  0  0  0  0  0  0  0
   19.9590   -7.9013   41.3813 N   0  0  0  0  0  0  0  0  0  0  0  0
   21.8741   -7.1473   42.4244 N   0  0  0  0  0  0  0  0  0  0  0  0
   22.7448   -6.0965   42.4558 C   0  0  1  0  0  0  0  0  0  0  0  0
   22.6882   -4.9331   41.7088 C   0  0  1  0  0  0  0  0  0  0  0  0
   21.6215   -4.7548   40.7843 C   0  0  0  0  0  0  0  0  0  0  0  0
   21.4012   -3.7931   40.0372 O   0  0  0  0  0  0  0  0  0  0  0  0
   23.7451   -4.0927   42.0340 N   0  0  0  0  0  0  0  0  0  0  0  0
   24.4123   -4.7470   42.9443 C   0  0  0  0  0  0  0  0  0  0  0  0
   23.8762   -5.9777   43.2541 N   0  0  1  0  0  0  0  0  0  0  0  0
  2  1  1  0  0  0  0
  3  1  1  6  0  0  0
  3  4  1  0  0  0  0
  3  5  1  0  0  0  0
  5  6  1  1  0  0  0
  5  7  1  0  0  0  0
  7  8  1  1  0  0  0
  7  9  1  0  0  0  0
  9  4  1  6  0  0  0
  9 20  1  0  0  0  0
 10 11  1  0  0  0  0
 11 12  1  6  0  0  0
 11 13  1  0  0  0  0
 14 13  1  1  0  0  0
 15 14  1  0  0  0  0
 15 16  1  1  0  0  0
 16 10  1  0  0  0  0
 16 17  2  0  0  0  0
 18 15  1  0  0  0  0
 19 18  1  0  0  0  0
 20 14  1  0  0  0  0
 20 19  1  1  0  0  0
M  END
>  <CHROM.1>
60.37593683,-169.08887775,24.01596327,-6.43608467,42.99000740,-0.36034526
-0.50262329,-0.25189038

>  <Name>
1nyi_lig

>  <RI>
0

>  <Rbt.Current_Directory>
/home/itssahil/PROJECTS/Mol_Feturizer/New_Systems/rnas/1nyi

>  <Rbt.Executable>
rbdock ($Id: //depot/dev/client3/rdock/2013.1/src/exe/rbdock.cxx#4 $)

>  <Rbt.Library>
libRbt.so (2013.1, Build901 2013/11/27)

>  <Rbt.Parameter_File>
/export/apps/rDock/src/rDock_2013.1_src/data/scripts/dock_solv.prm

>  <Rbt.Receptor>
prm/pocket_docking_7.prm

>  <SCORE>
-9.55526

>  <SCORE.INTER>
-7.6997

>  <SCORE.INTER.CONST>
1

>  <SCORE.INTER.POLAR>
-0.80054

>  <SCORE.INTER.ROT>
2

>  <SCORE.INTER.SOLV>
12.4505

>  <SCORE.INTER.VDW>
-11.5482

>  <SCORE.INTER.norm>
-0.384985

>  <SCORE.INTRA>
-1.85556

>  <SCORE.INTRA.DIHEDRAL>
-2.46028

>  <SCORE.INTRA.DIHEDRAL.0>
3.72394

>  <SCORE.INTRA.POLAR>
0

>  <SCORE.INTRA.POLAR.0>
0

>  <SCORE.INTRA.REPUL>
0

>  <SCORE.INTRA.REPUL.0>
0

>  <SCORE.INTRA.SOLV>
-0.6433

>  <SCORE.INTRA.SOLV.lig_0>
-49.4697

>  <SCORE.INTRA.VDW>
-0.303769

>  <SCORE.INTRA.VDW.0>
-0.896538

>  <SCORE.INTRA.norm>
-0.092778

>  <SCORE.RESTR>
0

>  <SCORE.RESTR.CAVITY>
0

>  <SCORE.RESTR.norm>
0

>  <SCORE.SYSTEM>
0

>  <SCORE.SYSTEM.CONST>
0

>  <SCORE.SYSTEM.DIHEDRAL>
0

>  <SCORE.SYSTEM.SOLV>
0

>  <SCORE.SYSTEM.norm>
0

>  <SCORE.heavy>
20

>  <SCORE.norm>
-0.477763

>  <RMSD>
5.100

$$$$
1nyi_lig
 OpenBabel11021811403D
libRbt.so/2013.1/901 2013/11/27
 20 22  0  0  0  0  0  0  0  0999 V2000
   26.5095   -5.0334   44.6691 C   0  0  0  0  0  0  0  0  0  0  0  0
   25.9269   -4.3779   43.5425 O   0  0  0  0  0  0  0  0  0  0  0  0
   25.9351   -6.4220   44.8417 C   0  0  1  0  0  0  0  0  0  0  0  0
   24.5003   -6.3162   45.0474 O   0  0  0  0  0  0  0  0  0  0  0  0
   26.1148   -7.2877   43.5996 C   0  0  1  0  0  0  0  0  0  0  0  0
   27.3382   -8.0235   43.6459 O   0  0  0  0  0  0  0  0  0  0  0  0
   24.8691   -8.1705   43.6377 C   0  0  1  0  0  0  0  0  0  0  0  0
   24.9785   -9.2506   44.5525 O   0  0  0  0  0  0  0  0  0  0  0  0
   23.8265   -7.1689   44.1294 C   0  0  2  0  0  0  0  0  0  0  0  0
   19.2890   -6.3140   41.8556 N   0  0  0  0  0  0  0  0  0  0  0  0
   19.6208   -7.2273   42.8267 C   0  0  1  0  0  0  0  0  0  0  0  0
   18.6238   -8.0090   43.2440 N   0  0  0  0  0  0  0  0  0  0  0  0
   20.8374   -7.3658   43.3457 N   0  0  0  0  0  0  0  0  0  0  0  0
   21.7364   -6.4977   42.7968 C   0  0  1  0  0  0  0  0  0  0  0  0
   21.5003   -5.5466   41.8198 C   0  0  1  0  0  0  0  0  0  0  0  0
   20.1877   -5.4112   41.2879 C   0  0  0  0  0  0  0  0  0  0  0  0
   19.7843   -4.6259   40.4206 O   0  0  0  0  0  0  0  0  0  0  0  0
   22.6630   -4.8432   41.5327 N   0  0  0  0  0  0  0  0  0  0  0  0
   23.5637   -5.3710   42.3151 C   0  0  0  0  0  0  0  0  0  0  0  0
   23.0857   -6.3885   43.1114 N   0  0  1  0  0  0  0  0  0  0  0  0
  2  1  1  0  0  0  0
  3  1  1  6  0  0  0
  3  4  1  0  0  0  0
  3  5  1  0  0  0  0
  5  6  1  1  0  0  0
  5  7  1  0  0  0  0
  7  8  1  1  0  0  0
  7  9  1  0  0  0  0
  9  4  1  1  0  0  0
  9 20  1  0  0  0  0
 10 11  1  0  0  0  0
 11 12  1  6  0  0  0
 11 13  1  0  0  0  0
 14 13  1  1  0  0  0
 15 14  1  0  0  0  0
 15 16  1  1  0  0  0
 16 10  1  0  0  0  0
 16 17  2  0  0  0  0
 18 15  1  0  0  0  0
 19 18  1  0  0  0  0
 20 14  1  0  0  0  0
 20 19  1  1  0  0  0
M  END
>  <CHROM.1>
-60.12414463,-125.66108159,23.10883230,-6.48089934,43.12922992,-0.24829932
-0.26793998,-0.47829795

>  <Name>
1nyi_lig

>  <RI>
0

>  <Rbt.Current_Directory>
/home/itssahil/PROJECTS/Mol_Feturizer/New_Systems/rnas/1nyi

>  <Rbt.Executable>
rbdock ($Id: //depot/dev/client3/rdock/2013.1/src/exe/rbdock.cxx#4 $)

>  <Rbt.Library>
libRbt.so (2013.1, Build901 2013/11/27)

>  <Rbt.Parameter_File>
/export/apps/rDock/src/rDock_2013.1_src/data/scripts/dock_solv.prm

>  <Rbt.Receptor>
prm/pocket_docking_7.prm

>  <SCORE>
-7.76781

>  <SCORE.INTER>
-6.39189

>  <SCORE.INTER.CONST>
1

>  <SCORE.INTER.POLAR>
-0.744194

>  <SCORE.INTER.ROT>
2

>  <SCORE.INTER.SOLV>
7.54961

>  <SCORE.INTER.VDW>
-9.23048

>  <SCORE.INTER.norm>
-0.319594

>  <SCORE.INTRA>
-1.37592

>  <SCORE.INTRA.DIHEDRAL>
-2.47137

>  <SCORE.INTRA.DIHEDRAL.0>
3.72394

>  <SCORE.INTRA.POLAR>
0

>  <SCORE.INTRA.POLAR.0>
0

>  <SCORE.INTRA.REPUL>
0

>  <SCORE.INTRA.REPUL.0>
0

>  <SCORE.INTRA.SOLV>
0.147481

>  <SCORE.INTRA.SOLV.lig_0>
-49.4697

>  <SCORE.INTRA.VDW>
-0.213975

>  <SCORE.INTRA.VDW.0>
-0.896538

>  <SCORE.INTRA.norm>
-0.0687961

>  <SCORE.RESTR>
0

>  <SCORE.RESTR.CAVITY>
0

>  <SCORE.RESTR.norm>
0

>  <SCORE.SYSTEM>
0

>  <SCORE.SYSTEM.CONST>
0

>  <SCORE.SYSTEM.DIHEDRAL>
0

>  <SCORE.SYSTEM.SOLV>
0

>  <SCORE.SYSTEM.norm>
0

>  <SCORE.heavy>
20

>  <SCORE.norm>
-0.38839

>  <RMSD>
5.112

$$$$
1nyi_lig
 OpenBabel11021811403D
libRbt.so/2013.1/901 2013/11/27
 20 22  0  0  0  0  0  0  0  0999 V2000
   27.6291   -6.0082   44.3928 C   0  0  0  0  0  0  0  0  0  0  0  0
   27.8575   -5.1525   45.5125 O   0  0  0  0  0  0  0  0  0  0  0  0
   26.5799   -7.0492   44.7146 C   0  0  1  0  0  0  0  0  0  0  0  0
   25.3276   -6.3774   45.0191 O   0  0  0  0  0  0  0  0  0  0  0  0
   26.2840   -7.9658   43.5328 C   0  0  1  0  0  0  0  0  0  0  0  0
   27.1226   -9.1220   43.5433 O   0  0  0  0  0  0  0  0  0  0  0  0
   24.8034   -8.2831   43.7326 C   0  0  1  0  0  0  0  0  0  0  0  0
   24.5743   -9.2801   44.7170 O   0  0  0  0  0  0  0  0  0  0  0  0
   24.2873   -6.9320   44.2229 C   0  0  2  0  0  0  0  0  0  0  0  0
   20.7315   -5.8709   40.6565 N   0  0  0  0  0  0  0  0  0  0  0  0
   20.8712   -6.9870   41.4452 C   0  0  1  0  0  0  0  0  0  0  0  0
   19.9530   -7.9371   41.2630 N   0  0  0  0  0  0  0  0  0  0  0  0
   21.8391   -7.1594   42.3408 N   0  0  0  0  0  0  0  0  0  0  0  0
   22.6964   -6.0983   42.3875 C   0  0  1  0  0  0  0  0  0  0  0  0
   22.6399   -4.9362   41.6385 C   0  0  1  0  0  0  0  0  0  0  0  0
   21.5886   -4.7713   40.6941 C   0  0  0  0  0  0  0  0  0  0  0  0
   21.3707   -3.8128   39.9421 O   0  0  0  0  0  0  0  0  0  0  0  0
   23.6804   -4.0829   41.9825 N   0  0  0  0  0  0  0  0  0  0  0  0
   24.3383   -4.7285   42.9057 C   0  0  0  0  0  0  0  0  0  0  0  0
   23.8113   -5.9653   43.2067 N   0  0  1  0  0  0  0  0  0  0  0  0
  2  1  1  0  0  0  0
  3  1  1  6  0  0  0
  3  4  1  0  0  0  0
  3  5  1  0  0  0  0
  5  6  1  1  0  0  0
  5  7  1  0  0  0  0
  7  8  1  1  0  0  0
  7  9  1  0  0  0  0
  9  4  1  6  0  0  0
  9 20  1  0  0  0  0
 10 11  1  0  0  0  0
 11 12  1  6  0  0  0
 11 13  1  0  0  0  0
 14 13  1  1  0  0  0
 15 14  1  0  0  0  0
 15 16  1  1  0  0  0
 16 10  1  0  0  0  0
 16 17  2  0  0  0  0
 18 15  1  0  0  0  0
 19 18  1  0  0  0  0
 20 14  1  0  0  0  0
 20 19  1  1  0  0  0
M  END
>  <CHROM.1>
61.69541181,-170.60556503,23.96084518,-6.43756022,42.93348955,-0.36109555
-0.51514989,-0.25576907

>  <Name>
1nyi_lig

>  <RI>
0

>  <Rbt.Current_Directory>
/home/itssahil/PROJECTS/Mol_Feturizer/New_Systems/rnas/1nyi

>  <Rbt.Executable>
rbdock ($Id: //depot/dev/client3/rdock/2013.1/src/exe/rbdock.cxx#4 $)

>  <Rbt.Library>
libRbt.so (2013.1, Build901 2013/11/27)

>  <Rbt.Parameter_File>
/export/apps/rDock/src/rDock_2013.1_src/data/scripts/dock_solv.prm

>  <Rbt.Receptor>
prm/pocket_docking_5.prm

>  <SCORE>
-9.53899

>  <SCORE.INTER>
-7.69034

>  <SCORE.INTER.CONST>
1

>  <SCORE.INTER.POLAR>
-0.815139

>  <SCORE.INTER.ROT>
2

>  <SCORE.INTER.SOLV>
12.805

>  <SCORE.INTER.VDW>
-11.6114

>  <SCORE.INTER.norm>
-0.384517

>  <SCORE.INTRA>
-1.84865

>  <SCORE.INTRA.DIHEDRAL>
-2.45536

>  <SCORE.INTRA.DIHEDRAL.0>
3.72394

>  <SCORE.INTRA.POLAR>
0

>  <SCORE.INTRA.POLAR.0>
0

>  <SCORE.INTRA.REPUL>
0

>  <SCORE.INTRA.REPUL.0>
0

>  <SCORE.INTRA.SOLV>
-0.63933

>  <SCORE.INTRA.SOLV.lig_0>
-49.4697

>  <SCORE.INTRA.VDW>
-0.301302

>  <SCORE.INTRA.VDW.0>
-0.896538

>  <SCORE.INTRA.norm>
-0.0924324

>  <SCORE.RESTR>
0

>  <SCORE.RESTR.CAVITY>
0

>  <SCORE.RESTR.norm>
0

>  <SCORE.SYSTEM>
0

>  <SCORE.SYSTEM.CONST>
0

>  <SCORE.SYSTEM.DIHEDRAL>
0

>  <SCORE.SYSTEM.SOLV>
0

>  <SCORE.SYSTEM.norm>
0

>  <SCORE.heavy>
20

>  <SCORE.norm>
-0.476949

>  <RMSD>
5.128

$$$$
1nyi_lig
 OpenBabel11021811403D
libRbt.so/2013.1/901 2013/11/27
 20 22  0  0  0  0  0  0  0  0999 V2000
   27.6359   -6.0189   44.3764 C   0  0  0  0  0  0  0  0  0  0  0  0
   27.8770   -5.1598   45.4908 O   0  0  0  0  0  0  0  0  0  0  0  0
   26.5831   -7.0526   44.7102 C   0  0  1  0  0  0  0  0  0  0  0  0
   25.3364   -6.3727   45.0190 O   0  0  0  0  0  0  0  0  0  0  0  0
   26.2749   -7.9737   43.5350 C   0  0  1  0  0  0  0  0  0  0  0  0
   27.1074   -9.1344   43.5462 O   0  0  0  0  0  0  0  0  0  0  0  0
   24.7939   -8.2820   43.7456 C   0  0  1  0  0  0  0  0  0  0  0  0
   24.5658   -9.2728   44.7366 O   0  0  0  0  0  0  0  0  0  0  0  0
   24.2882   -6.9257   44.2322 C   0  0  2  0  0  0  0  0  0  0  0  0
   20.7208   -5.8681   40.6763 N   0  0  0  0  0  0  0  0  0  0  0  0
   20.8604   -6.9814   41.4690 C   0  0  1  0  0  0  0  0  0  0  0  0
   19.9384   -7.9294   41.2944 N   0  0  0  0  0  0  0  0  0  0  0  0
   21.8314   -7.1532   42.3613 N   0  0  0  0  0  0  0  0  0  0  0  0
   22.6923   -6.0946   42.4000 C   0  0  1  0  0  0  0  0  0  0  0  0
   22.6362   -4.9354   41.6465 C   0  0  1  0  0  0  0  0  0  0  0  0
   21.5815   -4.7711   40.7058 C   0  0  0  0  0  0  0  0  0  0  0  0
   21.3635   -3.8150   39.9508 O   0  0  0  0  0  0  0  0  0  0  0  0
   23.6808   -4.0839   41.9827 N   0  0  0  0  0  0  0  0  0  0  0  0
   24.3405   -4.7278   42.9058 C   0  0  0  0  0  0  0  0  0  0  0  0
   23.8109   -5.9617   43.2140 N   0  0  1  0  0  0  0  0  0  0  0  0
  2  1  1  0  0  0  0
  3  1  1  6  0  0  0
  3  4  1  0  0  0  0
  3  5  1  0  0  0  0
  5  6  1  1  0  0  0
  5  7  1  0  0  0  0
  7  8  1  1  0  0  0
  7  9  1  0  0  0  0
  9  4  1  6  0  0  0
  9 20  1  0  0  0  0
 10 11  1  0  0  0  0
 11 12  1  6  0  0  0
 11 13  1  0  0  0  0
 14 13  1  1  0  0  0
 15 14  1  0  0  0  0
 15 16  1  1  0  0  0
 16 10  1  0  0  0  0
 16 17  2  0  0  0  0
 18 15  1  0  0  0  0
 19 18  1  0  0  0  0
 20 14  1  0  0  0  0
 20 19  1  1  0  0  0
M  END
>  <CHROM.1>
61.76643960,-170.79154078,23.95765552,-6.43735686,42.94061586,-0.36439149
-0.50930628,-0.26177000

>  <Name>
1nyi_lig

>  <RI>
0

>  <Rbt.Current_Directory>
/home/itssahil/PROJECTS/Mol_Feturizer/New_Systems/rnas/1nyi

>  <Rbt.Executable>
rbdock ($Id: //depot/dev/client3/rdock/2013.1/src/exe/rbdock.cxx#4 $)

>  <Rbt.Library>
libRbt.so (2013.1, Build901 2013/11/27)

>  <Rbt.Parameter_File>
/export/apps/rDock/src/rDock_2013.1_src/data/scripts/dock_solv.prm

>  <Rbt.Receptor>
prm/pocket_docking_7.prm

>  <SCORE>
-9.51878

>  <SCORE.INTER>
-7.67121

>  <SCORE.INTER.CONST>
1

>  <SCORE.INTER.POLAR>
-0.810207

>  <SCORE.INTER.ROT>
2

>  <SCORE.INTER.SOLV>
12.6745

>  <SCORE.INTER.VDW>
-11.5716

>  <SCORE.INTER.norm>
-0.38356

>  <SCORE.INTRA>
-1.84757

>  <SCORE.INTRA.DIHEDRAL>
-2.45518

>  <SCORE.INTRA.DIHEDRAL.0>
3.72394

>  <SCORE.INTRA.POLAR>
0

>  <SCORE.INTRA.POLAR.0>
0

>  <SCORE.INTRA.REPUL>
0

>  <SCORE.INTRA.REPUL.0>
0

>  <SCORE.INTRA.SOLV>
-0.638261

>  <SCORE.INTRA.SOLV.lig_0>
-49.4697

>  <SCORE.INTRA.VDW>
-0.300847

>  <SCORE.INTRA.VDW.0>
-0.896538

>  <SCORE.INTRA.norm>
-0.0923785

>  <SCORE.RESTR>
0

>  <SCORE.RESTR.CAVITY>
0

>  <SCORE.RESTR.norm>
0

>  <SCORE.SYSTEM>
0

>  <SCORE.SYSTEM.CONST>
0

>  <SCORE.SYSTEM.DIHEDRAL>
0

>  <SCORE.SYSTEM.SOLV>
0

>  <SCORE.SYSTEM.norm>
0

>  <SCORE.heavy>
20

>  <SCORE.norm>
-0.475939

>  <RMSD>
5.130

$$$$
1nyi_lig
 OpenBabel11021811403D
libRbt.so/2013.1/901 2013/11/27
 20 22  0  0  0  0  0  0  0  0999 V2000
   30.2135   -8.3310   45.8214 C   0  0  0  0  0  0  0  0  0  0  0  0
   30.9251   -9.3057   45.0587 O   0  0  0  0  0  0  0  0  0  0  0  0
   29.6983   -7.2211   44.9320 C   0  0  1  0  0  0  0  0  0  0  0  0
   28.8000   -7.7899   43.9412 O   0  0  0  0  0  0  0  0  0  0  0  0
   28.8748   -6.1922   45.6986 C   0  0  1  0  0  0  0  0  0  0  0  0
   29.6907   -5.1268   46.1878 O   0  0  0  0  0  0  0  0  0  0  0  0
   27.8548   -5.7495   44.6515 C   0  0  1  0  0  0  0  0  0  0  0  0
   28.3798   -4.8134   43.7221 O   0  0  0  0  0  0  0  0  0  0  0  0
   27.5686   -7.0779   43.9548 C   0  0  2  0  0  0  0  0  0  0  0  0
   22.4826   -7.8413   44.1531 N   0  0  0  0  0  0  0  0  0  0  0  0
   23.1926   -6.8482   43.5231 C   0  0  1  0  0  0  0  0  0  0  0  0
   22.4603   -5.9479   42.8656 N   0  0  0  0  0  0  0  0  0  0  0  0
   24.5183   -6.7440   43.5400 N   0  0  0  0  0  0  0  0  0  0  0  0
   25.1066   -7.7378   44.2676 C   0  0  1  0  0  0  0  0  0  0  0  0
   24.4813   -8.7764   44.9347 C   0  0  1  0  0  0  0  0  0  0  0  0
   23.0623   -8.8716   44.8930 C   0  0  0  0  0  0  0  0  0  0  0  0
   22.3306   -9.7202   45.4185 O   0  0  0  0  0  0  0  0  0  0  0  0
   25.4191   -9.5967   45.5486 N   0  0  0  0  0  0  0  0  0  0  0  0
   26.5679   -9.0515   45.2572 C   0  0  0  0  0  0  0  0  0  0  0  0
   26.4676   -7.9132   44.4877 N   0  0  1  0  0  0  0  0  0  0  0  0
  2  1  1  0  0  0  0
  3  1  1  1  0  0  0
  3  4  1  0  0  0  0
  3  5  1  0  0  0  0
  5  6  1  6  0  0  0
  5  7  1  0  0  0  0
  7  8  1  6  0  0  0
  7  9  1  0  0  0  0
  9  4  1  1  0  0  0
  9 20  1  0  0  0  0
 10 11  1  0  0  0  0
 11 12  1  1  0  0  0
 11 13  1  0  0  0  0
 14 13  1  6  0  0  0
 15 14  1  0  0  0  0
 15 16  1  6  0  0  0
 16 10  1  0  0  0  0
 16 17  2  0  0  0  0
 18 15  1  0  0  0  0
 19 18  1  0  0  0  0
 20 14  1  0  0  0  0
 20 19  1  6  0  0  0
M  END
>  <CHROM.1>
60.22324283,-157.97606567,26.47933808,-7.52802754,44.65099275,-0.09554725
0.16675660,2.80762545

>  <Name>
1nyi_lig

>  <RI>
0

>  <Rbt.Current_Directory>
/home/itssahil/PROJECTS/Mol_Feturizer/New_Systems/rnas/1nyi

>  <Rbt.Executable>
rbdock ($Id: //depot/dev/client3/rdock/2013.1/src/exe/rbdock.cxx#4 $)

>  <Rbt.Library>
libRbt.so (2013.1, Build901 2013/11/27)

>  <Rbt.Parameter_File>
/export/apps/rDock/src/rDock_2013.1_src/data/scripts/dock_solv.prm

>  <Rbt.Receptor>
prm/pocket_docking_6.prm

>  <SCORE>
-7.19485

>  <SCORE.INTER>
-5.24428

>  <SCORE.INTER.CONST>
1

>  <SCORE.INTER.POLAR>
-0.748296

>  <SCORE.INTER.ROT>
2

>  <SCORE.INTER.SOLV>
8.23299

>  <SCORE.INTER.VDW>
-8.67953

>  <SCORE.INTER.norm>
-0.262214

>  <SCORE.INTRA>
-1.95058

>  <SCORE.INTRA.DIHEDRAL>
-2.42581

>  <SCORE.INTRA.DIHEDRAL.0>
3.72394

>  <SCORE.INTRA.POLAR>
0

>  <SCORE.INTRA.POLAR.0>
0

>  <SCORE.INTRA.REPUL>
0

>  <SCORE.INTRA.REPUL.0>
0

>  <SCORE.INTRA.SOLV>
-0.741666

>  <SCORE.INTRA.SOLV.lig_0>
-49.4697

>  <SCORE.INTRA.VDW>
-0.366839

>  <SCORE.INTRA.VDW.0>
-0.896538

>  <SCORE.INTRA.norm>
-0.0975288

>  <SCORE.RESTR>
0

>  <SCORE.RESTR.CAVITY>
0

>  <SCORE.RESTR.norm>
0

>  <SCORE.SYSTEM>
0

>  <SCORE.SYSTEM.CONST>
0

>  <SCORE.SYSTEM.DIHEDRAL>
0

>  <SCORE.SYSTEM.SOLV>
0

>  <SCORE.SYSTEM.norm>
0

>  <SCORE.heavy>
20

>  <SCORE.norm>
-0.359743

>  <RMSD>
5.135

$$$$
1nyi_lig
 OpenBabel11021811403D
libRbt.so/2013.1/901 2013/11/27
 20 22  0  0  0  0  0  0  0  0999 V2000
   27.6571   -6.0719   44.3645 C   0  0  0  0  0  0  0  0  0  0  0  0
   27.9104   -5.1897   45.4580 O   0  0  0  0  0  0  0  0  0  0  0  0
   26.5916   -7.0838   44.7235 C   0  0  1  0  0  0  0  0  0  0  0  0
   25.3613   -6.3792   45.0431 O   0  0  0  0  0  0  0  0  0  0  0  0
   26.2507   -8.0109   43.5622 C   0  0  1  0  0  0  0  0  0  0  0  0
   27.0631   -9.1857   43.5733 O   0  0  0  0  0  0  0  0  0  0  0  0
   24.7678   -8.2912   43.7968 C   0  0  1  0  0  0  0  0  0  0  0  0
   24.5367   -9.2681   44.8009 O   0  0  0  0  0  0  0  0  0  0  0  0
   24.2926   -6.9216   44.2768 C   0  0  2  0  0  0  0  0  0  0  0  0
   20.7107   -5.8519   40.7392 N   0  0  0  0  0  0  0  0  0  0  0  0
   20.8450   -6.9615   41.5380 C   0  0  1  0  0  0  0  0  0  0  0  0
   19.9127   -7.9015   41.3760 N   0  0  0  0  0  0  0  0  0  0  0  0
   21.8206   -7.1370   42.4246 N   0  0  0  0  0  0  0  0  0  0  0  0
   22.6919   -6.0866   42.4506 C   0  0  1  0  0  0  0  0  0  0  0  0
   22.6418   -4.9317   41.6900 C   0  0  1  0  0  0  0  0  0  0  0  0
   21.5821   -4.7632   40.7557 C   0  0  0  0  0  0  0  0  0  0  0  0
   21.3681   -3.8098   39.9961 O   0  0  0  0  0  0  0  0  0  0  0  0
   23.6969   -4.0884   42.0135 N   0  0  0  0  0  0  0  0  0  0  0  0
   24.3568   -4.7327   42.9361 C   0  0  0  0  0  0  0  0  0  0  0  0
   23.8175   -5.9595   43.2558 N   0  0  1  0  0  0  0  0  0  0  0  0
  2  1  1  0  0  0  0
  3  1  1  6  0  0  0
  3  4  1  0  0  0  0
  3  5  1  0  0  0  0
  5  6  1  1  0  0  0
  5  7  1  0  0  0  0
  7  8  1  1  0  0  0
  7  9  1  0  0  0  0
  9  4  1  6  0  0  0
  9 20  1  0  0  0  0
 10 11  1  0  0  0  0
 11 12  1  6  0  0  0
 11 13  1  0  0  0  0
 14 13  1  1  0  0  0
 15 14  1  0  0  0  0
 15 16  1  1  0  0  0
 16 10  1  0  0  0  0
 16 17  2  0  0  0  0
 18 15  1  0  0  0  0
 19 18  1  0  0  0  0
 20 14  1  0  0  0  0
 20 19  1  1  0  0  0
M  END
>  <CHROM.1>
60.63204435,-171.42852249,23.95556488,-6.44338082,42.97877984,-0.37636235
-0.49677991,-0.27433319

>  <Name>
1nyi_lig

>  <RI>
0

>  <Rbt.Current_Directory>
/home/itssahil/PROJECTS/Mol_Feturizer/New_Systems/rnas/1nyi

>  <Rbt.Executable>
rbdock ($Id: //depot/dev/client3/rdock/2013.1/src/exe/rbdock.cxx#4 $)

>  <Rbt.Library>
libRbt.so (2013.1, Build901 2013/11/27)

>  <Rbt.Parameter_File>
/export/apps/rDock/src/rDock_2013.1_src/data/scripts/dock_solv.prm

>  <Rbt.Receptor>
prm/pocket_docking_7.prm

>  <SCORE>
-9.54813

>  <SCORE.INTER>
-7.70415

>  <SCORE.INTER.CONST>
1

>  <SCORE.INTER.POLAR>
-0.802041

>  <SCORE.INTER.ROT>
2

>  <SCORE.INTER.SOLV>
12.3119

>  <SCORE.INTER.VDW>
-11.4999

>  <SCORE.INTER.norm>
-0.385208

>  <SCORE.INTRA>
-1.84397

>  <SCORE.INTRA.DIHEDRAL>
-2.4687

>  <SCORE.INTRA.DIHEDRAL.0>
3.72394

>  <SCORE.INTRA.POLAR>
0

>  <SCORE.INTRA.POLAR.0>
0

>  <SCORE.INTRA.REPUL>
0

>  <SCORE.INTRA.REPUL.0>
0

>  <SCORE.INTRA.SOLV>
-0.625418

>  <SCORE.INTRA.SOLV.lig_0>
-49.4697

>  <SCORE.INTRA.VDW>
-0.296913

>  <SCORE.INTRA.VDW.0>
-0.896538

>  <SCORE.INTRA.norm>
-0.0921987

>  <SCORE.RESTR>
0

>  <SCORE.RESTR.CAVITY>
0

>  <SCORE.RESTR.norm>
0

>  <SCORE.SYSTEM>
0

>  <SCORE.SYSTEM.CONST>
0

>  <SCORE.SYSTEM.DIHEDRAL>
0

>  <SCORE.SYSTEM.SOLV>
0

>  <SCORE.SYSTEM.norm>
0

>  <SCORE.heavy>
20

>  <SCORE.norm>
-0.477406

>  <RMSD>
5.140

$$$$
1nyi_lig
 OpenBabel11021811403D
libRbt.so/2013.1/901 2013/11/27
 20 22  0  0  0  0  0  0  0  0999 V2000
   27.6448   -6.0652   44.3812 C   0  0  0  0  0  0  0  0  0  0  0  0
   27.8964   -5.1858   45.4773 O   0  0  0  0  0  0  0  0  0  0  0  0
   26.5793   -7.0785   44.7363 C   0  0  1  0  0  0  0  0  0  0  0  0
   25.3468   -6.3756   45.0510 O   0  0  0  0  0  0  0  0  0  0  0  0
   26.2441   -8.0062   43.5737 C   0  0  1  0  0  0  0  0  0  0  0  0
   27.0581   -9.1799   43.5882 O   0  0  0  0  0  0  0  0  0  0  0  0
   24.7607   -8.2887   43.8027 C   0  0  1  0  0  0  0  0  0  0  0  0
   24.5272   -9.2656   44.8060 O   0  0  0  0  0  0  0  0  0  0  0  0
   24.2817   -6.9196   44.2807 C   0  0  2  0  0  0  0  0  0  0  0  0
   20.7079   -5.8520   40.7342 N   0  0  0  0  0  0  0  0  0  0  0  0
   20.8401   -6.9608   41.5344 C   0  0  1  0  0  0  0  0  0  0  0  0
   19.9078   -7.9007   41.3713 N   0  0  0  0  0  0  0  0  0  0  0  0
   21.8137   -7.1359   42.4233 N   0  0  0  0  0  0  0  0  0  0  0  0
   22.6854   -6.0858   42.4501 C   0  0  1  0  0  0  0  0  0  0  0  0
   22.6373   -4.9316   41.6883 C   0  0  1  0  0  0  0  0  0  0  0  0
   21.5798   -4.7636   40.7515 C   0  0  0  0  0  0  0  0  0  0  0  0
   21.3677   -3.8109   39.9905 O   0  0  0  0  0  0  0  0  0  0  0  0
   23.6921   -4.0884   42.0132 N   0  0  0  0  0  0  0  0  0  0  0  0
   24.3498   -4.7321   42.9378 C   0  0  0  0  0  0  0  0  0  0  0  0
   23.8092   -5.9583   43.2577 N   0  0  1  0  0  0  0  0  0  0  0  0
  2  1  1  0  0  0  0
  3  1  1  6  0  0  0
  3  4  1  0  0  0  0
  3  5  1  0  0  0  0
  5  6  1  1  0  0  0
  5  7  1  0  0  0  0
  7  8  1  1  0  0  0
  7  9  1  0  0  0  0
  9  4  1  6  0  0  0
  9 20  1  0  0  0  0
 10 11  1  0  0  0  0
 11 12  1  6  0  0  0
 11 13  1  0  0  0  0
 14 13  1  1  0  0  0
 15 14  1  0  0  0  0
 15 16  1  1  0  0  0
 16 10  1  0  0  0  0
 16 17  2  0  0  0  0
 18 15  1  0  0  0  0
 19 18  1  0  0  0  0
 20 14  1  0  0  0  0
 20 19  1  1  0  0  0
M  END
>  <CHROM.1>
60.86426390,-171.27959693,23.94821007,-6.44130464,42.98271862,-0.37666212
-0.49952131,-0.27535836

>  <Name>
1nyi_lig

>  <RI>
0

>  <Rbt.Current_Directory>
/home/itssahil/PROJECTS/Mol_Feturizer/New_Systems/rnas/1nyi

>  <Rbt.Executable>
rbdock ($Id: //depot/dev/client3/rdock/2013.1/src/exe/rbdock.cxx#4 $)

>  <Rbt.Library>
libRbt.so (2013.1, Build901 2013/11/27)

>  <Rbt.Parameter_File>
/export/apps/rDock/src/rDock_2013.1_src/data/scripts/dock_solv.prm

>  <Rbt.Receptor>
prm/pocket_docking_6.prm

>  <SCORE>
-9.55251

>  <SCORE.INTER>
-7.70732

>  <SCORE.INTER.CONST>
1

>  <SCORE.INTER.POLAR>
-0.802654

>  <SCORE.INTER.ROT>
2

>  <SCORE.INTER.SOLV>
12.2623

>  <SCORE.INTER.VDW>
-11.4835

>  <SCORE.INTER.norm>
-0.385366

>  <SCORE.INTRA>
-1.84519

>  <SCORE.INTRA.DIHEDRAL>
-2.46661

>  <SCORE.INTRA.DIHEDRAL.0>
3.72394

>  <SCORE.INTRA.POLAR>
0

>  <SCORE.INTRA.POLAR.0>
0

>  <SCORE.INTRA.REPUL>
0

>  <SCORE.INTRA.REPUL.0>
0

>  <SCORE.INTRA.SOLV>
-0.628198

>  <SCORE.INTRA.SOLV.lig_0>
-49.4697

>  <SCORE.INTRA.VDW>
-0.297792

>  <SCORE.INTRA.VDW.0>
-0.896538

>  <SCORE.INTRA.norm>
-0.0922597

>  <SCORE.RESTR>
0

>  <SCORE.RESTR.CAVITY>
0

>  <SCORE.RESTR.norm>
0

>  <SCORE.SYSTEM>
0

>  <SCORE.SYSTEM.CONST>
0

>  <SCORE.SYSTEM.DIHEDRAL>
0

>  <SCORE.SYSTEM.SOLV>
0

>  <SCORE.SYSTEM.norm>
0

>  <SCORE.heavy>
20

>  <SCORE.norm>
-0.477626

>  <RMSD>
5.142

$$$$
1nyi_lig
 OpenBabel11021811403D
libRbt.so/2013.1/901 2013/11/27
 20 22  0  0  0  0  0  0  0  0999 V2000
   21.7090   -6.4415   41.7653 C   0  0  0  0  0  0  0  0  0  0  0  0
   21.4375   -7.5618   42.6074 O   0  0  0  0  0  0  0  0  0  0  0  0
   22.3317   -5.3115   42.5550 C   0  0  1  0  0  0  0  0  0  0  0  0
   22.8957   -5.8490   43.7819 O   0  0  0  0  0  0  0  0  0  0  0  0
   23.4919   -4.6525   41.8172 C   0  0  1  0  0  0  0  0  0  0  0  0
   23.0483   -3.5576   41.0144 O   0  0  0  0  0  0  0  0  0  0  0  0
   24.4100   -4.2363   42.9646 C   0  0  1  0  0  0  0  0  0  0  0  0
   23.9887   -3.0453   43.6123 O   0  0  0  0  0  0  0  0  0  0  0  0
   24.2497   -5.4300   43.9035 C   0  0  2  0  0  0  0  0  0  0  0  0
   29.0772   -7.1231   44.4669 N   0  0  0  0  0  0  0  0  0  0  0  0
   28.5524   -5.8798   44.7237 C   0  0  1  0  0  0  0  0  0  0  0  0
   29.4174   -4.9762   45.1868 N   0  0  0  0  0  0  0  0  0  0  0  0
   27.2784   -5.5473   44.5370 N   0  0  0  0  0  0  0  0  0  0  0  0
   26.5388   -6.5850   44.0477 C   0  0  1  0  0  0  0  0  0  0  0  0
   26.9735   -7.8665   43.7587 C   0  0  1  0  0  0  0  0  0  0  0  0
   28.3393   -8.2002   43.9767 C   0  0  0  0  0  0  0  0  0  0  0  0
   28.9094   -9.2815   43.7830 O   0  0  0  0  0  0  0  0  0  0  0  0
   25.9217   -8.6452   43.2936 N   0  0  0  0  0  0  0  0  0  0  0  0
   24.8942   -7.8414   43.3010 C   0  0  0  0  0  0  0  0  0  0  0  0
   25.1839   -6.5676   43.7388 N   0  0  1  0  0  0  0  0  0  0  0  0
  2  1  1  0  0  0  0
  3  1  1  6  0  0  0
  3  4  1  0  0  0  0
  3  5  1  0  0  0  0
  5  6  1  1  0  0  0
  5  7  1  0  0  0  0
  7  8  1  1  0  0  0
  7  9  1  0  0  0  0
  9  4  1  6  0  0  0
  9 20  1  0  0  0  0
 10 11  1  0  0  0  0
 11 12  1  6  0  0  0
 11 13  1  0  0  0  0
 14 13  1  1  0  0  0
 15 14  1  0  0  0  0
 15 16  1  1  0  0  0
 16 10  1  0  0  0  0
 16 17  2  0  0  0  0
 18 15  1  0  0  0  0
 19 18  1  0  0  0  0
 20 14  1  0  0  0  0
 20 19  1  1  0  0  0
M  END
>  <CHROM.1>
20.10345473,-166.52152925,25.36792599,-6.21578611,43.42190042,2.83546528
-0.33475385,0.04524752

>  <Name>
1nyi_lig

>  <RI>
0

>  <Rbt.Current_Directory>
/home/itssahil/PROJECTS/Mol_Feturizer/New_Systems/rnas/1nyi

>  <Rbt.Executable>
rbdock ($Id: //depot/dev/client3/rdock/2013.1/src/exe/rbdock.cxx#4 $)

>  <Rbt.Library>
libRbt.so (2013.1, Build901 2013/11/27)

>  <Rbt.Parameter_File>
/export/apps/rDock/src/rDock_2013.1_src/data/scripts/dock_solv.prm

>  <Rbt.Receptor>
prm/pocket_docking_4.prm

>  <SCORE>
-10.2744

>  <SCORE.INTER>
-10.8128

>  <SCORE.INTER.CONST>
1

>  <SCORE.INTER.POLAR>
-0.747177

>  <SCORE.INTER.ROT>
2

>  <SCORE.INTER.SOLV>
10.8381

>  <SCORE.INTER.VDW>
-13.264

>  <SCORE.INTER.norm>
-0.540641

>  <SCORE.INTRA>
0.538375

>  <SCORE.INTRA.DIHEDRAL>
1.4482

>  <SCORE.INTRA.DIHEDRAL.0>
3.72394

>  <SCORE.INTRA.POLAR>
0

>  <SCORE.INTRA.POLAR.0>
0

>  <SCORE.INTRA.REPUL>
0

>  <SCORE.INTRA.REPUL.0>
0

>  <SCORE.INTRA.SOLV>
-0.314859

>  <SCORE.INTRA.SOLV.lig_0>
-49.4697

>  <SCORE.INTRA.VDW>
-0.0282968

>  <SCORE.INTRA.VDW.0>
-0.896538

>  <SCORE.INTRA.norm>
0.0269187

>  <SCORE.RESTR>
0

>  <SCORE.RESTR.CAVITY>
0

>  <SCORE.RESTR.norm>
0

>  <SCORE.SYSTEM>
0

>  <SCORE.SYSTEM.CONST>
0

>  <SCORE.SYSTEM.DIHEDRAL>
0

>  <SCORE.SYSTEM.SOLV>
0

>  <SCORE.SYSTEM.norm>
0

>  <SCORE.heavy>
20

>  <SCORE.norm>
-0.513722

>  <RMSD>
5.143

$$$$
1nyi_lig
 OpenBabel11021811403D
libRbt.so/2013.1/901 2013/11/27
 20 22  0  0  0  0  0  0  0  0999 V2000
   27.6559   -6.0726   44.3321 C   0  0  0  0  0  0  0  0  0  0  0  0
   27.9394   -5.2052   45.4299 O   0  0  0  0  0  0  0  0  0  0  0  0
   26.5893   -7.0795   44.7018 C   0  0  1  0  0  0  0  0  0  0  0  0
   25.3630   -6.3696   45.0252 O   0  0  0  0  0  0  0  0  0  0  0  0
   26.2388   -8.0107   43.5465 C   0  0  1  0  0  0  0  0  0  0  0  0
   27.0476   -9.1880   43.5583 O   0  0  0  0  0  0  0  0  0  0  0  0
   24.7564   -8.2854   43.7910 C   0  0  1  0  0  0  0  0  0  0  0  0
   24.5281   -9.2570   44.8007 O   0  0  0  0  0  0  0  0  0  0  0  0
   24.2882   -6.9122   44.2675 C   0  0  2  0  0  0  0  0  0  0  0  0
   20.7038   -5.8594   40.7274 N   0  0  0  0  0  0  0  0  0  0  0  0
   20.8415   -6.9673   41.5279 C   0  0  1  0  0  0  0  0  0  0  0  0
   19.9123   -7.9106   41.3671 N   0  0  0  0  0  0  0  0  0  0  0  0
   21.8174   -7.1384   42.4150 N   0  0  0  0  0  0  0  0  0  0  0  0
   22.6853   -6.0851   42.4396 C   0  0  1  0  0  0  0  0  0  0  0  0
   22.6316   -4.9316   41.6772 C   0  0  1  0  0  0  0  0  0  0  0  0
   21.5717   -4.7679   40.7423 C   0  0  0  0  0  0  0  0  0  0  0  0
   21.3547   -3.8164   39.9813 O   0  0  0  0  0  0  0  0  0  0  0  0
   23.6840   -4.0843   41.9996 N   0  0  0  0  0  0  0  0  0  0  0  0
   24.3458   -4.7252   42.9233 C   0  0  0  0  0  0  0  0  0  0  0  0
   23.8103   -5.9531   43.2449 N   0  0  1  0  0  0  0  0  0  0  0  0
  2  1  1  0  0  0  0
  3  1  1  6  0  0  0
  3  4  1  0  0  0  0
  3  5  1  0  0  0  0
  5  6  1  1  0  0  0
  5  7  1  0  0  0  0
  7  8  1  1  0  0  0
  7  9  1  0  0  0  0
  9  4  1  6  0  0  0
  9 20  1  0  0  0  0
 10 11  1  0  0  0  0
 11 12  1  6  0  0  0
 11 13  1  0  0  0  0
 14 13  1  1  0  0  0
 15 14  1  0  0  0  0
 15 16  1  1  0  0  0
 16 10  1  0  0  0  0
 16 17  2  0  0  0  0
 18 15  1  0  0  0  0
 19 18  1  0  0  0  0
 20 14  1  0  0  0  0
 20 19  1  1  0  0  0
M  END
>  <CHROM.1>
61.92248903,-171.95516780,23.95026365,-6.44311056,42.96488496,-0.37603680
-0.49470297,-0.27694990

>  <Name>
1nyi_lig

>  <RI>
0

>  <Rbt.Current_Directory>
/home/itssahil/PROJECTS/Mol_Feturizer/New_Systems/rnas/1nyi

>  <Rbt.Executable>
rbdock ($Id: //depot/dev/client3/rdock/2013.1/src/exe/rbdock.cxx#4 $)

>  <Rbt.Library>
libRbt.so (2013.1, Build901 2013/11/27)

>  <Rbt.Parameter_File>
/export/apps/rDock/src/rDock_2013.1_src/data/scripts/dock_solv.prm

>  <Rbt.Receptor>
prm/pocket_docking_7.prm

>  <SCORE>
-9.53042

>  <SCORE.INTER>
-7.68897

>  <SCORE.INTER.CONST>
1

>  <SCORE.INTER.POLAR>
-0.802311

>  <SCORE.INTER.ROT>
2

>  <SCORE.INTER.SOLV>
12.3947

>  <SCORE.INTER.VDW>
-11.5165

>  <SCORE.INTER.norm>
-0.384448

>  <SCORE.INTRA>
-1.84146

>  <SCORE.INTRA.DIHEDRAL>
-2.45787

>  <SCORE.INTRA.DIHEDRAL.0>
3.72394

>  <SCORE.INTRA.POLAR>
0

>  <SCORE.INTRA.POLAR.0>
0

>  <SCORE.INTRA.REPUL>
0

>  <SCORE.INTRA.REPUL.0>
0

>  <SCORE.INTRA.SOLV>
-0.629781

>  <SCORE.INTRA.SOLV.lig_0>
-49.4697

>  <SCORE.INTRA.VDW>
-0.297631

>  <SCORE.INTRA.VDW.0>
-0.896538

>  <SCORE.INTRA.norm>
-0.0920728

>  <SCORE.RESTR>
0

>  <SCORE.RESTR.CAVITY>
0

>  <SCORE.RESTR.norm>
0

>  <SCORE.SYSTEM>
0

>  <SCORE.SYSTEM.CONST>
0

>  <SCORE.SYSTEM.DIHEDRAL>
0

>  <SCORE.SYSTEM.SOLV>
0

>  <SCORE.SYSTEM.norm>
0

>  <SCORE.heavy>
20

>  <SCORE.norm>
-0.476521

>  <RMSD>
5.143

$$$$
1nyi_lig
 OpenBabel11021811403D
libRbt.so/2013.1/901 2013/11/27
 20 22  0  0  0  0  0  0  0  0999 V2000
   27.1038   -5.3437   44.4662 C   0  0  0  0  0  0  0  0  0  0  0  0
   28.4547   -5.7332   44.2186 O   0  0  0  0  0  0  0  0  0  0  0  0
   26.2352   -6.5520   44.7375 C   0  0  1  0  0  0  0  0  0  0  0  0
   24.8771   -6.1065   45.0005 O   0  0  0  0  0  0  0  0  0  0  0  0
   26.1415   -7.4863   43.5363 C   0  0  1  0  0  0  0  0  0  0  0  0
   27.1629   -8.4843   43.5674 O   0  0  0  0  0  0  0  0  0  0  0  0
   24.7298   -8.0523   43.6762 C   0  0  1  0  0  0  0  0  0  0  0  0
   24.6377   -9.0894   44.6414 O   0  0  0  0  0  0  0  0  0  0  0  0
   23.9751   -6.8159   44.1598 C   0  0  2  0  0  0  0  0  0  0  0  0
   19.9256   -5.8997   41.1182 N   0  0  0  0  0  0  0  0  0  0  0  0
   20.1461   -6.9391   41.9890 C   0  0  1  0  0  0  0  0  0  0  0  0
   19.1703   -7.8457   42.0594 N   0  0  0  0  0  0  0  0  0  0  0  0
   21.2409   -7.0802   42.7308 N   0  0  0  0  0  0  0  0  0  0  0  0
   22.1390   -6.0730   42.5252 C   0  0  1  0  0  0  0  0  0  0  0  0
   22.0090   -4.9891   41.6750 C   0  0  1  0  0  0  0  0  0  0  0  0
   20.8236   -4.8553   40.8996 C   0  0  0  0  0  0  0  0  0  0  0  0
   20.5254   -3.9643   40.0942 O   0  0  0  0  0  0  0  0  0  0  0  0
   23.1280   -4.1701   41.7540 N   0  0  0  0  0  0  0  0  0  0  0  0
   23.9016   -4.7599   42.6233 C   0  0  0  0  0  0  0  0  0  0  0  0
   23.3790   -5.9271   43.1356 N   0  0  1  0  0  0  0  0  0  0  0  0
  2  1  1  0  0  0  0
  3  1  1  6  0  0  0
  3  4  1  0  0  0  0
  3  5  1  0  0  0  0
  5  6  1  1  0  0  0
  5  7  1  0  0  0  0
  7  8  1  1  0  0  0
  7  9  1  0  0  0  0
  9  4  1  6  0  0  0
  9 20  1  0  0  0  0
 10 11  1  0  0  0  0
 11 12  1  6  0  0  0
 11 13  1  0  0  0  0
 14 13  1  1  0  0  0
 15 14  1  0  0  0  0
 15 16  1  1  0  0  0
 16 10  1  0  0  0  0
 16 17  2  0  0  0  0
 18 15  1  0  0  0  0
 19 18  1  0  0  0  0
 20 14  1  0  0  0  0
 20 19  1  1  0  0  0
M  END
>  <CHROM.1>
179.25476567,-152.17958163,23.55936682,-6.32183891,42.95897018,-0.33032498
-0.33947659,-0.40844469

>  <Name>
1nyi_lig

>  <RI>
0

>  <Rbt.Current_Directory>
/home/itssahil/PROJECTS/Mol_Feturizer/New_Systems/rnas/1nyi

>  <Rbt.Executable>
rbdock ($Id: //depot/dev/client3/rdock/2013.1/src/exe/rbdock.cxx#4 $)

>  <Rbt.Library>
libRbt.so (2013.1, Build901 2013/11/27)

>  <Rbt.Parameter_File>
/export/apps/rDock/src/rDock_2013.1_src/data/scripts/dock_solv.prm

>  <Rbt.Receptor>
prm/pocket_docking_6.prm

>  <SCORE>
-8.84547

>  <SCORE.INTER>
-6.97057

>  <SCORE.INTER.CONST>
1

>  <SCORE.INTER.POLAR>
-0.748331

>  <SCORE.INTER.ROT>
2

>  <SCORE.INTER.SOLV>
9.27941

>  <SCORE.INTER.VDW>
-10.1791

>  <SCORE.INTER.norm>
-0.348529

>  <SCORE.INTRA>
-1.87489

>  <SCORE.INTRA.DIHEDRAL>
-2.41624

>  <SCORE.INTRA.DIHEDRAL.0>
3.72394

>  <SCORE.INTRA.POLAR>
0

>  <SCORE.INTRA.POLAR.0>
0

>  <SCORE.INTRA.REPUL>
0

>  <SCORE.INTRA.REPUL.0>
0

>  <SCORE.INTRA.SOLV>
-0.584218

>  <SCORE.INTRA.SOLV.lig_0>
-49.4697

>  <SCORE.INTRA.VDW>
-0.374663

>  <SCORE.INTRA.VDW.0>
-0.896538

>  <SCORE.INTRA.norm>
-0.0937445

>  <SCORE.RESTR>
0

>  <SCORE.RESTR.CAVITY>
0

>  <SCORE.RESTR.norm>
0

>  <SCORE.SYSTEM>
0

>  <SCORE.SYSTEM.CONST>
0

>  <SCORE.SYSTEM.DIHEDRAL>
0

>  <SCORE.SYSTEM.SOLV>
0

>  <SCORE.SYSTEM.norm>
0

>  <SCORE.heavy>
20

>  <SCORE.norm>
-0.442273

>  <RMSD>
5.144

$$$$
1nyi_lig
 OpenBabel11021811403D
libRbt.so/2013.1/901 2013/11/27
 20 22  0  0  0  0  0  0  0  0999 V2000
   27.5963   -6.0224   44.3622 C   0  0  0  0  0  0  0  0  0  0  0  0
   27.8417   -5.1503   45.4655 O   0  0  0  0  0  0  0  0  0  0  0  0
   26.5367   -7.0449   44.7083 C   0  0  1  0  0  0  0  0  0  0  0  0
   25.2953   -6.3528   45.0119 O   0  0  0  0  0  0  0  0  0  0  0  0
   26.2199   -7.9760   43.5432 C   0  0  1  0  0  0  0  0  0  0  0  0
   27.0441   -9.1424   43.5653 O   0  0  0  0  0  0  0  0  0  0  0  0
   24.7371   -8.2714   43.7593 C   0  0  1  0  0  0  0  0  0  0  0  0
   24.5034   -9.2500   44.7609 O   0  0  0  0  0  0  0  0  0  0  0  0
   24.2419   -6.9065   44.2324 C   0  0  2  0  0  0  0  0  0  0  0  0
   20.6976   -5.8775   40.6452 N   0  0  0  0  0  0  0  0  0  0  0  0
   20.8337   -6.9856   41.4457 C   0  0  1  0  0  0  0  0  0  0  0  0
   19.9147   -7.9364   41.2706 N   0  0  0  0  0  0  0  0  0  0  0  0
   21.7988   -7.1501   42.3458 N   0  0  0  0  0  0  0  0  0  0  0  0
   22.6574   -6.0896   42.3840 C   0  0  1  0  0  0  0  0  0  0  0  0
   22.6045   -4.9352   41.6229 C   0  0  1  0  0  0  0  0  0  0  0  0
   21.5561   -4.7788   40.6738 C   0  0  0  0  0  0  0  0  0  0  0  0
   21.3416   -3.8278   39.9114 O   0  0  0  0  0  0  0  0  0  0  0  0
   23.6452   -4.0798   41.9611 N   0  0  0  0  0  0  0  0  0  0  0  0
   24.2996   -4.7167   42.8928 C   0  0  0  0  0  0  0  0  0  0  0  0
   23.7700   -5.9496   43.2049 N   0  0  1  0  0  0  0  0  0  0  0  0
  2  1  1  0  0  0  0
  3  1  1  6  0  0  0
  3  4  1  0  0  0  0
  3  5  1  0  0  0  0
  5  6  1  1  0  0  0
  5  7  1  0  0  0  0
  7  8  1  1  0  0  0
  7  9  1  0  0  0  0
  9  4  1  6  0  0  0
  9 20  1  0  0  0  0
 10 11  1  0  0  0  0
 11 12  1  6  0  0  0
 11 13  1  0  0  0  0
 14 13  1  1  0  0  0
 15 14  1  0  0  0  0
 15 16  1  1  0  0  0
 16 10  1  0  0  0  0
 16 17  2  0  0  0  0
 18 15  1  0  0  0  0
 19 18  1  0  0  0  0
 20 14  1  0  0  0  0
 20 19  1  1  0  0  0
M  END
>  <CHROM.1>
61.54399564,-171.54287911,23.91824797,-6.43370864,42.92927882,-0.36868835
-0.51251099,-0.27101071

>  <Name>
1nyi_lig

>  <RI>
0

>  <Rbt.Current_Directory>
/home/itssahil/PROJECTS/Mol_Feturizer/New_Systems/rnas/1nyi

>  <Rbt.Executable>
rbdock ($Id: //depot/dev/client3/rdock/2013.1/src/exe/rbdock.cxx#4 $)

>  <Rbt.Library>
libRbt.so (2013.1, Build901 2013/11/27)

>  <Rbt.Parameter_File>
/export/apps/rDock/src/rDock_2013.1_src/data/scripts/dock_solv.prm

>  <Rbt.Receptor>
prm/pocket_docking_7.prm

>  <SCORE>
-9.56352

>  <SCORE.INTER>
-7.71942

>  <SCORE.INTER.CONST>
1

>  <SCORE.INTER.POLAR>
-0.814711

>  <SCORE.INTER.ROT>
2

>  <SCORE.INTER.SOLV>
12.6309

>  <SCORE.INTER.VDW>
-11.5742

>  <SCORE.INTER.norm>
-0.385971

>  <SCORE.INTRA>
-1.8441

>  <SCORE.INTRA.DIHEDRAL>
-2.46119

>  <SCORE.INTRA.DIHEDRAL.0>
3.72394

>  <SCORE.INTRA.POLAR>
0

>  <SCORE.INTRA.POLAR.0>
0

>  <SCORE.INTRA.REPUL>
0

>  <SCORE.INTRA.REPUL.0>
0

>  <SCORE.INTRA.SOLV>
-0.630599

>  <SCORE.INTRA.SOLV.lig_0>
-49.4697

>  <SCORE.INTRA.VDW>
-0.298211

>  <SCORE.INTRA.VDW.0>
-0.896538

>  <SCORE.INTRA.norm>
-0.0922052

>  <SCORE.RESTR>
0

>  <SCORE.RESTR.CAVITY>
0

>  <SCORE.RESTR.norm>
0

>  <SCORE.SYSTEM>
0

>  <SCORE.SYSTEM.CONST>
0

>  <SCORE.SYSTEM.DIHEDRAL>
0

>  <SCORE.SYSTEM.SOLV>
0

>  <SCORE.SYSTEM.norm>
0

>  <SCORE.heavy>
20

>  <SCORE.norm>
-0.478176

>  <RMSD>
5.146

$$$$
1nyi_lig
 OpenBabel11021811403D
libRbt.so/2013.1/901 2013/11/27
 20 22  0  0  0  0  0  0  0  0999 V2000
   28.1197   -6.5191   44.6579 C   0  0  0  0  0  0  0  0  0  0  0  0
   28.3945   -5.7381   45.8209 O   0  0  0  0  0  0  0  0  0  0  0  0
   27.0236   -7.5253   44.9305 C   0  0  1  0  0  0  0  0  0  0  0  0
   25.8174   -6.8141   45.3196 O   0  0  0  0  0  0  0  0  0  0  0  0
   26.6499   -8.3325   43.6923 C   0  0  1  0  0  0  0  0  0  0  0  0
   27.4245   -9.5284   43.5926 O   0  0  0  0  0  0  0  0  0  0  0  0
   25.1595   -8.5862   43.9095 C   0  0  1  0  0  0  0  0  0  0  0  0
   24.9006   -9.6420   44.8226 O   0  0  0  0  0  0  0  0  0  0  0  0
   24.7295   -7.2513   44.5138 C   0  0  2  0  0  0  0  0  0  0  0  0
   21.1531   -5.7387   41.1360 N   0  0  0  0  0  0  0  0  0  0  0  0
   21.2514   -6.9176   41.8344 C   0  0  1  0  0  0  0  0  0  0  0  0
   20.2797   -7.8024   41.6064 N   0  0  0  0  0  0  0  0  0  0  0  0
   22.2294   -7.2077   42.6877 N   0  0  0  0  0  0  0  0  0  0  0  0
   23.1430   -6.1988   42.7906 C   0  0  1  0  0  0  0  0  0  0  0  0
   23.1311   -4.9814   42.1329 C   0  0  1  0  0  0  0  0  0  0  0  0
   22.0684   -4.6908   41.2327 C   0  0  0  0  0  0  0  0  0  0  0  0
   21.8845   -3.6676   40.5612 O   0  0  0  0  0  0  0  0  0  0  0  0
   24.2235   -4.2116   42.5115 N   0  0  0  0  0  0  0  0  0  0  0  0
   24.8673   -4.9590   43.3652 C   0  0  0  0  0  0  0  0  0  0  0  0
   24.2822   -6.1864   43.5866 N   0  0  1  0  0  0  0  0  0  0  0  0
  2  1  1  0  0  0  0
  3  1  1  6  0  0  0
  3  4  1  0  0  0  0
  3  5  1  0  0  0  0
  5  6  1  1  0  0  0
  5  7  1  0  0  0  0
  7  8  1  1  0  0  0
  7  9  1  0  0  0  0
  9  4  1  6  0  0  0
  9 20  1  0  0  0  0
 10 11  1  0  0  0  0
 11 12  1  6  0  0  0
 11 13  1  0  0  0  0
 14 13  1  1  0  0  0
 15 14  1  0  0  0  0
 15 16  1  1  0  0  0
 16 10  1  0  0  0  0
 16 17  2  0  0  0  0
 18 15  1  0  0  0  0
 19 18  1  0  0  0  0
 20 14  1  0  0  0  0
 20 19  1  1  0  0  0
M  END
>  <CHROM.1>
60.02222500,-170.67767169,24.39822162,-6.64260164,43.27343222,-0.41285576
-0.47844098,-0.20386784

>  <Name>
1nyi_lig

>  <RI>
0

>  <Rbt.Current_Directory>
/home/itssahil/PROJECTS/Mol_Feturizer/New_Systems/rnas/1nyi

>  <Rbt.Executable>
rbdock ($Id: //depot/dev/client3/rdock/2013.1/src/exe/rbdock.cxx#4 $)

>  <Rbt.Library>
libRbt.so (2013.1, Build901 2013/11/27)

>  <Rbt.Parameter_File>
/export/apps/rDock/src/rDock_2013.1_src/data/scripts/dock_solv.prm

>  <Rbt.Receptor>
prm/pocket_docking_4.prm

>  <SCORE>
-8.46719

>  <SCORE.INTER>
-6.62305

>  <SCORE.INTER.CONST>
1

>  <SCORE.INTER.POLAR>
-0.75421

>  <SCORE.INTER.ROT>
2

>  <SCORE.INTER.SOLV>
12.4417

>  <SCORE.INTER.VDW>
-10.9819

>  <SCORE.INTER.norm>
-0.331153

>  <SCORE.INTRA>
-1.84554

>  <SCORE.INTRA.DIHEDRAL>
-2.46759

>  <SCORE.INTRA.DIHEDRAL.0>
3.72394

>  <SCORE.INTRA.POLAR>
0

>  <SCORE.INTRA.POLAR.0>
0

>  <SCORE.INTRA.REPUL>
0

>  <SCORE.INTRA.REPUL.0>
0

>  <SCORE.INTRA.SOLV>
-0.627505

>  <SCORE.INTRA.SOLV.lig_0>
-49.4697

>  <SCORE.INTRA.VDW>
-0.297991

>  <SCORE.INTRA.VDW.0>
-0.896538

>  <SCORE.INTRA.norm>
-0.0922768

>  <SCORE.RESTR>
0.00139952

>  <SCORE.RESTR.CAVITY>
0.00139952

>  <SCORE.RESTR.norm>
6.99761e-05

>  <SCORE.SYSTEM>
0

>  <SCORE.SYSTEM.CONST>
0

>  <SCORE.SYSTEM.DIHEDRAL>
0

>  <SCORE.SYSTEM.SOLV>
0

>  <SCORE.SYSTEM.norm>
0

>  <SCORE.heavy>
20

>  <SCORE.norm>
-0.42336

>  <RMSD>
5.158

$$$$
1nyi_lig
 OpenBabel11021811403D
libRbt.so/2013.1/901 2013/11/27
 20 22  0  0  0  0  0  0  0  0999 V2000
   27.6727   -5.9836   44.4918 C   0  0  0  0  0  0  0  0  0  0  0  0
   28.9650   -6.5654   44.3203 O   0  0  0  0  0  0  0  0  0  0  0  0
   26.6367   -7.0469   44.7822 C   0  0  1  0  0  0  0  0  0  0  0  0
   25.3696   -6.4009   45.0810 O   0  0  0  0  0  0  0  0  0  0  0  0
   26.3715   -7.9482   43.5814 C   0  0  1  0  0  0  0  0  0  0  0  0
   27.2290   -9.0906   43.5839 O   0  0  0  0  0  0  0  0  0  0  0  0
   24.8939   -8.2930   43.7560 C   0  0  1  0  0  0  0  0  0  0  0  0
   24.6685   -9.3100   44.7206 O   0  0  0  0  0  0  0  0  0  0  0  0
   24.3491   -6.9590   44.2618 C   0  0  2  0  0  0  0  0  0  0  0  0
   20.7506   -5.8382   40.7571 N   0  0  0  0  0  0  0  0  0  0  0  0
   20.8870   -6.9580   41.5411 C   0  0  1  0  0  0  0  0  0  0  0  0
   19.9521   -7.8942   41.3723 N   0  0  0  0  0  0  0  0  0  0  0  0
   21.8670   -7.1465   42.4202 N   0  0  0  0  0  0  0  0  0  0  0  0
   22.7404   -6.0981   42.4547 C   0  0  1  0  0  0  0  0  0  0  0  0
   22.6885   -4.9336   41.7090 C   0  0  1  0  0  0  0  0  0  0  0  0
   21.6242   -4.7514   40.7825 C   0  0  0  0  0  0  0  0  0  0  0  0
   21.4080   -3.7882   40.0361 O   0  0  0  0  0  0  0  0  0  0  0  0
   23.7470   -4.0964   42.0373 N   0  0  0  0  0  0  0  0  0  0  0  0
   24.4106   -4.7536   42.9483 C   0  0  0  0  0  0  0  0  0  0  0  0
   23.8705   -5.9832   43.2555 N   0  0  1  0  0  0  0  0  0  0  0  0
  2  1  1  0  0  0  0
  3  1  1  6  0  0  0
  3  4  1  0  0  0  0
  3  5  1  0  0  0  0
  5  6  1  1  0  0  0
  5  7  1  0  0  0  0
  7  8  1  1  0  0  0
  7  9  1  0  0  0  0
  9  4  1  6  0  0  0
  9 20  1  0  0  0  0
 10 11  1  0  0  0  0
 11 12  1  6  0  0  0
 11 13  1  0  0  0  0
 14 13  1  1  0  0  0
 15 14  1  0  0  0  0
 15 16  1  1  0  0  0
 16 10  1  0  0  0  0
 16 17  2  0  0  0  0
 18 15  1  0  0  0  0
 19 18  1  0  0  0  0
 20 14  1  0  0  0  0
 20 19  1  1  0  0  0
M  END
>  <CHROM.1>
174.34900143,-167.99737658,24.07437554,-6.51342921,42.92652520,-0.42309823
-0.40468565,-0.34147460

>  <Name>
1nyi_lig

>  <RI>
0

>  <Rbt.Current_Directory>
/home/itssahil/PROJECTS/Mol_Feturizer/New_Systems/rnas/1nyi

>  <Rbt.Executable>
rbdock ($Id: //depot/dev/client3/rdock/2013.1/src/exe/rbdock.cxx#4 $)

>  <Rbt.Library>
libRbt.so (2013.1, Build901 2013/11/27)

>  <Rbt.Parameter_File>
/export/apps/rDock/src/rDock_2013.1_src/data/scripts/dock_solv.prm

>  <Rbt.Receptor>
prm/pocket_docking_6.prm

>  <SCORE>
-9.60738

>  <SCORE.INTER>
-7.87975

>  <SCORE.INTER.CONST>
1

>  <SCORE.INTER.POLAR>
-0.801778

>  <SCORE.INTER.ROT>
2

>  <SCORE.INTER.SOLV>
13.0566

>  <SCORE.INTER.VDW>
-11.8661

>  <SCORE.INTER.norm>
-0.393987

>  <SCORE.INTRA>
-1.72763

>  <SCORE.INTRA.DIHEDRAL>
-2.34847

>  <SCORE.INTRA.DIHEDRAL.0>
3.72394

>  <SCORE.INTRA.POLAR>
0

>  <SCORE.INTRA.POLAR.0>
0

>  <SCORE.INTRA.REPUL>
0

>  <SCORE.INTRA.REPUL.0>
0

>  <SCORE.INTRA.SOLV>
-0.48736

>  <SCORE.INTRA.SOLV.lig_0>
-49.4697

>  <SCORE.INTRA.VDW>
-0.309715

>  <SCORE.INTRA.VDW.0>
-0.896538

>  <SCORE.INTRA.norm>
-0.0863814

>  <SCORE.RESTR>
0

>  <SCORE.RESTR.CAVITY>
0

>  <SCORE.RESTR.norm>
0

>  <SCORE.SYSTEM>
0

>  <SCORE.SYSTEM.CONST>
0

>  <SCORE.SYSTEM.DIHEDRAL>
0

>  <SCORE.SYSTEM.SOLV>
0

>  <SCORE.SYSTEM.norm>
0

>  <SCORE.heavy>
20

>  <SCORE.norm>
-0.480369

>  <RMSD>
5.180

$$$$
1nyi_lig
 OpenBabel11021811403D
libRbt.so/2013.1/901 2013/11/27
 20 22  0  0  0  0  0  0  0  0999 V2000
   28.0636   -6.8868   46.4922 C   0  0  0  0  0  0  0  0  0  0  0  0
   27.5722   -7.0922   47.8167 O   0  0  0  0  0  0  0  0  0  0  0  0
   27.9495   -8.1529   45.6722 C   0  0  1  0  0  0  0  0  0  0  0  0
   26.5499   -8.5355   45.5885 O   0  0  0  0  0  0  0  0  0  0  0  0
   28.4154   -7.9614   44.2332 C   0  0  1  0  0  0  0  0  0  0  0  0
   29.8065   -8.2521   44.0896 O   0  0  0  0  0  0  0  0  0  0  0  0
   27.5081   -8.9234   43.4689 C   0  0  1  0  0  0  0  0  0  0  0  0
   27.9322  -10.2757   43.5526 O   0  0  0  0  0  0  0  0  0  0  0  0
   26.1950   -8.7366   44.2257 C   0  0  2  0  0  0  0  0  0  0  0  0
   25.4851   -3.7072   43.3950 N   0  0  0  0  0  0  0  0  0  0  0  0
   26.5697   -4.3594   43.9293 C   0  0  1  0  0  0  0  0  0  0  0  0
   27.5903   -3.5784   44.2865 N   0  0  0  0  0  0  0  0  0  0  0  0
   26.6459   -5.6757   44.1034 N   0  0  0  0  0  0  0  0  0  0  0  0
   25.5121   -6.3181   43.6972 C   0  0  1  0  0  0  0  0  0  0  0  0
   24.3739   -5.7529   43.1497 C   0  0  1  0  0  0  0  0  0  0  0  0
   24.3211   -4.3432   42.9643 C   0  0  0  0  0  0  0  0  0  0  0  0
   23.4019   -3.6612   42.4935 O   0  0  0  0  0  0  0  0  0  0  0  0
   23.4385   -6.7343   42.8481 N   0  0  0  0  0  0  0  0  0  0  0  0
   24.0076   -7.8493   43.2152 C   0  0  0  0  0  0  0  0  0  0  0  0
   25.2672   -7.6852   43.7485 N   0  0  1  0  0  0  0  0  0  0  0  0
  2  1  1  0  0  0  0
  3  1  1  1  0  0  0
  3  4  1  0  0  0  0
  3  5  1  0  0  0  0
  5  6  1  1  0  0  0
  5  7  1  0  0  0  0
  7  8  1  1  0  0  0
  7  9  1  0  0  0  0
  9  4  1  1  0  0  0
  9 20  1  0  0  0  0
 10 11  1  0  0  0  0
 11 12  1  1  0  0  0
 11 13  1  0  0  0  0
 14 13  1  6  0  0  0
 15 14  1  0  0  0  0
 15 16  1  6  0  0  0
 16 10  1  0  0  0  0
 16 17  2  0  0  0  0
 18 15  1  0  0  0  0
 19 18  1  0  0  0  0
 20 14  1  0  0  0  0
 20 19  1  6  0  0  0
M  END
>  <CHROM.1>
60.77430856,60.54978768,26.36232830,-6.75978185,44.17918077,-0.69355000,-0.59211561
0.12987976

>  <Name>
1nyi_lig

>  <RI>
0

>  <Rbt.Current_Directory>
/home/itssahil/PROJECTS/Mol_Feturizer/New_Systems/rnas/1nyi

>  <Rbt.Executable>
rbdock ($Id: //depot/dev/client3/rdock/2013.1/src/exe/rbdock.cxx#4 $)

>  <Rbt.Library>
libRbt.so (2013.1, Build901 2013/11/27)

>  <Rbt.Parameter_File>
/export/apps/rDock/src/rDock_2013.1_src/data/scripts/dock_solv.prm

>  <Rbt.Receptor>
prm/pocket_docking_7.prm

>  <SCORE>
-8.09749

>  <SCORE.INTER>
-6.43345

>  <SCORE.INTER.CONST>
1

>  <SCORE.INTER.POLAR>
0

>  <SCORE.INTER.ROT>
2

>  <SCORE.INTER.SOLV>
8.49518

>  <SCORE.INTER.VDW>
-12.054

>  <SCORE.INTER.norm>
-0.321673

>  <SCORE.INTRA>
-1.66403

>  <SCORE.INTRA.DIHEDRAL>
-2.50342

>  <SCORE.INTRA.DIHEDRAL.0>
3.72394

>  <SCORE.INTRA.POLAR>
0

>  <SCORE.INTRA.POLAR.0>
0

>  <SCORE.INTRA.REPUL>
0

>  <SCORE.INTRA.REPUL.0>
0

>  <SCORE.INTRA.SOLV>
1.51068

>  <SCORE.INTRA.SOLV.lig_0>
-49.4697

>  <SCORE.INTRA.VDW>
-1.16766

>  <SCORE.INTRA.VDW.0>
-0.896538

>  <SCORE.INTRA.norm>
-0.0832016

>  <SCORE.RESTR>
0

>  <SCORE.RESTR.CAVITY>
0

>  <SCORE.RESTR.norm>
0

>  <SCORE.SYSTEM>
0

>  <SCORE.SYSTEM.CONST>
0

>  <SCORE.SYSTEM.DIHEDRAL>
0

>  <SCORE.SYSTEM.SOLV>
0

>  <SCORE.SYSTEM.norm>
0

>  <SCORE.heavy>
20

>  <SCORE.norm>
-0.404874

>  <RMSD>
5.191

$$$$
1nyi_lig
 OpenBabel11021811403D
libRbt.so/2013.1/901 2013/11/27
 20 22  0  0  0  0  0  0  0  0999 V2000
   22.7643   -3.7559   42.0608 C   0  0  0  0  0  0  0  0  0  0  0  0
   23.8957   -3.2857   42.7935 O   0  0  0  0  0  0  0  0  0  0  0  0
   22.4695   -5.2019   42.3930 C   0  0  1  0  0  0  0  0  0  0  0  0
   23.6084   -6.0164   42.0038 O   0  0  0  0  0  0  0  0  0  0  0  0
   22.2848   -5.4322   43.8888 C   0  0  1  0  0  0  0  0  0  0  0  0
   20.9172   -5.2906   44.2761 O   0  0  0  0  0  0  0  0  0  0  0  0
   22.8267   -6.8489   44.0671 C   0  0  1  0  0  0  0  0  0  0  0  0
   21.9022   -7.8532   43.6769 O   0  0  0  0  0  0  0  0  0  0  0  0
   24.0117   -6.8227   43.1042 C   0  0  2  0  0  0  0  0  0  0  0  0
   28.8611   -8.1839   44.1622 N   0  0  0  0  0  0  0  0  0  0  0  0
   27.8325   -8.9406   43.6556 C   0  0  1  0  0  0  0  0  0  0  0  0
   28.1301  -10.2153   43.3992 N   0  0  0  0  0  0  0  0  0  0  0  0
   26.6057   -8.4833   43.4221 N   0  0  0  0  0  0  0  0  0  0  0  0
   26.4728   -7.1656   43.7524 C   0  0  1  0  0  0  0  0  0  0  0  0
   27.4437   -6.3238   44.2658 C   0  0  1  0  0  0  0  0  0  0  0  0
   28.7513   -6.8345   44.4971 C   0  0  0  0  0  0  0  0  0  0  0  0
   29.7424   -6.2430   44.9436 O   0  0  0  0  0  0  0  0  0  0  0  0
   26.9309   -5.0473   44.4573 N   0  0  0  0  0  0  0  0  0  0  0  0
   25.6872   -5.1358   44.0738 C   0  0  0  0  0  0  0  0  0  0  0  0
   25.3245   -6.3912   43.6374 N   0  0  1  0  0  0  0  0  0  0  0  0
  2  1  1  0  0  0  0
  3  1  1  1  0  0  0
  3  4  1  0  0  0  0
  3  5  1  0  0  0  0
  5  6  1  6  0  0  0
  5  7  1  0  0  0  0
  7  8  1  6  0  0  0
  7  9  1  0  0  0  0
  9  4  1  6  0  0  0
  9 20  1  0  0  0  0
 10 11  1  0  0  0  0
 11 12  1  1  0  0  0
 11 13  1  0  0  0  0
 14 13  1  6  0  0  0
 15 14  1  0  0  0  0
 15 16  1  6  0  0  0
 16 10  1  0  0  0  0
 16 17  2  0  0  0  0
 18 15  1  0  0  0  0
 19 18  1  0  0  0  0
 20 14  1  0  0  0  0
 20 19  1  6  0  0  0
M  END
>  <CHROM.1>
-62.01882335,-122.05384696,25.26601617,-6.43968232,43.61807395,-2.75789344
0.15618674,-3.13976705

>  <Name>
1nyi_lig

>  <RI>
0

>  <Rbt.Current_Directory>
/home/itssahil/PROJECTS/Mol_Feturizer/New_Systems/rnas/1nyi

>  <Rbt.Executable>
rbdock ($Id: //depot/dev/client3/rdock/2013.1/src/exe/rbdock.cxx#4 $)

>  <Rbt.Library>
libRbt.so (2013.1, Build901 2013/11/27)

>  <Rbt.Parameter_File>
/export/apps/rDock/src/rDock_2013.1_src/data/scripts/dock_solv.prm

>  <Rbt.Receptor>
prm/pocket_docking_6.prm

>  <SCORE>
-10.6163

>  <SCORE.INTER>
-9.17806

>  <SCORE.INTER.CONST>
1

>  <SCORE.INTER.POLAR>
-0.748277

>  <SCORE.INTER.ROT>
2

>  <SCORE.INTER.SOLV>
12.2408

>  <SCORE.INTER.VDW>
-12.6381

>  <SCORE.INTER.norm>
-0.458903

>  <SCORE.INTRA>
-1.43829

>  <SCORE.INTRA.DIHEDRAL>
-2.47434

>  <SCORE.INTRA.DIHEDRAL.0>
3.72394

>  <SCORE.INTRA.POLAR>
0

>  <SCORE.INTRA.POLAR.0>
0

>  <SCORE.INTRA.REPUL>
0

>  <SCORE.INTRA.REPUL.0>
0

>  <SCORE.INTRA.SOLV>
0.135367

>  <SCORE.INTRA.SOLV.lig_0>
-49.4697

>  <SCORE.INTRA.VDW>
-0.268801

>  <SCORE.INTRA.VDW.0>
-0.896538

>  <SCORE.INTRA.norm>
-0.0719145

>  <SCORE.RESTR>
0

>  <SCORE.RESTR.CAVITY>
0

>  <SCORE.RESTR.norm>
0

>  <SCORE.SYSTEM>
0

>  <SCORE.SYSTEM.CONST>
0

>  <SCORE.SYSTEM.DIHEDRAL>
0

>  <SCORE.SYSTEM.SOLV>
0

>  <SCORE.SYSTEM.norm>
0

>  <SCORE.heavy>
20

>  <SCORE.norm>
-0.530817

>  <RMSD>
5.194

$$$$
1nyi_lig
 OpenBabel11021811403D
libRbt.so/2013.1/901 2013/11/27
 20 22  0  0  0  0  0  0  0  0999 V2000
   27.5005   -9.0590   44.2788 C   0  0  0  0  0  0  0  0  0  0  0  0
   28.2926   -9.2976   43.1153 O   0  0  0  0  0  0  0  0  0  0  0  0
   27.4462   -7.5820   44.6008 C   0  0  1  0  0  0  0  0  0  0  0  0
   26.8433   -6.8777   43.4815 O   0  0  0  0  0  0  0  0  0  0  0  0
   26.5646   -7.2786   45.8071 C   0  0  1  0  0  0  0  0  0  0  0  0
   27.3152   -7.2944   47.0222 O   0  0  0  0  0  0  0  0  0  0  0  0
   25.9987   -5.9040   45.4564 C   0  0  1  0  0  0  0  0  0  0  0  0
   26.9107   -4.8449   45.7059 O   0  0  0  0  0  0  0  0  0  0  0  0
   25.7768   -6.0634   43.9539 C   0  0  2  0  0  0  0  0  0  0  0  0
   21.6760   -5.2769   40.9449 N   0  0  0  0  0  0  0  0  0  0  0  0
   22.7824   -4.4857   41.1373 C   0  0  1  0  0  0  0  0  0  0  0  0
   22.8003   -3.3459   40.4448 N   0  0  0  0  0  0  0  0  0  0  0  0
   23.7916   -4.7875   41.9492 N   0  0  0  0  0  0  0  0  0  0  0  0
   23.6044   -5.9798   42.5869 C   0  0  1  0  0  0  0  0  0  0  0  0
   22.5306   -6.8433   42.4602 C   0  0  1  0  0  0  0  0  0  0  0  0
   21.4682   -6.5025   41.5773 C   0  0  0  0  0  0  0  0  0  0  0  0
   20.4364   -7.1396   41.3302 O   0  0  0  0  0  0  0  0  0  0  0  0
   22.7094   -7.9647   43.2598 N   0  0  0  0  0  0  0  0  0  0  0  0
   23.8560   -7.7643   43.8489 C   0  0  0  0  0  0  0  0  0  0  0  0
   24.4635   -6.5777   43.5012 N   0  0  1  0  0  0  0  0  0  0  0  0
  2  1  1  0  0  0  0
  3  1  1  6  0  0  0
  3  4  1  0  0  0  0
  3  5  1  0  0  0  0
  5  6  1  1  0  0  0
  5  7  1  0  0  0  0
  7  8  1  6  0  0  0
  7  9  1  0  0  0  0
  9  4  1  1  0  0  0
  9 20  1  0  0  0  0
 10 11  1  0  0  0  0
 11 12  1  1  0  0  0
 11 13  1  0  0  0  0
 14 13  1  6  0  0  0
 15 14  1  0  0  0  0
 15 16  1  6  0  0  0
 16 10  1  0  0  0  0
 16 17  2  0  0  0  0
 18 15  1  0  0  0  0
 19 18  1  0  0  0  0
 20 14  1  0  0  0  0
 20 19  1  6  0  0  0
M  END
>  <CHROM.1>
60.73164835,-111.45782178,24.69997898,-6.56928135,43.35463148,0.28300350
0.60791801,3.13112449

>  <Name>
1nyi_lig

>  <RI>
0

>  <Rbt.Current_Directory>
/home/itssahil/PROJECTS/Mol_Feturizer/New_Systems/rnas/1nyi

>  <Rbt.Executable>
rbdock ($Id: //depot/dev/client3/rdock/2013.1/src/exe/rbdock.cxx#4 $)

>  <Rbt.Library>
libRbt.so (2013.1, Build901 2013/11/27)

>  <Rbt.Parameter_File>
/export/apps/rDock/src/rDock_2013.1_src/data/scripts/dock_solv.prm

>  <Rbt.Receptor>
prm/pocket_docking_5.prm

>  <SCORE>
-10.4199

>  <SCORE.INTER>
-8.31738

>  <SCORE.INTER.CONST>
1

>  <SCORE.INTER.POLAR>
-0.748331

>  <SCORE.INTER.ROT>
2

>  <SCORE.INTER.SOLV>
9.3128

>  <SCORE.INTER.VDW>
-11.0881

>  <SCORE.INTER.norm>
-0.415869

>  <SCORE.INTRA>
-2.10252

>  <SCORE.INTRA.DIHEDRAL>
-2.53155

>  <SCORE.INTRA.DIHEDRAL.0>
3.72394

>  <SCORE.INTRA.POLAR>
0

>  <SCORE.INTRA.POLAR.0>
0

>  <SCORE.INTRA.REPUL>
0

>  <SCORE.INTRA.REPUL.0>
0

>  <SCORE.INTRA.SOLV>
-0.881695

>  <SCORE.INTRA.SOLV.lig_0>
-49.4697

>  <SCORE.INTRA.VDW>
-0.395902

>  <SCORE.INTRA.VDW.0>
-0.896538

>  <SCORE.INTRA.norm>
-0.105126

>  <SCORE.RESTR>
0

>  <SCORE.RESTR.CAVITY>
0

>  <SCORE.RESTR.norm>
0

>  <SCORE.SYSTEM>
0

>  <SCORE.SYSTEM.CONST>
0

>  <SCORE.SYSTEM.DIHEDRAL>
0

>  <SCORE.SYSTEM.SOLV>
0

>  <SCORE.SYSTEM.norm>
0

>  <SCORE.heavy>
20

>  <SCORE.norm>
-0.520995

>  <RMSD>
5.196

$$$$
1nyi_lig
 OpenBabel11021811403D
libRbt.so/2013.1/901 2013/11/27
 20 22  0  0  0  0  0  0  0  0999 V2000
   27.5309   -9.1415   44.2708 C   0  0  0  0  0  0  0  0  0  0  0  0
   28.3281   -9.3963   43.1143 O   0  0  0  0  0  0  0  0  0  0  0  0
   27.5021   -7.6634   44.5912 C   0  0  1  0  0  0  0  0  0  0  0  0
   26.9036   -6.9510   43.4747 O   0  0  0  0  0  0  0  0  0  0  0  0
   26.6329   -7.3445   45.8025 C   0  0  1  0  0  0  0  0  0  0  0  0
   27.3907   -7.3708   47.0130 O   0  0  0  0  0  0  0  0  0  0  0  0
   26.0867   -5.9616   45.4535 C   0  0  1  0  0  0  0  0  0  0  0  0
   27.0170   -4.9169   45.6960 O   0  0  0  0  0  0  0  0  0  0  0  0
   25.8530   -6.1193   43.9526 C   0  0  2  0  0  0  0  0  0  0  0  0
   21.7032   -5.2224   41.0434 N   0  0  0  0  0  0  0  0  0  0  0  0
   22.8173   -4.4429   41.2392 C   0  0  1  0  0  0  0  0  0  0  0  0
   22.8291   -3.2829   40.5809 N   0  0  0  0  0  0  0  0  0  0  0  0
   23.8393   -4.7739   42.0233 N   0  0  0  0  0  0  0  0  0  0  0  0
   23.6570   -5.9838   42.6284 C   0  0  1  0  0  0  0  0  0  0  0  0
   22.5763   -6.8377   42.4955 C   0  0  1  0  0  0  0  0  0  0  0  0
   21.5001   -6.4653   41.6426 C   0  0  0  0  0  0  0  0  0  0  0  0
   20.4604   -7.0895   41.3954 O   0  0  0  0  0  0  0  0  0  0  0  0
   22.7632   -7.9835   43.2579 N   0  0  0  0  0  0  0  0  0  0  0  0
   23.9213   -7.8066   43.8318 C   0  0  0  0  0  0  0  0  0  0  0  0
   24.5290   -6.6131   43.5087 N   0  0  1  0  0  0  0  0  0  0  0  0
  2  1  1  0  0  0  0
  3  1  1  6  0  0  0
  3  4  1  0  0  0  0
  3  5  1  0  0  0  0
  5  6  1  1  0  0  0
  5  7  1  0  0  0  0
  7  8  1  6  0  0  0
  7  9  1  0  0  0  0
  9  4  1  1  0  0  0
  9 20  1  0  0  0  0
 10 11  1  0  0  0  0
 11 12  1  1  0  0  0
 11 13  1  0  0  0  0
 14 13  1  6  0  0  0
 15 14  1  0  0  0  0
 15 16  1  6  0  0  0
 16 10  1  0  0  0  0
 16 17  2  0  0  0  0
 18 15  1  0  0  0  0
 19 18  1  0  0  0  0
 20 14  1  0  0  0  0
 20 19  1  6  0  0  0
M  END
>  <CHROM.1>
61.58925494,-113.46438495,24.75389808,-6.59548579,43.38141615,0.29407971
0.59606754,-3.13600127

>  <Name>
1nyi_lig

>  <RI>
0

>  <Rbt.Current_Directory>
/home/itssahil/PROJECTS/Mol_Feturizer/New_Systems/rnas/1nyi

>  <Rbt.Executable>
rbdock ($Id: //depot/dev/client3/rdock/2013.1/src/exe/rbdock.cxx#4 $)

>  <Rbt.Library>
libRbt.so (2013.1, Build901 2013/11/27)

>  <Rbt.Parameter_File>
/export/apps/rDock/src/rDock_2013.1_src/data/scripts/dock_solv.prm

>  <Rbt.Receptor>
prm/pocket_docking_5.prm

>  <SCORE>
-10.3659

>  <SCORE.INTER>
-8.2594

>  <SCORE.INTER.CONST>
1

>  <SCORE.INTER.POLAR>
-0.725

>  <SCORE.INTER.ROT>
2

>  <SCORE.INTER.SOLV>
9.57234

>  <SCORE.INTER.VDW>
-11.2137

>  <SCORE.INTER.norm>
-0.41297

>  <SCORE.INTRA>
-2.10646

>  <SCORE.INTRA.DIHEDRAL>
-2.51496

>  <SCORE.INTRA.DIHEDRAL.0>
3.72394

>  <SCORE.INTRA.POLAR>
0

>  <SCORE.INTRA.POLAR.0>
0

>  <SCORE.INTRA.REPUL>
0

>  <SCORE.INTRA.REPUL.0>
0

>  <SCORE.INTRA.SOLV>
-0.886765

>  <SCORE.INTRA.SOLV.lig_0>
-49.4697

>  <SCORE.INTRA.VDW>
-0.405597

>  <SCORE.INTRA.VDW.0>
-0.896538

>  <SCORE.INTRA.norm>
-0.105323

>  <SCORE.RESTR>
0

>  <SCORE.RESTR.CAVITY>
0

>  <SCORE.RESTR.norm>
0

>  <SCORE.SYSTEM>
0

>  <SCORE.SYSTEM.CONST>
0

>  <SCORE.SYSTEM.DIHEDRAL>
0

>  <SCORE.SYSTEM.SOLV>
0

>  <SCORE.SYSTEM.norm>
0

>  <SCORE.heavy>
20

>  <SCORE.norm>
-0.518293

>  <RMSD>
5.214

$$$$
1nyi_lig
 OpenBabel11021811403D
libRbt.so/2013.1/901 2013/11/27
 20 22  0  0  0  0  0  0  0  0999 V2000
   20.9884   -6.4642   41.7527 C   0  0  0  0  0  0  0  0  0  0  0  0
   21.9447   -7.4669   41.4091 O   0  0  0  0  0  0  0  0  0  0  0  0
   21.6415   -5.3366   42.5209 C   0  0  1  0  0  0  0  0  0  0  0  0
   22.2428   -5.8760   43.7291 O   0  0  0  0  0  0  0  0  0  0  0  0
   22.7800   -4.6833   41.7453 C   0  0  1  0  0  0  0  0  0  0  0  0
   22.3154   -3.5867   40.9566 O   0  0  0  0  0  0  0  0  0  0  0  0
   23.7369   -4.2706   42.8619 C   0  0  1  0  0  0  0  0  0  0  0  0
   23.3423   -3.0774   43.5222 O   0  0  0  0  0  0  0  0  0  0  0  0
   23.6019   -5.4631   43.8063 C   0  0  2  0  0  0  0  0  0  0  0  0
   28.4375   -7.1779   44.2141 N   0  0  0  0  0  0  0  0  0  0  0  0
   27.9269   -5.9321   44.4871 C   0  0  1  0  0  0  0  0  0  0  0  0
   28.8104   -5.0323   44.9217 N   0  0  0  0  0  0  0  0  0  0  0  0
   26.6489   -5.5939   44.3416 N   0  0  0  0  0  0  0  0  0  0  0  0
   25.8892   -6.6284   43.8769 C   0  0  1  0  0  0  0  0  0  0  0  0
   26.3086   -7.9119   43.5745 C   0  0  1  0  0  0  0  0  0  0  0  0
   27.6792   -8.2518   43.7485 C   0  0  0  0  0  0  0  0  0  0  0  0
   28.2378   -9.3357   43.5369 O   0  0  0  0  0  0  0  0  0  0  0  0
   25.2388   -8.6860   43.1440 N   0  0  0  0  0  0  0  0  0  0  0  0
   24.2157   -7.8775   43.1843 C   0  0  0  0  0  0  0  0  0  0  0  0
   24.5252   -6.6050   43.6120 N   0  0  1  0  0  0  0  0  0  0  0  0
  2  1  1  0  0  0  0
  3  1  1  6  0  0  0
  3  4  1  0  0  0  0
  3  5  1  0  0  0  0
  5  6  1  1  0  0  0
  5  7  1  0  0  0  0
  7  8  1  1  0  0  0
  7  9  1  0  0  0  0
  9  4  1  6  0  0  0
  9 20  1  0  0  0  0
 10 11  1  0  0  0  0
 11 12  1  6  0  0  0
 11 13  1  0  0  0  0
 14 13  1  1  0  0  0
 15 14  1  0  0  0  0
 15 16  1  1  0  0  0
 16 10  1  0  0  0  0
 16 17  2  0  0  0  0
 18 15  1  0  0  0  0
 19 18  1  0  0  0  0
 20 14  1  0  0  0  0
 20 19  1  1  0  0  0
M  END
>  <CHROM.1>
-59.14222059,-166.50262879,24.76885944,-6.24760914,43.22128196,2.83639393
-0.37113163,0.14261523

>  <Name>
1nyi_lig

>  <RI>
0

>  <Rbt.Current_Directory>
/home/itssahil/PROJECTS/Mol_Feturizer/New_Systems/rnas/1nyi

>  <Rbt.Executable>
rbdock ($Id: //depot/dev/client3/rdock/2013.1/src/exe/rbdock.cxx#4 $)

>  <Rbt.Library>
libRbt.so (2013.1, Build901 2013/11/27)

>  <Rbt.Parameter_File>
/export/apps/rDock/src/rDock_2013.1_src/data/scripts/dock_solv.prm

>  <Rbt.Receptor>
prm/pocket_docking_4.prm

>  <SCORE>
-10.1139

>  <SCORE.INTER>
-8.79103

>  <SCORE.INTER.CONST>
1

>  <SCORE.INTER.POLAR>
-0.48672

>  <SCORE.INTER.ROT>
2

>  <SCORE.INTER.SOLV>
11.973

>  <SCORE.INTER.VDW>
-13.1626

>  <SCORE.INTER.norm>
-0.439552

>  <SCORE.INTRA>
-1.32285

>  <SCORE.INTRA.DIHEDRAL>
-2.4478

>  <SCORE.INTRA.DIHEDRAL.0>
3.72394

>  <SCORE.INTRA.POLAR>
0

>  <SCORE.INTRA.POLAR.0>
0

>  <SCORE.INTRA.REPUL>
0

>  <SCORE.INTRA.REPUL.0>
0

>  <SCORE.INTRA.SOLV>
0.294234

>  <SCORE.INTRA.SOLV.lig_0>
-49.4697

>  <SCORE.INTRA.VDW>
-0.246064

>  <SCORE.INTRA.VDW.0>
-0.896538

>  <SCORE.INTRA.norm>
-0.0661424

>  <SCORE.RESTR>
0

>  <SCORE.RESTR.CAVITY>
0

>  <SCORE.RESTR.norm>
0

>  <SCORE.SYSTEM>
0

>  <SCORE.SYSTEM.CONST>
0

>  <SCORE.SYSTEM.DIHEDRAL>
0

>  <SCORE.SYSTEM.SOLV>
0

>  <SCORE.SYSTEM.norm>
0

>  <SCORE.heavy>
20

>  <SCORE.norm>
-0.505694

>  <RMSD>
5.215

$$$$
1nyi_lig
 OpenBabel11021811403D
libRbt.so/2013.1/901 2013/11/27
 20 22  0  0  0  0  0  0  0  0999 V2000
   27.5595   -5.9669   44.4471 C   0  0  0  0  0  0  0  0  0  0  0  0
   28.8514   -6.5560   44.2992 O   0  0  0  0  0  0  0  0  0  0  0  0
   26.5170   -7.0213   44.7466 C   0  0  1  0  0  0  0  0  0  0  0  0
   25.2519   -6.3654   45.0317 O   0  0  0  0  0  0  0  0  0  0  0  0
   26.2525   -7.9367   43.5564 C   0  0  1  0  0  0  0  0  0  0  0  0
   27.1043   -9.0831   43.5772 O   0  0  0  0  0  0  0  0  0  0  0  0
   24.7724   -8.2720   43.7291 C   0  0  1  0  0  0  0  0  0  0  0  0
   24.5380   -9.2755   44.7056 O   0  0  0  0  0  0  0  0  0  0  0  0
   24.2322   -6.9289   44.2154 C   0  0  2  0  0  0  0  0  0  0  0  0
   20.6877   -5.8641   40.6388 N   0  0  0  0  0  0  0  0  0  0  0  0
   20.8207   -6.9779   41.4320 C   0  0  1  0  0  0  0  0  0  0  0  0
   19.8981   -7.9242   41.2517 N   0  0  0  0  0  0  0  0  0  0  0  0
   21.7861   -7.1516   42.3299 N   0  0  0  0  0  0  0  0  0  0  0  0
   22.6485   -6.0945   42.3741 C   0  0  1  0  0  0  0  0  0  0  0  0
   22.5990   -4.9350   41.6205 C   0  0  1  0  0  0  0  0  0  0  0  0
   21.5501   -4.7687   40.6737 C   0  0  0  0  0  0  0  0  0  0  0  0
   21.3382   -3.8120   39.9177 O   0  0  0  0  0  0  0  0  0  0  0  0
   23.6430   -4.0855   41.9631 N   0  0  0  0  0  0  0  0  0  0  0  0
   24.2962   -4.7307   42.8900 C   0  0  0  0  0  0  0  0  0  0  0  0
   23.7626   -5.9638   43.1947 N   0  0  1  0  0  0  0  0  0  0  0  0
  2  1  1  0  0  0  0
  3  1  1  6  0  0  0
  3  4  1  0  0  0  0
  3  5  1  0  0  0  0
  5  6  1  1  0  0  0
  5  7  1  0  0  0  0
  7  8  1  1  0  0  0
  7  9  1  0  0  0  0
  9  4  1  6  0  0  0
  9 20  1  0  0  0  0
 10 11  1  0  0  0  0
 11 12  1  6  0  0  0
 11 13  1  0  0  0  0
 14 13  1  1  0  0  0
 15 14  1  0  0  0  0
 15 16  1  1  0  0  0
 16 10  1  0  0  0  0
 16 17  2  0  0  0  0
 18 15  1  0  0  0  0
 19 18  1  0  0  0  0
 20 14  1  0  0  0  0
 20 19  1  1  0  0  0
M  END
>  <CHROM.1>
173.88058543,-169.22825008,23.97424985,-6.50687404,42.86256219,-0.42588245
-0.41884713,-0.34800178

>  <Name>
1nyi_lig

>  <RI>
0

>  <Rbt.Current_Directory>
/home/itssahil/PROJECTS/Mol_Feturizer/New_Systems/rnas/1nyi

>  <Rbt.Executable>
rbdock ($Id: //depot/dev/client3/rdock/2013.1/src/exe/rbdock.cxx#4 $)

>  <Rbt.Library>
libRbt.so (2013.1, Build901 2013/11/27)

>  <Rbt.Parameter_File>
/export/apps/rDock/src/rDock_2013.1_src/data/scripts/dock_solv.prm

>  <Rbt.Receptor>
prm/pocket_docking_5.prm

>  <SCORE>
-9.57162

>  <SCORE.INTER>
-7.85765

>  <SCORE.INTER.CONST>
1

>  <SCORE.INTER.POLAR>
-0.815463

>  <SCORE.INTER.ROT>
2

>  <SCORE.INTER.SOLV>
13.2593

>  <SCORE.INTER.VDW>
-11.8733

>  <SCORE.INTER.norm>
-0.392882

>  <SCORE.INTRA>
-1.71398

>  <SCORE.INTRA.DIHEDRAL>
-2.33425

>  <SCORE.INTRA.DIHEDRAL.0>
3.72394

>  <SCORE.INTRA.POLAR>
0

>  <SCORE.INTRA.POLAR.0>
0

>  <SCORE.INTRA.REPUL>
0

>  <SCORE.INTRA.REPUL.0>
0

>  <SCORE.INTRA.SOLV>
-0.478876

>  <SCORE.INTRA.SOLV.lig_0>
-49.4697

>  <SCORE.INTRA.VDW>
-0.307415

>  <SCORE.INTRA.VDW.0>
-0.896538

>  <SCORE.INTRA.norm>
-0.0856989

>  <SCORE.RESTR>
0

>  <SCORE.RESTR.CAVITY>
0

>  <SCORE.RESTR.norm>
0

>  <SCORE.SYSTEM>
0

>  <SCORE.SYSTEM.CONST>
0

>  <SCORE.SYSTEM.DIHEDRAL>
0

>  <SCORE.SYSTEM.SOLV>
0

>  <SCORE.SYSTEM.norm>
0

>  <SCORE.heavy>
20

>  <SCORE.norm>
-0.478581

>  <RMSD>
5.220

$$$$
1nyi_lig
 OpenBabel11021811403D
libRbt.so/2013.1/901 2013/11/27
 20 22  0  0  0  0  0  0  0  0999 V2000
   26.7783   -5.2200   44.3568 C   0  0  0  0  0  0  0  0  0  0  0  0
   28.1630   -5.4886   44.1369 O   0  0  0  0  0  0  0  0  0  0  0  0
   26.0319   -6.4881   44.7077 C   0  0  1  0  0  0  0  0  0  0  0  0
   24.6378   -6.1608   44.9559 O   0  0  0  0  0  0  0  0  0  0  0  0
   26.0255   -7.4978   43.5653 C   0  0  1  0  0  0  0  0  0  0  0  0
   27.1390   -8.3886   43.6467 O   0  0  0  0  0  0  0  0  0  0  0  0
   24.6759   -8.1881   43.7516 C   0  0  1  0  0  0  0  0  0  0  0  0
   24.6880   -9.1692   44.7778 O   0  0  0  0  0  0  0  0  0  0  0  0
   23.8062   -7.0036   44.1673 C   0  0  2  0  0  0  0  0  0  0  0  0
   19.4359   -6.2742   41.5486 N   0  0  0  0  0  0  0  0  0  0  0  0
   19.7190   -7.1828   42.5393 C   0  0  1  0  0  0  0  0  0  0  0  0
   18.7171   -7.9971   42.8745 N   0  0  0  0  0  0  0  0  0  0  0  0
   20.8950   -7.2872   43.1515 N   0  0  0  0  0  0  0  0  0  0  0  0
   21.8068   -6.3886   42.6777 C   0  0  1  0  0  0  0  0  0  0  0  0
   21.6184   -5.4393   41.6888 C   0  0  1  0  0  0  0  0  0  0  0  0
   20.3478   -5.3409   41.0562 C   0  0  0  0  0  0  0  0  0  0  0  0
   19.9893   -4.5630   40.1629 O   0  0  0  0  0  0  0  0  0  0  0  0
   22.7776   -4.6989   41.4961 N   0  0  0  0  0  0  0  0  0  0  0  0
   23.6304   -5.2036   42.3446 C   0  0  0  0  0  0  0  0  0  0  0  0
   23.1234   -6.2401   43.0974 N   0  0  1  0  0  0  0  0  0  0  0  0
  2  1  1  0  0  0  0
  3  1  1  6  0  0  0
  3  4  1  0  0  0  0
  3  5  1  0  0  0  0
  5  6  1  1  0  0  0
  5  7  1  0  0  0  0
  7  8  1  1  0  0  0
  7  9  1  0  0  0  0
  9  4  1  6  0  0  0
  9 20  1  0  0  0  0
 10 11  1  0  0  0  0
 11 12  1  6  0  0  0
 11 13  1  0  0  0  0
 14 13  1  1  0  0  0
 15 14  1  0  0  0  0
 15 16  1  1  0  0  0
 16 10  1  0  0  0  0
 16 17  2  0  0  0  0
 18 15  1  0  0  0  0
 19 18  1  0  0  0  0
 20 14  1  0  0  0  0
 20 19  1  1  0  0  0
M  END
>  <CHROM.1>
178.53643036,-139.41083865,23.27740761,-6.51857391,43.06051699,-0.27878098
-0.27237192,-0.53033556

>  <Name>
1nyi_lig

>  <RI>
0

>  <Rbt.Current_Directory>
/home/itssahil/PROJECTS/Mol_Feturizer/New_Systems/rnas/1nyi

>  <Rbt.Executable>
rbdock ($Id: //depot/dev/client3/rdock/2013.1/src/exe/rbdock.cxx#4 $)

>  <Rbt.Library>
libRbt.so (2013.1, Build901 2013/11/27)

>  <Rbt.Parameter_File>
/export/apps/rDock/src/rDock_2013.1_src/data/scripts/dock_solv.prm

>  <Rbt.Receptor>
prm/pocket_docking_7.prm

>  <SCORE>
-8.81222

>  <SCORE.INTER>
-6.85583

>  <SCORE.INTER.CONST>
1

>  <SCORE.INTER.POLAR>
-0.748331

>  <SCORE.INTER.ROT>
2

>  <SCORE.INTER.SOLV>
8.08073

>  <SCORE.INTER.VDW>
-9.70303

>  <SCORE.INTER.norm>
-0.342792

>  <SCORE.INTRA>
-1.95638

>  <SCORE.INTRA.DIHEDRAL>
-2.41958

>  <SCORE.INTRA.DIHEDRAL.0>
3.72394

>  <SCORE.INTRA.POLAR>
0

>  <SCORE.INTRA.POLAR.0>
0

>  <SCORE.INTRA.REPUL>
0

>  <SCORE.INTRA.REPUL.0>
0

>  <SCORE.INTRA.SOLV>
-0.646815

>  <SCORE.INTRA.SOLV.lig_0>
-49.4697

>  <SCORE.INTRA.VDW>
-0.423185

>  <SCORE.INTRA.VDW.0>
-0.896538

>  <SCORE.INTRA.norm>
-0.0978191

>  <SCORE.RESTR>
0

>  <SCORE.RESTR.CAVITY>
0

>  <SCORE.RESTR.norm>
0

>  <SCORE.SYSTEM>
0

>  <SCORE.SYSTEM.CONST>
0

>  <SCORE.SYSTEM.DIHEDRAL>
0

>  <SCORE.SYSTEM.SOLV>
0

>  <SCORE.SYSTEM.norm>
0

>  <SCORE.heavy>
20

>  <SCORE.norm>
-0.440611

>  <RMSD>
5.237

$$$$
1nyi_lig
 OpenBabel11021811403D
libRbt.so/2013.1/901 2013/11/27
 20 22  0  0  0  0  0  0  0  0999 V2000
   27.4371   -9.2170   44.2208 C   0  0  0  0  0  0  0  0  0  0  0  0
   28.2147   -9.4968   43.0567 O   0  0  0  0  0  0  0  0  0  0  0  0
   27.4399   -7.7359   44.5281 C   0  0  1  0  0  0  0  0  0  0  0  0
   26.8541   -7.0209   43.4065 O   0  0  0  0  0  0  0  0  0  0  0  0
   26.5800   -7.3882   45.7382 C   0  0  1  0  0  0  0  0  0  0  0  0
   27.3396   -7.4197   46.9474 O   0  0  0  0  0  0  0  0  0  0  0  0
   26.0623   -5.9972   45.3779 C   0  0  1  0  0  0  0  0  0  0  0  0
   27.0147   -4.9701   45.6094 O   0  0  0  0  0  0  0  0  0  0  0  0
   25.8222   -6.1632   43.8790 C   0  0  2  0  0  0  0  0  0  0  0  0
   21.6732   -5.1903   40.9931 N   0  0  0  0  0  0  0  0  0  0  0  0
   22.8021   -4.4309   41.1834 C   0  0  1  0  0  0  0  0  0  0  0  0
   22.8309   -3.2708   40.5258 N   0  0  0  0  0  0  0  0  0  0  0  0
   23.8222   -4.7807   41.9616 N   0  0  0  0  0  0  0  0  0  0  0  0
   23.6217   -5.9876   42.5669 C   0  0  1  0  0  0  0  0  0  0  0  0
   22.5253   -6.8221   42.4392 C   0  0  1  0  0  0  0  0  0  0  0  0
   21.4513   -6.4299   41.5925 C   0  0  0  0  0  0  0  0  0  0  0  0
   20.3993   -7.0353   41.3506 O   0  0  0  0  0  0  0  0  0  0  0  0
   22.6959   -7.9716   43.1998 N   0  0  0  0  0  0  0  0  0  0  0  0
   23.8601   -7.8158   43.7675 C   0  0  0  0  0  0  0  0  0  0  0  0
   24.4872   -6.6330   43.4420 N   0  0  1  0  0  0  0  0  0  0  0  0
  2  1  1  0  0  0  0
  3  1  1  6  0  0  0
  3  4  1  0  0  0  0
  3  5  1  0  0  0  0
  5  6  1  1  0  0  0
  5  7  1  0  0  0  0
  7  8  1  6  0  0  0
  7  9  1  0  0  0  0
  9  4  1  1  0  0  0
  9 20  1  0  0  0  0
 10 11  1  0  0  0  0
 11 12  1  1  0  0  0
 11 13  1  0  0  0  0
 14 13  1  6  0  0  0
 15 14  1  0  0  0  0
 15 16  1  6  0  0  0
 16 10  1  0  0  0  0
 16 17  2  0  0  0  0
 18 15  1  0  0  0  0
 19 18  1  0  0  0  0
 20 14  1  0  0  0  0
 20 19  1  6  0  0  0
M  END
>  <CHROM.1>
60.97149558,-114.07451820,24.70803795,-6.61711043,43.31982726,0.31649106
0.59290549,3.13315790

>  <Name>
1nyi_lig

>  <RI>
0

>  <Rbt.Current_Directory>
/home/itssahil/PROJECTS/Mol_Feturizer/New_Systems/rnas/1nyi

>  <Rbt.Executable>
rbdock ($Id: //depot/dev/client3/rdock/2013.1/src/exe/rbdock.cxx#4 $)

>  <Rbt.Library>
libRbt.so (2013.1, Build901 2013/11/27)

>  <Rbt.Parameter_File>
/export/apps/rDock/src/rDock_2013.1_src/data/scripts/dock_solv.prm

>  <Rbt.Receptor>
prm/pocket_docking_8.prm

>  <SCORE>
-10.3434

>  <SCORE.INTER>
-8.23534

>  <SCORE.INTER.CONST>
1

>  <SCORE.INTER.POLAR>
-0.743237

>  <SCORE.INTER.ROT>
2

>  <SCORE.INTER.SOLV>
9.74995

>  <SCORE.INTER.VDW>
-11.1961

>  <SCORE.INTER.norm>
-0.411767

>  <SCORE.INTRA>
-2.10805

>  <SCORE.INTRA.DIHEDRAL>
-2.51856

>  <SCORE.INTRA.DIHEDRAL.0>
3.72394

>  <SCORE.INTRA.POLAR>
0

>  <SCORE.INTRA.POLAR.0>
0

>  <SCORE.INTRA.REPUL>
0

>  <SCORE.INTRA.REPUL.0>
0

>  <SCORE.INTRA.SOLV>
-0.884787

>  <SCORE.INTRA.SOLV.lig_0>
-49.4697

>  <SCORE.INTRA.VDW>
-0.406374

>  <SCORE.INTRA.VDW.0>
-0.896538

>  <SCORE.INTRA.norm>
-0.105402

>  <SCORE.RESTR>
0

>  <SCORE.RESTR.CAVITY>
0

>  <SCORE.RESTR.norm>
0

>  <SCORE.SYSTEM>
0

>  <SCORE.SYSTEM.CONST>
0

>  <SCORE.SYSTEM.DIHEDRAL>
0

>  <SCORE.SYSTEM.SOLV>
0

>  <SCORE.SYSTEM.norm>
0

>  <SCORE.heavy>
20

>  <SCORE.norm>
-0.517169

>  <RMSD>
5.253

$$$$
1nyi_lig
 OpenBabel11021811403D
libRbt.so/2013.1/901 2013/11/27
 20 22  0  0  0  0  0  0  0  0999 V2000
   21.3743   -6.5889   41.4253 C   0  0  0  0  0  0  0  0  0  0  0  0
   20.2840   -7.1784   42.1336 O   0  0  0  0  0  0  0  0  0  0  0  0
   21.9719   -5.4432   42.2117 C   0  0  1  0  0  0  0  0  0  0  0  0
   22.4817   -5.9533   43.4735 O   0  0  0  0  0  0  0  0  0  0  0  0
   23.1657   -4.8097   41.5060 C   0  0  1  0  0  0  0  0  0  0  0  0
   22.7628   -3.7325   40.6589 O   0  0  0  0  0  0  0  0  0  0  0  0
   24.0391   -4.3703   42.6794 C   0  0  1  0  0  0  0  0  0  0  0  0
   23.5999   -3.1611   43.2797 O   0  0  0  0  0  0  0  0  0  0  0  0
   23.8325   -5.5393   43.6401 C   0  0  2  0  0  0  0  0  0  0  0  0
   28.6531   -7.2095   44.3190 N   0  0  0  0  0  0  0  0  0  0  0  0
   28.1300   -5.9531   44.5055 C   0  0  1  0  0  0  0  0  0  0  0  0
   28.9947   -5.0276   44.9237 N   0  0  0  0  0  0  0  0  0  0  0  0
   26.8576   -5.6285   44.2946 N   0  0  0  0  0  0  0  0  0  0  0  0
   26.1181   -6.6896   43.8582 C   0  0  1  0  0  0  0  0  0  0  0  0
   26.5513   -7.9857   43.6411 C   0  0  1  0  0  0  0  0  0  0  0  0
   27.9151   -8.3100   43.8838 C   0  0  0  0  0  0  0  0  0  0  0  0
   28.4836   -9.4013   43.7518 O   0  0  0  0  0  0  0  0  0  0  0  0
   25.4999   -8.7862   43.2132 N   0  0  0  0  0  0  0  0  0  0  0  0
   24.4743   -7.9810   43.1720 C   0  0  0  0  0  0  0  0  0  0  0  0
   24.7648   -6.6861   43.5418 N   0  0  1  0  0  0  0  0  0  0  0  0
  2  1  1  0  0  0  0
  3  1  1  6  0  0  0
  3  4  1  0  0  0  0
  3  5  1  0  0  0  0
  5  6  1  1  0  0  0
  5  7  1  0  0  0  0
  7  8  1  1  0  0  0
  7  9  1  0  0  0  0
  9  4  1  6  0  0  0
  9 20  1  0  0  0  0
 10 11  1  0  0  0  0
 11 12  1  6  0  0  0
 11 13  1  0  0  0  0
 14 13  1  1  0  0  0
 15 14  1  0  0  0  0
 15 16  1  1  0  0  0
 16 10  1  0  0  0  0
 16 17  2  0  0  0  0
 18 15  1  0  0  0  0
 19 18  1  0  0  0  0
 20 14  1  0  0  0  0
 20 19  1  1  0  0  0
M  END
>  <CHROM.1>
61.37698442,-169.17841620,24.92857229,-6.30448437,43.18274861,2.83912341
-0.34456319,-0.00091003

>  <Name>
1nyi_lig

>  <RI>
0

>  <Rbt.Current_Directory>
/home/itssahil/PROJECTS/Mol_Feturizer/New_Systems/rnas/1nyi

>  <Rbt.Executable>
rbdock ($Id: //depot/dev/client3/rdock/2013.1/src/exe/rbdock.cxx#4 $)

>  <Rbt.Library>
libRbt.so (2013.1, Build901 2013/11/27)

>  <Rbt.Parameter_File>
/export/apps/rDock/src/rDock_2013.1_src/data/scripts/dock_solv.prm

>  <Rbt.Receptor>
prm/pocket_docking_4.prm

>  <SCORE>
-9.82501

>  <SCORE.INTER>
-7.96839

>  <SCORE.INTER.CONST>
1

>  <SCORE.INTER.POLAR>
0

>  <SCORE.INTER.ROT>
2

>  <SCORE.INTER.SOLV>
11.612

>  <SCORE.INTER.VDW>
-14.1163

>  <SCORE.INTER.norm>
-0.398419

>  <SCORE.INTRA>
-1.85662

>  <SCORE.INTRA.DIHEDRAL>
-2.45338

>  <SCORE.INTRA.DIHEDRAL.0>
3.72394

>  <SCORE.INTRA.POLAR>
0

>  <SCORE.INTRA.POLAR.0>
0

>  <SCORE.INTRA.REPUL>
0

>  <SCORE.INTRA.REPUL.0>
0

>  <SCORE.INTRA.SOLV>
-0.64924

>  <SCORE.INTRA.SOLV.lig_0>
-49.4697

>  <SCORE.INTRA.VDW>
-0.305316

>  <SCORE.INTRA.VDW.0>
-0.896538

>  <SCORE.INTRA.norm>
-0.0928312

>  <SCORE.RESTR>
0

>  <SCORE.RESTR.CAVITY>
0

>  <SCORE.RESTR.norm>
0

>  <SCORE.SYSTEM>
0

>  <SCORE.SYSTEM.CONST>
0

>  <SCORE.SYSTEM.DIHEDRAL>
0

>  <SCORE.SYSTEM.SOLV>
0

>  <SCORE.SYSTEM.norm>
0

>  <SCORE.heavy>
20

>  <SCORE.norm>
-0.491251

>  <RMSD>
5.254

$$$$
1nyi_lig
 OpenBabel11021811403D
libRbt.so/2013.1/901 2013/11/27
 20 22  0  0  0  0  0  0  0  0999 V2000
   22.8418   -3.8939   42.3386 C   0  0  0  0  0  0  0  0  0  0  0  0
   23.9996   -3.4358   43.0369 O   0  0  0  0  0  0  0  0  0  0  0  0
   22.5945   -5.3615   42.6087 C   0  0  1  0  0  0  0  0  0  0  0  0
   23.7356   -6.1267   42.1348 O   0  0  0  0  0  0  0  0  0  0  0  0
   22.4755   -5.6701   44.0970 C   0  0  1  0  0  0  0  0  0  0  0  0
   21.1217   -5.5826   44.5440 O   0  0  0  0  0  0  0  0  0  0  0  0
   23.0572   -7.0798   44.1825 C   0  0  1  0  0  0  0  0  0  0  0  0
   22.1414   -8.0866   43.7784 O   0  0  0  0  0  0  0  0  0  0  0  0
   24.2016   -6.9759   43.1767 C   0  0  2  0  0  0  0  0  0  0  0  0
   29.0763   -8.3186   44.1375 N   0  0  0  0  0  0  0  0  0  0  0  0
   28.0392   -9.0807   43.6570 C   0  0  1  0  0  0  0  0  0  0  0  0
   28.3348  -10.3559   43.4009 N   0  0  0  0  0  0  0  0  0  0  0  0
   26.8064   -8.6279   43.4475 N   0  0  0  0  0  0  0  0  0  0  0  0
   26.6769   -7.3088   43.7738 C   0  0  1  0  0  0  0  0  0  0  0  0
   27.6562   -6.4618   44.2619 C   0  0  1  0  0  0  0  0  0  0  0  0
   28.9699   -6.9678   44.4678 C   0  0  0  0  0  0  0  0  0  0  0  0
   29.9687   -6.3713   44.8900 O   0  0  0  0  0  0  0  0  0  0  0  0
   27.1441   -5.1857   44.4579 N   0  0  0  0  0  0  0  0  0  0  0  0
   25.8927   -5.2795   44.1015 C   0  0  0  0  0  0  0  0  0  0  0  0
   25.5243   -6.5381   43.6794 N   0  0  1  0  0  0  0  0  0  0  0  0
  2  1  1  0  0  0  0
  3  1  1  1  0  0  0
  3  4  1  0  0  0  0
  3  5  1  0  0  0  0
  5  6  1  6  0  0  0
  5  7  1  0  0  0  0
  7  8  1  6  0  0  0
  7  9  1  0  0  0  0
  9  4  1  6  0  0  0
  9 20  1  0  0  0  0
 10 11  1  0  0  0  0
 11 12  1  1  0  0  0
 11 13  1  0  0  0  0
 14 13  1  6  0  0  0
 15 14  1  0  0  0  0
 15 16  1  6  0  0  0
 16 10  1  0  0  0  0
 16 17  2  0  0  0  0
 18 15  1  0  0  0  0
 19 18  1  0  0  0  0
 20 14  1  0  0  0  0
 20 19  1  6  0  0  0
M  END
>  <CHROM.1>
-61.33382426,-125.60283428,25.45512253,-6.60221358,43.70276827,-2.76821689
0.12494751,-3.12672448

>  <Name>
1nyi_lig

>  <RI>
0

>  <Rbt.Current_Directory>
/home/itssahil/PROJECTS/Mol_Feturizer/New_Systems/rnas/1nyi

>  <Rbt.Executable>
rbdock ($Id: //depot/dev/client3/rdock/2013.1/src/exe/rbdock.cxx#4 $)

>  <Rbt.Library>
libRbt.so (2013.1, Build901 2013/11/27)

>  <Rbt.Parameter_File>
/export/apps/rDock/src/rDock_2013.1_src/data/scripts/dock_solv.prm

>  <Rbt.Receptor>
prm/pocket_docking_5.prm

>  <SCORE>
-10.6398

>  <SCORE.INTER>
-9.25628

>  <SCORE.INTER.CONST>
1

>  <SCORE.INTER.POLAR>
-0.748331

>  <SCORE.INTER.ROT>
2

>  <SCORE.INTER.SOLV>
11.7871

>  <SCORE.INTER.VDW>
-12.5388

>  <SCORE.INTER.norm>
-0.462814

>  <SCORE.INTRA>
-1.38357

>  <SCORE.INTRA.DIHEDRAL>
-2.46646

>  <SCORE.INTRA.DIHEDRAL.0>
3.72394

>  <SCORE.INTRA.POLAR>
0

>  <SCORE.INTRA.POLAR.0>
0

>  <SCORE.INTRA.REPUL>
0

>  <SCORE.INTRA.REPUL.0>
0

>  <SCORE.INTRA.SOLV>
0.144853

>  <SCORE.INTRA.SOLV.lig_0>
-49.4697

>  <SCORE.INTRA.VDW>
-0.222764

>  <SCORE.INTRA.VDW.0>
-0.896538

>  <SCORE.INTRA.norm>
-0.0691784

>  <SCORE.RESTR>
0

>  <SCORE.RESTR.CAVITY>
0

>  <SCORE.RESTR.norm>
0

>  <SCORE.SYSTEM>
0

>  <SCORE.SYSTEM.CONST>
0

>  <SCORE.SYSTEM.DIHEDRAL>
0

>  <SCORE.SYSTEM.SOLV>
0

>  <SCORE.SYSTEM.norm>
0

>  <SCORE.heavy>
20

>  <SCORE.norm>
-0.531992

>  <RMSD>
5.260

$$$$
1nyi_lig
 OpenBabel11021811403D
libRbt.so/2013.1/901 2013/11/27
 20 22  0  0  0  0  0  0  0  0999 V2000
   21.7795   -5.7004   38.1910 C   0  0  0  0  0  0  0  0  0  0  0  0
   20.3612   -5.7537   38.0370 O   0  0  0  0  0  0  0  0  0  0  0  0
   22.1909   -4.4765   38.9791 C   0  0  1  0  0  0  0  0  0  0  0  0
   21.6086   -4.5545   40.3084 O   0  0  0  0  0  0  0  0  0  0  0  0
   23.6988   -4.3961   39.1892 C   0  0  1  0  0  0  0  0  0  0  0  0
   24.3362   -3.6670   38.1392 O   0  0  0  0  0  0  0  0  0  0  0  0
   23.7994   -3.7166   40.5533 C   0  0  1  0  0  0  0  0  0  0  0  0
   23.6125   -2.3106   40.4914 O   0  0  0  0  0  0  0  0  0  0  0  0
   22.6283   -4.3708   41.2832 C   0  0  2  0  0  0  0  0  0  0  0  0
   25.7188   -6.8043   44.6022 N   0  0  0  0  0  0  0  0  0  0  0  0
   25.8278   -5.5414   44.0727 C   0  0  1  0  0  0  0  0  0  0  0  0
   26.8885   -4.8399   44.4751 N   0  0  0  0  0  0  0  0  0  0  0  0
   24.9649   -5.0089   43.2121 N   0  0  0  0  0  0  0  0  0  0  0  0
   23.9498   -5.8662   42.8993 C   0  0  1  0  0  0  0  0  0  0  0  0
   23.7540   -7.1499   43.3774 C   0  0  1  0  0  0  0  0  0  0  0  0
   24.6859   -7.6931   44.3052 C   0  0  0  0  0  0  0  0  0  0  0  0
   24.6796   -8.8087   44.8410 O   0  0  0  0  0  0  0  0  0  0  0  0
   22.5981   -7.7001   42.8387 N   0  0  0  0  0  0  0  0  0  0  0  0
   22.1280   -6.7674   42.0570 C   0  0  0  0  0  0  0  0  0  0  0  0
   22.8933   -5.6221   42.0301 N   0  0  1  0  0  0  0  0  0  0  0  0
  2  1  1  0  0  0  0
  3  1  1  6  0  0  0
  3  4  1  0  0  0  0
  3  5  1  0  0  0  0
  5  6  1  6  0  0  0
  5  7  1  0  0  0  0
  7  8  1  6  0  0  0
  7  9  1  0  0  0  0
  9  4  1  6  0  0  0
  9 20  1  0  0  0  0
 10 11  1  0  0  0  0
 11 12  1  6  0  0  0
 11 13  1  0  0  0  0
 14 13  1  1  0  0  0
 15 14  1  0  0  0  0
 15 16  1  1  0  0  0
 16 10  1  0  0  0  0
 16 17  2  0  0  0  0
 18 15  1  0  0  0  0
 19 18  1  0  0  0  0
 20 14  1  0  0  0  0
 20 19  1  1  0  0  0
M  END
>  <CHROM.1>
61.85403661,169.29989992,23.57085160,-5.51522701,41.63350358,2.15996607,-0.68884751
-0.74983020

>  <Name>
1nyi_lig

>  <RI>
0

>  <Rbt.Current_Directory>
/home/itssahil/PROJECTS/Mol_Feturizer/New_Systems/rnas/1nyi

>  <Rbt.Executable>
rbdock ($Id: //depot/dev/client3/rdock/2013.1/src/exe/rbdock.cxx#4 $)

>  <Rbt.Library>
libRbt.so (2013.1, Build901 2013/11/27)

>  <Rbt.Parameter_File>
/export/apps/rDock/src/rDock_2013.1_src/data/scripts/dock_solv.prm

>  <Rbt.Receptor>
prm/pocket_docking_8.prm

>  <SCORE>
-10.6989

>  <SCORE.INTER>
-8.9715

>  <SCORE.INTER.CONST>
1

>  <SCORE.INTER.POLAR>
-0.748331

>  <SCORE.INTER.ROT>
2

>  <SCORE.INTER.SOLV>
9.93126

>  <SCORE.INTER.VDW>
-11.7303

>  <SCORE.INTER.norm>
-0.448575

>  <SCORE.INTRA>
-1.72738

>  <SCORE.INTRA.DIHEDRAL>
-2.53959

>  <SCORE.INTRA.DIHEDRAL.0>
3.72394

>  <SCORE.INTRA.POLAR>
0

>  <SCORE.INTRA.POLAR.0>
0

>  <SCORE.INTRA.REPUL>
0

>  <SCORE.INTRA.REPUL.0>
0

>  <SCORE.INTRA.SOLV>
-0.423609

>  <SCORE.INTRA.SOLV.lig_0>
-49.4697

>  <SCORE.INTRA.VDW>
-0.245785

>  <SCORE.INTRA.VDW.0>
-0.896538

>  <SCORE.INTRA.norm>
-0.0863691

>  <SCORE.RESTR>
0

>  <SCORE.RESTR.CAVITY>
0

>  <SCORE.RESTR.norm>
0

>  <SCORE.SYSTEM>
0

>  <SCORE.SYSTEM.CONST>
0

>  <SCORE.SYSTEM.DIHEDRAL>
0

>  <SCORE.SYSTEM.SOLV>
0

>  <SCORE.SYSTEM.norm>
0

>  <SCORE.heavy>
20

>  <SCORE.norm>
-0.534944

>  <RMSD>
5.263

$$$$
1nyi_lig
 OpenBabel11021811403D
libRbt.so/2013.1/901 2013/11/27
 20 22  0  0  0  0  0  0  0  0999 V2000
   22.4047   -6.6563   42.4327 C   0  0  0  0  0  0  0  0  0  0  0  0
   21.6608   -7.5073   43.3049 O   0  0  0  0  0  0  0  0  0  0  0  0
   22.9526   -5.4622   43.1823 C   0  0  1  0  0  0  0  0  0  0  0  0
   23.6500   -5.9300   44.3685 O   0  0  0  0  0  0  0  0  0  0  0  0
   23.9847   -4.6862   42.3716 C   0  0  1  0  0  0  0  0  0  0  0  0
   23.3746   -3.6491   41.6018 O   0  0  0  0  0  0  0  0  0  0  0  0
   24.9257   -4.1683   43.4573 C   0  0  1  0  0  0  0  0  0  0  0  0
   24.4222   -3.0261   44.1337 O   0  0  0  0  0  0  0  0  0  0  0  0
   24.9562   -5.3676   44.4022 C   0  0  2  0  0  0  0  0  0  0  0  0
   29.9517   -6.5617   44.7311 N   0  0  0  0  0  0  0  0  0  0  0  0
   29.3135   -5.3842   45.0367 C   0  0  1  0  0  0  0  0  0  0  0  0
   30.1001   -4.4045   45.4844 N   0  0  0  0  0  0  0  0  0  0  0  0
   28.0052   -5.1821   44.9094 N   0  0  0  0  0  0  0  0  0  0  0  0
   27.3558   -6.2818   44.4274 C   0  0  1  0  0  0  0  0  0  0  0  0
   27.9071   -7.5060   44.0924 C   0  0  1  0  0  0  0  0  0  0  0  0
   29.3080   -7.7004   44.2473 C   0  0  0  0  0  0  0  0  0  0  0  0
   29.9773   -8.7132   44.0065 O   0  0  0  0  0  0  0  0  0  0  0  0
   26.9219   -8.3809   43.6531 N   0  0  0  0  0  0  0  0  0  0  0  0
   25.8186   -7.6880   43.7202 C   0  0  0  0  0  0  0  0  0  0  0  0
   25.9944   -6.3992   44.1742 N   0  0  1  0  0  0  0  0  0  0  0  0
  2  1  1  0  0  0  0
  3  1  1  6  0  0  0
  3  4  1  0  0  0  0
  3  5  1  0  0  0  0
  5  6  1  1  0  0  0
  5  7  1  0  0  0  0
  7  8  1  1  0  0  0
  7  9  1  0  0  0  0
  9  4  1  6  0  0  0
  9 20  1  0  0  0  0
 10 11  1  0  0  0  0
 11 12  1  6  0  0  0
 11 13  1  0  0  0  0
 14 13  1  1  0  0  0
 15 14  1  0  0  0  0
 15 16  1  1  0  0  0
 16 10  1  0  0  0  0
 16 17  2  0  0  0  0
 18 15  1  0  0  0  0
 19 18  1  0  0  0  0
 20 14  1  0  0  0  0
 20 19  1  1  0  0  0
M  END
>  <CHROM.1>
51.01090159,-164.66131750,26.07805861,-6.02344635,43.87073432,2.95303584
-0.26749172,0.08172833

>  <Name>
1nyi_lig

>  <RI>
0

>  <Rbt.Current_Directory>
/home/itssahil/PROJECTS/Mol_Feturizer/New_Systems/rnas/1nyi

>  <Rbt.Executable>
rbdock ($Id: //depot/dev/client3/rdock/2013.1/src/exe/rbdock.cxx#4 $)

>  <Rbt.Library>
libRbt.so (2013.1, Build901 2013/11/27)

>  <Rbt.Parameter_File>
/export/apps/rDock/src/rDock_2013.1_src/data/scripts/dock_solv.prm

>  <Rbt.Receptor>
prm/pocket_docking_5.prm

>  <SCORE>
-10.6106

>  <SCORE.INTER>
-8.90838

>  <SCORE.INTER.CONST>
1

>  <SCORE.INTER.POLAR>
-0.748248

>  <SCORE.INTER.ROT>
2

>  <SCORE.INTER.SOLV>
8.36747

>  <SCORE.INTER.VDW>
-11.1673

>  <SCORE.INTER.norm>
-0.445419

>  <SCORE.INTRA>
-1.70221

>  <SCORE.INTRA.DIHEDRAL>
-2.16844

>  <SCORE.INTRA.DIHEDRAL.0>
3.72394

>  <SCORE.INTRA.POLAR>
0

>  <SCORE.INTRA.POLAR.0>
0

>  <SCORE.INTRA.REPUL>
0

>  <SCORE.INTRA.REPUL.0>
0

>  <SCORE.INTRA.SOLV>
-0.618026

>  <SCORE.INTRA.SOLV.lig_0>
-49.4697

>  <SCORE.INTRA.VDW>
-0.308976

>  <SCORE.INTRA.VDW.0>
-0.896538

>  <SCORE.INTRA.norm>
-0.0851104

>  <SCORE.RESTR>
0

>  <SCORE.RESTR.CAVITY>
0

>  <SCORE.RESTR.norm>
0

>  <SCORE.SYSTEM>
0

>  <SCORE.SYSTEM.CONST>
0

>  <SCORE.SYSTEM.DIHEDRAL>
0

>  <SCORE.SYSTEM.SOLV>
0

>  <SCORE.SYSTEM.norm>
0

>  <SCORE.heavy>
20

>  <SCORE.norm>
-0.53053

>  <RMSD>
5.265

$$$$
1nyi_lig
 OpenBabel11021811403D
libRbt.so/2013.1/901 2013/11/27
 20 22  0  0  0  0  0  0  0  0999 V2000
   22.8137   -3.8140   42.4263 C   0  0  0  0  0  0  0  0  0  0  0  0
   22.9654   -3.5533   41.0309 O   0  0  0  0  0  0  0  0  0  0  0  0
   22.5708   -5.2859   42.6766 C   0  0  1  0  0  0  0  0  0  0  0  0
   23.7057   -6.0427   42.1753 O   0  0  0  0  0  0  0  0  0  0  0  0
   22.4722   -5.6180   44.1614 C   0  0  1  0  0  0  0  0  0  0  0  0
   21.1246   -5.5384   44.6280 O   0  0  0  0  0  0  0  0  0  0  0  0
   23.0556   -7.0284   44.2167 C   0  0  1  0  0  0  0  0  0  0  0  0
   22.1349   -8.0294   43.8093 O   0  0  0  0  0  0  0  0  0  0  0  0
   24.1862   -6.9080   43.1971 C   0  0  2  0  0  0  0  0  0  0  0  0
   29.0457   -8.2933   44.1745 N   0  0  0  0  0  0  0  0  0  0  0  0
   27.9980   -9.0514   43.7110 C   0  0  1  0  0  0  0  0  0  0  0  0
   28.2769  -10.3350   43.4791 N   0  0  0  0  0  0  0  0  0  0  0  0
   26.7706   -8.5872   43.4951 N   0  0  0  0  0  0  0  0  0  0  0  0
   26.6584   -7.2605   43.7958 C   0  0  1  0  0  0  0  0  0  0  0  0
   27.6494   -6.4166   44.2654 C   0  0  1  0  0  0  0  0  0  0  0  0
   28.9571   -6.9351   44.4785 C   0  0  0  0  0  0  0  0  0  0  0  0
   29.9643   -6.3432   44.8870 O   0  0  0  0  0  0  0  0  0  0  0  0
   27.1539   -5.1305   44.4374 N   0  0  0  0  0  0  0  0  0  0  0  0
   25.9006   -5.2154   44.0854 C   0  0  0  0  0  0  0  0  0  0  0  0
   25.5154   -6.4772   43.6887 N   0  0  1  0  0  0  0  0  0  0  0  0
  2  1  1  0  0  0  0
  3  1  1  1  0  0  0
  3  4  1  0  0  0  0
  3  5  1  0  0  0  0
  5  6  1  6  0  0  0
  5  7  1  0  0  0  0
  7  8  1  6  0  0  0
  7  9  1  0  0  0  0
  9  4  1  6  0  0  0
  9 20  1  0  0  0  0
 10 11  1  0  0  0  0
 11 12  1  1  0  0  0
 11 13  1  0  0  0  0
 14 13  1  6  0  0  0
 15 14  1  0  0  0  0
 15 16  1  6  0  0  0
 16 10  1  0  0  0  0
 16 17  2  0  0  0  0
 18 15  1  0  0  0  0
 19 18  1  0  0  0  0
 20 14  1  0  0  0  0
 20 19  1  6  0  0  0
M  END
>  <CHROM.1>
60.09532520,-127.85869600,25.38132157,-6.56095759,43.62122415,-2.73423345
0.11196354,2.98742639

>  <Name>
1nyi_lig

>  <RI>
0

>  <Rbt.Current_Directory>
/home/itssahil/PROJECTS/Mol_Feturizer/New_Systems/rnas/1nyi

>  <Rbt.Executable>
rbdock ($Id: //depot/dev/client3/rdock/2013.1/src/exe/rbdock.cxx#4 $)

>  <Rbt.Library>
libRbt.so (2013.1, Build901 2013/11/27)

>  <Rbt.Parameter_File>
/export/apps/rDock/src/rDock_2013.1_src/data/scripts/dock_solv.prm

>  <Rbt.Receptor>
prm/pocket_docking_4.prm

>  <SCORE>
-11.4805

>  <SCORE.INTER>
-9.37323

>  <SCORE.INTER.CONST>
1

>  <SCORE.INTER.POLAR>
-0.748226

>  <SCORE.INTER.ROT>
2

>  <SCORE.INTER.SOLV>
10.9777

>  <SCORE.INTER.VDW>
-12.3473

>  <SCORE.INTER.norm>
-0.468662

>  <SCORE.INTRA>
-2.10728

>  <SCORE.INTRA.DIHEDRAL>
-2.46213

>  <SCORE.INTRA.DIHEDRAL.0>
3.72394

>  <SCORE.INTRA.POLAR>
0

>  <SCORE.INTRA.POLAR.0>
0

>  <SCORE.INTRA.REPUL>
0

>  <SCORE.INTRA.REPUL.0>
0

>  <SCORE.INTRA.SOLV>
-0.870956

>  <SCORE.INTRA.SOLV.lig_0>
-49.4697

>  <SCORE.INTRA.VDW>
-0.440736

>  <SCORE.INTRA.VDW.0>
-0.896538

>  <SCORE.INTRA.norm>
-0.105364

>  <SCORE.RESTR>
0

>  <SCORE.RESTR.CAVITY>
0

>  <SCORE.RESTR.norm>
0

>  <SCORE.SYSTEM>
0

>  <SCORE.SYSTEM.CONST>
0

>  <SCORE.SYSTEM.DIHEDRAL>
0

>  <SCORE.SYSTEM.SOLV>
0

>  <SCORE.SYSTEM.norm>
0

>  <SCORE.heavy>
20

>  <SCORE.norm>
-0.574025

>  <RMSD>
5.272

$$$$
1nyi_lig
 OpenBabel11021811403D
libRbt.so/2013.1/901 2013/11/27
 20 22  0  0  0  0  0  0  0  0999 V2000
   22.8833   -3.8187   42.3977 C   0  0  0  0  0  0  0  0  0  0  0  0
   23.0277   -3.5661   41.0001 O   0  0  0  0  0  0  0  0  0  0  0  0
   22.6187   -5.2854   42.6562 C   0  0  1  0  0  0  0  0  0  0  0  0
   23.7425   -6.0616   42.1594 O   0  0  0  0  0  0  0  0  0  0  0  0
   22.5151   -5.6077   44.1428 C   0  0  1  0  0  0  0  0  0  0  0  0
   21.1687   -5.5057   44.6087 O   0  0  0  0  0  0  0  0  0  0  0  0
   23.0777   -7.0262   44.2061 C   0  0  1  0  0  0  0  0  0  0  0  0
   22.1425   -8.0158   43.8042 O   0  0  0  0  0  0  0  0  0  0  0  0
   24.2101   -6.9281   43.1862 C   0  0  2  0  0  0  0  0  0  0  0  0
   29.0683   -8.3593   44.1019 N   0  0  0  0  0  0  0  0  0  0  0  0
   28.0127   -9.1027   43.6324 C   0  0  1  0  0  0  0  0  0  0  0  0
   28.2822  -10.3834   43.3752 N   0  0  0  0  0  0  0  0  0  0  0  0
   26.7865   -8.6275   43.4342 N   0  0  0  0  0  0  0  0  0  0  0  0
   26.6845   -7.3058   43.7599 C   0  0  1  0  0  0  0  0  0  0  0  0
   27.6839   -6.4764   44.2374 C   0  0  1  0  0  0  0  0  0  0  0  0
   28.9900   -7.0064   44.4313 C   0  0  0  0  0  0  0  0  0  0  0  0
   30.0036   -6.4279   44.8430 O   0  0  0  0  0  0  0  0  0  0  0  0
   27.1973   -5.1909   44.4366 N   0  0  0  0  0  0  0  0  0  0  0  0
   25.9410   -5.2620   44.0924 C   0  0  0  0  0  0  0  0  0  0  0  0
   25.5454   -6.5141   43.6756 N   0  0  1  0  0  0  0  0  0  0  0  0
  2  1  1  0  0  0  0
  3  1  1  1  0  0  0
  3  4  1  0  0  0  0
  3  5  1  0  0  0  0
  5  6  1  6  0  0  0
  5  7  1  0  0  0  0
  7  8  1  6  0  0  0
  7  9  1  0  0  0  0
  9  4  1  6  0  0  0
  9 20  1  0  0  0  0
 10 11  1  0  0  0  0
 11 12  1  1  0  0  0
 11 13  1  0  0  0  0
 14 13  1  6  0  0  0
 15 14  1  0  0  0  0
 15 16  1  6  0  0  0
 16 10  1  0  0  0  0
 16 17  2  0  0  0  0
 18 15  1  0  0  0  0
 19 18  1  0  0  0  0
 20 14  1  0  0  0  0
 20 19  1  6  0  0  0
M  END
>  <CHROM.1>
60.58889223,-126.33775181,25.41467759,-6.59067672,43.58967369,-2.72634429
0.10720888,2.99626683

>  <Name>
1nyi_lig

>  <RI>
0

>  <Rbt.Current_Directory>
/home/itssahil/PROJECTS/Mol_Feturizer/New_Systems/rnas/1nyi

>  <Rbt.Executable>
rbdock ($Id: //depot/dev/client3/rdock/2013.1/src/exe/rbdock.cxx#4 $)

>  <Rbt.Library>
libRbt.so (2013.1, Build901 2013/11/27)

>  <Rbt.Parameter_File>
/export/apps/rDock/src/rDock_2013.1_src/data/scripts/dock_solv.prm

>  <Rbt.Receptor>
prm/pocket_docking_5.prm

>  <SCORE>
-11.4634

>  <SCORE.INTER>
-9.34907

>  <SCORE.INTER.CONST>
1

>  <SCORE.INTER.POLAR>
-0.74826

>  <SCORE.INTER.ROT>
2

>  <SCORE.INTER.SOLV>
11.5521

>  <SCORE.INTER.VDW>
-12.5225

>  <SCORE.INTER.norm>
-0.467453

>  <SCORE.INTRA>
-2.11438

>  <SCORE.INTRA.DIHEDRAL>
-2.46666

>  <SCORE.INTRA.DIHEDRAL.0>
3.72394

>  <SCORE.INTRA.POLAR>
0

>  <SCORE.INTRA.POLAR.0>
0

>  <SCORE.INTRA.REPUL>
0

>  <SCORE.INTRA.REPUL.0>
0

>  <SCORE.INTRA.SOLV>
-0.877148

>  <SCORE.INTRA.SOLV.lig_0>
-49.4697

>  <SCORE.INTRA.VDW>
-0.442476

>  <SCORE.INTRA.VDW.0>
-0.896538

>  <SCORE.INTRA.norm>
-0.105719

>  <SCORE.RESTR>
0

>  <SCORE.RESTR.CAVITY>
0

>  <SCORE.RESTR.norm>
0

>  <SCORE.SYSTEM>
0

>  <SCORE.SYSTEM.CONST>
0

>  <SCORE.SYSTEM.DIHEDRAL>
0

>  <SCORE.SYSTEM.SOLV>
0

>  <SCORE.SYSTEM.norm>
0

>  <SCORE.heavy>
20

>  <SCORE.norm>
-0.573172

>  <RMSD>
5.272

$$$$
1nyi_lig
 OpenBabel11021811403D
libRbt.so/2013.1/901 2013/11/27
 20 22  0  0  0  0  0  0  0  0999 V2000
   22.8353   -3.8174   42.4972 C   0  0  0  0  0  0  0  0  0  0  0  0
   21.7140   -3.0407   42.9187 O   0  0  0  0  0  0  0  0  0  0  0  0
   22.5874   -5.2917   42.7278 C   0  0  1  0  0  0  0  0  0  0  0  0
   23.7174   -6.0458   42.2114 O   0  0  0  0  0  0  0  0  0  0  0  0
   22.4932   -5.6443   44.2081 C   0  0  1  0  0  0  0  0  0  0  0  0
   21.1477   -5.5660   44.6810 O   0  0  0  0  0  0  0  0  0  0  0  0
   23.0713   -7.0576   44.2412 C   0  0  1  0  0  0  0  0  0  0  0  0
   22.1451   -8.0491   43.8234 O   0  0  0  0  0  0  0  0  0  0  0  0
   24.1984   -6.9272   43.2191 C   0  0  2  0  0  0  0  0  0  0  0  0
   29.0641   -8.3365   44.1289 N   0  0  0  0  0  0  0  0  0  0  0  0
   28.0129   -9.0831   43.6547 C   0  0  1  0  0  0  0  0  0  0  0  0
   28.2897  -10.3608   43.3902 N   0  0  0  0  0  0  0  0  0  0  0  0
   26.7842   -8.6136   43.4586 N   0  0  0  0  0  0  0  0  0  0  0  0
   26.6746   -7.2944   43.7918 C   0  0  1  0  0  0  0  0  0  0  0  0
   27.6692   -6.4622   44.2745 C   0  0  1  0  0  0  0  0  0  0  0  0
   28.9781   -6.9860   44.4660 C   0  0  0  0  0  0  0  0  0  0  0  0
   29.9884   -6.4042   44.8815 O   0  0  0  0  0  0  0  0  0  0  0  0
   27.1754   -5.1806   44.4808 N   0  0  0  0  0  0  0  0  0  0  0  0
   25.9196   -5.2567   44.1357 C   0  0  0  0  0  0  0  0  0  0  0  0
   25.5312   -6.5086   43.7115 N   0  0  1  0  0  0  0  0  0  0  0  0
  2  1  1  0  0  0  0
  3  1  1  1  0  0  0
  3  4  1  0  0  0  0
  3  5  1  0  0  0  0
  5  6  1  6  0  0  0
  5  7  1  0  0  0  0
  7  8  1  6  0  0  0
  7  9  1  0  0  0  0
  9  4  1  6  0  0  0
  9 20  1  0  0  0  0
 10 11  1  0  0  0  0
 11 12  1  1  0  0  0
 11 13  1  0  0  0  0
 14 13  1  6  0  0  0
 15 14  1  0  0  0  0
 15 16  1  6  0  0  0
 16 10  1  0  0  0  0
 16 17  2  0  0  0  0
 18 15  1  0  0  0  0
 19 18  1  0  0  0  0
 20 14  1  0  0  0  0
 20 19  1  6  0  0  0
M  END
>  <CHROM.1>
176.59542109,-127.22779738,25.32646079,-6.56023247,43.73879174,-2.73662127
0.12300742,-3.10904029

>  <Name>
1nyi_lig

>  <RI>
0

>  <Rbt.Current_Directory>
/home/itssahil/PROJECTS/Mol_Feturizer/New_Systems/rnas/1nyi

>  <Rbt.Executable>
rbdock ($Id: //depot/dev/client3/rdock/2013.1/src/exe/rbdock.cxx#4 $)

>  <Rbt.Library>
libRbt.so (2013.1, Build901 2013/11/27)

>  <Rbt.Parameter_File>
/export/apps/rDock/src/rDock_2013.1_src/data/scripts/dock_solv.prm

>  <Rbt.Receptor>
prm/pocket_docking_4.prm

>  <SCORE>
-11.3035

>  <SCORE.INTER>
-9.31018

>  <SCORE.INTER.CONST>
1

>  <SCORE.INTER.POLAR>
-0.748226

>  <SCORE.INTER.ROT>
2

>  <SCORE.INTER.SOLV>
11.3296

>  <SCORE.INTER.VDW>
-12.4226

>  <SCORE.INTER.norm>
-0.465509

>  <SCORE.INTRA>
-1.99335

>  <SCORE.INTRA.DIHEDRAL>
-2.42658

>  <SCORE.INTRA.DIHEDRAL.0>
3.72394

>  <SCORE.INTRA.POLAR>
0

>  <SCORE.INTRA.POLAR.0>
0

>  <SCORE.INTRA.REPUL>
0

>  <SCORE.INTRA.REPUL.0>
0

>  <SCORE.INTRA.SOLV>
-0.667119

>  <SCORE.INTRA.SOLV.lig_0>
-49.4697

>  <SCORE.INTRA.VDW>
-0.4465

>  <SCORE.INTRA.VDW.0>
-0.896538

>  <SCORE.INTRA.norm>
-0.0996674

>  <SCORE.RESTR>
0

>  <SCORE.RESTR.CAVITY>
0

>  <SCORE.RESTR.norm>
0

>  <SCORE.SYSTEM>
0

>  <SCORE.SYSTEM.CONST>
0

>  <SCORE.SYSTEM.DIHEDRAL>
0

>  <SCORE.SYSTEM.SOLV>
0

>  <SCORE.SYSTEM.norm>
0

>  <SCORE.heavy>
20

>  <SCORE.norm>
-0.565176

>  <RMSD>
5.285

$$$$
1nyi_lig
 OpenBabel11021811403D
libRbt.so/2013.1/901 2013/11/27
 20 22  0  0  0  0  0  0  0  0999 V2000
   21.7295   -5.6673   38.0653 C   0  0  0  0  0  0  0  0  0  0  0  0
   20.3097   -5.6414   37.9192 O   0  0  0  0  0  0  0  0  0  0  0  0
   22.2145   -4.4601   38.8371 C   0  0  1  0  0  0  0  0  0  0  0  0
   21.6175   -4.4770   40.1620 O   0  0  0  0  0  0  0  0  0  0  0  0
   23.7226   -4.4758   39.0598 C   0  0  1  0  0  0  0  0  0  0  0  0
   24.4154   -3.8082   38.0041 O   0  0  0  0  0  0  0  0  0  0  0  0
   23.8567   -3.7814   40.4135 C   0  0  1  0  0  0  0  0  0  0  0  0
   23.7637   -2.3673   40.3269 O   0  0  0  0  0  0  0  0  0  0  0  0
   22.6390   -4.3444   41.1431 C   0  0  2  0  0  0  0  0  0  0  0  0
   25.4816   -6.8834   44.6018 N   0  0  0  0  0  0  0  0  0  0  0  0
   25.6719   -5.6340   44.0632 C   0  0  1  0  0  0  0  0  0  0  0  0
   26.7502   -4.9800   44.4976 N   0  0  0  0  0  0  0  0  0  0  0  0
   24.8686   -5.0711   43.1651 N   0  0  0  0  0  0  0  0  0  0  0  0
   23.8250   -5.8819   42.8237 C   0  0  1  0  0  0  0  0  0  0  0  0
   23.5490   -7.1485   43.3078 C   0  0  1  0  0  0  0  0  0  0  0  0
   24.4181   -7.7246   44.2757 C   0  0  0  0  0  0  0  0  0  0  0  0
   24.3373   -8.8318   44.8228 O   0  0  0  0  0  0  0  0  0  0  0  0
   22.3882   -7.6486   42.7320 N   0  0  0  0  0  0  0  0  0  0  0  0
   21.9936   -6.7041   41.9233 C   0  0  0  0  0  0  0  0  0  0  0  0
   22.8145   -5.5977   41.9128 N   0  0  1  0  0  0  0  0  0  0  0  0
  2  1  1  0  0  0  0
  3  1  1  6  0  0  0
  3  4  1  0  0  0  0
  3  5  1  0  0  0  0
  5  6  1  6  0  0  0
  5  7  1  0  0  0  0
  7  8  1  6  0  0  0
  7  9  1  0  0  0  0
  9  4  1  6  0  0  0
  9 20  1  0  0  0  0
 10 11  1  0  0  0  0
 11 12  1  6  0  0  0
 11 13  1  0  0  0  0
 14 13  1  1  0  0  0
 15 14  1  0  0  0  0
 15 16  1  1  0  0  0
 16 10  1  0  0  0  0
 16 17  2  0  0  0  0
 18 15  1  0  0  0  0
 19 18  1  0  0  0  0
 20 14  1  0  0  0  0
 20 19  1  1  0  0  0
M  END
>  <CHROM.1>
60.84066326,171.23278002,23.48641937,-5.53343960,41.54112498,2.09103442,-0.66880106
-0.81063070

>  <Name>
1nyi_lig

>  <RI>
0

>  <Rbt.Current_Directory>
/home/itssahil/PROJECTS/Mol_Feturizer/New_Systems/rnas/1nyi

>  <Rbt.Executable>
rbdock ($Id: //depot/dev/client3/rdock/2013.1/src/exe/rbdock.cxx#4 $)

>  <Rbt.Library>
libRbt.so (2013.1, Build901 2013/11/27)

>  <Rbt.Parameter_File>
/export/apps/rDock/src/rDock_2013.1_src/data/scripts/dock_solv.prm

>  <Rbt.Receptor>
prm/pocket_docking_7.prm

>  <SCORE>
-10.6731

>  <SCORE.INTER>
-8.93677

>  <SCORE.INTER.CONST>
1

>  <SCORE.INTER.POLAR>
-0.748331

>  <SCORE.INTER.ROT>
2

>  <SCORE.INTER.SOLV>
9.86699

>  <SCORE.INTER.VDW>
-11.6857

>  <SCORE.INTER.norm>
-0.446838

>  <SCORE.INTRA>
-1.73638

>  <SCORE.INTRA.DIHEDRAL>
-2.54304

>  <SCORE.INTRA.DIHEDRAL.0>
3.72394

>  <SCORE.INTRA.POLAR>
0

>  <SCORE.INTRA.POLAR.0>
0

>  <SCORE.INTRA.REPUL>
0

>  <SCORE.INTRA.REPUL.0>
0

>  <SCORE.INTRA.SOLV>
-0.436387

>  <SCORE.INTRA.SOLV.lig_0>
-49.4697

>  <SCORE.INTRA.VDW>
-0.246665

>  <SCORE.INTRA.VDW.0>
-0.896538

>  <SCORE.INTRA.norm>
-0.086819

>  <SCORE.RESTR>
0

>  <SCORE.RESTR.CAVITY>
0

>  <SCORE.RESTR.norm>
0

>  <SCORE.SYSTEM>
0

>  <SCORE.SYSTEM.CONST>
0

>  <SCORE.SYSTEM.DIHEDRAL>
0

>  <SCORE.SYSTEM.SOLV>
0

>  <SCORE.SYSTEM.norm>
0

>  <SCORE.heavy>
20

>  <SCORE.norm>
-0.533657

>  <RMSD>
5.288

$$$$
1nyi_lig
 OpenBabel11021811403D
libRbt.so/2013.1/901 2013/11/27
 20 22  0  0  0  0  0  0  0  0999 V2000
   22.4938   -6.6972   42.4879 C   0  0  0  0  0  0  0  0  0  0  0  0
   21.6996   -7.5332   43.3296 O   0  0  0  0  0  0  0  0  0  0  0  0
   23.0514   -5.5246   43.2640 C   0  0  1  0  0  0  0  0  0  0  0  0
   23.7588   -6.0254   44.4307 O   0  0  0  0  0  0  0  0  0  0  0  0
   24.0777   -4.7294   42.4646 C   0  0  1  0  0  0  0  0  0  0  0  0
   23.4629   -3.6709   41.7285 O   0  0  0  0  0  0  0  0  0  0  0  0
   25.0300   -4.2426   43.5549 C   0  0  1  0  0  0  0  0  0  0  0  0
   24.5355   -3.1179   44.2662 O   0  0  0  0  0  0  0  0  0  0  0  0
   25.0666   -5.4668   44.4671 C   0  0  2  0  0  0  0  0  0  0  0  0
   30.0611   -6.6824   44.7239 N   0  0  0  0  0  0  0  0  0  0  0  0
   29.4284   -5.5125   45.0678 C   0  0  1  0  0  0  0  0  0  0  0  0
   30.2210   -4.5479   45.5374 N   0  0  0  0  0  0  0  0  0  0  0  0
   28.1197   -5.3036   44.9563 N   0  0  0  0  0  0  0  0  0  0  0  0
   27.4638   -6.3874   44.4480 C   0  0  1  0  0  0  0  0  0  0  0  0
   28.0092   -7.6029   44.0740 C   0  0  1  0  0  0  0  0  0  0  0  0
   29.4107   -7.8052   44.2127 C   0  0  0  0  0  0  0  0  0  0  0  0
   30.0754   -8.8123   43.9380 O   0  0  0  0  0  0  0  0  0  0  0  0
   27.0184   -8.4624   43.6174 N   0  0  0  0  0  0  0  0  0  0  0  0
   25.9175   -7.7689   43.7126 C   0  0  0  0  0  0  0  0  0  0  0  0
   26.1002   -6.4941   44.2019 N   0  0  1  0  0  0  0  0  0  0  0  0
  2  1  1  0  0  0  0
  3  1  1  6  0  0  0
  3  4  1  0  0  0  0
  3  5  1  0  0  0  0
  5  6  1  1  0  0  0
  5  7  1  0  0  0  0
  7  8  1  1  0  0  0
  7  9  1  0  0  0  0
  9  4  1  6  0  0  0
  9 20  1  0  0  0  0
 10 11  1  0  0  0  0
 11 12  1  6  0  0  0
 11 13  1  0  0  0  0
 14 13  1  1  0  0  0
 15 14  1  0  0  0  0
 15 16  1  1  0  0  0
 16 10  1  0  0  0  0
 16 17  2  0  0  0  0
 18 15  1  0  0  0  0
 19 18  1  0  0  0  0
 20 14  1  0  0  0  0
 20 19  1  1  0  0  0
M  END
>  <CHROM.1>
53.96650367,-164.51035743,26.17835269,-6.10923551,43.90880029,2.95068780
-0.25940920,0.10950566

>  <Name>
1nyi_lig

>  <RI>
0

>  <Rbt.Current_Directory>
/home/itssahil/PROJECTS/Mol_Feturizer/New_Systems/rnas/1nyi

>  <Rbt.Executable>
rbdock ($Id: //depot/dev/client3/rdock/2013.1/src/exe/rbdock.cxx#4 $)

>  <Rbt.Library>
libRbt.so (2013.1, Build901 2013/11/27)

>  <Rbt.Parameter_File>
/export/apps/rDock/src/rDock_2013.1_src/data/scripts/dock_solv.prm

>  <Rbt.Receptor>
prm/pocket_docking_5.prm

>  <SCORE>
-10.669

>  <SCORE.INTER>
-8.8685

>  <SCORE.INTER.CONST>
1

>  <SCORE.INTER.POLAR>
-0.748331

>  <SCORE.INTER.ROT>
2

>  <SCORE.INTER.SOLV>
8.32128

>  <SCORE.INTER.VDW>
-11.125

>  <SCORE.INTER.norm>
-0.443425

>  <SCORE.INTRA>
-1.80049

>  <SCORE.INTRA.DIHEDRAL>
-2.32044

>  <SCORE.INTRA.DIHEDRAL.0>
3.72394

>  <SCORE.INTRA.POLAR>
0

>  <SCORE.INTRA.POLAR.0>
0

>  <SCORE.INTRA.REPUL>
0

>  <SCORE.INTRA.REPUL.0>
0

>  <SCORE.INTRA.SOLV>
-0.639796

>  <SCORE.INTRA.SOLV.lig_0>
-49.4697

>  <SCORE.INTRA.VDW>
-0.320368

>  <SCORE.INTRA.VDW.0>
-0.896538

>  <SCORE.INTRA.norm>
-0.0900243

>  <SCORE.RESTR>
0

>  <SCORE.RESTR.CAVITY>
0

>  <SCORE.RESTR.norm>
0

>  <SCORE.SYSTEM>
0

>  <SCORE.SYSTEM.CONST>
0

>  <SCORE.SYSTEM.DIHEDRAL>
0

>  <SCORE.SYSTEM.SOLV>
0

>  <SCORE.SYSTEM.norm>
0

>  <SCORE.heavy>
20

>  <SCORE.norm>
-0.533449

>  <RMSD>
5.289

$$$$
1nyi_lig
 OpenBabel11021811403D
libRbt.so/2013.1/901 2013/11/27
 20 22  0  0  0  0  0  0  0  0999 V2000
   22.9337   -3.8820   42.5300 C   0  0  0  0  0  0  0  0  0  0  0  0
   23.0743   -3.6087   41.1359 O   0  0  0  0  0  0  0  0  0  0  0  0
   22.7085   -5.3584   42.7703 C   0  0  1  0  0  0  0  0  0  0  0  0
   23.8460   -6.0991   42.2509 O   0  0  0  0  0  0  0  0  0  0  0  0
   22.6287   -5.7039   44.2531 C   0  0  1  0  0  0  0  0  0  0  0  0
   21.2851   -5.6423   44.7341 O   0  0  0  0  0  0  0  0  0  0  0  0
   23.2271   -7.1086   44.2904 C   0  0  1  0  0  0  0  0  0  0  0  0
   22.3126   -8.1157   43.8839 O   0  0  0  0  0  0  0  0  0  0  0  0
   24.3458   -6.9679   43.2604 C   0  0  2  0  0  0  0  0  0  0  0  0
   29.2231   -8.3172   44.1985 N   0  0  0  0  0  0  0  0  0  0  0  0
   28.1777   -9.0828   43.7424 C   0  0  1  0  0  0  0  0  0  0  0  0
   28.4645  -10.3640   43.5072 N   0  0  0  0  0  0  0  0  0  0  0  0
   26.9451   -8.6277   43.5366 N   0  0  0  0  0  0  0  0  0  0  0  0
   26.8252   -7.3021   43.8395 C   0  0  1  0  0  0  0  0  0  0  0  0
   27.8134   -6.4512   44.3021 C   0  0  1  0  0  0  0  0  0  0  0  0
   29.1266   -6.9599   44.5046 C   0  0  0  0  0  0  0  0  0  0  0  0
   30.1324   -6.3608   44.9058 O   0  0  0  0  0  0  0  0  0  0  0  0
   27.3095   -5.1691   44.4793 N   0  0  0  0  0  0  0  0  0  0  0  0
   26.0542   -5.2631   44.1370 C   0  0  0  0  0  0  0  0  0  0  0  0
   25.6755   -6.5275   43.7420 N   0  0  1  0  0  0  0  0  0  0  0  0
  2  1  1  0  0  0  0
  3  1  1  1  0  0  0
  3  4  1  0  0  0  0
  3  5  1  0  0  0  0
  5  6  1  6  0  0  0
  5  7  1  0  0  0  0
  7  8  1  6  0  0  0
  7  9  1  0  0  0  0
  9  4  1  6  0  0  0
  9 20  1  0  0  0  0
 10 11  1  0  0  0  0
 11 12  1  1  0  0  0
 11 13  1  0  0  0  0
 14 13  1  6  0  0  0
 15 14  1  0  0  0  0
 15 16  1  6  0  0  0
 16 10  1  0  0  0  0
 16 17  2  0  0  0  0
 18 15  1  0  0  0  0
 19 18  1  0  0  0  0
 20 14  1  0  0  0  0
 20 19  1  6  0  0  0
M  END
>  <CHROM.1>
59.83683851,-128.33909456,25.54036387,-6.61384827,43.68121209,-2.74399947
0.10427417,2.99211048

>  <Name>
1nyi_lig

>  <RI>
0

>  <Rbt.Current_Directory>
/home/itssahil/PROJECTS/Mol_Feturizer/New_Systems/rnas/1nyi

>  <Rbt.Executable>
rbdock ($Id: //depot/dev/client3/rdock/2013.1/src/exe/rbdock.cxx#4 $)

>  <Rbt.Library>
libRbt.so (2013.1, Build901 2013/11/27)

>  <Rbt.Parameter_File>
/export/apps/rDock/src/rDock_2013.1_src/data/scripts/dock_solv.prm

>  <Rbt.Receptor>
prm/pocket_docking_6.prm

>  <SCORE>
-11.4641

>  <SCORE.INTER>
-9.35998

>  <SCORE.INTER.CONST>
1

>  <SCORE.INTER.POLAR>
-0.748331

>  <SCORE.INTER.ROT>
2

>  <SCORE.INTER.SOLV>
10.3999

>  <SCORE.INTER.VDW>
-12.1455

>  <SCORE.INTER.norm>
-0.467999

>  <SCORE.INTRA>
-2.10415

>  <SCORE.INTRA.DIHEDRAL>
-2.4604

>  <SCORE.INTRA.DIHEDRAL.0>
3.72394

>  <SCORE.INTRA.POLAR>
0

>  <SCORE.INTRA.POLAR.0>
0

>  <SCORE.INTRA.REPUL>
0

>  <SCORE.INTRA.REPUL.0>
0

>  <SCORE.INTRA.SOLV>
-0.868318

>  <SCORE.INTRA.SOLV.lig_0>
-49.4697

>  <SCORE.INTRA.VDW>
-0.439787

>  <SCORE.INTRA.VDW.0>
-0.896538

>  <SCORE.INTRA.norm>
-0.105207

>  <SCORE.RESTR>
0

>  <SCORE.RESTR.CAVITY>
0

>  <SCORE.RESTR.norm>
0

>  <SCORE.SYSTEM>
0

>  <SCORE.SYSTEM.CONST>
0

>  <SCORE.SYSTEM.DIHEDRAL>
0

>  <SCORE.SYSTEM.SOLV>
0

>  <SCORE.SYSTEM.norm>
0

>  <SCORE.heavy>
20

>  <SCORE.norm>
-0.573207

>  <RMSD>
5.294

$$$$
1nyi_lig
 OpenBabel11021811403D
libRbt.so/2013.1/901 2013/11/27
 20 22  0  0  0  0  0  0  0  0999 V2000
   27.6967   -9.0366   43.7879 C   0  0  0  0  0  0  0  0  0  0  0  0
   28.4346   -9.9335   44.6180 O   0  0  0  0  0  0  0  0  0  0  0  0
   27.5848   -7.6730   44.4330 C   0  0  1  0  0  0  0  0  0  0  0  0
   26.8859   -6.7784   43.5256 O   0  0  0  0  0  0  0  0  0  0  0  0
   26.7567   -7.6979   45.7129 C   0  0  1  0  0  0  0  0  0  0  0  0
   27.5731   -7.9341   46.8609 O   0  0  0  0  0  0  0  0  0  0  0  0
   26.1028   -6.3177   45.7018 C   0  0  1  0  0  0  0  0  0  0  0  0
   26.9719   -5.2850   46.1422 O   0  0  0  0  0  0  0  0  0  0  0  0
   25.8068   -6.1559   44.2124 C   0  0  2  0  0  0  0  0  0  0  0  0
   21.8314   -5.2657   41.0671 N   0  0  0  0  0  0  0  0  0  0  0  0
   22.9483   -4.5007   41.3008 C   0  0  1  0  0  0  0  0  0  0  0  0
   23.0161   -3.3593   40.6140 N   0  0  0  0  0  0  0  0  0  0  0  0
   23.9217   -4.8282   42.1457 N   0  0  0  0  0  0  0  0  0  0  0  0
   23.6855   -6.0179   42.7717 C   0  0  1  0  0  0  0  0  0  0  0  0
   22.5973   -6.8562   42.6045 C   0  0  1  0  0  0  0  0  0  0  0  0
   21.5741   -6.4882   41.6870 C   0  0  0  0  0  0  0  0  0  0  0  0
   20.5371   -7.1007   41.4019 O   0  0  0  0  0  0  0  0  0  0  0  0
   22.7227   -7.9841   43.4053 N   0  0  0  0  0  0  0  0  0  0  0  0
   23.8526   -7.8119   44.0344 C   0  0  0  0  0  0  0  0  0  0  0  0
   24.4986   -6.6384   43.7127 N   0  0  1  0  0  0  0  0  0  0  0  0
  2  1  1  0  0  0  0
  3  1  1  6  0  0  0
  3  4  1  0  0  0  0
  3  5  1  0  0  0  0
  5  6  1  1  0  0  0
  5  7  1  0  0  0  0
  7  8  1  6  0  0  0
  7  9  1  0  0  0  0
  9  4  1  6  0  0  0
  9 20  1  0  0  0  0
 10 11  1  0  0  0  0
 11 12  1  1  0  0  0
 11 13  1  0  0  0  0
 14 13  1  6  0  0  0
 15 14  1  0  0  0  0
 15 16  1  6  0  0  0
 16 10  1  0  0  0  0
 16 17  2  0  0  0  0
 18 15  1  0  0  0  0
 19 18  1  0  0  0  0
 20 14  1  0  0  0  0
 20 19  1  6  0  0  0
M  END
>  <CHROM.1>
177.20103449,-97.21692634,24.81192279,-6.71590303,43.52787226,0.41921850
0.56495815,2.99527568

>  <Name>
1nyi_lig

>  <RI>
0

>  <Rbt.Current_Directory>
/home/itssahil/PROJECTS/Mol_Feturizer/New_Systems/rnas/1nyi

>  <Rbt.Executable>
rbdock ($Id: //depot/dev/client3/rdock/2013.1/src/exe/rbdock.cxx#4 $)

>  <Rbt.Library>
libRbt.so (2013.1, Build901 2013/11/27)

>  <Rbt.Parameter_File>
/export/apps/rDock/src/rDock_2013.1_src/data/scripts/dock_solv.prm

>  <Rbt.Receptor>
prm/pocket_docking_5.prm

>  <SCORE>
-10.0622

>  <SCORE.INTER>
-8.12895

>  <SCORE.INTER.CONST>
1

>  <SCORE.INTER.POLAR>
-0.748331

>  <SCORE.INTER.ROT>
2

>  <SCORE.INTER.SOLV>
8.59845

>  <SCORE.INTER.VDW>
-10.7243

>  <SCORE.INTER.norm>
-0.406447

>  <SCORE.INTRA>
-1.9333

>  <SCORE.INTRA.DIHEDRAL>
-2.55503

>  <SCORE.INTRA.DIHEDRAL.0>
3.72394

>  <SCORE.INTRA.POLAR>
0

>  <SCORE.INTRA.POLAR.0>
0

>  <SCORE.INTRA.REPUL>
0

>  <SCORE.INTRA.REPUL.0>
0

>  <SCORE.INTRA.SOLV>
-0.627822

>  <SCORE.INTRA.SOLV.lig_0>
-49.4697

>  <SCORE.INTRA.VDW>
-0.341868

>  <SCORE.INTRA.VDW.0>
-0.896538

>  <SCORE.INTRA.norm>
-0.0966648

>  <SCORE.RESTR>
0

>  <SCORE.RESTR.CAVITY>
0

>  <SCORE.RESTR.norm>
0

>  <SCORE.SYSTEM>
0

>  <SCORE.SYSTEM.CONST>
0

>  <SCORE.SYSTEM.DIHEDRAL>
0

>  <SCORE.SYSTEM.SOLV>
0

>  <SCORE.SYSTEM.norm>
0

>  <SCORE.heavy>
20

>  <SCORE.norm>
-0.503112

>  <RMSD>
5.302

$$$$
1nyi_lig
 OpenBabel11021811403D
libRbt.so/2013.1/901 2013/11/27
 20 22  0  0  0  0  0  0  0  0999 V2000
   27.7395   -8.9470   43.6931 C   0  0  0  0  0  0  0  0  0  0  0  0
   28.5039   -9.8759   44.4618 O   0  0  0  0  0  0  0  0  0  0  0  0
   27.5848   -7.6352   44.4303 C   0  0  1  0  0  0  0  0  0  0  0  0
   26.8715   -6.6977   43.5791 O   0  0  0  0  0  0  0  0  0  0  0  0
   26.7449   -7.7710   45.6954 C   0  0  1  0  0  0  0  0  0  0  0  0
   27.5558   -8.0658   46.8338 O   0  0  0  0  0  0  0  0  0  0  0  0
   26.0546   -6.4109   45.7727 C   0  0  1  0  0  0  0  0  0  0  0  0
   26.8913   -5.3893   46.2943 O   0  0  0  0  0  0  0  0  0  0  0  0
   25.7693   -6.1530   44.2948 C   0  0  2  0  0  0  0  0  0  0  0  0
   21.8846   -5.2256   41.0486 N   0  0  0  0  0  0  0  0  0  0  0  0
   22.9895   -4.4591   41.3298 C   0  0  1  0  0  0  0  0  0  0  0  0
   23.0710   -3.3048   40.6665 N   0  0  0  0  0  0  0  0  0  0  0  0
   23.9391   -4.7971   42.1973 N   0  0  0  0  0  0  0  0  0  0  0  0
   23.6912   -5.9996   42.7939 C   0  0  1  0  0  0  0  0  0  0  0  0
   22.6135   -6.8403   42.5787 C   0  0  1  0  0  0  0  0  0  0  0  0
   21.6160   -6.4608   41.6379 C   0  0  0  0  0  0  0  0  0  0  0  0
   20.5917   -7.0734   41.3105 O   0  0  0  0  0  0  0  0  0  0  0  0
   22.7216   -7.9823   43.3619 N   0  0  0  0  0  0  0  0  0  0  0  0
   23.8311   -7.8158   44.0277 C   0  0  0  0  0  0  0  0  0  0  0  0
   24.4795   -6.6331   43.7473 N   0  0  1  0  0  0  0  0  0  0  0  0
  2  1  1  0  0  0  0
  3  1  1  6  0  0  0
  3  4  1  0  0  0  0
  3  5  1  0  0  0  0
  5  6  1  1  0  0  0
  5  7  1  0  0  0  0
  7  8  1  6  0  0  0
  7  9  1  0  0  0  0
  9  4  1  6  0  0  0
  9 20  1  0  0  0  0
 10 11  1  0  0  0  0
 11 12  1  1  0  0  0
 11 13  1  0  0  0  0
 14 13  1  6  0  0  0
 15 14  1  0  0  0  0
 15 16  1  6  0  0  0
 16 10  1  0  0  0  0
 16 17  2  0  0  0  0
 18 15  1  0  0  0  0
 19 18  1  0  0  0  0
 20 14  1  0  0  0  0
 20 19  1  6  0  0  0
M  END
>  <CHROM.1>
176.63209624,-93.86378984,24.81908390,-6.71017964,43.52796304,0.40926366
0.57990290,3.02695116

>  <Name>
1nyi_lig

>  <RI>
0

>  <Rbt.Current_Directory>
/home/itssahil/PROJECTS/Mol_Feturizer/New_Systems/rnas/1nyi

>  <Rbt.Executable>
rbdock ($Id: //depot/dev/client3/rdock/2013.1/src/exe/rbdock.cxx#4 $)

>  <Rbt.Library>
libRbt.so (2013.1, Build901 2013/11/27)

>  <Rbt.Parameter_File>
/export/apps/rDock/src/rDock_2013.1_src/data/scripts/dock_solv.prm

>  <Rbt.Receptor>
prm/pocket_docking_5.prm

>  <SCORE>
-10.1059

>  <SCORE.INTER>
-8.20085

>  <SCORE.INTER.CONST>
1

>  <SCORE.INTER.POLAR>
-0.748331

>  <SCORE.INTER.ROT>
2

>  <SCORE.INTER.SOLV>
8.84117

>  <SCORE.INTER.VDW>
-10.8532

>  <SCORE.INTER.norm>
-0.410043

>  <SCORE.INTRA>
-1.90509

>  <SCORE.INTRA.DIHEDRAL>
-2.54842

>  <SCORE.INTRA.DIHEDRAL.0>
3.72394

>  <SCORE.INTRA.POLAR>
0

>  <SCORE.INTRA.POLAR.0>
0

>  <SCORE.INTRA.REPUL>
0

>  <SCORE.INTRA.REPUL.0>
0

>  <SCORE.INTRA.SOLV>
-0.617952

>  <SCORE.INTRA.SOLV.lig_0>
-49.4697

>  <SCORE.INTRA.VDW>
-0.321906

>  <SCORE.INTRA.VDW.0>
-0.896538

>  <SCORE.INTRA.norm>
-0.0952546

>  <SCORE.RESTR>
0

>  <SCORE.RESTR.CAVITY>
0

>  <SCORE.RESTR.norm>
0

>  <SCORE.SYSTEM>
0

>  <SCORE.SYSTEM.CONST>
0

>  <SCORE.SYSTEM.DIHEDRAL>
0

>  <SCORE.SYSTEM.SOLV>
0

>  <SCORE.SYSTEM.norm>
0

>  <SCORE.heavy>
20

>  <SCORE.norm>
-0.505297

>  <RMSD>
5.306

$$$$
1nyi_lig
 OpenBabel11021811403D
libRbt.so/2013.1/901 2013/11/27
 20 22  0  0  0  0  0  0  0  0999 V2000
   27.7345   -9.0258   43.7160 C   0  0  0  0  0  0  0  0  0  0  0  0
   28.4754   -9.9559   44.5059 O   0  0  0  0  0  0  0  0  0  0  0  0
   27.6120   -7.6945   44.4237 C   0  0  1  0  0  0  0  0  0  0  0  0
   26.9013   -6.7658   43.5607 O   0  0  0  0  0  0  0  0  0  0  0  0
   26.7888   -7.7863   45.7037 C   0  0  1  0  0  0  0  0  0  0  0  0
   27.6115   -8.0673   46.8370 O   0  0  0  0  0  0  0  0  0  0  0  0
   26.1218   -6.4135   45.7583 C   0  0  1  0  0  0  0  0  0  0  0  0
   26.9825   -5.3938   46.2430 O   0  0  0  0  0  0  0  0  0  0  0  0
   25.8188   -6.1861   44.2789 C   0  0  2  0  0  0  0  0  0  0  0  0
   21.8994   -5.2692   41.0717 N   0  0  0  0  0  0  0  0  0  0  0  0
   23.0202   -4.5143   41.3190 C   0  0  1  0  0  0  0  0  0  0  0  0
   23.1093   -3.3763   40.6290 N   0  0  0  0  0  0  0  0  0  0  0  0
   23.9777   -4.8481   42.1795 N   0  0  0  0  0  0  0  0  0  0  0  0
   23.7205   -6.0330   42.8064 C   0  0  1  0  0  0  0  0  0  0  0  0
   22.6267   -6.8611   42.6263 C   0  0  1  0  0  0  0  0  0  0  0  0
   21.6208   -6.4867   41.6923 C   0  0  0  0  0  0  0  0  0  0  0  0
   20.5822   -7.0901   41.3942 O   0  0  0  0  0  0  0  0  0  0  0  0
   22.7291   -7.9871   43.4330 N   0  0  0  0  0  0  0  0  0  0  0  0
   23.8512   -7.8236   44.0781 C   0  0  0  0  0  0  0  0  0  0  0  0
   24.5134   -6.6577   43.7616 N   0  0  1  0  0  0  0  0  0  0  0  0
  2  1  1  0  0  0  0
  3  1  1  6  0  0  0
  3  4  1  0  0  0  0
  3  5  1  0  0  0  0
  5  6  1  1  0  0  0
  5  7  1  0  0  0  0
  7  8  1  6  0  0  0
  7  9  1  0  0  0  0
  9  4  1  6  0  0  0
  9 20  1  0  0  0  0
 10 11  1  0  0  0  0
 11 12  1  1  0  0  0
 11 13  1  0  0  0  0
 14 13  1  6  0  0  0
 15 14  1  0  0  0  0
 15 16  1  6  0  0  0
 16 10  1  0  0  0  0
 16 17  2  0  0  0  0
 18 15  1  0  0  0  0
 19 18  1  0  0  0  0
 20 14  1  0  0  0  0
 20 19  1  6  0  0  0
M  END
>  <CHROM.1>
177.63097249,-93.97485585,24.84664969,-6.74522480,43.54103794,0.42652814
0.56359106,2.99464678

>  <Name>
1nyi_lig

>  <RI>
0

>  <Rbt.Current_Directory>
/home/itssahil/PROJECTS/Mol_Feturizer/New_Systems/rnas/1nyi

>  <Rbt.Executable>
rbdock ($Id: //depot/dev/client3/rdock/2013.1/src/exe/rbdock.cxx#4 $)

>  <Rbt.Library>
libRbt.so (2013.1, Build901 2013/11/27)

>  <Rbt.Parameter_File>
/export/apps/rDock/src/rDock_2013.1_src/data/scripts/dock_solv.prm

>  <Rbt.Receptor>
prm/pocket_docking_5.prm

>  <SCORE>
-10.0999

>  <SCORE.INTER>
-8.19212

>  <SCORE.INTER.CONST>
1

>  <SCORE.INTER.POLAR>
-0.748331

>  <SCORE.INTER.ROT>
2

>  <SCORE.INTER.SOLV>
8.71885

>  <SCORE.INTER.VDW>
-10.8066

>  <SCORE.INTER.norm>
-0.409606

>  <SCORE.INTRA>
-1.90778

>  <SCORE.INTRA.DIHEDRAL>
-2.56782

>  <SCORE.INTRA.DIHEDRAL.0>
3.72394

>  <SCORE.INTRA.POLAR>
0

>  <SCORE.INTRA.POLAR.0>
0

>  <SCORE.INTRA.REPUL>
0

>  <SCORE.INTRA.REPUL.0>
0

>  <SCORE.INTRA.SOLV>
-0.613236

>  <SCORE.INTRA.SOLV.lig_0>
-49.4697

>  <SCORE.INTRA.VDW>
-0.317257

>  <SCORE.INTRA.VDW.0>
-0.896538

>  <SCORE.INTRA.norm>
-0.0953892

>  <SCORE.RESTR>
0

>  <SCORE.RESTR.CAVITY>
0

>  <SCORE.RESTR.norm>
0

>  <SCORE.SYSTEM>
0

>  <SCORE.SYSTEM.CONST>
0

>  <SCORE.SYSTEM.DIHEDRAL>
0

>  <SCORE.SYSTEM.SOLV>
0

>  <SCORE.SYSTEM.norm>
0

>  <SCORE.heavy>
20

>  <SCORE.norm>
-0.504995

>  <RMSD>
5.311

$$$$
1nyi_lig
 OpenBabel11021811403D
libRbt.so/2013.1/901 2013/11/27
 20 22  0  0  0  0  0  0  0  0999 V2000
   27.5284   -9.3736   43.9888 C   0  0  0  0  0  0  0  0  0  0  0  0
   28.4253   -9.5453   42.8914 O   0  0  0  0  0  0  0  0  0  0  0  0
   27.5373   -7.9407   44.4735 C   0  0  1  0  0  0  0  0  0  0  0  0
   26.9124   -7.0989   43.4670 O   0  0  0  0  0  0  0  0  0  0  0  0
   26.7174   -7.7484   45.7445 C   0  0  1  0  0  0  0  0  0  0  0  0
   27.5171   -7.9212   46.9154 O   0  0  0  0  0  0  0  0  0  0  0  0
   26.1841   -6.3275   45.5732 C   0  0  1  0  0  0  0  0  0  0  0  0
   27.1408   -5.3297   45.8964 O   0  0  0  0  0  0  0  0  0  0  0  0
   25.8945   -6.3120   44.0739 C   0  0  2  0  0  0  0  0  0  0  0  0
   21.8151   -5.2074   41.1367 N   0  0  0  0  0  0  0  0  0  0  0  0
   22.9702   -4.4900   41.3322 C   0  0  1  0  0  0  0  0  0  0  0  0
   23.0500   -3.3378   40.6649 N   0  0  0  0  0  0  0  0  0  0  0  0
   23.9683   -4.8714   42.1239 N   0  0  0  0  0  0  0  0  0  0  0  0
   23.7157   -6.0643   42.7375 C   0  0  1  0  0  0  0  0  0  0  0  0
   22.5894   -6.8573   42.6057 C   0  0  1  0  0  0  0  0  0  0  0  0
   21.5398   -6.4321   41.7445 C   0  0  0  0  0  0  0  0  0  0  0  0
   20.4679   -6.9990   41.4969 O   0  0  0  0  0  0  0  0  0  0  0  0
   22.7083   -8.0056   43.3779 N   0  0  0  0  0  0  0  0  0  0  0  0
   23.8718   -7.8893   43.9563 C   0  0  0  0  0  0  0  0  0  0  0  0
   24.5469   -6.7344   43.6271 N   0  0  1  0  0  0  0  0  0  0  0  0
  2  1  1  0  0  0  0
  3  1  1  6  0  0  0
  3  4  1  0  0  0  0
  3  5  1  0  0  0  0
  5  6  1  1  0  0  0
  5  7  1  0  0  0  0
  7  8  1  6  0  0  0
  7  9  1  0  0  0  0
  9  4  1  6  0  0  0
  9 20  1  0  0  0  0
 10 11  1  0  0  0  0
 11 12  1  1  0  0  0
 11 13  1  0  0  0  0
 14 13  1  6  0  0  0
 15 14  1  0  0  0  0
 15 16  1  6  0  0  0
 16 10  1  0  0  0  0
 16 17  2  0  0  0  0
 18 15  1  0  0  0  0
 19 18  1  0  0  0  0
 20 14  1  0  0  0  0
 20 19  1  6  0  0  0
M  END
>  <CHROM.1>
69.59849369,-105.81021293,24.81722129,-6.75449415,43.41961525,0.35473078
0.56823875,3.12425052

>  <Name>
1nyi_lig

>  <RI>
0

>  <Rbt.Current_Directory>
/home/itssahil/PROJECTS/Mol_Feturizer/New_Systems/rnas/1nyi

>  <Rbt.Executable>
rbdock ($Id: //depot/dev/client3/rdock/2013.1/src/exe/rbdock.cxx#4 $)

>  <Rbt.Library>
libRbt.so (2013.1, Build901 2013/11/27)

>  <Rbt.Parameter_File>
/export/apps/rDock/src/rDock_2013.1_src/data/scripts/dock_solv.prm

>  <Rbt.Receptor>
prm/pocket_docking_4.prm

>  <SCORE>
-10.1631

>  <SCORE.INTER>
-8.1992

>  <SCORE.INTER.CONST>
1

>  <SCORE.INTER.POLAR>
-0.747931

>  <SCORE.INTER.ROT>
2

>  <SCORE.INTER.SOLV>
9.95743

>  <SCORE.INTER.VDW>
-11.2255

>  <SCORE.INTER.norm>
-0.40996

>  <SCORE.INTRA>
-1.96391

>  <SCORE.INTRA.DIHEDRAL>
-2.22358

>  <SCORE.INTRA.DIHEDRAL.0>
3.72394

>  <SCORE.INTRA.POLAR>
0

>  <SCORE.INTRA.POLAR.0>
0

>  <SCORE.INTRA.REPUL>
0

>  <SCORE.INTRA.REPUL.0>
0

>  <SCORE.INTRA.SOLV>
-0.904471

>  <SCORE.INTRA.SOLV.lig_0>
-49.4697

>  <SCORE.INTRA.VDW>
-0.399891

>  <SCORE.INTRA.VDW.0>
-0.896538

>  <SCORE.INTRA.norm>
-0.0981957

>  <SCORE.RESTR>
0

>  <SCORE.RESTR.CAVITY>
0

>  <SCORE.RESTR.norm>
0

>  <SCORE.SYSTEM>
0

>  <SCORE.SYSTEM.CONST>
0

>  <SCORE.SYSTEM.DIHEDRAL>
0

>  <SCORE.SYSTEM.SOLV>
0

>  <SCORE.SYSTEM.norm>
0

>  <SCORE.heavy>
20

>  <SCORE.norm>
-0.508156

>  <RMSD>
5.313

$$$$
1nyi_lig
 OpenBabel11021811403D
libRbt.so/2013.1/901 2013/11/27
 20 22  0  0  0  0  0  0  0  0999 V2000
   25.1348   -6.7953   47.0433 C   0  0  0  0  0  0  0  0  0  0  0  0
   26.3156   -6.6369   47.8299 O   0  0  0  0  0  0  0  0  0  0  0  0
   25.3976   -7.6861   45.8494 C   0  0  1  0  0  0  0  0  0  0  0  0
   24.1655   -7.8361   45.0932 O   0  0  0  0  0  0  0  0  0  0  0  0
   26.4093   -7.0829   44.8813 C   0  0  1  0  0  0  0  0  0  0  0  0
   27.7429   -7.4835   45.1997 O   0  0  0  0  0  0  0  0  0  0  0  0
   25.9192   -7.6074   43.5332 C   0  0  1  0  0  0  0  0  0  0  0  0
   26.3030   -8.9514   43.2845 O   0  0  0  0  0  0  0  0  0  0  0  0
   24.4070   -7.5200   43.7274 C   0  0  2  0  0  0  0  0  0  0  0  0
   19.9845   -5.2788   42.3466 N   0  0  0  0  0  0  0  0  0  0  0  0
   20.2456   -6.5991   42.6218 C   0  0  1  0  0  0  0  0  0  0  0  0
   19.2029   -7.4243   42.5168 N   0  0  0  0  0  0  0  0  0  0  0  0
   21.4382   -7.0740   42.9695 N   0  0  0  0  0  0  0  0  0  0  0  0
   22.3909   -6.0975   43.0158 C   0  0  1  0  0  0  0  0  0  0  0  0
   22.2271   -4.7480   42.7574 C   0  0  1  0  0  0  0  0  0  0  0  0
   20.9389   -4.2631   42.3972 C   0  0  0  0  0  0  0  0  0  0  0  0
   20.5975   -3.1031   42.1339 O   0  0  0  0  0  0  0  0  0  0  0  0
   23.4278   -4.0701   42.9246 N   0  0  0  0  0  0  0  0  0  0  0  0
   24.2797   -4.9973   43.2657 C   0  0  0  0  0  0  0  0  0  0  0  0
   23.7331   -6.2599   43.3374 N   0  0  1  0  0  0  0  0  0  0  0  0
  2  1  1  0  0  0  0
  3  1  1  1  0  0  0
  3  4  1  0  0  0  0
  3  5  1  0  0  0  0
  5  6  1  1  0  0  0
  5  7  1  0  0  0  0
  7  8  1  1  0  0  0
  7  9  1  0  0  0  0
  9  4  1  1  0  0  0
  9 20  1  0  0  0  0
 10 11  1  0  0  0  0
 11 12  1  6  0  0  0
 11 13  1  0  0  0  0
 14 13  1  1  0  0  0
 15 14  1  0  0  0  0
 15 16  1  1  0  0  0
 16 10  1  0  0  0  0
 16 17  2  0  0  0  0
 18 15  1  0  0  0  0
 19 18  1  0  0  0  0
 20 14  1  0  0  0  0
 20 19  1  1  0  0  0
M  END
>  <CHROM.1>
179.05186851,-79.60434574,23.57661140,-6.39625403,43.87937046,-0.30968637
-0.52000197,0.05543977

>  <Name>
1nyi_lig

>  <RI>
0

>  <Rbt.Current_Directory>
/home/itssahil/PROJECTS/Mol_Feturizer/New_Systems/rnas/1nyi

>  <Rbt.Executable>
rbdock ($Id: //depot/dev/client3/rdock/2013.1/src/exe/rbdock.cxx#4 $)

>  <Rbt.Library>
libRbt.so (2013.1, Build901 2013/11/27)

>  <Rbt.Parameter_File>
/export/apps/rDock/src/rDock_2013.1_src/data/scripts/dock_solv.prm

>  <Rbt.Receptor>
prm/pocket_docking_6.prm

>  <SCORE>
-6.26912

>  <SCORE.INTER>
-4.50806

>  <SCORE.INTER.CONST>
1

>  <SCORE.INTER.POLAR>
-0.748331

>  <SCORE.INTER.ROT>
2

>  <SCORE.INTER.SOLV>
6.44959

>  <SCORE.INTER.VDW>
-7.59413

>  <SCORE.INTER.norm>
-0.225403

>  <SCORE.INTRA>
-1.76106

>  <SCORE.INTRA.DIHEDRAL>
-2.57729

>  <SCORE.INTRA.DIHEDRAL.0>
3.72394

>  <SCORE.INTRA.POLAR>
0

>  <SCORE.INTRA.POLAR.0>
0

>  <SCORE.INTRA.REPUL>
0

>  <SCORE.INTRA.REPUL.0>
0

>  <SCORE.INTRA.SOLV>
-0.543929

>  <SCORE.INTRA.SOLV.lig_0>
-49.4697

>  <SCORE.INTRA.VDW>
-0.200451

>  <SCORE.INTRA.VDW.0>
-0.896538

>  <SCORE.INTRA.norm>
-0.0880529

>  <SCORE.RESTR>
0

>  <SCORE.RESTR.CAVITY>
0

>  <SCORE.RESTR.norm>
0

>  <SCORE.SYSTEM>
0

>  <SCORE.SYSTEM.CONST>
0

>  <SCORE.SYSTEM.DIHEDRAL>
0

>  <SCORE.SYSTEM.SOLV>
0

>  <SCORE.SYSTEM.norm>
0

>  <SCORE.heavy>
20

>  <SCORE.norm>
-0.313456

>  <RMSD>
5.315

$$$$
1nyi_lig
 OpenBabel11021811403D
libRbt.so/2013.1/901 2013/11/27
 20 22  0  0  0  0  0  0  0  0999 V2000
   27.7359   -9.0626   43.6854 C   0  0  0  0  0  0  0  0  0  0  0  0
   28.4768  -10.0033   44.4626 O   0  0  0  0  0  0  0  0  0  0  0  0
   27.6311   -7.7345   44.4019 C   0  0  1  0  0  0  0  0  0  0  0  0
   26.9240   -6.7936   43.5493 O   0  0  0  0  0  0  0  0  0  0  0  0
   26.8154   -7.8262   45.6867 C   0  0  1  0  0  0  0  0  0  0  0  0
   27.6427   -8.1222   46.8129 O   0  0  0  0  0  0  0  0  0  0  0  0
   26.1623   -6.4472   45.7541 C   0  0  1  0  0  0  0  0  0  0  0  0
   27.0362   -5.4390   46.2394 O   0  0  0  0  0  0  0  0  0  0  0  0
   25.8520   -6.2078   44.2781 C   0  0  2  0  0  0  0  0  0  0  0  0
   21.9047   -5.2148   41.1283 N   0  0  0  0  0  0  0  0  0  0  0  0
   23.0322   -4.4703   41.3767 C   0  0  1  0  0  0  0  0  0  0  0  0
   23.1206   -3.3211   40.7054 N   0  0  0  0  0  0  0  0  0  0  0  0
   23.9967   -4.8240   42.2213 N   0  0  0  0  0  0  0  0  0  0  0  0
   23.7394   -6.0180   42.8306 C   0  0  1  0  0  0  0  0  0  0  0  0
   22.6391   -6.8370   42.6477 C   0  0  1  0  0  0  0  0  0  0  0  0
   21.6258   -6.4412   41.7309 C   0  0  0  0  0  0  0  0  0  0  0  0
   20.5808   -7.0338   41.4334 O   0  0  0  0  0  0  0  0  0  0  0  0
   22.7437   -7.9772   43.4340 N   0  0  0  0  0  0  0  0  0  0  0  0
   23.8733   -7.8309   44.0700 C   0  0  0  0  0  0  0  0  0  0  0  0
   24.5387   -6.6633   43.7666 N   0  0  1  0  0  0  0  0  0  0  0  0
  2  1  1  0  0  0  0
  3  1  1  6  0  0  0
  3  4  1  0  0  0  0
  3  5  1  0  0  0  0
  5  6  1  1  0  0  0
  5  7  1  0  0  0  0
  7  8  1  6  0  0  0
  7  9  1  0  0  0  0
  9  4  1  6  0  0  0
  9 20  1  0  0  0  0
 10 11  1  0  0  0  0
 11 12  1  1  0  0  0
 11 13  1  0  0  0  0
 14 13  1  6  0  0  0
 15 14  1  0  0  0  0
 15 16  1  6  0  0  0
 16 10  1  0  0  0  0
 16 17  2  0  0  0  0
 18 15  1  0  0  0  0
 19 18  1  0  0  0  0
 20 14  1  0  0  0  0
 20 19  1  6  0  0  0
M  END
>  <CHROM.1>
177.42404830,-94.68714446,24.86544298,-6.74779144,43.55005659,0.43253127
0.55576190,3.00731688

>  <Name>
1nyi_lig

>  <RI>
0

>  <Rbt.Current_Directory>
/home/itssahil/PROJECTS/Mol_Feturizer/New_Systems/rnas/1nyi

>  <Rbt.Executable>
rbdock ($Id: //depot/dev/client3/rdock/2013.1/src/exe/rbdock.cxx#4 $)

>  <Rbt.Library>
libRbt.so (2013.1, Build901 2013/11/27)

>  <Rbt.Parameter_File>
/export/apps/rDock/src/rDock_2013.1_src/data/scripts/dock_solv.prm

>  <Rbt.Receptor>
prm/pocket_docking_7.prm

>  <SCORE>
-10.109

>  <SCORE.INTER>
-8.19543

>  <SCORE.INTER.CONST>
1

>  <SCORE.INTER.POLAR>
-0.748267

>  <SCORE.INTER.ROT>
2

>  <SCORE.INTER.SOLV>
8.82502

>  <SCORE.INTER.VDW>
-10.8444

>  <SCORE.INTER.norm>
-0.409772

>  <SCORE.INTRA>
-1.91362

>  <SCORE.INTRA.DIHEDRAL>
-2.5634

>  <SCORE.INTRA.DIHEDRAL.0>
3.72394

>  <SCORE.INTRA.POLAR>
0

>  <SCORE.INTRA.POLAR.0>
0

>  <SCORE.INTRA.REPUL>
0

>  <SCORE.INTRA.REPUL.0>
0

>  <SCORE.INTRA.SOLV>
-0.617076

>  <SCORE.INTRA.SOLV.lig_0>
-49.4697

>  <SCORE.INTRA.VDW>
-0.323381

>  <SCORE.INTRA.VDW.0>
-0.896538

>  <SCORE.INTRA.norm>
-0.0956809

>  <SCORE.RESTR>
0

>  <SCORE.RESTR.CAVITY>
0

>  <SCORE.RESTR.norm>
0

>  <SCORE.SYSTEM>
0

>  <SCORE.SYSTEM.CONST>
0

>  <SCORE.SYSTEM.DIHEDRAL>
0

>  <SCORE.SYSTEM.SOLV>
0

>  <SCORE.SYSTEM.norm>
0

>  <SCORE.heavy>
20

>  <SCORE.norm>
-0.505452

>  <RMSD>
5.322

$$$$
1nyi_lig
 OpenBabel11021811403D
libRbt.so/2013.1/901 2013/11/27
 20 22  0  0  0  0  0  0  0  0999 V2000
   29.7696   -9.4543   44.9221 C   0  0  0  0  0  0  0  0  0  0  0  0
   30.5641   -9.7463   43.7726 O   0  0  0  0  0  0  0  0  0  0  0  0
   29.6875   -7.9621   45.1561 C   0  0  1  0  0  0  0  0  0  0  0  0
   29.0610   -7.3381   44.0027 O   0  0  0  0  0  0  0  0  0  0  0  0
   28.8098   -7.6050   46.3505 C   0  0  1  0  0  0  0  0  0  0  0  0
   29.5707   -7.5332   47.5573 O   0  0  0  0  0  0  0  0  0  0  0  0
   28.2128   -6.2654   45.9240 C   0  0  1  0  0  0  0  0  0  0  0  0
   29.1048   -5.1753   46.1014 O   0  0  0  0  0  0  0  0  0  0  0  0
   27.9818   -6.5187   44.4359 C   0  0  2  0  0  0  0  0  0  0  0  0
   23.1578   -5.5190   42.9462 N   0  0  0  0  0  0  0  0  0  0  0  0
   24.1600   -4.6491   43.3014 C   0  0  1  0  0  0  0  0  0  0  0  0
   23.8399   -3.3551   43.2548 N   0  0  0  0  0  0  0  0  0  0  0  0
   25.3807   -5.0200   43.6769 N   0  0  0  0  0  0  0  0  0  0  0  0
   25.5314   -6.3767   43.6806 C   0  0  1  0  0  0  0  0  0  0  0  0
   24.5876   -7.3300   43.3412 C   0  0  1  0  0  0  0  0  0  0  0  0
   23.2920   -6.9071   42.9328 C   0  0  0  0  0  0  0  0  0  0  0  0
   22.3259   -7.6016   42.5922 O   0  0  0  0  0  0  0  0  0  0  0  0
   25.1216   -8.6071   43.4545 N   0  0  0  0  0  0  0  0  0  0  0  0
   26.3470   -8.4124   43.8577 C   0  0  0  0  0  0  0  0  0  0  0  0
   26.6757   -7.0853   44.0271 N   0  0  1  0  0  0  0  0  0  0  0  0
  2  1  1  0  0  0  0
  3  1  1  6  0  0  0
  3  4  1  0  0  0  0
  3  5  1  0  0  0  0
  5  6  1  1  0  0  0
  5  7  1  0  0  0  0
  7  8  1  6  0  0  0
  7  9  1  0  0  0  0
  9  4  1  1  0  0  0
  9 20  1  0  0  0  0
 10 11  1  0  0  0  0
 11 12  1  1  0  0  0
 11 13  1  0  0  0  0
 14 13  1  6  0  0  0
 15 14  1  0  0  0  0
 15 16  1  6  0  0  0
 16 10  1  0  0  0  0
 16 17  2  0  0  0  0
 18 15  1  0  0  0  0
 19 18  1  0  0  0  0
 20 14  1  0  0  0  0
 20 19  1  6  0  0  0
M  END
>  <CHROM.1>
61.12084313,-146.82999075,26.72683822,-6.94934670,44.28481658,0.16426374
0.45794327,-2.79119526

>  <Name>
1nyi_lig

>  <RI>
0

>  <Rbt.Current_Directory>
/home/itssahil/PROJECTS/Mol_Feturizer/New_Systems/rnas/1nyi

>  <Rbt.Executable>
rbdock ($Id: //depot/dev/client3/rdock/2013.1/src/exe/rbdock.cxx#4 $)

>  <Rbt.Library>
libRbt.so (2013.1, Build901 2013/11/27)

>  <Rbt.Parameter_File>
/export/apps/rDock/src/rDock_2013.1_src/data/scripts/dock_solv.prm

>  <Rbt.Receptor>
prm/pocket_docking_8.prm

>  <SCORE>
-10.3297

>  <SCORE.INTER>
-8.31145

>  <SCORE.INTER.CONST>
1

>  <SCORE.INTER.POLAR>
-0.748148

>  <SCORE.INTER.ROT>
2

>  <SCORE.INTER.SOLV>
10.3934

>  <SCORE.INTER.VDW>
-11.4449

>  <SCORE.INTER.norm>
-0.415572

>  <SCORE.INTRA>
-2.01822

>  <SCORE.INTRA.DIHEDRAL>
-2.41079

>  <SCORE.INTRA.DIHEDRAL.0>
3.72394

>  <SCORE.INTRA.POLAR>
0

>  <SCORE.INTRA.POLAR.0>
0

>  <SCORE.INTRA.REPUL>
0

>  <SCORE.INTRA.REPUL.0>
0

>  <SCORE.INTRA.SOLV>
-0.815983

>  <SCORE.INTRA.SOLV.lig_0>
-49.4697

>  <SCORE.INTRA.VDW>
-0.404829

>  <SCORE.INTRA.VDW.0>
-0.896538

>  <SCORE.INTRA.norm>
-0.100911

>  <SCORE.RESTR>
0

>  <SCORE.RESTR.CAVITY>
0

>  <SCORE.RESTR.norm>
0

>  <SCORE.SYSTEM>
0

>  <SCORE.SYSTEM.CONST>
0

>  <SCORE.SYSTEM.DIHEDRAL>
0

>  <SCORE.SYSTEM.SOLV>
0

>  <SCORE.SYSTEM.norm>
0

>  <SCORE.heavy>
20

>  <SCORE.norm>
-0.516483

>  <RMSD>
5.326

$$$$
1nyi_lig
 OpenBabel11021811403D
libRbt.so/2013.1/901 2013/11/27
 20 22  0  0  0  0  0  0  0  0999 V2000
   22.9615   -3.9615   42.5001 C   0  0  0  0  0  0  0  0  0  0  0  0
   23.1290   -3.6929   41.1080 O   0  0  0  0  0  0  0  0  0  0  0  0
   22.7242   -5.4360   42.7402 C   0  0  1  0  0  0  0  0  0  0  0  0
   23.8607   -6.1852   42.2309 O   0  0  0  0  0  0  0  0  0  0  0  0
   22.6300   -5.7792   44.2227 C   0  0  1  0  0  0  0  0  0  0  0  0
   21.2831   -5.7077   44.6928 O   0  0  0  0  0  0  0  0  0  0  0  0
   23.2184   -7.1879   44.2664 C   0  0  1  0  0  0  0  0  0  0  0  0
   22.3003   -8.1891   43.8538 O   0  0  0  0  0  0  0  0  0  0  0  0
   24.3463   -7.0562   43.2454 C   0  0  2  0  0  0  0  0  0  0  0  0
   29.2356   -8.4062   44.1179 N   0  0  0  0  0  0  0  0  0  0  0  0
   28.1932   -9.1621   43.6391 C   0  0  1  0  0  0  0  0  0  0  0  0
   28.4870  -10.4325   43.3582 N   0  0  0  0  0  0  0  0  0  0  0  0
   26.9570   -8.7080   43.4538 N   0  0  0  0  0  0  0  0  0  0  0  0
   26.8300   -7.3946   43.8033 C   0  0  1  0  0  0  0  0  0  0  0  0
   27.8147   -6.5540   44.2918 C   0  0  1  0  0  0  0  0  0  0  0  0
   29.1318   -7.0612   44.4716 C   0  0  0  0  0  0  0  0  0  0  0  0
   30.1354   -6.4700   44.8898 O   0  0  0  0  0  0  0  0  0  0  0  0
   27.3035   -5.2822   44.5156 N   0  0  0  0  0  0  0  0  0  0  0  0
   26.0474   -5.3722   44.1747 C   0  0  0  0  0  0  0  0  0  0  0  0
   25.6751   -6.6244   43.7372 N   0  0  1  0  0  0  0  0  0  0  0  0
  2  1  1  0  0  0  0
  3  1  1  1  0  0  0
  3  4  1  0  0  0  0
  3  5  1  0  0  0  0
  5  6  1  6  0  0  0
  5  7  1  0  0  0  0
  7  8  1  6  0  0  0
  7  9  1  0  0  0  0
  9  4  1  6  0  0  0
  9 20  1  0  0  0  0
 10 11  1  0  0  0  0
 11 12  1  1  0  0  0
 11 13  1  0  0  0  0
 14 13  1  6  0  0  0
 15 14  1  0  0  0  0
 15 16  1  6  0  0  0
 16 10  1  0  0  0  0
 16 17  2  0  0  0  0
 18 15  1  0  0  0  0
 19 18  1  0  0  0  0
 20 14  1  0  0  0  0
 20 19  1  6  0  0  0
M  END
>  <CHROM.1>
59.23877426,-126.03189894,25.54835443,-6.70123326,43.64696551,-2.74633308
0.10612560,3.01373433

>  <Name>
1nyi_lig

>  <RI>
0

>  <Rbt.Current_Directory>
/home/itssahil/PROJECTS/Mol_Feturizer/New_Systems/rnas/1nyi

>  <Rbt.Executable>
rbdock ($Id: //depot/dev/client3/rdock/2013.1/src/exe/rbdock.cxx#4 $)

>  <Rbt.Library>
libRbt.so (2013.1, Build901 2013/11/27)

>  <Rbt.Parameter_File>
/export/apps/rDock/src/rDock_2013.1_src/data/scripts/dock_solv.prm

>  <Rbt.Receptor>
prm/pocket_docking_6.prm

>  <SCORE>
-11.4812

>  <SCORE.INTER>
-9.37315

>  <SCORE.INTER.CONST>
1

>  <SCORE.INTER.POLAR>
-0.74775

>  <SCORE.INTER.ROT>
2

>  <SCORE.INTER.SOLV>
11.0492

>  <SCORE.INTER.VDW>
-12.3727

>  <SCORE.INTER.norm>
-0.468658

>  <SCORE.INTRA>
-2.10805

>  <SCORE.INTRA.DIHEDRAL>
-2.4684

>  <SCORE.INTRA.DIHEDRAL.0>
3.72394

>  <SCORE.INTRA.POLAR>
0

>  <SCORE.INTRA.POLAR.0>
0

>  <SCORE.INTRA.REPUL>
0

>  <SCORE.INTRA.REPUL.0>
0

>  <SCORE.INTRA.SOLV>
-0.869096

>  <SCORE.INTRA.SOLV.lig_0>
-49.4697

>  <SCORE.INTRA.VDW>
-0.439303

>  <SCORE.INTRA.VDW.0>
-0.896538

>  <SCORE.INTRA.norm>
-0.105403

>  <SCORE.RESTR>
0

>  <SCORE.RESTR.CAVITY>
0

>  <SCORE.RESTR.norm>
0

>  <SCORE.SYSTEM>
0

>  <SCORE.SYSTEM.CONST>
0

>  <SCORE.SYSTEM.DIHEDRAL>
0

>  <SCORE.SYSTEM.SOLV>
0

>  <SCORE.SYSTEM.norm>
0

>  <SCORE.heavy>
20

>  <SCORE.norm>
-0.57406

>  <RMSD>
5.332

$$$$
1nyi_lig
 OpenBabel11021811403D
libRbt.so/2013.1/901 2013/11/27
 20 22  0  0  0  0  0  0  0  0999 V2000
   27.6980   -9.0756   43.7185 C   0  0  0  0  0  0  0  0  0  0  0  0
   28.3901  -10.0207   44.5344 O   0  0  0  0  0  0  0  0  0  0  0  0
   27.5862   -7.7389   44.4178 C   0  0  1  0  0  0  0  0  0  0  0  0
   26.9031   -6.8036   43.5399 O   0  0  0  0  0  0  0  0  0  0  0  0
   26.7431   -7.8112   45.6860 C   0  0  1  0  0  0  0  0  0  0  0  0
   27.5446   -8.0994   46.8326 O   0  0  0  0  0  0  0  0  0  0  0  0
   26.0972   -6.4278   45.7241 C   0  0  1  0  0  0  0  0  0  0  0  0
   26.9668   -5.4194   46.2165 O   0  0  0  0  0  0  0  0  0  0  0  0
   25.8195   -6.2032   44.2393 C   0  0  2  0  0  0  0  0  0  0  0  0
   21.9156   -5.1905   41.0420 N   0  0  0  0  0  0  0  0  0  0  0  0
   23.0380   -4.4461   41.3128 C   0  0  1  0  0  0  0  0  0  0  0  0
   23.1338   -3.2911   40.6527 N   0  0  0  0  0  0  0  0  0  0  0  0
   23.9911   -4.8052   42.1681 N   0  0  0  0  0  0  0  0  0  0  0  0
   23.7274   -6.0050   42.7634 C   0  0  1  0  0  0  0  0  0  0  0  0
   22.6315   -6.8244   42.5579 C   0  0  1  0  0  0  0  0  0  0  0  0
   21.6305   -6.4225   41.6300 C   0  0  0  0  0  0  0  0  0  0  0  0
   20.5910   -7.0144   41.3126 O   0  0  0  0  0  0  0  0  0  0  0  0
   22.7270   -7.9710   43.3358 N   0  0  0  0  0  0  0  0  0  0  0  0
   23.8471   -7.8281   43.9891 C   0  0  0  0  0  0  0  0  0  0  0  0
   24.5145   -6.6568   43.7052 N   0  0  1  0  0  0  0  0  0  0  0  0
  2  1  1  0  0  0  0
  3  1  1  6  0  0  0
  3  4  1  0  0  0  0
  3  5  1  0  0  0  0
  5  6  1  1  0  0  0
  5  7  1  0  0  0  0
  7  8  1  6  0  0  0
  7  9  1  0  0  0  0
  9  4  1  6  0  0  0
  9 20  1  0  0  0  0
 10 11  1  0  0  0  0
 11 12  1  1  0  0  0
 11 13  1  0  0  0  0
 14 13  1  6  0  0  0
 15 14  1  0  0  0  0
 15 16  1  6  0  0  0
 16 10  1  0  0  0  0
 16 17  2  0  0  0  0
 18 15  1  0  0  0  0
 19 18  1  0  0  0  0
 20 14  1  0  0  0  0
 20 19  1  6  0  0  0
M  END
>  <CHROM.1>
178.74354033,-95.96877376,24.83569190,-6.73736204,43.50962390,-0.43648640
-0.57648182,-0.13132295

>  <Name>
1nyi_lig

>  <RI>
0

>  <Rbt.Current_Directory>
/home/itssahil/PROJECTS/Mol_Feturizer/New_Systems/rnas/1nyi

>  <Rbt.Executable>
rbdock ($Id: //depot/dev/client3/rdock/2013.1/src/exe/rbdock.cxx#4 $)

>  <Rbt.Library>
libRbt.so (2013.1, Build901 2013/11/27)

>  <Rbt.Parameter_File>
/export/apps/rDock/src/rDock_2013.1_src/data/scripts/dock_solv.prm

>  <Rbt.Receptor>
prm/pocket_docking_5.prm

>  <SCORE>
-10.0792

>  <SCORE.INTER>
-8.15796

>  <SCORE.INTER.CONST>
1

>  <SCORE.INTER.POLAR>
-0.748331

>  <SCORE.INTER.ROT>
2

>  <SCORE.INTER.SOLV>
9.05049

>  <SCORE.INTER.VDW>
-10.8944

>  <SCORE.INTER.norm>
-0.407898

>  <SCORE.INTRA>
-1.92123

>  <SCORE.INTRA.DIHEDRAL>
-2.57825

>  <SCORE.INTRA.DIHEDRAL.0>
3.72394

>  <SCORE.INTRA.POLAR>
0

>  <SCORE.INTRA.POLAR.0>
0

>  <SCORE.INTRA.REPUL>
0

>  <SCORE.INTRA.REPUL.0>
0

>  <SCORE.INTRA.SOLV>
-0.615233

>  <SCORE.INTRA.SOLV.lig_0>
-49.4697

>  <SCORE.INTRA.VDW>
-0.324486

>  <SCORE.INTRA.VDW.0>
-0.896538

>  <SCORE.INTRA.norm>
-0.0960613

>  <SCORE.RESTR>
0

>  <SCORE.RESTR.CAVITY>
0

>  <SCORE.RESTR.norm>
0

>  <SCORE.SYSTEM>
0

>  <SCORE.SYSTEM.CONST>
0

>  <SCORE.SYSTEM.DIHEDRAL>
0

>  <SCORE.SYSTEM.SOLV>
0

>  <SCORE.SYSTEM.norm>
0

>  <SCORE.heavy>
20

>  <SCORE.norm>
-0.503959

>  <RMSD>
5.337

$$$$
1nyi_lig
 OpenBabel11021811403D
libRbt.so/2013.1/901 2013/11/27
 20 22  0  0  0  0  0  0  0  0999 V2000
   22.6184   -6.7351   42.6918 C   0  0  0  0  0  0  0  0  0  0  0  0
   21.8778   -7.7042   43.4338 O   0  0  0  0  0  0  0  0  0  0  0  0
   23.3347   -5.7781   43.6188 C   0  0  1  0  0  0  0  0  0  0  0  0
   24.0353   -6.5435   44.6364 O   0  0  0  0  0  0  0  0  0  0  0  0
   24.4041   -4.9608   42.9027 C   0  0  1  0  0  0  0  0  0  0  0  0
   23.8755   -3.7339   42.3974 O   0  0  0  0  0  0  0  0  0  0  0  0
   25.4520   -4.7698   43.9974 C   0  0  1  0  0  0  0  0  0  0  0  0
   25.1152   -3.7439   44.9191 O   0  0  0  0  0  0  0  0  0  0  0  0
   25.3963   -6.1326   44.6843 C   0  0  2  0  0  0  0  0  0  0  0  0
   30.2510   -7.7988   44.3041 N   0  0  0  0  0  0  0  0  0  0  0  0
   29.7662   -6.6422   44.8649 C   0  0  1  0  0  0  0  0  0  0  0  0
   30.6850   -5.8293   45.3885 N   0  0  0  0  0  0  0  0  0  0  0  0
   28.4799   -6.3071   44.9056 N   0  0  0  0  0  0  0  0  0  0  0  0
   27.6818   -7.2436   44.3145 C   0  0  1  0  0  0  0  0  0  0  0  0
   28.0732   -8.4332   43.7258 C   0  0  1  0  0  0  0  0  0  0  0  0
   29.4544   -8.7737   43.7041 C   0  0  0  0  0  0  0  0  0  0  0  0
   29.9925   -9.7829   43.2313 O   0  0  0  0  0  0  0  0  0  0  0  0
   26.9691   -9.1273   43.2480 N   0  0  0  0  0  0  0  0  0  0  0  0
   25.9531   -8.3631   43.5408 C   0  0  0  0  0  0  0  0  0  0  0  0
   26.2991   -7.1949   44.1837 N   0  0  1  0  0  0  0  0  0  0  0  0
  2  1  1  0  0  0  0
  3  1  1  6  0  0  0
  3  4  1  0  0  0  0
  3  5  1  0  0  0  0
  5  6  1  1  0  0  0
  5  7  1  0  0  0  0
  7  8  1  1  0  0  0
  7  9  1  0  0  0  0
  9  4  1  6  0  0  0
  9 20  1  0  0  0  0
 10 11  1  0  0  0  0
 11 12  1  6  0  0  0
 11 13  1  0  0  0  0
 14 13  1  1  0  0  0
 15 14  1  0  0  0  0
 15 16  1  1  0  0  0
 16 10  1  0  0  0  0
 16 17  2  0  0  0  0
 18 15  1  0  0  0  0
 19 18  1  0  0  0  0
 20 14  1  0  0  0  0
 20 19  1  1  0  0  0
M  END
>  <CHROM.1>
48.38556398,-167.10493925,26.41551375,-6.76121340,43.92670421,2.83373543
-0.20327687,0.23875187

>  <Name>
1nyi_lig

>  <RI>
0

>  <Rbt.Current_Directory>
/home/itssahil/PROJECTS/Mol_Feturizer/New_Systems/rnas/1nyi

>  <Rbt.Executable>
rbdock ($Id: //depot/dev/client3/rdock/2013.1/src/exe/rbdock.cxx#4 $)

>  <Rbt.Library>
libRbt.so (2013.1, Build901 2013/11/27)

>  <Rbt.Parameter_File>
/export/apps/rDock/src/rDock_2013.1_src/data/scripts/dock_solv.prm

>  <Rbt.Receptor>
prm/pocket_docking_7.prm

>  <SCORE>
-10.8356

>  <SCORE.INTER>
-9.28046

>  <SCORE.INTER.CONST>
1

>  <SCORE.INTER.POLAR>
-0.744961

>  <SCORE.INTER.ROT>
2

>  <SCORE.INTER.SOLV>
9.6159

>  <SCORE.INTER.VDW>
-11.8424

>  <SCORE.INTER.norm>
-0.464023

>  <SCORE.INTRA>
-1.5551

>  <SCORE.INTRA.DIHEDRAL>
-1.99457

>  <SCORE.INTRA.DIHEDRAL.0>
3.72394

>  <SCORE.INTRA.POLAR>
0

>  <SCORE.INTRA.POLAR.0>
0

>  <SCORE.INTRA.REPUL>
0

>  <SCORE.INTRA.REPUL.0>
0

>  <SCORE.INTRA.SOLV>
-0.578158

>  <SCORE.INTRA.SOLV.lig_0>
-49.4697

>  <SCORE.INTRA.VDW>
-0.268733

>  <SCORE.INTRA.VDW.0>
-0.896538

>  <SCORE.INTRA.norm>
-0.0777549

>  <SCORE.RESTR>
0

>  <SCORE.RESTR.CAVITY>
0

>  <SCORE.RESTR.norm>
0

>  <SCORE.SYSTEM>
0

>  <SCORE.SYSTEM.CONST>
0

>  <SCORE.SYSTEM.DIHEDRAL>
0

>  <SCORE.SYSTEM.SOLV>
0

>  <SCORE.SYSTEM.norm>
0

>  <SCORE.heavy>
20

>  <SCORE.norm>
-0.541778

>  <RMSD>
5.350

$$$$
1nyi_lig
 OpenBabel11021811403D
libRbt.so/2013.1/901 2013/11/27
 20 22  0  0  0  0  0  0  0  0999 V2000
   22.5405   -7.3305   44.9368 C   0  0  0  0  0  0  0  0  0  0  0  0
   21.9661   -8.6205   44.7273 O   0  0  0  0  0  0  0  0  0  0  0  0
   22.2480   -6.4138   43.7696 C   0  0  1  0  0  0  0  0  0  0  0  0
   22.7457   -5.0838   44.0789 O   0  0  0  0  0  0  0  0  0  0  0  0
   22.9676   -6.8417   42.4955 C   0  0  1  0  0  0  0  0  0  0  0  0
   22.1683   -7.7325   41.7159 O   0  0  0  0  0  0  0  0  0  0  0  0
   23.2357   -5.5032   41.8105 C   0  0  1  0  0  0  0  0  0  0  0  0
   22.0991   -4.9837   41.1367 O   0  0  0  0  0  0  0  0  0  0  0  0
   23.5761   -4.6304   43.0165 C   0  0  2  0  0  0  0  0  0  0  0  0
   27.7831   -7.2603   44.3854 N   0  0  0  0  0  0  0  0  0  0  0  0
   26.5280   -7.7225   44.0719 C   0  0  1  0  0  0  0  0  0  0  0  0
   26.3728   -9.0460   44.1296 N   0  0  0  0  0  0  0  0  0  0  0  0
   25.5032   -6.9461   43.7317 N   0  0  0  0  0  0  0  0  0  0  0  0
   25.8333   -5.6216   43.7358 C   0  0  1  0  0  0  0  0  0  0  0  0
   27.0623   -5.0608   44.0354 C   0  0  1  0  0  0  0  0  0  0  0  0
   28.1456   -5.9136   44.3866 C   0  0  0  0  0  0  0  0  0  0  0  0
   29.3069   -5.6035   44.6814 O   0  0  0  0  0  0  0  0  0  0  0  0
   27.0103   -3.6782   43.9136 N   0  0  0  0  0  0  0  0  0  0  0  0
   25.7799   -3.4293   43.5585 C   0  0  0  0  0  0  0  0  0  0  0  0
   24.9950   -4.5548   43.4348 N   0  0  1  0  0  0  0  0  0  0  0  0
  2  1  1  0  0  0  0
  3  1  1  1  0  0  0
  3  4  1  0  0  0  0
  3  5  1  0  0  0  0
  5  6  1  6  0  0  0
  5  7  1  0  0  0  0
  7  8  1  1  0  0  0
  7  9  1  0  0  0  0
  9  4  1  1  0  0  0
  9 20  1  0  0  0  0
 10 11  1  0  0  0  0
 11 12  1  1  0  0  0
 11 13  1  0  0  0  0
 14 13  1  6  0  0  0
 15 14  1  0  0  0  0
 15 16  1  6  0  0  0
 16 10  1  0  0  0  0
 16 17  2  0  0  0  0
 18 15  1  0  0  0  0
 19 18  1  0  0  0  0
 20 14  1  0  0  0  0
 20 19  1  6  0  0  0
M  END
>  <CHROM.1>
174.93707278,68.50976871,24.83623921,-6.11405166,43.57837268,-3.06529781
-0.27250041,-0.29252708

>  <Name>
1nyi_lig

>  <RI>
0

>  <Rbt.Current_Directory>
/home/itssahil/PROJECTS/Mol_Feturizer/New_Systems/rnas/1nyi

>  <Rbt.Executable>
rbdock ($Id: //depot/dev/client3/rdock/2013.1/src/exe/rbdock.cxx#4 $)

>  <Rbt.Library>
libRbt.so (2013.1, Build901 2013/11/27)

>  <Rbt.Parameter_File>
/export/apps/rDock/src/rDock_2013.1_src/data/scripts/dock_solv.prm

>  <Rbt.Receptor>
prm/pocket_docking_3.prm

>  <SCORE>
-9.52367

>  <SCORE.INTER>
-7.98632

>  <SCORE.INTER.CONST>
1

>  <SCORE.INTER.POLAR>
-0.974635

>  <SCORE.INTER.ROT>
2

>  <SCORE.INTER.SOLV>
11.562

>  <SCORE.INTER.VDW>
-10.8628

>  <SCORE.INTER.norm>
-0.399316

>  <SCORE.INTRA>
-1.53735

>  <SCORE.INTRA.DIHEDRAL>
-2.38437

>  <SCORE.INTRA.DIHEDRAL.0>
3.72394

>  <SCORE.INTRA.POLAR>
0

>  <SCORE.INTRA.POLAR.0>
0

>  <SCORE.INTRA.REPUL>
0

>  <SCORE.INTRA.REPUL.0>
0

>  <SCORE.INTRA.SOLV>
1.57333

>  <SCORE.INTRA.SOLV.lig_0>
-49.4697

>  <SCORE.INTRA.VDW>
-1.13183

>  <SCORE.INTRA.VDW.0>
-0.896538

>  <SCORE.INTRA.norm>
-0.0768675

>  <SCORE.RESTR>
0

>  <SCORE.RESTR.CAVITY>
0

>  <SCORE.RESTR.norm>
0

>  <SCORE.SYSTEM>
0

>  <SCORE.SYSTEM.CONST>
0

>  <SCORE.SYSTEM.DIHEDRAL>
0

>  <SCORE.SYSTEM.SOLV>
0

>  <SCORE.SYSTEM.norm>
0

>  <SCORE.heavy>
20

>  <SCORE.norm>
-0.476184

>  <RMSD>
5.392

$$$$
1nyi_lig
 OpenBabel11021811403D
libRbt.so/2013.1/901 2013/11/27
 20 22  0  0  0  0  0  0  0  0999 V2000
   23.8335   -3.7373   42.5405 C   0  0  0  0  0  0  0  0  0  0  0  0
   24.0109   -3.4266   41.1584 O   0  0  0  0  0  0  0  0  0  0  0  0
   23.0207   -5.0018   42.7091 C   0  0  1  0  0  0  0  0  0  0  0  0
   23.7175   -6.0997   42.0600 O   0  0  0  0  0  0  0  0  0  0  0  0
   22.8708   -5.4100   44.1704 C   0  0  1  0  0  0  0  0  0  0  0  0
   21.7005   -4.8383   44.7569 O   0  0  0  0  0  0  0  0  0  0  0  0
   22.8256   -6.9338   44.0775 C   0  0  1  0  0  0  0  0  0  0  0  0
   21.5555   -7.4313   43.6838 O   0  0  0  0  0  0  0  0  0  0  0  0
   23.8520   -7.1813   42.9742 C   0  0  2  0  0  0  0  0  0  0  0  0
   28.1457   -4.9612   44.7415 N   0  0  0  0  0  0  0  0  0  0  0  0
   26.9328   -4.3944   44.4337 C   0  0  1  0  0  0  0  0  0  0  0  0
   26.8520   -3.0759   44.6183 N   0  0  0  0  0  0  0  0  0  0  0  0
   25.8814   -5.0684   43.9764 N   0  0  0  0  0  0  0  0  0  0  0  0
   26.1421   -6.4008   43.8349 C   0  0  1  0  0  0  0  0  0  0  0  0
   27.3243   -7.0623   44.1167 C   0  0  1  0  0  0  0  0  0  0  0  0
   28.4315   -6.3203   44.6146 C   0  0  0  0  0  0  0  0  0  0  0  0
   29.5578   -6.7296   44.9236 O   0  0  0  0  0  0  0  0  0  0  0  0
   27.1964   -8.4211   43.8590 N   0  0  0  0  0  0  0  0  0  0  0  0
   25.9722   -8.5565   43.4290 C   0  0  0  0  0  0  0  0  0  0  0  0
   25.2641   -7.3758   43.3767 N   0  0  1  0  0  0  0  0  0  0  0  0
  2  1  1  0  0  0  0
  3  1  1  1  0  0  0
  3  4  1  0  0  0  0
  3  5  1  0  0  0  0
  5  6  1  6  0  0  0
  5  7  1  0  0  0  0
  7  8  1  6  0  0  0
  7  9  1  0  0  0  0
  9  4  1  6  0  0  0
  9 20  1  0  0  0  0
 10 11  1  0  0  0  0
 11 12  1  6  0  0  0
 11 13  1  0  0  0  0
 14 13  1  1  0  0  0
 15 14  1  0  0  0  0
 15 16  1  1  0  0  0
 16 10  1  0  0  0  0
 16 17  2  0  0  0  0
 18 15  1  0  0  0  0
 19 18  1  0  0  0  0
 20 14  1  0  0  0  0
 20 19  1  1  0  0  0
M  END
>  <CHROM.1>
59.90262438,49.84763077,25.20455582,-5.90757943,43.68109999,-2.99065641,0.21204194
3.05673547

>  <Name>
1nyi_lig

>  <RI>
0

>  <Rbt.Current_Directory>
/home/itssahil/PROJECTS/Mol_Feturizer/New_Systems/rnas/1nyi

>  <Rbt.Executable>
rbdock ($Id: //depot/dev/client3/rdock/2013.1/src/exe/rbdock.cxx#4 $)

>  <Rbt.Library>
libRbt.so (2013.1, Build901 2013/11/27)

>  <Rbt.Parameter_File>
/export/apps/rDock/src/rDock_2013.1_src/data/scripts/dock_solv.prm

>  <Rbt.Receptor>
prm/pocket_docking_6.prm

>  <SCORE>
-11.7296

>  <SCORE.INTER>
-10.3367

>  <SCORE.INTER.CONST>
1

>  <SCORE.INTER.POLAR>
-0.748065

>  <SCORE.INTER.ROT>
2

>  <SCORE.INTER.SOLV>
9.22777

>  <SCORE.INTER.VDW>
-12.4068

>  <SCORE.INTER.norm>
-0.516835

>  <SCORE.INTRA>
-1.39294

>  <SCORE.INTRA.DIHEDRAL>
-2.55174

>  <SCORE.INTRA.DIHEDRAL.0>
3.72394

>  <SCORE.INTRA.POLAR>
0

>  <SCORE.INTRA.POLAR.0>
0

>  <SCORE.INTRA.REPUL>
0

>  <SCORE.INTRA.REPUL.0>
0

>  <SCORE.INTRA.SOLV>
1.72295

>  <SCORE.INTRA.SOLV.lig_0>
-49.4697

>  <SCORE.INTRA.VDW>
-0.97855

>  <SCORE.INTRA.VDW.0>
-0.896538

>  <SCORE.INTRA.norm>
-0.0696472

>  <SCORE.RESTR>
0

>  <SCORE.RESTR.CAVITY>
0

>  <SCORE.RESTR.norm>
0

>  <SCORE.SYSTEM>
0

>  <SCORE.SYSTEM.CONST>
0

>  <SCORE.SYSTEM.DIHEDRAL>
0

>  <SCORE.SYSTEM.SOLV>
0

>  <SCORE.SYSTEM.norm>
0

>  <SCORE.heavy>
20

>  <SCORE.norm>
-0.586482

>  <RMSD>
5.435

$$$$
1nyi_lig
 OpenBabel11021811403D
libRbt.so/2013.1/901 2013/11/27
 20 22  0  0  0  0  0  0  0  0999 V2000
   23.7775   -3.7673   42.5600 C   0  0  0  0  0  0  0  0  0  0  0  0
   23.9816   -3.4593   41.1810 O   0  0  0  0  0  0  0  0  0  0  0  0
   22.9732   -5.0389   42.7154 C   0  0  1  0  0  0  0  0  0  0  0  0
   23.6824   -6.1275   42.0641 O   0  0  0  0  0  0  0  0  0  0  0  0
   22.8167   -5.4573   44.1732 C   0  0  1  0  0  0  0  0  0  0  0  0
   21.6383   -4.8981   44.7554 O   0  0  0  0  0  0  0  0  0  0  0  0
   22.7836   -6.9808   44.0705 C   0  0  1  0  0  0  0  0  0  0  0  0
   21.5199   -7.4853   43.6654 O   0  0  0  0  0  0  0  0  0  0  0  0
   23.8191   -7.2137   42.9725 C   0  0  2  0  0  0  0  0  0  0  0  0
   28.1015   -4.9621   44.7275 N   0  0  0  0  0  0  0  0  0  0  0  0
   26.8887   -4.4018   44.4074 C   0  0  1  0  0  0  0  0  0  0  0  0
   26.8047   -3.0812   44.5743 N   0  0  0  0  0  0  0  0  0  0  0  0
   25.8405   -5.0838   43.9548 N   0  0  0  0  0  0  0  0  0  0  0  0
   26.1042   -6.4174   43.8320 C   0  0  1  0  0  0  0  0  0  0  0  0
   27.2866   -7.0729   44.1271 C   0  0  1  0  0  0  0  0  0  0  0  0
   28.3903   -6.3222   44.6196 C   0  0  0  0  0  0  0  0  0  0  0  0
   29.5162   -6.7252   44.9385 O   0  0  0  0  0  0  0  0  0  0  0  0
   27.1623   -8.4352   43.8869 N   0  0  0  0  0  0  0  0  0  0  0  0
   25.9400   -8.5786   43.4539 C   0  0  0  0  0  0  0  0  0  0  0  0
   25.2300   -7.4001   43.3831 N   0  0  1  0  0  0  0  0  0  0  0  0
  2  1  1  0  0  0  0
  3  1  1  1  0  0  0
  3  4  1  0  0  0  0
  3  5  1  0  0  0  0
  5  6  1  6  0  0  0
  5  7  1  0  0  0  0
  7  8  1  6  0  0  0
  7  9  1  0  0  0  0
  9  4  1  6  0  0  0
  9 20  1  0  0  0  0
 10 11  1  0  0  0  0
 11 12  1  6  0  0  0
 11 13  1  0  0  0  0
 14 13  1  1  0  0  0
 15 14  1  0  0  0  0
 15 16  1  1  0  0  0
 16 10  1  0  0  0  0
 16 17  2  0  0  0  0
 18 15  1  0  0  0  0
 19 18  1  0  0  0  0
 20 14  1  0  0  0  0
 20 19  1  1  0  0  0
M  END
>  <CHROM.1>
58.88977393,48.68277373,25.16308575,-5.93209416,43.68166395,-2.99936721,0.21045048
3.05002161

>  <Name>
1nyi_lig

>  <RI>
0

>  <Rbt.Current_Directory>
/home/itssahil/PROJECTS/Mol_Feturizer/New_Systems/rnas/1nyi

>  <Rbt.Executable>
rbdock ($Id: //depot/dev/client3/rdock/2013.1/src/exe/rbdock.cxx#4 $)

>  <Rbt.Library>
libRbt.so (2013.1, Build901 2013/11/27)

>  <Rbt.Parameter_File>
/export/apps/rDock/src/rDock_2013.1_src/data/scripts/dock_solv.prm

>  <Rbt.Receptor>
prm/pocket_docking_6.prm

>  <SCORE>
-11.7492

>  <SCORE.INTER>
-10.4215

>  <SCORE.INTER.CONST>
1

>  <SCORE.INTER.POLAR>
-0.748331

>  <SCORE.INTER.ROT>
2

>  <SCORE.INTER.SOLV>
9.24253

>  <SCORE.INTER.VDW>
-12.4674

>  <SCORE.INTER.norm>
-0.521075

>  <SCORE.INTRA>
-1.3277

>  <SCORE.INTRA.DIHEDRAL>
-2.55258

>  <SCORE.INTRA.DIHEDRAL.0>
3.72394

>  <SCORE.INTRA.POLAR>
0

>  <SCORE.INTRA.POLAR.0>
0

>  <SCORE.INTRA.REPUL>
0

>  <SCORE.INTRA.REPUL.0>
0

>  <SCORE.INTRA.SOLV>
1.7651

>  <SCORE.INTRA.SOLV.lig_0>
-49.4697

>  <SCORE.INTRA.VDW>
-0.933958

>  <SCORE.INTRA.VDW.0>
-0.896538

>  <SCORE.INTRA.norm>
-0.066385

>  <SCORE.RESTR>
0

>  <SCORE.RESTR.CAVITY>
0

>  <SCORE.RESTR.norm>
0

>  <SCORE.SYSTEM>
0

>  <SCORE.SYSTEM.CONST>
0

>  <SCORE.SYSTEM.DIHEDRAL>
0

>  <SCORE.SYSTEM.SOLV>
0

>  <SCORE.SYSTEM.norm>
0

>  <SCORE.heavy>
20

>  <SCORE.norm>
-0.58746

>  <RMSD>
5.455

$$$$
1nyi_lig
 OpenBabel11021811403D
libRbt.so/2013.1/901 2013/11/27
 20 22  0  0  0  0  0  0  0  0999 V2000
   23.7891   -3.8116   42.6744 C   0  0  0  0  0  0  0  0  0  0  0  0
   23.1033   -2.7132   43.2753 O   0  0  0  0  0  0  0  0  0  0  0  0
   22.9833   -5.0854   42.8016 C   0  0  1  0  0  0  0  0  0  0  0  0
   23.6835   -6.1566   42.1128 O   0  0  0  0  0  0  0  0  0  0  0  0
   22.8401   -5.5447   44.2484 C   0  0  1  0  0  0  0  0  0  0  0  0
   21.6688   -4.9996   44.8578 O   0  0  0  0  0  0  0  0  0  0  0  0
   22.8022   -7.0645   44.1029 C   0  0  1  0  0  0  0  0  0  0  0  0
   21.5334   -7.5547   43.6961 O   0  0  0  0  0  0  0  0  0  0  0  0
   23.8263   -7.2685   42.9885 C   0  0  2  0  0  0  0  0  0  0  0  0
   28.1718   -5.0525   44.6302 N   0  0  0  0  0  0  0  0  0  0  0  0
   26.9628   -4.4791   44.3190 C   0  0  1  0  0  0  0  0  0  0  0  0
   26.9023   -3.1544   44.4618 N   0  0  0  0  0  0  0  0  0  0  0  0
   25.8967   -5.1528   43.8968 N   0  0  0  0  0  0  0  0  0  0  0  0
   26.1375   -6.4926   43.7954 C   0  0  1  0  0  0  0  0  0  0  0  0
   27.3142   -7.1610   44.0840 C   0  0  1  0  0  0  0  0  0  0  0  0
   28.4375   -6.4189   44.5439 C   0  0  0  0  0  0  0  0  0  0  0  0
   29.5620   -6.8336   44.8522 O   0  0  0  0  0  0  0  0  0  0  0  0
   27.1647   -8.5255   43.8720 N   0  0  0  0  0  0  0  0  0  0  0  0
   25.9333   -8.6576   43.4617 C   0  0  0  0  0  0  0  0  0  0  0  0
   25.2407   -7.4695   43.3798 N   0  0  1  0  0  0  0  0  0  0  0  0
  2  1  1  0  0  0  0
  3  1  1  1  0  0  0
  3  4  1  0  0  0  0
  3  5  1  0  0  0  0
  5  6  1  6  0  0  0
  5  7  1  0  0  0  0
  7  8  1  6  0  0  0
  7  9  1  0  0  0  0
  9  4  1  6  0  0  0
  9 20  1  0  0  0  0
 10 11  1  0  0  0  0
 11 12  1  6  0  0  0
 11 13  1  0  0  0  0
 14 13  1  1  0  0  0
 15 14  1  0  0  0  0
 15 16  1  1  0  0  0
 16 10  1  0  0  0  0
 16 17  2  0  0  0  0
 18 15  1  0  0  0  0
 19 18  1  0  0  0  0
 20 14  1  0  0  0  0
 20 19  1  1  0  0  0
M  END
>  <CHROM.1>
176.84762104,45.82609190,25.14137992,-5.96076700,43.79679176,-2.96939564
0.15680171,-3.09112615

>  <Name>
1nyi_lig

>  <RI>
0

>  <Rbt.Current_Directory>
/home/itssahil/PROJECTS/Mol_Feturizer/New_Systems/rnas/1nyi

>  <Rbt.Executable>
rbdock ($Id: //depot/dev/client3/rdock/2013.1/src/exe/rbdock.cxx#4 $)

>  <Rbt.Library>
libRbt.so (2013.1, Build901 2013/11/27)

>  <Rbt.Parameter_File>
/export/apps/rDock/src/rDock_2013.1_src/data/scripts/dock_solv.prm

>  <Rbt.Receptor>
prm/pocket_docking_5.prm

>  <SCORE>
-11.0427

>  <SCORE.INTER>
-10.0653

>  <SCORE.INTER.CONST>
1

>  <SCORE.INTER.POLAR>
-0.747814

>  <SCORE.INTER.ROT>
2

>  <SCORE.INTER.SOLV>
10.064

>  <SCORE.INTER.VDW>
-12.5055

>  <SCORE.INTER.norm>
-0.503263

>  <SCORE.INTRA>
-0.977402

>  <SCORE.INTRA.DIHEDRAL>
-2.53292

>  <SCORE.INTRA.DIHEDRAL.0>
3.72394

>  <SCORE.INTRA.POLAR>
0

>  <SCORE.INTRA.POLAR.0>
0

>  <SCORE.INTRA.REPUL>
0

>  <SCORE.INTRA.REPUL.0>
0

>  <SCORE.INTRA.SOLV>
2.23021

>  <SCORE.INTRA.SOLV.lig_0>
-49.4697

>  <SCORE.INTRA.VDW>
-0.826049

>  <SCORE.INTRA.VDW.0>
-0.896538

>  <SCORE.INTRA.norm>
-0.0488701

>  <SCORE.RESTR>
0

>  <SCORE.RESTR.CAVITY>
0

>  <SCORE.RESTR.norm>
0

>  <SCORE.SYSTEM>
0

>  <SCORE.SYSTEM.CONST>
0

>  <SCORE.SYSTEM.DIHEDRAL>
0

>  <SCORE.SYSTEM.SOLV>
0

>  <SCORE.SYSTEM.norm>
0

>  <SCORE.heavy>
20

>  <SCORE.norm>
-0.552134

>  <RMSD>
5.456

$$$$
1nyi_lig
 OpenBabel11021811403D
libRbt.so/2013.1/901 2013/11/27
 20 22  0  0  0  0  0  0  0  0999 V2000
   23.7524   -3.7772   42.5398 C   0  0  0  0  0  0  0  0  0  0  0  0
   23.9425   -3.4638   41.1601 O   0  0  0  0  0  0  0  0  0  0  0  0
   22.9513   -5.0505   42.6983 C   0  0  1  0  0  0  0  0  0  0  0  0
   23.6625   -6.1385   42.0483 O   0  0  0  0  0  0  0  0  0  0  0  0
   22.7971   -5.4665   44.1569 C   0  0  1  0  0  0  0  0  0  0  0  0
   21.6180   -4.9091   44.7393 O   0  0  0  0  0  0  0  0  0  0  0  0
   22.7676   -6.9903   44.0571 C   0  0  1  0  0  0  0  0  0  0  0  0
   21.5047   -7.4986   43.6541 O   0  0  0  0  0  0  0  0  0  0  0  0
   23.8025   -7.2228   42.9585 C   0  0  2  0  0  0  0  0  0  0  0  0
   28.0827   -4.9570   44.7008 N   0  0  0  0  0  0  0  0  0  0  0  0
   26.8685   -4.4001   44.3801 C   0  0  1  0  0  0  0  0  0  0  0  0
   26.7822   -3.0791   44.5426 N   0  0  0  0  0  0  0  0  0  0  0  0
   25.8210   -5.0857   43.9311 N   0  0  0  0  0  0  0  0  0  0  0  0
   26.0872   -6.4192   43.8126 C   0  0  1  0  0  0  0  0  0  0  0  0
   27.2711   -7.0714   44.1087 C   0  0  1  0  0  0  0  0  0  0  0  0
   28.3740   -6.3170   44.5973 C   0  0  0  0  0  0  0  0  0  0  0  0
   29.5010   -6.7167   44.9162 O   0  0  0  0  0  0  0  0  0  0  0  0
   27.1491   -8.4348   43.8732 N   0  0  0  0  0  0  0  0  0  0  0  0
   25.9267   -8.5820   43.4422 C   0  0  0  0  0  0  0  0  0  0  0  0
   25.2143   -7.4051   43.3682 N   0  0  1  0  0  0  0  0  0  0  0  0
  2  1  1  0  0  0  0
  3  1  1  1  0  0  0
  3  4  1  0  0  0  0
  3  5  1  0  0  0  0
  5  6  1  6  0  0  0
  5  7  1  0  0  0  0
  7  8  1  6  0  0  0
  7  9  1  0  0  0  0
  9  4  1  6  0  0  0
  9 20  1  0  0  0  0
 10 11  1  0  0  0  0
 11 12  1  6  0  0  0
 11 13  1  0  0  0  0
 14 13  1  1  0  0  0
 15 14  1  0  0  0  0
 15 16  1  1  0  0  0
 16 10  1  0  0  0  0
 16 17  2  0  0  0  0
 18 15  1  0  0  0  0
 19 18  1  0  0  0  0
 20 14  1  0  0  0  0
 20 19  1  1  0  0  0
M  END
>  <CHROM.1>
59.49492729,48.58318920,25.14390172,-5.93603183,43.66285474,-3.00112522,0.20921541
3.04732890

>  <Name>
1nyi_lig

>  <RI>
0

>  <Rbt.Current_Directory>
/home/itssahil/PROJECTS/Mol_Feturizer/New_Systems/rnas/1nyi

>  <Rbt.Executable>
rbdock ($Id: //depot/dev/client3/rdock/2013.1/src/exe/rbdock.cxx#4 $)

>  <Rbt.Library>
libRbt.so (2013.1, Build901 2013/11/27)

>  <Rbt.Parameter_File>
/export/apps/rDock/src/rDock_2013.1_src/data/scripts/dock_solv.prm

>  <Rbt.Receptor>
prm/pocket_docking_5.prm

>  <SCORE>
-11.7628

>  <SCORE.INTER>
-10.4342

>  <SCORE.INTER.CONST>
1

>  <SCORE.INTER.POLAR>
-0.74765

>  <SCORE.INTER.ROT>
2

>  <SCORE.INTER.SOLV>
9.37186

>  <SCORE.INTER.VDW>
-12.5212

>  <SCORE.INTER.norm>
-0.521709

>  <SCORE.INTRA>
-1.3286

>  <SCORE.INTRA.DIHEDRAL>
-2.55586

>  <SCORE.INTRA.DIHEDRAL.0>
3.72394

>  <SCORE.INTRA.POLAR>
0

>  <SCORE.INTRA.POLAR.0>
0

>  <SCORE.INTRA.REPUL>
0

>  <SCORE.INTRA.REPUL.0>
0

>  <SCORE.INTRA.SOLV>
1.75936

>  <SCORE.INTRA.SOLV.lig_0>
-49.4697

>  <SCORE.INTRA.VDW>
-0.930347

>  <SCORE.INTRA.VDW.0>
-0.896538

>  <SCORE.INTRA.norm>
-0.0664298

>  <SCORE.RESTR>
0

>  <SCORE.RESTR.CAVITY>
0

>  <SCORE.RESTR.norm>
0

>  <SCORE.SYSTEM>
0

>  <SCORE.SYSTEM.CONST>
0

>  <SCORE.SYSTEM.DIHEDRAL>
0

>  <SCORE.SYSTEM.SOLV>
0

>  <SCORE.SYSTEM.norm>
0

>  <SCORE.heavy>
20

>  <SCORE.norm>
-0.588139

>  <RMSD>
5.462

$$$$
1nyi_lig
 OpenBabel11021811403D
libRbt.so/2013.1/901 2013/11/27
 20 22  0  0  0  0  0  0  0  0999 V2000
   23.6945   -3.7524   42.4973 C   0  0  0  0  0  0  0  0  0  0  0  0
   23.9113   -3.4664   41.1156 O   0  0  0  0  0  0  0  0  0  0  0  0
   22.9066   -5.0325   42.6661 C   0  0  1  0  0  0  0  0  0  0  0  0
   23.6320   -6.1196   42.0303 O   0  0  0  0  0  0  0  0  0  0  0  0
   22.7512   -5.4350   44.1284 C   0  0  1  0  0  0  0  0  0  0  0  0
   21.5638   -4.8842   44.7003 O   0  0  0  0  0  0  0  0  0  0  0  0
   22.7384   -6.9599   44.0444 C   0  0  1  0  0  0  0  0  0  0  0  0
   21.4827   -7.4860   43.6419 O   0  0  0  0  0  0  0  0  0  0  0  0
   23.7802   -7.1927   42.9524 C   0  0  2  0  0  0  0  0  0  0  0  0
   28.0280   -4.8630   44.6895 N   0  0  0  0  0  0  0  0  0  0  0  0
   26.8090   -4.3227   44.3587 C   0  0  1  0  0  0  0  0  0  0  0  0
   26.7075   -3.0012   44.5081 N   0  0  0  0  0  0  0  0  0  0  0  0
   25.7710   -5.0241   43.9123 N   0  0  0  0  0  0  0  0  0  0  0  0
   26.0523   -6.3557   43.8076 C   0  0  1  0  0  0  0  0  0  0  0  0
   27.2422   -6.9918   44.1147 C   0  0  1  0  0  0  0  0  0  0  0  0
   28.3347   -6.2206   44.6003 C   0  0  0  0  0  0  0  0  0  0  0  0
   29.4647   -6.6048   44.9275 O   0  0  0  0  0  0  0  0  0  0  0  0
   27.1362   -8.3587   43.8919 N   0  0  0  0  0  0  0  0  0  0  0  0
   25.9172   -8.5236   43.4575 C   0  0  0  0  0  0  0  0  0  0  0  0
   25.1921   -7.3554   43.3693 N   0  0  1  0  0  0  0  0  0  0  0  0
  2  1  1  0  0  0  0
  3  1  1  1  0  0  0
  3  4  1  0  0  0  0
  3  5  1  0  0  0  0
  5  6  1  6  0  0  0
  5  7  1  0  0  0  0
  7  8  1  6  0  0  0
  7  9  1  0  0  0  0
  9  4  1  6  0  0  0
  9 20  1  0  0  0  0
 10 11  1  0  0  0  0
 11 12  1  6  0  0  0
 11 13  1  0  0  0  0
 14 13  1  1  0  0  0
 15 14  1  0  0  0  0
 15 16  1  1  0  0  0
 16 10  1  0  0  0  0
 16 17  2  0  0  0  0
 18 15  1  0  0  0  0
 19 18  1  0  0  0  0
 20 14  1  0  0  0  0
 20 19  1  1  0  0  0
M  END
>  <CHROM.1>
58.25736572,48.63425109,25.10598106,-5.88514815,43.64895569,-3.01331549,0.21411407
3.04006019

>  <Name>
1nyi_lig

>  <RI>
0

>  <Rbt.Current_Directory>
/home/itssahil/PROJECTS/Mol_Feturizer/New_Systems/rnas/1nyi

>  <Rbt.Executable>
rbdock ($Id: //depot/dev/client3/rdock/2013.1/src/exe/rbdock.cxx#4 $)

>  <Rbt.Library>
libRbt.so (2013.1, Build901 2013/11/27)

>  <Rbt.Parameter_File>
/export/apps/rDock/src/rDock_2013.1_src/data/scripts/dock_solv.prm

>  <Rbt.Receptor>
prm/pocket_docking_4.prm

>  <SCORE>
-11.7329

>  <SCORE.INTER>
-10.4152

>  <SCORE.INTER.CONST>
1

>  <SCORE.INTER.POLAR>
-0.745487

>  <SCORE.INTER.ROT>
2

>  <SCORE.INTER.SOLV>
9.31958

>  <SCORE.INTER.VDW>
-12.4984

>  <SCORE.INTER.norm>
-0.520761

>  <SCORE.INTRA>
-1.31764

>  <SCORE.INTRA.DIHEDRAL>
-2.54689

>  <SCORE.INTRA.DIHEDRAL.0>
3.72394

>  <SCORE.INTRA.POLAR>
0

>  <SCORE.INTRA.POLAR.0>
0

>  <SCORE.INTRA.REPUL>
0

>  <SCORE.INTRA.REPUL.0>
0

>  <SCORE.INTRA.SOLV>
1.77498

>  <SCORE.INTRA.SOLV.lig_0>
-49.4697

>  <SCORE.INTRA.VDW>
-0.93168

>  <SCORE.INTRA.VDW.0>
-0.896538

>  <SCORE.INTRA.norm>
-0.0658819

>  <SCORE.RESTR>
0

>  <SCORE.RESTR.CAVITY>
0

>  <SCORE.RESTR.norm>
0

>  <SCORE.SYSTEM>
0

>  <SCORE.SYSTEM.CONST>
0

>  <SCORE.SYSTEM.DIHEDRAL>
0

>  <SCORE.SYSTEM.SOLV>
0

>  <SCORE.SYSTEM.norm>
0

>  <SCORE.heavy>
20

>  <SCORE.norm>
-0.586643

>  <RMSD>
5.464

$$$$
1nyi_lig
 OpenBabel11021811403D
libRbt.so/2013.1/901 2013/11/27
 20 22  0  0  0  0  0  0  0  0999 V2000
   23.7653   -3.8013   42.5077 C   0  0  0  0  0  0  0  0  0  0  0  0
   23.9517   -3.4904   41.1269 O   0  0  0  0  0  0  0  0  0  0  0  0
   22.9612   -5.0721   42.6707 C   0  0  1  0  0  0  0  0  0  0  0  0
   23.6738   -6.1658   42.0317 O   0  0  0  0  0  0  0  0  0  0  0  0
   22.7989   -5.4780   44.1313 C   0  0  1  0  0  0  0  0  0  0  0  0
   21.6178   -4.9146   44.7038 O   0  0  0  0  0  0  0  0  0  0  0  0
   22.7672   -7.0024   44.0416 C   0  0  1  0  0  0  0  0  0  0  0  0
   21.5056   -7.5112   43.6356 O   0  0  0  0  0  0  0  0  0  0  0  0
   23.8074   -7.2441   42.9500 C   0  0  2  0  0  0  0  0  0  0  0  0
   28.0810   -4.9746   44.7035 N   0  0  0  0  0  0  0  0  0  0  0  0
   26.8692   -4.4179   44.3736 C   0  0  1  0  0  0  0  0  0  0  0  0
   26.7836   -3.0960   44.5289 N   0  0  0  0  0  0  0  0  0  0  0  0
   25.8233   -5.1045   43.9225 N   0  0  0  0  0  0  0  0  0  0  0  0
   26.0884   -6.4389   43.8121 C   0  0  1  0  0  0  0  0  0  0  0  0
   27.2700   -7.0910   44.1178 C   0  0  1  0  0  0  0  0  0  0  0  0
   28.3712   -6.3354   44.6084 C   0  0  0  0  0  0  0  0  0  0  0  0
   29.4960   -6.7349   44.9354 O   0  0  0  0  0  0  0  0  0  0  0  0
   27.1476   -8.4554   43.8886 N   0  0  0  0  0  0  0  0  0  0  0  0
   25.9272   -8.6033   43.4518 C   0  0  0  0  0  0  0  0  0  0  0  0
   25.2167   -7.4260   43.3680 N   0  0  1  0  0  0  0  0  0  0  0  0
  2  1  1  0  0  0  0
  3  1  1  1  0  0  0
  3  4  1  0  0  0  0
  3  5  1  0  0  0  0
  5  6  1  6  0  0  0
  5  7  1  0  0  0  0
  7  8  1  6  0  0  0
  7  9  1  0  0  0  0
  9  4  1  6  0  0  0
  9 20  1  0  0  0  0
 10 11  1  0  0  0  0
 11 12  1  6  0  0  0
 11 13  1  0  0  0  0
 14 13  1  1  0  0  0
 15 14  1  0  0  0  0
 15 16  1  1  0  0  0
 16 10  1  0  0  0  0
 16 17  2  0  0  0  0
 18 15  1  0  0  0  0
 19 18  1  0  0  0  0
 20 14  1  0  0  0  0
 20 19  1  1  0  0  0
M  END
>  <CHROM.1>
60.07421858,48.68774420,25.14630399,-5.95467211,43.65370669,-2.99808773,0.21505620
3.04123101

>  <Name>
1nyi_lig

>  <RI>
0

>  <Rbt.Current_Directory>
/home/itssahil/PROJECTS/Mol_Feturizer/New_Systems/rnas/1nyi

>  <Rbt.Executable>
rbdock ($Id: //depot/dev/client3/rdock/2013.1/src/exe/rbdock.cxx#4 $)

>  <Rbt.Library>
libRbt.so (2013.1, Build901 2013/11/27)

>  <Rbt.Parameter_File>
/export/apps/rDock/src/rDock_2013.1_src/data/scripts/dock_solv.prm

>  <Rbt.Receptor>
prm/pocket_docking_7.prm

>  <SCORE>
-11.752

>  <SCORE.INTER>
-10.4142

>  <SCORE.INTER.CONST>
1

>  <SCORE.INTER.POLAR>
-0.747347

>  <SCORE.INTER.ROT>
2

>  <SCORE.INTER.SOLV>
9.36771

>  <SCORE.INTER.VDW>
-12.5075

>  <SCORE.INTER.norm>
-0.520709

>  <SCORE.INTRA>
-1.33781

>  <SCORE.INTRA.DIHEDRAL>
-2.55582

>  <SCORE.INTRA.DIHEDRAL.0>
3.72394

>  <SCORE.INTRA.POLAR>
0

>  <SCORE.INTRA.POLAR.0>
0

>  <SCORE.INTRA.REPUL>
0

>  <SCORE.INTRA.REPUL.0>
0

>  <SCORE.INTRA.SOLV>
1.74956

>  <SCORE.INTRA.SOLV.lig_0>
-49.4697

>  <SCORE.INTRA.VDW>
-0.934681

>  <SCORE.INTRA.VDW.0>
-0.896538

>  <SCORE.INTRA.norm>
-0.0668905

>  <SCORE.RESTR>
0

>  <SCORE.RESTR.CAVITY>
0

>  <SCORE.RESTR.norm>
0

>  <SCORE.SYSTEM>
0

>  <SCORE.SYSTEM.CONST>
0

>  <SCORE.SYSTEM.DIHEDRAL>
0

>  <SCORE.SYSTEM.SOLV>
0

>  <SCORE.SYSTEM.norm>
0

>  <SCORE.heavy>
20

>  <SCORE.norm>
-0.5876

>  <RMSD>
5.467

$$$$
1nyi_lig
 OpenBabel11021811403D
libRbt.so/2013.1/901 2013/11/27
 20 22  0  0  0  0  0  0  0  0999 V2000
   23.6350   -3.8197   42.5094 C   0  0  0  0  0  0  0  0  0  0  0  0
   22.9192   -2.7294   43.0898 O   0  0  0  0  0  0  0  0  0  0  0  0
   22.8651   -5.1128   42.6623 C   0  0  1  0  0  0  0  0  0  0  0  0
   23.6110   -6.1836   42.0227 O   0  0  0  0  0  0  0  0  0  0  0  0
   22.7059   -5.5295   44.1202 C   0  0  1  0  0  0  0  0  0  0  0  0
   21.5066   -5.0013   44.6884 O   0  0  0  0  0  0  0  0  0  0  0  0
   22.7165   -7.0537   44.0237 C   0  0  1  0  0  0  0  0  0  0  0  0
   21.4715   -7.5952   43.6083 O   0  0  0  0  0  0  0  0  0  0  0  0
   23.7689   -7.2620   42.9370 C   0  0  2  0  0  0  0  0  0  0  0  0
   27.9910   -4.8723   44.6552 N   0  0  0  0  0  0  0  0  0  0  0  0
   26.7693   -4.3468   44.3109 C   0  0  1  0  0  0  0  0  0  0  0  0
   26.6568   -3.0239   44.4392 N   0  0  0  0  0  0  0  0  0  0  0  0
   25.7387   -5.0631   43.8712 N   0  0  0  0  0  0  0  0  0  0  0  0
   26.0308   -6.3940   43.7885 C   0  0  1  0  0  0  0  0  0  0  0  0
   27.2243   -7.0159   44.1104 C   0  0  1  0  0  0  0  0  0  0  0  0
   28.3086   -6.2286   44.5884 C   0  0  0  0  0  0  0  0  0  0  0  0
   29.4402   -6.5988   44.9263 O   0  0  0  0  0  0  0  0  0  0  0  0
   27.1299   -8.3868   43.9085 N   0  0  0  0  0  0  0  0  0  0  0  0
   25.9140   -8.5680   43.4717 C   0  0  0  0  0  0  0  0  0  0  0  0
   25.1803   -7.4071   43.3623 N   0  0  1  0  0  0  0  0  0  0  0  0
  2  1  1  0  0  0  0
  3  1  1  1  0  0  0
  3  4  1  0  0  0  0
  3  5  1  0  0  0  0
  5  6  1  6  0  0  0
  5  7  1  0  0  0  0
  7  8  1  6  0  0  0
  7  9  1  0  0  0  0
  9  4  1  6  0  0  0
  9 20  1  0  0  0  0
 10 11  1  0  0  0  0
 11 12  1  6  0  0  0
 11 13  1  0  0  0  0
 14 13  1  1  0  0  0
 15 14  1  0  0  0  0
 15 16  1  1  0  0  0
 16 10  1  0  0  0  0
 16 17  2  0  0  0  0
 18 15  1  0  0  0  0
 19 18  1  0  0  0  0
 20 14  1  0  0  0  0
 20 19  1  1  0  0  0
M  END
>  <CHROM.1>
178.28062329,47.20494028,25.02273473,-5.89246999,43.74674163,-3.00201376
0.18422258,-3.10095802

>  <Name>
1nyi_lig

>  <RI>
0

>  <Rbt.Current_Directory>
/home/itssahil/PROJECTS/Mol_Feturizer/New_Systems/rnas/1nyi

>  <Rbt.Executable>
rbdock ($Id: //depot/dev/client3/rdock/2013.1/src/exe/rbdock.cxx#4 $)

>  <Rbt.Library>
libRbt.so (2013.1, Build901 2013/11/27)

>  <Rbt.Parameter_File>
/export/apps/rDock/src/rDock_2013.1_src/data/scripts/dock_solv.prm

>  <Rbt.Receptor>
prm/pocket_docking_4.prm

>  <SCORE>
-10.9956

>  <SCORE.INTER>
-9.95513

>  <SCORE.INTER.CONST>
1

>  <SCORE.INTER.POLAR>
-0.748331

>  <SCORE.INTER.ROT>
2

>  <SCORE.INTER.SOLV>
9.9889

>  <SCORE.INTER.VDW>
-12.4053

>  <SCORE.INTER.norm>
-0.497756

>  <SCORE.INTRA>
-1.04052

>  <SCORE.INTRA.DIHEDRAL>
-2.55209

>  <SCORE.INTRA.DIHEDRAL.0>
3.72394

>  <SCORE.INTRA.POLAR>
0

>  <SCORE.INTRA.POLAR.0>
0

>  <SCORE.INTRA.REPUL>
0

>  <SCORE.INTRA.REPUL.0>
0

>  <SCORE.INTRA.SOLV>
2.24446

>  <SCORE.INTRA.SOLV.lig_0>
-49.4697

>  <SCORE.INTRA.VDW>
-0.886703

>  <SCORE.INTRA.VDW.0>
-0.896538

>  <SCORE.INTRA.norm>
-0.0520258

>  <SCORE.RESTR>
0

>  <SCORE.RESTR.CAVITY>
0

>  <SCORE.RESTR.norm>
0

>  <SCORE.SYSTEM>
0

>  <SCORE.SYSTEM.CONST>
0

>  <SCORE.SYSTEM.DIHEDRAL>
0

>  <SCORE.SYSTEM.SOLV>
0

>  <SCORE.SYSTEM.norm>
0

>  <SCORE.heavy>
20

>  <SCORE.norm>
-0.549782

>  <RMSD>
5.481

$$$$
1nyi_lig
 OpenBabel11021811403D
libRbt.so/2013.1/901 2013/11/27
 20 22  0  0  0  0  0  0  0  0999 V2000
   21.6215   -4.4120   40.3367 C   0  0  0  0  0  0  0  0  0  0  0  0
   21.0757   -5.2483   39.3166 O   0  0  0  0  0  0  0  0  0  0  0  0
   22.7018   -3.5133   39.7768 C   0  0  1  0  0  0  0  0  0  0  0  0
   23.2066   -2.6633   40.8421 O   0  0  0  0  0  0  0  0  0  0  0  0
   23.9052   -4.2958   39.2630 C   0  0  1  0  0  0  0  0  0  0  0  0
   23.7649   -4.6248   37.8801 O   0  0  0  0  0  0  0  0  0  0  0  0
   25.0598   -3.3378   39.5490 C   0  0  1  0  0  0  0  0  0  0  0  0
   25.1740   -2.2990   38.5881 O   0  0  0  0  0  0  0  0  0  0  0  0
   24.6247   -2.7629   40.8952 C   0  0  2  0  0  0  0  0  0  0  0  0
   28.3201   -3.2493   44.4443 N   0  0  0  0  0  0  0  0  0  0  0  0
   28.2752   -2.4389   43.3360 C   0  0  1  0  0  0  0  0  0  0  0  0
   29.3438   -1.6630   43.1486 N   0  0  0  0  0  0  0  0  0  0  0  0
   27.2618   -2.3956   42.4758 N   0  0  0  0  0  0  0  0  0  0  0  0
   26.2607   -3.2608   42.8109 C   0  0  1  0  0  0  0  0  0  0  0  0
   26.2134   -4.1128   43.9003 C   0  0  1  0  0  0  0  0  0  0  0  0
   27.3057   -4.1331   44.8117 C   0  0  0  0  0  0  0  0  0  0  0  0
   27.4446   -4.8169   45.8338 O   0  0  0  0  0  0  0  0  0  0  0  0
   25.0214   -4.8256   43.9107 N   0  0  0  0  0  0  0  0  0  0  0  0
   24.3851   -4.4101   42.8503 C   0  0  0  0  0  0  0  0  0  0  0  0
   25.0713   -3.4637   42.1214 N   0  0  1  0  0  0  0  0  0  0  0  0
  2  1  1  0  0  0  0
  3  1  1  1  0  0  0
  3  4  1  0  0  0  0
  3  5  1  0  0  0  0
  5  6  1  6  0  0  0
  5  7  1  0  0  0  0
  7  8  1  6  0  0  0
  7  9  1  0  0  0  0
  9  4  1  6  0  0  0
  9 20  1  0  0  0  0
 10 11  1  0  0  0  0
 11 12  1  6  0  0  0
 11 13  1  0  0  0  0
 14 13  1  1  0  0  0
 15 14  1  0  0  0  0
 15 16  1  1  0  0  0
 16 10  1  0  0  0  0
 16 17  2  0  0  0  0
 18 15  1  0  0  0  0
 19 18  1  0  0  0  0
 20 14  1  0  0  0  0
 20 19  1  1  0  0  0
M  END
>  <CHROM.1>
178.81599876,-149.62185942,25.24616136,-3.60959638,41.74758694,2.48487980
-0.48492027,-1.16597373

>  <Name>
1nyi_lig

>  <RI>
0

>  <Rbt.Current_Directory>
/home/itssahil/PROJECTS/Mol_Feturizer/New_Systems/rnas/1nyi

>  <Rbt.Executable>
rbdock ($Id: //depot/dev/client3/rdock/2013.1/src/exe/rbdock.cxx#4 $)

>  <Rbt.Library>
libRbt.so (2013.1, Build901 2013/11/27)

>  <Rbt.Parameter_File>
/export/apps/rDock/src/rDock_2013.1_src/data/scripts/dock_solv.prm

>  <Rbt.Receptor>
prm/pocket_docking_6.prm

>  <SCORE>
-9.284

>  <SCORE.INTER>
-7.39276

>  <SCORE.INTER.CONST>
1

>  <SCORE.INTER.POLAR>
-1.04195

>  <SCORE.INTER.ROT>
2

>  <SCORE.INTER.SOLV>
11.4786

>  <SCORE.INTER.VDW>
-10.2149

>  <SCORE.INTER.norm>
-0.369638

>  <SCORE.INTRA>
-1.89706

>  <SCORE.INTRA.DIHEDRAL>
-2.41224

>  <SCORE.INTRA.DIHEDRAL.0>
3.72394

>  <SCORE.INTRA.POLAR>
0

>  <SCORE.INTRA.POLAR.0>
0

>  <SCORE.INTRA.REPUL>
0

>  <SCORE.INTRA.REPUL.0>
0

>  <SCORE.INTRA.SOLV>
-0.601054

>  <SCORE.INTRA.SOLV.lig_0>
-49.4697

>  <SCORE.INTRA.VDW>
-0.390417

>  <SCORE.INTRA.VDW.0>
-0.896538

>  <SCORE.INTRA.norm>
-0.0948532

>  <SCORE.RESTR>
0.00582364

>  <SCORE.RESTR.CAVITY>
0.00582364

>  <SCORE.RESTR.norm>
0.000291182

>  <SCORE.SYSTEM>
0

>  <SCORE.SYSTEM.CONST>
0

>  <SCORE.SYSTEM.DIHEDRAL>
0

>  <SCORE.SYSTEM.SOLV>
0

>  <SCORE.SYSTEM.norm>
0

>  <SCORE.heavy>
20

>  <SCORE.norm>
-0.4642

>  <RMSD>
5.487

$$$$
1nyi_lig
 OpenBabel11021811403D
libRbt.so/2013.1/901 2013/11/27
 20 22  0  0  0  0  0  0  0  0999 V2000
   23.6156   -3.8105   42.5064 C   0  0  0  0  0  0  0  0  0  0  0  0
   23.8207   -3.5029   41.1275 O   0  0  0  0  0  0  0  0  0  0  0  0
   22.8459   -5.1034   42.6620 C   0  0  1  0  0  0  0  0  0  0  0  0
   23.5850   -6.1728   42.0122 O   0  0  0  0  0  0  0  0  0  0  0  0
   22.6994   -5.5248   44.1199 C   0  0  1  0  0  0  0  0  0  0  0  0
   21.5057   -4.9973   44.7007 O   0  0  0  0  0  0  0  0  0  0  0  0
   22.7076   -7.0487   44.0184 C   0  0  1  0  0  0  0  0  0  0  0  0
   21.4585   -7.5876   43.6124 O   0  0  0  0  0  0  0  0  0  0  0  0
   23.7501   -7.2543   42.9215 C   0  0  2  0  0  0  0  0  0  0  0  0
   27.9469   -4.9002   44.7473 N   0  0  0  0  0  0  0  0  0  0  0  0
   26.7168   -4.3742   44.4354 C   0  0  1  0  0  0  0  0  0  0  0  0
   26.5870   -3.0615   44.6332 N   0  0  0  0  0  0  0  0  0  0  0  0
   25.6940   -5.0806   43.9624 N   0  0  0  0  0  0  0  0  0  0  0  0
   26.0037   -6.4011   43.8092 C   0  0  1  0  0  0  0  0  0  0  0  0
   27.2068   -7.0227   44.0938 C   0  0  1  0  0  0  0  0  0  0  0  0
   28.2825   -6.2467   44.6086 C   0  0  0  0  0  0  0  0  0  0  0  0
   29.4204   -6.6185   44.9226 O   0  0  0  0  0  0  0  0  0  0  0  0
   27.1300   -8.3823   43.8209 N   0  0  0  0  0  0  0  0  0  0  0  0
   25.9149   -8.5570   43.3794 C   0  0  0  0  0  0  0  0  0  0  0  0
   25.1651   -7.4022   43.3336 N   0  0  1  0  0  0  0  0  0  0  0  0
  2  1  1  0  0  0  0
  3  1  1  1  0  0  0
  3  4  1  0  0  0  0
  3  5  1  0  0  0  0
  5  6  1  6  0  0  0
  5  7  1  0  0  0  0
  7  8  1  6  0  0  0
  7  9  1  0  0  0  0
  9  4  1  6  0  0  0
  9 20  1  0  0  0  0
 10 11  1  0  0  0  0
 11 12  1  6  0  0  0
 11 13  1  0  0  0  0
 14 13  1  1  0  0  0
 15 14  1  0  0  0  0
 15 16  1  1  0  0  0
 16 10  1  0  0  0  0
 16 17  2  0  0  0  0
 18 15  1  0  0  0  0
 19 18  1  0  0  0  0
 20 14  1  0  0  0  0
 20 19  1  1  0  0  0
M  END
>  <CHROM.1>
58.48556901,50.14948811,25.05294807,-5.94041667,43.64930001,-3.02718110,0.22379152
3.07411593

>  <Name>
1nyi_lig

>  <RI>
0

>  <Rbt.Current_Directory>
/home/itssahil/PROJECTS/Mol_Feturizer/New_Systems/rnas/1nyi

>  <Rbt.Executable>
rbdock ($Id: //depot/dev/client3/rdock/2013.1/src/exe/rbdock.cxx#4 $)

>  <Rbt.Library>
libRbt.so (2013.1, Build901 2013/11/27)

>  <Rbt.Parameter_File>
/export/apps/rDock/src/rDock_2013.1_src/data/scripts/dock_solv.prm

>  <Rbt.Receptor>
prm/pocket_docking_4.prm

>  <SCORE>
-11.6888

>  <SCORE.INTER>
-10.2943

>  <SCORE.INTER.CONST>
1

>  <SCORE.INTER.POLAR>
-0.747241

>  <SCORE.INTER.ROT>
2

>  <SCORE.INTER.SOLV>
9.32212

>  <SCORE.INTER.VDW>
-12.4128

>  <SCORE.INTER.norm>
-0.514717

>  <SCORE.INTRA>
-1.39448

>  <SCORE.INTRA.DIHEDRAL>
-2.54378

>  <SCORE.INTRA.DIHEDRAL.0>
3.72394

>  <SCORE.INTRA.POLAR>
0

>  <SCORE.INTRA.POLAR.0>
0

>  <SCORE.INTRA.REPUL>
0

>  <SCORE.INTRA.REPUL.0>
0

>  <SCORE.INTRA.SOLV>
1.73184

>  <SCORE.INTRA.SOLV.lig_0>
-49.4697

>  <SCORE.INTRA.VDW>
-0.988505

>  <SCORE.INTRA.VDW.0>
-0.896538

>  <SCORE.INTRA.norm>
-0.0697238

>  <SCORE.RESTR>
0

>  <SCORE.RESTR.CAVITY>
0

>  <SCORE.RESTR.norm>
0

>  <SCORE.SYSTEM>
0

>  <SCORE.SYSTEM.CONST>
0

>  <SCORE.SYSTEM.DIHEDRAL>
0

>  <SCORE.SYSTEM.SOLV>
0

>  <SCORE.SYSTEM.norm>
0

>  <SCORE.heavy>
20

>  <SCORE.norm>
-0.584441

>  <RMSD>
5.494

$$$$
1nyi_lig
 OpenBabel11021811403D
libRbt.so/2013.1/901 2013/11/27
 20 22  0  0  0  0  0  0  0  0999 V2000
   23.6069   -3.8517   42.5681 C   0  0  0  0  0  0  0  0  0  0  0  0
   22.8614   -2.7710   43.1288 O   0  0  0  0  0  0  0  0  0  0  0  0
   22.8521   -5.1555   42.7040 C   0  0  1  0  0  0  0  0  0  0  0  0
   23.6076   -6.2081   42.0457 O   0  0  0  0  0  0  0  0  0  0  0  0
   22.7029   -5.5960   44.1560 C   0  0  1  0  0  0  0  0  0  0  0  0
   21.4998   -5.0899   44.7363 O   0  0  0  0  0  0  0  0  0  0  0  0
   22.7302   -7.1184   44.0364 C   0  0  1  0  0  0  0  0  0  0  0  0
   21.4898   -7.6674   43.6172 O   0  0  0  0  0  0  0  0  0  0  0  0
   23.7809   -7.2983   42.9429 C   0  0  2  0  0  0  0  0  0  0  0  0
   27.9646   -4.8982   44.7390 N   0  0  0  0  0  0  0  0  0  0  0  0
   26.7334   -4.3820   44.4150 C   0  0  1  0  0  0  0  0  0  0  0  0
   26.5984   -3.0666   44.5899 N   0  0  0  0  0  0  0  0  0  0  0  0
   25.7144   -5.1001   43.9515 N   0  0  0  0  0  0  0  0  0  0  0  0
   26.0292   -6.4220   43.8217 C   0  0  1  0  0  0  0  0  0  0  0  0
   27.2337   -7.0342   44.1199 C   0  0  1  0  0  0  0  0  0  0  0  0
   28.3053   -6.2457   44.6240 C   0  0  0  0  0  0  0  0  0  0  0  0
   29.4437   -6.6079   44.9472 O   0  0  0  0  0  0  0  0  0  0  0  0
   27.1625   -8.3986   43.8700 N   0  0  0  0  0  0  0  0  0  0  0  0
   25.9492   -8.5852   43.4286 C   0  0  0  0  0  0  0  0  0  0  0  0
   25.1954   -7.4340   43.3611 N   0  0  1  0  0  0  0  0  0  0  0  0
  2  1  1  0  0  0  0
  3  1  1  1  0  0  0
  3  4  1  0  0  0  0
  3  5  1  0  0  0  0
  5  6  1  6  0  0  0
  5  7  1  0  0  0  0
  7  8  1  6  0  0  0
  7  9  1  0  0  0  0
  9  4  1  6  0  0  0
  9 20  1  0  0  0  0
 10 11  1  0  0  0  0
 11 12  1  6  0  0  0
 11 13  1  0  0  0  0
 14 13  1  1  0  0  0
 15 14  1  0  0  0  0
 15 16  1  1  0  0  0
 16 10  1  0  0  0  0
 16 17  2  0  0  0  0
 18 15  1  0  0  0  0
 19 18  1  0  0  0  0
 20 14  1  0  0  0  0
 20 19  1  1  0  0  0
M  END
>  <CHROM.1>
176.38968230,48.41131285,25.01641057,-5.92976884,43.78193818,-3.01118540
0.18857151,-3.07296780

>  <Name>
1nyi_lig

>  <RI>
0

>  <Rbt.Current_Directory>
/home/itssahil/PROJECTS/Mol_Feturizer/New_Systems/rnas/1nyi

>  <Rbt.Executable>
rbdock ($Id: //depot/dev/client3/rdock/2013.1/src/exe/rbdock.cxx#4 $)

>  <Rbt.Library>
libRbt.so (2013.1, Build901 2013/11/27)

>  <Rbt.Parameter_File>
/export/apps/rDock/src/rDock_2013.1_src/data/scripts/dock_solv.prm

>  <Rbt.Receptor>
prm/pocket_docking_4.prm

>  <SCORE>
-11.0081

>  <SCORE.INTER>
-9.89515

>  <SCORE.INTER.CONST>
1

>  <SCORE.INTER.POLAR>
-0.748331

>  <SCORE.INTER.ROT>
2

>  <SCORE.INTER.SOLV>
9.72173

>  <SCORE.INTER.VDW>
-12.2762

>  <SCORE.INTER.norm>
-0.494757

>  <SCORE.INTRA>
-1.11293

>  <SCORE.INTRA.DIHEDRAL>
-2.51371

>  <SCORE.INTRA.DIHEDRAL.0>
3.72394

>  <SCORE.INTRA.POLAR>
0

>  <SCORE.INTRA.POLAR.0>
0

>  <SCORE.INTRA.REPUL>
0

>  <SCORE.INTRA.REPUL.0>
0

>  <SCORE.INTRA.SOLV>
2.18039

>  <SCORE.INTRA.SOLV.lig_0>
-49.4697

>  <SCORE.INTRA.VDW>
-0.946273

>  <SCORE.INTRA.VDW.0>
-0.896538

>  <SCORE.INTRA.norm>
-0.0556467

>  <SCORE.RESTR>
0

>  <SCORE.RESTR.CAVITY>
0

>  <SCORE.RESTR.norm>
0

>  <SCORE.SYSTEM>
0

>  <SCORE.SYSTEM.CONST>
0

>  <SCORE.SYSTEM.DIHEDRAL>
0

>  <SCORE.SYSTEM.SOLV>
0

>  <SCORE.SYSTEM.norm>
0

>  <SCORE.heavy>
20

>  <SCORE.norm>
-0.550404

>  <RMSD>
5.499

$$$$
1nyi_lig
 OpenBabel11021811403D
libRbt.so/2013.1/901 2013/11/27
 20 22  0  0  0  0  0  0  0  0999 V2000
   21.7952   -1.0889   39.8870 C   0  0  0  0  0  0  0  0  0  0  0  0
   21.3474   -1.6892   41.1024 O   0  0  0  0  0  0  0  0  0  0  0  0
   22.5678   -2.0822   39.0475 C   0  0  1  0  0  0  0  0  0  0  0  0
   23.7376   -2.5185   39.7915 O   0  0  0  0  0  0  0  0  0  0  0  0
   21.7672   -3.3456   38.7521 C   0  0  1  0  0  0  0  0  0  0  0  0
   21.0261   -3.2244   37.5370 O   0  0  0  0  0  0  0  0  0  0  0  0
   22.8573   -4.4140   38.6989 C   0  0  1  0  0  0  0  0  0  0  0  0
   23.5636   -4.4297   37.4674 O   0  0  0  0  0  0  0  0  0  0  0  0
   23.7741   -3.9403   39.8245 C   0  0  2  0  0  0  0  0  0  0  0  0
   20.9301   -7.0803   42.7469 N   0  0  0  0  0  0  0  0  0  0  0  0
   20.8445   -6.8255   41.3997 C   0  0  1  0  0  0  0  0  0  0  0  0
   19.8851   -7.4865   40.7504 N   0  0  0  0  0  0  0  0  0  0  0  0
   21.6364   -5.9843   40.7410 N   0  0  0  0  0  0  0  0  0  0  0  0
   22.5506   -5.3857   41.5590 C   0  0  1  0  0  0  0  0  0  0  0  0
   22.7149   -5.5755   42.9198 C   0  0  1  0  0  0  0  0  0  0  0  0
   21.8616   -6.4886   43.5997 C   0  0  0  0  0  0  0  0  0  0  0  0
   21.8557   -6.7912   44.7997 O   0  0  0  0  0  0  0  0  0  0  0  0
   23.7630   -4.7995   43.3976 N   0  0  0  0  0  0  0  0  0  0  0  0
   24.2010   -4.1624   42.3467 C   0  0  0  0  0  0  0  0  0  0  0  0
   23.5146   -4.4556   41.1887 N   0  0  1  0  0  0  0  0  0  0  0  0
  2  1  1  0  0  0  0
  3  1  1  1  0  0  0
  3  4  1  0  0  0  0
  3  5  1  0  0  0  0
  5  6  1  6  0  0  0
  5  7  1  0  0  0  0
  7  8  1  6  0  0  0
  7  9  1  0  0  0  0
  9  4  1  1  0  0  0
  9 20  1  0  0  0  0
 10 11  1  0  0  0  0
 11 12  1  1  0  0  0
 11 13  1  0  0  0  0
 14 13  1  6  0  0  0
 15 14  1  0  0  0  0
 15 16  1  6  0  0  0
 16 10  1  0  0  0  0
 16 17  2  0  0  0  0
 18 15  1  0  0  0  0
 19 18  1  0  0  0  0
 20 14  1  0  0  0  0
 20 19  1  6  0  0  0
M  END
>  <CHROM.1>
-61.24651868,126.05472349,22.30966249,-4.54617364,40.84629410,-1.36891876
0.95529951,2.12082694

>  <Name>
1nyi_lig

>  <RI>
0

>  <Rbt.Current_Directory>
/home/itssahil/PROJECTS/Mol_Feturizer/New_Systems/rnas/1nyi

>  <Rbt.Executable>
rbdock ($Id: //depot/dev/client3/rdock/2013.1/src/exe/rbdock.cxx#4 $)

>  <Rbt.Library>
libRbt.so (2013.1, Build901 2013/11/27)

>  <Rbt.Parameter_File>
/export/apps/rDock/src/rDock_2013.1_src/data/scripts/dock_solv.prm

>  <Rbt.Receptor>
prm/pocket_docking_8.prm

>  <SCORE>
-10.7132

>  <SCORE.INTER>
-9.25727

>  <SCORE.INTER.CONST>
1

>  <SCORE.INTER.POLAR>
-1.70039

>  <SCORE.INTER.ROT>
2

>  <SCORE.INTER.SOLV>
10.7639

>  <SCORE.INTER.VDW>
-9.02485

>  <SCORE.INTER.norm>
-0.462863

>  <SCORE.INTRA>
-1.45589

>  <SCORE.INTRA.DIHEDRAL>
-2.51908

>  <SCORE.INTRA.DIHEDRAL.0>
3.72394

>  <SCORE.INTRA.POLAR>
0

>  <SCORE.INTRA.POLAR.0>
0

>  <SCORE.INTRA.REPUL>
0

>  <SCORE.INTRA.REPUL.0>
0

>  <SCORE.INTRA.SOLV>
0.784186

>  <SCORE.INTRA.SOLV.lig_0>
-49.4697

>  <SCORE.INTRA.VDW>
-0.588442

>  <SCORE.INTRA.VDW.0>
-0.896538

>  <SCORE.INTRA.norm>
-0.0727945

>  <SCORE.RESTR>
0

>  <SCORE.RESTR.CAVITY>
0

>  <SCORE.RESTR.norm>
0

>  <SCORE.SYSTEM>
0

>  <SCORE.SYSTEM.CONST>
0

>  <SCORE.SYSTEM.DIHEDRAL>
0

>  <SCORE.SYSTEM.SOLV>
0

>  <SCORE.SYSTEM.norm>
0

>  <SCORE.heavy>
20

>  <SCORE.norm>
-0.535658

>  <RMSD>
5.505

$$$$
1nyi_lig
 OpenBabel11021811403D
libRbt.so/2013.1/901 2013/11/27
 20 22  0  0  0  0  0  0  0  0999 V2000
   23.2722   -8.2670   44.9180 C   0  0  0  0  0  0  0  0  0  0  0  0
   22.5302   -8.4054   46.1297 O   0  0  0  0  0  0  0  0  0  0  0  0
   22.7248   -7.1355   44.0764 C   0  0  1  0  0  0  0  0  0  0  0  0
   23.1593   -5.8713   44.6467 O   0  0  0  0  0  0  0  0  0  0  0  0
   23.2619   -7.1551   42.6497 C   0  0  1  0  0  0  0  0  0  0  0  0
   22.4205   -7.9176   41.7832 O   0  0  0  0  0  0  0  0  0  0  0  0
   23.3102   -5.6687   42.3020 C   0  0  1  0  0  0  0  0  0  0  0  0
   22.0428   -5.1378   41.9449 O   0  0  0  0  0  0  0  0  0  0  0  0
   23.7700   -5.0804   43.6342 C   0  0  2  0  0  0  0  0  0  0  0  0
   28.2461   -7.5267   44.3189 N   0  0  0  0  0  0  0  0  0  0  0  0
   26.9839   -8.0444   44.1576 C   0  0  1  0  0  0  0  0  0  0  0  0
   26.9022   -9.3755   44.1815 N   0  0  0  0  0  0  0  0  0  0  0  0
   25.8861   -7.3128   43.9897 N   0  0  0  0  0  0  0  0  0  0  0  0
   26.1492   -5.9734   44.0037 C   0  0  1  0  0  0  0  0  0  0  0  0
   27.3789   -5.3582   44.1587 C   0  0  1  0  0  0  0  0  0  0  0  0
   28.5399   -6.1633   44.3266 C   0  0  0  0  0  0  0  0  0  0  0  0
   29.7141   -5.8018   44.4757 O   0  0  0  0  0  0  0  0  0  0  0  0
   27.2440   -3.9770   44.1016 N   0  0  0  0  0  0  0  0  0  0  0  0
   25.9662   -3.7824   43.9249 C   0  0  0  0  0  0  0  0  0  0  0  0
   25.2272   -4.9433   43.8615 N   0  0  1  0  0  0  0  0  0  0  0  0
  2  1  1  0  0  0  0
  3  1  1  1  0  0  0
  3  4  1  0  0  0  0
  3  5  1  0  0  0  0
  5  6  1  6  0  0  0
  5  7  1  0  0  0  0
  7  8  1  1  0  0  0
  7  9  1  0  0  0  0
  9  4  1  1  0  0  0
  9 20  1  0  0  0  0
 10 11  1  0  0  0  0
 11 12  1  1  0  0  0
 11 13  1  0  0  0  0
 14 13  1  6  0  0  0
 15 14  1  0  0  0  0
 15 16  1  6  0  0  0
 16 10  1  0  0  0  0
 16 17  2  0  0  0  0
 18 15  1  0  0  0  0
 19 18  1  0  0  0  0
 20 14  1  0  0  0  0
 20 19  1  6  0  0  0
M  END
>  <CHROM.1>
76.32741704,55.80069624,25.17899776,-6.45572349,43.88084347,-3.06249971,-0.19083923
-0.29504649

>  <Name>
1nyi_lig

>  <RI>
0

>  <Rbt.Current_Directory>
/home/itssahil/PROJECTS/Mol_Feturizer/New_Systems/rnas/1nyi

>  <Rbt.Executable>
rbdock ($Id: //depot/dev/client3/rdock/2013.1/src/exe/rbdock.cxx#4 $)

>  <Rbt.Library>
libRbt.so (2013.1, Build901 2013/11/27)

>  <Rbt.Parameter_File>
/export/apps/rDock/src/rDock_2013.1_src/data/scripts/dock_solv.prm

>  <Rbt.Receptor>
prm/pocket_docking_4.prm

>  <SCORE>
-7.98261

>  <SCORE.INTER>
-6.82819

>  <SCORE.INTER.CONST>
1

>  <SCORE.INTER.POLAR>
-0.564272

>  <SCORE.INTER.ROT>
2

>  <SCORE.INTER.SOLV>
10.113

>  <SCORE.INTER.VDW>
-10.9755

>  <SCORE.INTER.norm>
-0.341409

>  <SCORE.INTRA>
-1.18408

>  <SCORE.INTRA.DIHEDRAL>
-1.61353

>  <SCORE.INTRA.DIHEDRAL.0>
3.72394

>  <SCORE.INTRA.POLAR>
0

>  <SCORE.INTRA.POLAR.0>
0

>  <SCORE.INTRA.REPUL>
0

>  <SCORE.INTRA.REPUL.0>
0

>  <SCORE.INTRA.SOLV>
1.49832

>  <SCORE.INTRA.SOLV.lig_0>
-49.4697

>  <SCORE.INTRA.VDW>
-1.12648

>  <SCORE.INTRA.VDW.0>
-0.896538

>  <SCORE.INTRA.norm>
-0.0592041

>  <SCORE.RESTR>
0.0296617

>  <SCORE.RESTR.CAVITY>
0.0296617

>  <SCORE.RESTR.norm>
0.00148308

>  <SCORE.SYSTEM>
0

>  <SCORE.SYSTEM.CONST>
0

>  <SCORE.SYSTEM.DIHEDRAL>
0

>  <SCORE.SYSTEM.SOLV>
0

>  <SCORE.SYSTEM.norm>
0

>  <SCORE.heavy>
20

>  <SCORE.norm>
-0.39913

>  <RMSD>
5.509

$$$$
1nyi_lig
 OpenBabel11021811403D
libRbt.so/2013.1/901 2013/11/27
 20 22  0  0  0  0  0  0  0  0999 V2000
   21.8637   -1.0750   39.9530 C   0  0  0  0  0  0  0  0  0  0  0  0
   20.7441   -0.5490   39.2404 O   0  0  0  0  0  0  0  0  0  0  0  0
   22.6206   -2.0745   39.1067 C   0  0  1  0  0  0  0  0  0  0  0  0
   23.7851   -2.5319   39.8462 O   0  0  0  0  0  0  0  0  0  0  0  0
   21.8014   -3.3246   38.8054 C   0  0  1  0  0  0  0  0  0  0  0  0
   21.0603   -3.1858   37.5922 O   0  0  0  0  0  0  0  0  0  0  0  0
   22.8759   -4.4083   38.7444 C   0  0  1  0  0  0  0  0  0  0  0  0
   23.5800   -4.4272   37.5117 O   0  0  0  0  0  0  0  0  0  0  0  0
   23.8012   -3.9541   39.8712 C   0  0  2  0  0  0  0  0  0  0  0  0
   20.9424   -7.0987   42.7743 N   0  0  0  0  0  0  0  0  0  0  0  0
   20.8616   -6.8394   41.4276 C   0  0  1  0  0  0  0  0  0  0  0  0
   19.9032   -7.4967   40.7731 N   0  0  0  0  0  0  0  0  0  0  0  0
   21.6571   -5.9974   40.7741 N   0  0  0  0  0  0  0  0  0  0  0  0
   22.5696   -5.4030   41.5970 C   0  0  1  0  0  0  0  0  0  0  0  0
   22.7292   -5.5975   42.9577 C   0  0  1  0  0  0  0  0  0  0  0  0
   21.8721   -6.5113   43.6320 C   0  0  0  0  0  0  0  0  0  0  0  0
   21.8619   -6.8177   44.8310 O   0  0  0  0  0  0  0  0  0  0  0  0
   23.7771   -4.8248   43.4414 N   0  0  0  0  0  0  0  0  0  0  0  0
   24.2195   -4.1851   42.3940 C   0  0  0  0  0  0  0  0  0  0  0  0
   23.5364   -4.4734   41.2329 N   0  0  1  0  0  0  0  0  0  0  0  0
  2  1  1  0  0  0  0
  3  1  1  1  0  0  0
  3  4  1  0  0  0  0
  3  5  1  0  0  0  0
  5  6  1  6  0  0  0
  5  7  1  0  0  0  0
  7  8  1  6  0  0  0
  7  9  1  0  0  0  0
  9  4  1  1  0  0  0
  9 20  1  0  0  0  0
 10 11  1  0  0  0  0
 11 12  1  1  0  0  0
 11 13  1  0  0  0  0
 14 13  1  6  0  0  0
 15 14  1  0  0  0  0
 15 16  1  6  0  0  0
 16 10  1  0  0  0  0
 16 17  2  0  0  0  0
 18 15  1  0  0  0  0
 19 18  1  0  0  0  0
 20 14  1  0  0  0  0
 20 19  1  6  0  0  0
M  END
>  <CHROM.1>
177.22073594,126.84643539,22.29886890,-4.48837064,40.78073800,-1.47878272
0.85577852,2.25970831

>  <Name>
1nyi_lig

>  <RI>
0

>  <Rbt.Current_Directory>
/home/itssahil/PROJECTS/Mol_Feturizer/New_Systems/rnas/1nyi

>  <Rbt.Executable>
rbdock ($Id: //depot/dev/client3/rdock/2013.1/src/exe/rbdock.cxx#4 $)

>  <Rbt.Library>
libRbt.so (2013.1, Build901 2013/11/27)

>  <Rbt.Parameter_File>
/export/apps/rDock/src/rDock_2013.1_src/data/scripts/dock_solv.prm

>  <Rbt.Receptor>
prm/pocket_docking_7.prm

>  <SCORE>
-10.6469

>  <SCORE.INTER>
-9.17467

>  <SCORE.INTER.CONST>
1

>  <SCORE.INTER.POLAR>
-1.74276

>  <SCORE.INTER.ROT>
2

>  <SCORE.INTER.SOLV>
10.6972

>  <SCORE.INTER.VDW>
-8.80632

>  <SCORE.INTER.norm>
-0.458734

>  <SCORE.INTRA>
-1.47227

>  <SCORE.INTRA.DIHEDRAL>
-2.50191

>  <SCORE.INTRA.DIHEDRAL.0>
3.72394

>  <SCORE.INTRA.POLAR>
0

>  <SCORE.INTRA.POLAR.0>
0

>  <SCORE.INTRA.REPUL>
0

>  <SCORE.INTRA.REPUL.0>
0

>  <SCORE.INTRA.SOLV>
0.202942

>  <SCORE.INTRA.SOLV.lig_0>
-49.4697

>  <SCORE.INTRA.VDW>
-0.322781

>  <SCORE.INTRA.VDW.0>
-0.896538

>  <SCORE.INTRA.norm>
-0.0736133

>  <SCORE.RESTR>
0

>  <SCORE.RESTR.CAVITY>
0

>  <SCORE.RESTR.norm>
0

>  <SCORE.SYSTEM>
0

>  <SCORE.SYSTEM.CONST>
0

>  <SCORE.SYSTEM.DIHEDRAL>
0

>  <SCORE.SYSTEM.SOLV>
0

>  <SCORE.SYSTEM.norm>
0

>  <SCORE.heavy>
20

>  <SCORE.norm>
-0.532347

>  <RMSD>
5.527

$$$$
1nyi_lig
 OpenBabel11021811403D
libRbt.so/2013.1/901 2013/11/27
 20 22  0  0  0  0  0  0  0  0999 V2000
   21.8532   -1.0585   39.9093 C   0  0  0  0  0  0  0  0  0  0  0  0
   20.7218   -0.5523   39.2010 O   0  0  0  0  0  0  0  0  0  0  0  0
   22.6131   -2.0593   39.0672 C   0  0  1  0  0  0  0  0  0  0  0  0
   23.7764   -2.5136   39.8106 O   0  0  0  0  0  0  0  0  0  0  0  0
   21.7960   -3.3111   38.7673 C   0  0  1  0  0  0  0  0  0  0  0  0
   21.0575   -3.1763   37.5521 O   0  0  0  0  0  0  0  0  0  0  0  0
   22.8718   -4.3938   38.7115 C   0  0  1  0  0  0  0  0  0  0  0  0
   23.5787   -4.4150   37.4805 O   0  0  0  0  0  0  0  0  0  0  0  0
   23.7941   -3.9357   39.8392 C   0  0  2  0  0  0  0  0  0  0  0  0
   20.9302   -7.0739   42.7443 N   0  0  0  0  0  0  0  0  0  0  0  0
   20.8519   -6.8178   41.3969 C   0  0  1  0  0  0  0  0  0  0  0  0
   19.8949   -7.4768   40.7421 N   0  0  0  0  0  0  0  0  0  0  0  0
   21.6485   -5.9773   40.7429 N   0  0  0  0  0  0  0  0  0  0  0  0
   22.5594   -5.3807   41.5662 C   0  0  1  0  0  0  0  0  0  0  0  0
   22.7164   -5.5720   42.9276 C   0  0  1  0  0  0  0  0  0  0  0  0
   21.8582   -6.4843   43.6024 C   0  0  0  0  0  0  0  0  0  0  0  0
   21.8456   -6.7879   44.8021 O   0  0  0  0  0  0  0  0  0  0  0  0
   23.7632   -4.7979   43.4115 N   0  0  0  0  0  0  0  0  0  0  0  0
   24.2076   -4.1606   42.3634 C   0  0  0  0  0  0  0  0  0  0  0  0
   23.5267   -4.4518   41.2017 N   0  0  1  0  0  0  0  0  0  0  0  0
  2  1  1  0  0  0  0
  3  1  1  1  0  0  0
  3  4  1  0  0  0  0
  3  5  1  0  0  0  0
  5  6  1  6  0  0  0
  5  7  1  0  0  0  0
  7  8  1  6  0  0  0
  7  9  1  0  0  0  0
  9  4  1  1  0  0  0
  9 20  1  0  0  0  0
 10 11  1  0  0  0  0
 11 12  1  1  0  0  0
 11 13  1  0  0  0  0
 14 13  1  6  0  0  0
 15 14  1  0  0  0  0
 15 16  1  6  0  0  0
 16 10  1  0  0  0  0
 16 17  2  0  0  0  0
 18 15  1  0  0  0  0
 19 18  1  0  0  0  0
 20 14  1  0  0  0  0
 20 19  1  6  0  0  0
M  END
>  <CHROM.1>
178.19162547,126.78822157,22.28896974,-4.46967878,40.74731881,-1.47757118
0.85436476,2.25547295

>  <Name>
1nyi_lig

>  <RI>
0

>  <Rbt.Current_Directory>
/home/itssahil/PROJECTS/Mol_Feturizer/New_Systems/rnas/1nyi

>  <Rbt.Executable>
rbdock ($Id: //depot/dev/client3/rdock/2013.1/src/exe/rbdock.cxx#4 $)

>  <Rbt.Library>
libRbt.so (2013.1, Build901 2013/11/27)

>  <Rbt.Parameter_File>
/export/apps/rDock/src/rDock_2013.1_src/data/scripts/dock_solv.prm

>  <Rbt.Receptor>
prm/pocket_docking_8.prm

>  <SCORE>
-10.6748

>  <SCORE.INTER>
-9.20361

>  <SCORE.INTER.CONST>
1

>  <SCORE.INTER.POLAR>
-1.69414

>  <SCORE.INTER.ROT>
2

>  <SCORE.INTER.SOLV>
10.5453

>  <SCORE.INTER.VDW>
-8.93701

>  <SCORE.INTER.norm>
-0.46018

>  <SCORE.INTRA>
-1.4712

>  <SCORE.INTRA.DIHEDRAL>
-2.51667

>  <SCORE.INTRA.DIHEDRAL.0>
3.72394

>  <SCORE.INTRA.POLAR>
0

>  <SCORE.INTRA.POLAR.0>
0

>  <SCORE.INTRA.REPUL>
0

>  <SCORE.INTRA.REPUL.0>
0

>  <SCORE.INTRA.SOLV>
0.208903

>  <SCORE.INTRA.SOLV.lig_0>
-49.4697

>  <SCORE.INTRA.VDW>
-0.317313

>  <SCORE.INTRA.VDW.0>
-0.896538

>  <SCORE.INTRA.norm>
-0.0735599

>  <SCORE.RESTR>
0

>  <SCORE.RESTR.CAVITY>
0

>  <SCORE.RESTR.norm>
0

>  <SCORE.SYSTEM>
0

>  <SCORE.SYSTEM.CONST>
0

>  <SCORE.SYSTEM.DIHEDRAL>
0

>  <SCORE.SYSTEM.SOLV>
0

>  <SCORE.SYSTEM.norm>
0

>  <SCORE.heavy>
20

>  <SCORE.norm>
-0.53374

>  <RMSD>
5.550

$$$$
1nyi_lig
 OpenBabel11021811403D
libRbt.so/2013.1/901 2013/11/27
 20 22  0  0  0  0  0  0  0  0999 V2000
   26.8727   -5.8056   44.2987 C   0  0  0  0  0  0  0  0  0  0  0  0
   28.0377   -6.6304   44.2767 O   0  0  0  0  0  0  0  0  0  0  0  0
   25.6281   -6.6359   44.5218 C   0  0  1  0  0  0  0  0  0  0  0  0
   24.4768   -5.7512   44.5853 O   0  0  0  0  0  0  0  0  0  0  0  0
   25.3519   -7.5964   43.3705 C   0  0  1  0  0  0  0  0  0  0  0  0
   25.9735   -8.8645   43.5851 O   0  0  0  0  0  0  0  0  0  0  0  0
   23.8259   -7.6580   43.3598 C   0  0  1  0  0  0  0  0  0  0  0  0
   23.2951   -8.5147   44.3597 O   0  0  0  0  0  0  0  0  0  0  0  0
   23.4810   -6.2044   43.6760 C   0  0  2  0  0  0  0  0  0  0  0  0
   20.8822   -5.0939   39.3746 N   0  0  0  0  0  0  0  0  0  0  0  0
   20.7478   -6.1652   40.2240 C   0  0  1  0  0  0  0  0  0  0  0  0
   19.8072   -7.0493   39.8883 N   0  0  0  0  0  0  0  0  0  0  0  0
   21.4818   -6.3564   41.3164 N   0  0  0  0  0  0  0  0  0  0  0  0
   22.4023   -5.3656   41.5017 C   0  0  1  0  0  0  0  0  0  0  0  0
   22.6133   -4.2526   40.7071 C   0  0  1  0  0  0  0  0  0  0  0  0
   21.8079   -4.0655   39.5493 C   0  0  0  0  0  0  0  0  0  0  0  0
   21.8441   -3.1424   38.7257 O   0  0  0  0  0  0  0  0  0  0  0  0
   23.6294   -3.4643   41.2316 N   0  0  0  0  0  0  0  0  0  0  0  0
   24.0130   -4.0999   42.3043 C   0  0  0  0  0  0  0  0  0  0  0  0
   23.3234   -5.2695   42.5379 N   0  0  1  0  0  0  0  0  0  0  0  0
  2  1  1  0  0  0  0
  3  1  1  6  0  0  0
  3  4  1  0  0  0  0
  3  5  1  0  0  0  0
  5  6  1  1  0  0  0
  5  7  1  0  0  0  0
  7  8  1  1  0  0  0
  7  9  1  0  0  0  0
  9  4  1  1  0  0  0
  9 20  1  0  0  0  0
 10 11  1  0  0  0  0
 11 12  1  6  0  0  0
 11 13  1  0  0  0  0
 14 13  1  1  0  0  0
 15 14  1  0  0  0  0
 15 16  1  1  0  0  0
 16 10  1  0  0  0  0
 16 17  2  0  0  0  0
 18 15  1  0  0  0  0
 19 18  1  0  0  0  0
 20 14  1  0  0  0  0
 20 19  1  1  0  0  0
M  END
>  <CHROM.1>
177.94167609,-176.73286251,23.53213787,-5.92723644,42.21404713,-0.65026285
-0.53906426,-0.49529068

>  <Name>
1nyi_lig

>  <RI>
0

>  <Rbt.Current_Directory>
/home/itssahil/PROJECTS/Mol_Feturizer/New_Systems/rnas/1nyi

>  <Rbt.Executable>
rbdock ($Id: //depot/dev/client3/rdock/2013.1/src/exe/rbdock.cxx#4 $)

>  <Rbt.Library>
libRbt.so (2013.1, Build901 2013/11/27)

>  <Rbt.Parameter_File>
/export/apps/rDock/src/rDock_2013.1_src/data/scripts/dock_solv.prm

>  <Rbt.Receptor>
prm/pocket_docking_7.prm

>  <SCORE>
-7.42685

>  <SCORE.INTER>
-5.74748

>  <SCORE.INTER.CONST>
1

>  <SCORE.INTER.POLAR>
-0.38574

>  <SCORE.INTER.ROT>
2

>  <SCORE.INTER.SOLV>
10.6951

>  <SCORE.INTER.VDW>
-11.0442

>  <SCORE.INTER.norm>
-0.287374

>  <SCORE.INTRA>
-1.67937

>  <SCORE.INTRA.DIHEDRAL>
-2.48082

>  <SCORE.INTRA.DIHEDRAL.0>
3.72394

>  <SCORE.INTRA.POLAR>
0

>  <SCORE.INTRA.POLAR.0>
0

>  <SCORE.INTRA.REPUL>
0

>  <SCORE.INTRA.REPUL.0>
0

>  <SCORE.INTRA.SOLV>
-0.383008

>  <SCORE.INTRA.SOLV.lig_0>
-49.4697

>  <SCORE.INTRA.VDW>
-0.247456

>  <SCORE.INTRA.VDW.0>
-0.896538

>  <SCORE.INTRA.norm>
-0.0839685

>  <SCORE.RESTR>
0

>  <SCORE.RESTR.CAVITY>
0

>  <SCORE.RESTR.norm>
0

>  <SCORE.SYSTEM>
0

>  <SCORE.SYSTEM.CONST>
0

>  <SCORE.SYSTEM.DIHEDRAL>
0

>  <SCORE.SYSTEM.SOLV>
0

>  <SCORE.SYSTEM.norm>
0

>  <SCORE.heavy>
20

>  <SCORE.norm>
-0.371342

>  <RMSD>
5.554

$$$$
1nyi_lig
 OpenBabel11021811403D
libRbt.so/2013.1/901 2013/11/27
 20 22  0  0  0  0  0  0  0  0999 V2000
   24.0634   -7.8618   44.1897 C   0  0  0  0  0  0  0  0  0  0  0  0
   22.7539   -7.8616   43.6211 O   0  0  0  0  0  0  0  0  0  0  0  0
   24.6171   -6.4563   44.2691 C   0  0  1  0  0  0  0  0  0  0  0  0
   24.6336   -5.8804   42.9348 O   0  0  0  0  0  0  0  0  0  0  0  0
   23.7454   -5.5312   45.1110 C   0  0  1  0  0  0  0  0  0  0  0  0
   24.1485   -5.5346   46.4813 O   0  0  0  0  0  0  0  0  0  0  0  0
   23.9424   -4.1836   44.4196 C   0  0  1  0  0  0  0  0  0  0  0  0
   25.1631   -3.5495   44.7707 O   0  0  0  0  0  0  0  0  0  0  0  0
   23.9779   -4.6182   42.9560 C   0  0  2  0  0  0  0  0  0  0  0  0
   21.6863   -4.6917   38.3482 N   0  0  0  0  0  0  0  0  0  0  0  0
   23.0219   -4.6057   38.6578 C   0  0  1  0  0  0  0  0  0  0  0  0
   23.8492   -4.5299   37.6143 N   0  0  0  0  0  0  0  0  0  0  0  0
   23.5083   -4.5914   39.8956 N   0  0  0  0  0  0  0  0  0  0  0  0
   22.5246   -4.6632   40.8393 C   0  0  1  0  0  0  0  0  0  0  0  0
   21.1600   -4.7522   40.6284 C   0  0  1  0  0  0  0  0  0  0  0  0
   20.6653   -4.7761   39.2946 C   0  0  0  0  0  0  0  0  0  0  0  0
   19.4921   -4.8537   38.9084 O   0  0  0  0  0  0  0  0  0  0  0  0
   20.4828   -4.8227   41.8390 N   0  0  0  0  0  0  0  0  0  0  0  0
   21.4236   -4.7690   42.7412 C   0  0  0  0  0  0  0  0  0  0  0  0
   22.6941   -4.6641   42.2187 N   0  0  1  0  0  0  0  0  0  0  0  0
  2  1  1  0  0  0  0
  3  1  1  6  0  0  0
  3  4  1  0  0  0  0
  3  5  1  0  0  0  0
  5  6  1  1  0  0  0
  5  7  1  0  0  0  0
  7  8  1  1  0  0  0
  7  9  1  0  0  0  0
  9  4  1  1  0  0  0
  9 20  1  0  0  0  0
 10 11  1  0  0  0  0
 11 12  1  1  0  0  0
 11 13  1  0  0  0  0
 14 13  1  6  0  0  0
 15 14  1  0  0  0  0
 15 16  1  6  0  0  0
 16 10  1  0  0  0  0
 16 17  2  0  0  0  0
 18 15  1  0  0  0  0
 19 18  1  0  0  0  0
 20 14  1  0  0  0  0
 20 19  1  6  0  0  0
M  END
>  <CHROM.1>
-57.80742942,-76.27956499,22.89613201,-5.18066143,42.04386899,1.14303342
0.25892608,1.85796926

>  <Name>
1nyi_lig

>  <RI>
0

>  <Rbt.Current_Directory>
/home/itssahil/PROJECTS/Mol_Feturizer/New_Systems/rnas/1nyi

>  <Rbt.Executable>
rbdock ($Id: //depot/dev/client3/rdock/2013.1/src/exe/rbdock.cxx#4 $)

>  <Rbt.Library>
libRbt.so (2013.1, Build901 2013/11/27)

>  <Rbt.Parameter_File>
/export/apps/rDock/src/rDock_2013.1_src/data/scripts/dock_solv.prm

>  <Rbt.Receptor>
prm/pocket_docking_7.prm

>  <SCORE>
-8.81969

>  <SCORE.INTER>
-7.09589

>  <SCORE.INTER.CONST>
1

>  <SCORE.INTER.POLAR>
-1.64203

>  <SCORE.INTER.ROT>
2

>  <SCORE.INTER.SOLV>
7.51639

>  <SCORE.INTER.VDW>
-6.69594

>  <SCORE.INTER.norm>
-0.354794

>  <SCORE.INTRA>
-1.7238

>  <SCORE.INTRA.DIHEDRAL>
-2.55227

>  <SCORE.INTRA.DIHEDRAL.0>
3.72394

>  <SCORE.INTRA.POLAR>
0

>  <SCORE.INTRA.POLAR.0>
0

>  <SCORE.INTRA.REPUL>
0

>  <SCORE.INTRA.REPUL.0>
0

>  <SCORE.INTRA.SOLV>
0.0941034

>  <SCORE.INTRA.SOLV.lig_0>
-49.4697

>  <SCORE.INTRA.VDW>
-0.494713

>  <SCORE.INTRA.VDW.0>
-0.896538

>  <SCORE.INTRA.norm>
-0.0861899

>  <SCORE.RESTR>
0

>  <SCORE.RESTR.CAVITY>
0

>  <SCORE.RESTR.norm>
0

>  <SCORE.SYSTEM>
0

>  <SCORE.SYSTEM.CONST>
0

>  <SCORE.SYSTEM.DIHEDRAL>
0

>  <SCORE.SYSTEM.SOLV>
0

>  <SCORE.SYSTEM.norm>
0

>  <SCORE.heavy>
20

>  <SCORE.norm>
-0.440984

>  <RMSD>
5.576

$$$$
1nyi_lig
 OpenBabel11021811403D
libRbt.so/2013.1/901 2013/11/27
 20 22  0  0  0  0  0  0  0  0999 V2000
   22.0418   -1.6767   40.4348 C   0  0  0  0  0  0  0  0  0  0  0  0
   21.7305   -0.5024   39.6851 O   0  0  0  0  0  0  0  0  0  0  0  0
   22.8784   -2.6340   39.6151 C   0  0  1  0  0  0  0  0  0  0  0  0
   23.2269   -3.7794   40.4390 O   0  0  0  0  0  0  0  0  0  0  0  0
   22.1190   -3.1973   38.4190 C   0  0  1  0  0  0  0  0  0  0  0  0
   22.2974   -2.3873   37.2561 O   0  0  0  0  0  0  0  0  0  0  0  0
   22.7166   -4.5966   38.2865 C   0  0  1  0  0  0  0  0  0  0  0  0
   23.9804   -4.6045   37.6398 O   0  0  0  0  0  0  0  0  0  0  0  0
   22.8762   -4.9774   39.7567 C   0  0  2  0  0  0  0  0  0  0  0  0
   21.0705   -7.0340   44.1155 N   0  0  0  0  0  0  0  0  0  0  0  0
   22.2956   -6.4679   43.8591 C   0  0  1  0  0  0  0  0  0  0  0  0
   23.1444   -6.4462   44.8878 N   0  0  0  0  0  0  0  0  0  0  0  0
   22.6614   -5.9652   42.6834 N   0  0  0  0  0  0  0  0  0  0  0  0
   21.6793   -6.0813   41.7425 C   0  0  1  0  0  0  0  0  0  0  0  0
   20.4201   -6.6323   41.9029 C   0  0  1  0  0  0  0  0  0  0  0  0
   20.0492   -7.1542   43.1734 C   0  0  0  0  0  0  0  0  0  0  0  0
   18.9795   -7.6782   43.5094 O   0  0  0  0  0  0  0  0  0  0  0  0
   19.6987   -6.5534   40.7186 N   0  0  0  0  0  0  0  0  0  0  0  0
   20.5143   -5.9773   39.8791 C   0  0  0  0  0  0  0  0  0  0  0  0
   21.7426   -5.6636   40.4185 N   0  0  1  0  0  0  0  0  0  0  0  0
  2  1  1  0  0  0  0
  3  1  1  1  0  0  0
  3  4  1  0  0  0  0
  3  5  1  0  0  0  0
  5  6  1  6  0  0  0
  5  7  1  0  0  0  0
  7  8  1  1  0  0  0
  7  9  1  0  0  0  0
  9  4  1  1  0  0  0
  9 20  1  0  0  0  0
 10 11  1  0  0  0  0
 11 12  1  6  0  0  0
 11 13  1  0  0  0  0
 14 13  1  1  0  0  0
 15 14  1  0  0  0  0
 15 16  1  1  0  0  0
 16 10  1  0  0  0  0
 16 17  2  0  0  0  0
 18 15  1  0  0  0  0
 19 18  1  0  0  0  0
 20 14  1  0  0  0  0
 20 19  1  1  0  0  0
M  END
>  <CHROM.1>
177.12863910,-56.49926963,21.81869902,-4.94358292,40.87202848,-1.12784370
0.92940795,1.93488232

>  <Name>
1nyi_lig

>  <RI>
0

>  <Rbt.Current_Directory>
/home/itssahil/PROJECTS/Mol_Feturizer/New_Systems/rnas/1nyi

>  <Rbt.Executable>
rbdock ($Id: //depot/dev/client3/rdock/2013.1/src/exe/rbdock.cxx#4 $)

>  <Rbt.Library>
libRbt.so (2013.1, Build901 2013/11/27)

>  <Rbt.Parameter_File>
/export/apps/rDock/src/rDock_2013.1_src/data/scripts/dock_solv.prm

>  <Rbt.Receptor>
prm/pocket_docking_8.prm

>  <SCORE>
-8.09402

>  <SCORE.INTER>
-6.53103

>  <SCORE.INTER.CONST>
1

>  <SCORE.INTER.POLAR>
-0.894427

>  <SCORE.INTER.ROT>
2

>  <SCORE.INTER.SOLV>
7.13973

>  <SCORE.INTER.VDW>
-8.68584

>  <SCORE.INTER.norm>
-0.326552

>  <SCORE.INTRA>
-1.56298

>  <SCORE.INTRA.DIHEDRAL>
-2.4662

>  <SCORE.INTRA.DIHEDRAL.0>
3.72394

>  <SCORE.INTRA.POLAR>
0

>  <SCORE.INTRA.POLAR.0>
0

>  <SCORE.INTRA.REPUL>
0.0112754

>  <SCORE.INTRA.REPUL.0>
0

>  <SCORE.INTRA.SOLV>
-0.408455

>  <SCORE.INTRA.SOLV.lig_0>
-49.4697

>  <SCORE.INTRA.VDW>
-0.182032

>  <SCORE.INTRA.VDW.0>
-0.896538

>  <SCORE.INTRA.norm>
-0.0781492

>  <SCORE.RESTR>
0

>  <SCORE.RESTR.CAVITY>
0

>  <SCORE.RESTR.norm>
0

>  <SCORE.SYSTEM>
0

>  <SCORE.SYSTEM.CONST>
0

>  <SCORE.SYSTEM.DIHEDRAL>
0

>  <SCORE.SYSTEM.SOLV>
0

>  <SCORE.SYSTEM.norm>
0

>  <SCORE.heavy>
20

>  <SCORE.norm>
-0.404701

>  <RMSD>
5.606

$$$$
1nyi_lig
 OpenBabel11021811403D
libRbt.so/2013.1/901 2013/11/27
 20 22  0  0  0  0  0  0  0  0999 V2000
   24.2086   -8.8024   46.3898 C   0  0  0  0  0  0  0  0  0  0  0  0
   22.9979   -9.5004   46.0978 O   0  0  0  0  0  0  0  0  0  0  0  0
   25.1983   -8.9409   45.2542 C   0  0  1  0  0  0  0  0  0  0  0  0
   24.5133   -8.6845   43.9984 O   0  0  0  0  0  0  0  0  0  0  0  0
   26.3239   -7.9155   45.3314 C   0  0  1  0  0  0  0  0  0  0  0  0
   27.4372   -8.4142   46.0745 O   0  0  0  0  0  0  0  0  0  0  0  0
   26.6357   -7.6661   43.8572 C   0  0  1  0  0  0  0  0  0  0  0  0
   27.4398   -8.6824   43.2774 O   0  0  0  0  0  0  0  0  0  0  0  0
   25.2307   -7.7028   43.2599 C   0  0  2  0  0  0  0  0  0  0  0  0
   20.7062   -5.4493   42.2910 N   0  0  0  0  0  0  0  0  0  0  0  0
   21.0542   -6.7762   42.2178 C   0  0  1  0  0  0  0  0  0  0  0  0
   20.0796   -7.6052   41.8408 N   0  0  0  0  0  0  0  0  0  0  0  0
   22.2656   -7.2528   42.4899 N   0  0  0  0  0  0  0  0  0  0  0  0
   23.1414   -6.2682   42.8460 C   0  0  1  0  0  0  0  0  0  0  0  0
   22.8877   -4.9118   42.9483 C   0  0  1  0  0  0  0  0  0  0  0  0
   21.5807   -4.4281   42.6617 C   0  0  0  0  0  0  0  0  0  0  0  0
   21.1640   -3.2634   42.6993 O   0  0  0  0  0  0  0  0  0  0  0  0
   24.0284   -4.2314   43.3545 N   0  0  0  0  0  0  0  0  0  0  0  0
   24.9339   -5.1619   43.4813 C   0  0  0  0  0  0  0  0  0  0  0  0
   24.4798   -6.4283   43.1844 N   0  0  1  0  0  0  0  0  0  0  0  0
  2  1  1  0  0  0  0
  3  1  1  1  0  0  0
  3  4  1  0  0  0  0
  3  5  1  0  0  0  0
  5  6  1  1  0  0  0
  5  7  1  0  0  0  0
  7  8  1  6  0  0  0
  7  9  1  0  0  0  0
  9  4  1  1  0  0  0
  9 20  1  0  0  0  0
 10 11  1  0  0  0  0
 11 12  1  6  0  0  0
 11 13  1  0  0  0  0
 14 13  1  1  0  0  0
 15 14  1  0  0  0  0
 15 16  1  1  0  0  0
 16 10  1  0  0  0  0
 16 17  2  0  0  0  0
 18 15  1  0  0  0  0
 19 18  1  0  0  0  0
 20 14  1  0  0  0  0
 20 19  1  1  0  0  0
M  END
>  <CHROM.1>
46.73779376,-48.00843819,23.84980168,-6.94388416,43.71192006,0.70311634,0.19910092
2.71197814

>  <Name>
1nyi_lig

>  <RI>
0

>  <Rbt.Current_Directory>
/home/itssahil/PROJECTS/Mol_Feturizer/New_Systems/rnas/1nyi

>  <Rbt.Executable>
rbdock ($Id: //depot/dev/client3/rdock/2013.1/src/exe/rbdock.cxx#4 $)

>  <Rbt.Library>
libRbt.so (2013.1, Build901 2013/11/27)

>  <Rbt.Parameter_File>
/export/apps/rDock/src/rDock_2013.1_src/data/scripts/dock_solv.prm

>  <Rbt.Receptor>
prm/pocket_docking_4.prm

>  <SCORE>
-6.85258

>  <SCORE.INTER>
-5.66783

>  <SCORE.INTER.CONST>
1

>  <SCORE.INTER.POLAR>
-0.757607

>  <SCORE.INTER.ROT>
2

>  <SCORE.INTER.SOLV>
11.1531

>  <SCORE.INTER.VDW>
-9.90424

>  <SCORE.INTER.norm>
-0.283391

>  <SCORE.INTRA>
-1.18477

>  <SCORE.INTRA.DIHEDRAL>
-1.86235

>  <SCORE.INTRA.DIHEDRAL.0>
3.72394

>  <SCORE.INTRA.POLAR>
0

>  <SCORE.INTRA.POLAR.0>
0

>  <SCORE.INTRA.REPUL>
0.0325117

>  <SCORE.INTRA.REPUL.0>
0

>  <SCORE.INTRA.SOLV>
-0.4601

>  <SCORE.INTRA.SOLV.lig_0>
-49.4697

>  <SCORE.INTRA.VDW>
-0.186104

>  <SCORE.INTRA.VDW.0>
-0.896538

>  <SCORE.INTRA.norm>
-0.0592386

>  <SCORE.RESTR>
1.85565e-05

>  <SCORE.RESTR.CAVITY>
1.85565e-05

>  <SCORE.RESTR.norm>
9.27825e-07

>  <SCORE.SYSTEM>
0

>  <SCORE.SYSTEM.CONST>
0

>  <SCORE.SYSTEM.DIHEDRAL>
0

>  <SCORE.SYSTEM.SOLV>
0

>  <SCORE.SYSTEM.norm>
0

>  <SCORE.heavy>
20

>  <SCORE.norm>
-0.342629

>  <RMSD>
5.618

$$$$
1nyi_lig
 OpenBabel11021811403D
libRbt.so/2013.1/901 2013/11/27
 20 22  0  0  0  0  0  0  0  0999 V2000
   21.4299   -1.3341   39.6792 C   0  0  0  0  0  0  0  0  0  0  0  0
   22.0935   -0.0821   39.8527 O   0  0  0  0  0  0  0  0  0  0  0  0
   22.2879   -2.2940   38.8852 C   0  0  1  0  0  0  0  0  0  0  0  0
   23.4909   -2.5897   39.6453 O   0  0  0  0  0  0  0  0  0  0  0  0
   21.6023   -3.6357   38.6524 C   0  0  1  0  0  0  0  0  0  0  0  0
   20.8546   -3.6381   37.4353 O   0  0  0  0  0  0  0  0  0  0  0  0
   22.7824   -4.6051   38.6464 C   0  0  1  0  0  0  0  0  0  0  0  0
   23.4886   -4.6168   37.4148 O   0  0  0  0  0  0  0  0  0  0  0  0
   23.6527   -3.9995   39.7454 C   0  0  2  0  0  0  0  0  0  0  0  0
   20.9612   -7.1017   42.8472 N   0  0  0  0  0  0  0  0  0  0  0  0
   20.8381   -6.8993   41.4940 C   0  0  1  0  0  0  0  0  0  0  0  0
   19.8822   -7.6086   40.8922 N   0  0  0  0  0  0  0  0  0  0  0  0
   21.5920   -6.0629   40.7864 N   0  0  0  0  0  0  0  0  0  0  0  0
   22.5082   -5.4108   41.5601 C   0  0  1  0  0  0  0  0  0  0  0  0
   22.7086   -5.5458   42.9226 C   0  0  1  0  0  0  0  0  0  0  0  0
   21.8957   -6.4549   43.6554 C   0  0  0  0  0  0  0  0  0  0  0  0
   21.9254   -6.7128   44.8655 O   0  0  0  0  0  0  0  0  0  0  0  0
   23.7462   -4.7257   43.3467 N   0  0  0  0  0  0  0  0  0  0  0  0
   24.1428   -4.1169   42.2632 C   0  0  0  0  0  0  0  0  0  0  0  0
   23.4383   -4.4704   41.1333 N   0  0  1  0  0  0  0  0  0  0  0  0
  2  1  1  0  0  0  0
  3  1  1  1  0  0  0
  3  4  1  0  0  0  0
  3  5  1  0  0  0  0
  5  6  1  6  0  0  0
  5  7  1  0  0  0  0
  7  8  1  6  0  0  0
  7  9  1  0  0  0  0
  9  4  1  1  0  0  0
  9 20  1  0  0  0  0
 10 11  1  0  0  0  0
 11 12  1  1  0  0  0
 11 13  1  0  0  0  0
 14 13  1  6  0  0  0
 15 14  1  0  0  0  0
 15 16  1  6  0  0  0
 16 10  1  0  0  0  0
 16 17  2  0  0  0  0
 18 15  1  0  0  0  0
 19 18  1  0  0  0  0
 20 14  1  0  0  0  0
 20 19  1  6  0  0  0
M  END
>  <CHROM.1>
64.14182355,122.23105953,22.27065875,-4.54317632,40.74503141,-1.39875873
1.03325823,2.16882102

>  <Name>
1nyi_lig

>  <RI>
0

>  <Rbt.Current_Directory>
/home/itssahil/PROJECTS/Mol_Feturizer/New_Systems/rnas/1nyi

>  <Rbt.Executable>
rbdock ($Id: //depot/dev/client3/rdock/2013.1/src/exe/rbdock.cxx#4 $)

>  <Rbt.Library>
libRbt.so (2013.1, Build901 2013/11/27)

>  <Rbt.Parameter_File>
/export/apps/rDock/src/rDock_2013.1_src/data/scripts/dock_solv.prm

>  <Rbt.Receptor>
prm/pocket_docking_7.prm

>  <SCORE>
-9.7856

>  <SCORE.INTER>
-8.21839

>  <SCORE.INTER.CONST>
1

>  <SCORE.INTER.POLAR>
-1.68248

>  <SCORE.INTER.ROT>
2

>  <SCORE.INTER.SOLV>
11.3139

>  <SCORE.INTER.VDW>
-8.57529

>  <SCORE.INTER.norm>
-0.41092

>  <SCORE.INTRA>
-1.5672

>  <SCORE.INTRA.DIHEDRAL>
-2.44103

>  <SCORE.INTRA.DIHEDRAL.0>
3.72394

>  <SCORE.INTRA.POLAR>
0

>  <SCORE.INTRA.POLAR.0>
0

>  <SCORE.INTRA.REPUL>
0

>  <SCORE.INTRA.REPUL.0>
0

>  <SCORE.INTRA.SOLV>
0.046991

>  <SCORE.INTRA.SOLV.lig_0>
-49.4697

>  <SCORE.INTRA.VDW>
-0.370184

>  <SCORE.INTRA.VDW.0>
-0.896538

>  <SCORE.INTRA.norm>
-0.0783602

>  <SCORE.RESTR>
0

>  <SCORE.RESTR.CAVITY>
0

>  <SCORE.RESTR.norm>
0

>  <SCORE.SYSTEM>
0

>  <SCORE.SYSTEM.CONST>
0

>  <SCORE.SYSTEM.DIHEDRAL>
0

>  <SCORE.SYSTEM.SOLV>
0

>  <SCORE.SYSTEM.norm>
0

>  <SCORE.heavy>
20

>  <SCORE.norm>
-0.48928

>  <RMSD>
5.625

$$$$
1nyi_lig
 OpenBabel11021811403D
libRbt.so/2013.1/901 2013/11/27
 20 22  0  0  0  0  0  0  0  0999 V2000
   25.2139   -8.9766   46.9282 C   0  0  0  0  0  0  0  0  0  0  0  0
   24.8420   -7.5983   46.9285 O   0  0  0  0  0  0  0  0  0  0  0  0
   25.8049   -9.3755   45.5942 C   0  0  1  0  0  0  0  0  0  0  0  0
   24.8307   -9.1099   44.5489 O   0  0  0  0  0  0  0  0  0  0  0  0
   27.0379   -8.5551   45.2322 C   0  0  1  0  0  0  0  0  0  0  0  0
   28.2361   -9.1740   45.7029 O   0  0  0  0  0  0  0  0  0  0  0  0
   26.9440   -8.4850   43.7094 C   0  0  1  0  0  0  0  0  0  0  0  0
   27.3954   -9.6681   43.0675 O   0  0  0  0  0  0  0  0  0  0  0  0
   25.4360   -8.3297   43.5249 C   0  0  2  0  0  0  0  0  0  0  0  0
   21.3411   -5.3845   42.5016 N   0  0  0  0  0  0  0  0  0  0  0  0
   21.4963   -6.7425   42.3639 C   0  0  1  0  0  0  0  0  0  0  0  0
   20.4323   -7.3973   41.8967 N   0  0  0  0  0  0  0  0  0  0  0  0
   22.6104   -7.4066   42.6581 N   0  0  0  0  0  0  0  0  0  0  0  0
   23.6005   -6.5824   43.1094 C   0  0  1  0  0  0  0  0  0  0  0  0
   23.5413   -5.2108   43.2821 C   0  0  1  0  0  0  0  0  0  0  0  0
   22.3345   -4.5249   42.9698 C   0  0  0  0  0  0  0  0  0  0  0  0
   22.0898   -3.3150   43.0594 O   0  0  0  0  0  0  0  0  0  0  0  0
   24.7464   -4.7288   43.7764 N   0  0  0  0  0  0  0  0  0  0  0  0
   25.4998   -5.7882   43.8856 C   0  0  0  0  0  0  0  0  0  0  0  0
   24.8826   -6.9561   43.4941 N   0  0  1  0  0  0  0  0  0  0  0  0
  2  1  1  0  0  0  0
  3  1  1  1  0  0  0
  3  4  1  0  0  0  0
  3  5  1  0  0  0  0
  5  6  1  6  0  0  0
  5  7  1  0  0  0  0
  7  8  1  6  0  0  0
  7  9  1  0  0  0  0
  9  4  1  1  0  0  0
  9 20  1  0  0  0  0
 10 11  1  0  0  0  0
 11 12  1  6  0  0  0
 11 13  1  0  0  0  0
 14 13  1  1  0  0  0
 15 14  1  0  0  0  0
 15 16  1  1  0  0  0
 16 10  1  0  0  0  0
 16 17  2  0  0  0  0
 18 15  1  0  0  0  0
 19 18  1  0  0  0  0
 20 14  1  0  0  0  0
 20 19  1  1  0  0  0
M  END
>  <CHROM.1>
-58.14184066,-69.20477233,24.45800332,-7.19478457,43.94714652,-0.51138278
-0.56739268,0.16539294

>  <Name>
1nyi_lig

>  <RI>
0

>  <Rbt.Current_Directory>
/home/itssahil/PROJECTS/Mol_Feturizer/New_Systems/rnas/1nyi

>  <Rbt.Executable>
rbdock ($Id: //depot/dev/client3/rdock/2013.1/src/exe/rbdock.cxx#4 $)

>  <Rbt.Library>
libRbt.so (2013.1, Build901 2013/11/27)

>  <Rbt.Parameter_File>
/export/apps/rDock/src/rDock_2013.1_src/data/scripts/dock_solv.prm

>  <Rbt.Receptor>
prm/pocket_docking_4.prm

>  <SCORE>
-8.2737

>  <SCORE.INTER>
-6.59585

>  <SCORE.INTER.CONST>
1

>  <SCORE.INTER.POLAR>
-0.770908

>  <SCORE.INTER.ROT>
2

>  <SCORE.INTER.SOLV>
11.2135

>  <SCORE.INTER.VDW>
-10.4987

>  <SCORE.INTER.norm>
-0.329793

>  <SCORE.INTRA>
-1.67785

>  <SCORE.INTRA.DIHEDRAL>
-2.53391

>  <SCORE.INTRA.DIHEDRAL.0>
3.72394

>  <SCORE.INTRA.POLAR>
0

>  <SCORE.INTRA.POLAR.0>
0

>  <SCORE.INTRA.REPUL>
0

>  <SCORE.INTRA.REPUL.0>
0

>  <SCORE.INTRA.SOLV>
0.101302

>  <SCORE.INTRA.SOLV.lig_0>
-49.4697

>  <SCORE.INTRA.VDW>
-0.461542

>  <SCORE.INTRA.VDW.0>
-0.896538

>  <SCORE.INTRA.norm>
-0.0838924

>  <SCORE.RESTR>
0

>  <SCORE.RESTR.CAVITY>
0

>  <SCORE.RESTR.norm>
0

>  <SCORE.SYSTEM>
0

>  <SCORE.SYSTEM.CONST>
0

>  <SCORE.SYSTEM.DIHEDRAL>
0

>  <SCORE.SYSTEM.SOLV>
0

>  <SCORE.SYSTEM.norm>
0

>  <SCORE.heavy>
20

>  <SCORE.norm>
-0.413685

>  <RMSD>
5.627

$$$$
1nyi_lig
 OpenBabel11021811403D
libRbt.so/2013.1/901 2013/11/27
 20 22  0  0  0  0  0  0  0  0999 V2000
   23.1696   -6.4482   46.9216 C   0  0  0  0  0  0  0  0  0  0  0  0
   22.9401   -7.6015   47.7311 O   0  0  0  0  0  0  0  0  0  0  0  0
   22.8443   -6.7332   45.4721 C   0  0  1  0  0  0  0  0  0  0  0  0
   23.0270   -5.5155   44.7000 O   0  0  0  0  0  0  0  0  0  0  0  0
   23.7833   -7.7630   44.8537 C   0  0  1  0  0  0  0  0  0  0  0  0
   23.2769   -9.0903   45.0027 O   0  0  0  0  0  0  0  0  0  0  0  0
   23.8612   -7.2983   43.4010 C   0  0  1  0  0  0  0  0  0  0  0  0
   22.7341   -7.6864   42.6298 O   0  0  0  0  0  0  0  0  0  0  0  0
   23.8732   -5.7827   43.5881 C   0  0  2  0  0  0  0  0  0  0  0  0
   28.8818   -6.3738   44.6148 N   0  0  0  0  0  0  0  0  0  0  0  0
   27.8768   -7.3103   44.6012 C   0  0  1  0  0  0  0  0  0  0  0  0
   28.2495   -8.5564   44.8969 N   0  0  0  0  0  0  0  0  0  0  0  0
   26.6038   -7.0444   44.3227 N   0  0  0  0  0  0  0  0  0  0  0  0
   26.3973   -5.7216   44.0568 C   0  0  1  0  0  0  0  0  0  0  0  0
   27.3390   -4.7078   44.0455 C   0  0  1  0  0  0  0  0  0  0  0  0
   28.6962   -5.0198   44.3368 C   0  0  0  0  0  0  0  0  0  0  0  0
   29.6718   -4.2592   44.3729 O   0  0  0  0  0  0  0  0  0  0  0  0
   26.7471   -3.4958   43.7138 N   0  0  0  0  0  0  0  0  0  0  0  0
   25.4870   -3.7861   43.5412 C   0  0  0  0  0  0  0  0  0  0  0  0
   25.1877   -5.1165   43.7374 N   0  0  1  0  0  0  0  0  0  0  0  0
  2  1  1  0  0  0  0
  3  1  1  1  0  0  0
  3  4  1  0  0  0  0
  3  5  1  0  0  0  0
  5  6  1  6  0  0  0
  5  7  1  0  0  0  0
  7  8  1  6  0  0  0
  7  9  1  0  0  0  0
  9  4  1  1  0  0  0
  9 20  1  0  0  0  0
 10 11  1  0  0  0  0
 11 12  1  1  0  0  0
 11 13  1  0  0  0  0
 14 13  1  6  0  0  0
 15 14  1  0  0  0  0
 15 16  1  6  0  0  0
 16 10  1  0  0  0  0
 16 17  2  0  0  0  0
 18 15  1  0  0  0  0
 19 18  1  0  0  0  0
 20 14  1  0  0  0  0
 20 19  1  6  0  0  0
M  END
>  <CHROM.1>
177.12804317,105.67135033,25.47682240,-6.28911456,44.54709153,-2.72430846
-0.00329307,-0.43024971

>  <Name>
1nyi_lig

>  <RI>
0

>  <Rbt.Current_Directory>
/home/itssahil/PROJECTS/Mol_Feturizer/New_Systems/rnas/1nyi

>  <Rbt.Executable>
rbdock ($Id: //depot/dev/client3/rdock/2013.1/src/exe/rbdock.cxx#4 $)

>  <Rbt.Library>
libRbt.so (2013.1, Build901 2013/11/27)

>  <Rbt.Parameter_File>
/export/apps/rDock/src/rDock_2013.1_src/data/scripts/dock_solv.prm

>  <Rbt.Receptor>
prm/pocket_docking_7.prm

>  <SCORE>
-8.16579

>  <SCORE.INTER>
-6.69756

>  <SCORE.INTER.CONST>
1

>  <SCORE.INTER.POLAR>
-0.666257

>  <SCORE.INTER.ROT>
2

>  <SCORE.INTER.SOLV>
7.54931

>  <SCORE.INTER.VDW>
-9.69395

>  <SCORE.INTER.norm>
-0.334878

>  <SCORE.INTRA>
-1.46823

>  <SCORE.INTRA.DIHEDRAL>
-2.41231

>  <SCORE.INTRA.DIHEDRAL.0>
3.72394

>  <SCORE.INTRA.POLAR>
0

>  <SCORE.INTRA.POLAR.0>
0

>  <SCORE.INTRA.REPUL>
0

>  <SCORE.INTRA.REPUL.0>
0

>  <SCORE.INTRA.SOLV>
0.612914

>  <SCORE.INTRA.SOLV.lig_0>
-49.4697

>  <SCORE.INTRA.VDW>
-0.568536

>  <SCORE.INTRA.VDW.0>
-0.896538

>  <SCORE.INTRA.norm>
-0.0734116

>  <SCORE.RESTR>
0

>  <SCORE.RESTR.CAVITY>
0

>  <SCORE.RESTR.norm>
0

>  <SCORE.SYSTEM>
0

>  <SCORE.SYSTEM.CONST>
0

>  <SCORE.SYSTEM.DIHEDRAL>
0

>  <SCORE.SYSTEM.SOLV>
0

>  <SCORE.SYSTEM.norm>
0

>  <SCORE.heavy>
20

>  <SCORE.norm>
-0.40829

>  <RMSD>
5.631

$$$$
1nyi_lig
 OpenBabel11021811403D
libRbt.so/2013.1/901 2013/11/27
 20 22  0  0  0  0  0  0  0  0999 V2000
   21.3946   -1.3397   39.6742 C   0  0  0  0  0  0  0  0  0  0  0  0
   22.0573   -0.0902   39.8685 O   0  0  0  0  0  0  0  0  0  0  0  0
   22.2561   -2.2879   38.8699 C   0  0  1  0  0  0  0  0  0  0  0  0
   23.4641   -2.5806   39.6229 O   0  0  0  0  0  0  0  0  0  0  0  0
   21.5788   -3.6326   38.6302 C   0  0  1  0  0  0  0  0  0  0  0  0
   20.8262   -3.6316   37.4162 O   0  0  0  0  0  0  0  0  0  0  0  0
   22.7656   -4.5937   38.6125 C   0  0  1  0  0  0  0  0  0  0  0  0
   23.4668   -4.5917   37.3780 O   0  0  0  0  0  0  0  0  0  0  0  0
   23.6362   -3.9899   39.7123 C   0  0  2  0  0  0  0  0  0  0  0  0
   20.9492   -7.1007   42.8094 N   0  0  0  0  0  0  0  0  0  0  0  0
   20.8154   -6.8846   41.4593 C   0  0  1  0  0  0  0  0  0  0  0  0
   19.8486   -7.5810   40.8597 N   0  0  0  0  0  0  0  0  0  0  0  0
   21.5692   -6.0473   40.7527 N   0  0  0  0  0  0  0  0  0  0  0  0
   22.4974   -5.4095   41.5240 C   0  0  1  0  0  0  0  0  0  0  0  0
   22.7091   -5.5589   42.8833 C   0  0  1  0  0  0  0  0  0  0  0  0
   21.8959   -6.4686   43.6151 C   0  0  0  0  0  0  0  0  0  0  0  0
   21.9345   -6.7381   44.8223 O   0  0  0  0  0  0  0  0  0  0  0  0
   23.7567   -4.7507   43.3056 N   0  0  0  0  0  0  0  0  0  0  0  0
   24.1482   -4.1347   42.2243 C   0  0  0  0  0  0  0  0  0  0  0  0
   23.4307   -4.4723   41.0976 N   0  0  1  0  0  0  0  0  0  0  0  0
  2  1  1  0  0  0  0
  3  1  1  1  0  0  0
  3  4  1  0  0  0  0
  3  5  1  0  0  0  0
  5  6  1  6  0  0  0
  5  7  1  0  0  0  0
  7  8  1  6  0  0  0
  7  9  1  0  0  0  0
  9  4  1  1  0  0  0
  9 20  1  0  0  0  0
 10 11  1  0  0  0  0
 11 12  1  1  0  0  0
 11 13  1  0  0  0  0
 14 13  1  6  0  0  0
 15 14  1  0  0  0  0
 15 16  1  6  0  0  0
 16 10  1  0  0  0  0
 16 17  2  0  0  0  0
 18 15  1  0  0  0  0
 19 18  1  0  0  0  0
 20 14  1  0  0  0  0
 20 19  1  6  0  0  0
M  END
>  <CHROM.1>
63.40655395,121.33740695,22.25436900,-4.54211610,40.71616976,-1.41044265
1.02265427,2.18183703

>  <Name>
1nyi_lig

>  <RI>
0

>  <Rbt.Current_Directory>
/home/itssahil/PROJECTS/Mol_Feturizer/New_Systems/rnas/1nyi

>  <Rbt.Executable>
rbdock ($Id: //depot/dev/client3/rdock/2013.1/src/exe/rbdock.cxx#4 $)

>  <Rbt.Library>
libRbt.so (2013.1, Build901 2013/11/27)

>  <Rbt.Parameter_File>
/export/apps/rDock/src/rDock_2013.1_src/data/scripts/dock_solv.prm

>  <Rbt.Receptor>
prm/pocket_docking_8.prm

>  <SCORE>
-9.76311

>  <SCORE.INTER>
-8.19024

>  <SCORE.INTER.CONST>
1

>  <SCORE.INTER.POLAR>
-1.67576

>  <SCORE.INTER.ROT>
2

>  <SCORE.INTER.SOLV>
11.1731

>  <SCORE.INTER.VDW>
-8.532

>  <SCORE.INTER.norm>
-0.409512

>  <SCORE.INTRA>
-1.57287

>  <SCORE.INTRA.DIHEDRAL>
-2.45747

>  <SCORE.INTRA.DIHEDRAL.0>
3.72394

>  <SCORE.INTRA.POLAR>
0

>  <SCORE.INTRA.POLAR.0>
0

>  <SCORE.INTRA.REPUL>
0

>  <SCORE.INTRA.REPUL.0>
0

>  <SCORE.INTRA.SOLV>
0.0635172

>  <SCORE.INTRA.SOLV.lig_0>
-49.4697

>  <SCORE.INTRA.VDW>
-0.37589

>  <SCORE.INTRA.VDW.0>
-0.896538

>  <SCORE.INTRA.norm>
-0.0786434

>  <SCORE.RESTR>
0

>  <SCORE.RESTR.CAVITY>
0

>  <SCORE.RESTR.norm>
0

>  <SCORE.SYSTEM>
0

>  <SCORE.SYSTEM.CONST>
0

>  <SCORE.SYSTEM.DIHEDRAL>
0

>  <SCORE.SYSTEM.SOLV>
0

>  <SCORE.SYSTEM.norm>
0

>  <SCORE.heavy>
20

>  <SCORE.norm>
-0.488156

>  <RMSD>
5.652

$$$$
1nyi_lig
 OpenBabel11021811403D
libRbt.so/2013.1/901 2013/11/27
 20 22  0  0  0  0  0  0  0  0999 V2000
   26.3870   -4.0710   38.0602 C   0  0  0  0  0  0  0  0  0  0  0  0
   27.3798   -3.1454   37.6178 O   0  0  0  0  0  0  0  0  0  0  0  0
   25.0010   -3.5958   37.6843 C   0  0  1  0  0  0  0  0  0  0  0  0
   24.0297   -4.5860   38.1184 O   0  0  0  0  0  0  0  0  0  0  0  0
   24.6165   -2.2992   38.3882 C   0  0  1  0  0  0  0  0  0  0  0  0
   24.9823   -1.1549   37.6155 O   0  0  0  0  0  0  0  0  0  0  0  0
   23.1080   -2.4614   38.5633 C   0  0  1  0  0  0  0  0  0  0  0  0
   22.3753   -2.1770   37.3810 O   0  0  0  0  0  0  0  0  0  0  0  0
   23.0189   -3.9501   38.8915 C   0  0  2  0  0  0  0  0  0  0  0  0
   21.1748   -7.0200   42.5880 N   0  0  0  0  0  0  0  0  0  0  0  0
   20.7909   -6.9081   41.2738 C   0  0  1  0  0  0  0  0  0  0  0  0
   19.7946   -7.7107   40.8966 N   0  0  0  0  0  0  0  0  0  0  0  0
   21.3394   -6.0708   40.3981 N   0  0  0  0  0  0  0  0  0  0  0  0
   22.3325   -5.3173   40.9541 C   0  0  1  0  0  0  0  0  0  0  0  0
   22.7890   -5.3567   42.2598 C   0  0  1  0  0  0  0  0  0  0  0  0
   22.1926   -6.2685   43.1748 C   0  0  0  0  0  0  0  0  0  0  0  0
   22.4627   -6.4502   44.3688 O   0  0  0  0  0  0  0  0  0  0  0  0
   23.8247   -4.4494   42.4421 N   0  0  0  0  0  0  0  0  0  0  0  0
   23.9704   -3.8839   41.2755 C   0  0  0  0  0  0  0  0  0  0  0  0
   23.0978   -4.3485   40.3160 N   0  0  1  0  0  0  0  0  0  0  0  0
  2  1  1  0  0  0  0
  3  1  1  1  0  0  0
  3  4  1  0  0  0  0
  3  5  1  0  0  0  0
  5  6  1  6  0  0  0
  5  7  1  0  0  0  0
  7  8  1  6  0  0  0
  7  9  1  0  0  0  0
  9  4  1  6  0  0  0
  9 20  1  0  0  0  0
 10 11  1  0  0  0  0
 11 12  1  1  0  0  0
 11 13  1  0  0  0  0
 14 13  1  6  0  0  0
 15 14  1  0  0  0  0
 15 16  1  6  0  0  0
 16 10  1  0  0  0  0
 16 17  2  0  0  0  0
 18 15  1  0  0  0  0
 19 18  1  0  0  0  0
 20 14  1  0  0  0  0
 20 19  1  6  0  0  0
M  END
>  <CHROM.1>
178.32270426,-98.53078146,23.28037418,-4.51869106,40.06261536,-0.98971222
0.37417485,2.03212566

>  <Name>
1nyi_lig

>  <RI>
0

>  <Rbt.Current_Directory>
/home/itssahil/PROJECTS/Mol_Feturizer/New_Systems/rnas/1nyi

>  <Rbt.Executable>
rbdock ($Id: //depot/dev/client3/rdock/2013.1/src/exe/rbdock.cxx#4 $)

>  <Rbt.Library>
libRbt.so (2013.1, Build901 2013/11/27)

>  <Rbt.Parameter_File>
/export/apps/rDock/src/rDock_2013.1_src/data/scripts/dock_solv.prm

>  <Rbt.Receptor>
prm/pocket_docking_7.prm

>  <SCORE>
-10.7514

>  <SCORE.INTER>
-8.80925

>  <SCORE.INTER.CONST>
1

>  <SCORE.INTER.POLAR>
-1.60929

>  <SCORE.INTER.ROT>
2

>  <SCORE.INTER.SOLV>
10.3664

>  <SCORE.INTER.VDW>
-8.89734

>  <SCORE.INTER.norm>
-0.440463

>  <SCORE.INTRA>
-1.94219

>  <SCORE.INTRA.DIHEDRAL>
-2.56916

>  <SCORE.INTRA.DIHEDRAL.0>
3.72394

>  <SCORE.INTRA.POLAR>
0

>  <SCORE.INTRA.POLAR.0>
0

>  <SCORE.INTRA.REPUL>
0

>  <SCORE.INTRA.REPUL.0>
0

>  <SCORE.INTRA.SOLV>
-0.626883

>  <SCORE.INTRA.SOLV.lig_0>
-49.4697

>  <SCORE.INTRA.VDW>
-0.344167

>  <SCORE.INTRA.VDW.0>
-0.896538

>  <SCORE.INTRA.norm>
-0.0971094

>  <SCORE.RESTR>
0

>  <SCORE.RESTR.CAVITY>
0

>  <SCORE.RESTR.norm>
0

>  <SCORE.SYSTEM>
0

>  <SCORE.SYSTEM.CONST>
0

>  <SCORE.SYSTEM.DIHEDRAL>
0

>  <SCORE.SYSTEM.SOLV>
0

>  <SCORE.SYSTEM.norm>
0

>  <SCORE.heavy>
20

>  <SCORE.norm>
-0.537572

>  <RMSD>
5.665

$$$$
1nyi_lig
 OpenBabel11021811403D
libRbt.so/2013.1/901 2013/11/27
 20 22  0  0  0  0  0  0  0  0999 V2000
   25.5621   -8.6398   43.8675 C   0  0  0  0  0  0  0  0  0  0  0  0
   26.6512   -7.8794   43.3446 O   0  0  0  0  0  0  0  0  0  0  0  0
   24.4242   -7.7351   44.2858 C   0  0  1  0  0  0  0  0  0  0  0  0
   24.9252   -6.7574   45.2373 O   0  0  0  0  0  0  0  0  0  0  0  0
   23.8586   -6.9304   43.1209 C   0  0  1  0  0  0  0  0  0  0  0  0
   22.7858   -7.6210   42.4787 O   0  0  0  0  0  0  0  0  0  0  0  0
   23.4287   -5.6331   43.8027 C   0  0  1  0  0  0  0  0  0  0  0  0
   22.1880   -5.7452   44.4837 O   0  0  0  0  0  0  0  0  0  0  0  0
   24.5647   -5.4503   44.8068 C   0  0  2  0  0  0  0  0  0  0  0  0
   29.6968   -5.0734   44.8997 N   0  0  0  0  0  0  0  0  0  0  0  0
   28.8780   -5.9964   45.5037 C   0  0  1  0  0  0  0  0  0  0  0  0
   29.5003   -6.9337   46.2202 N   0  0  0  0  0  0  0  0  0  0  0  0
   27.5510   -5.9977   45.4150 N   0  0  0  0  0  0  0  0  0  0  0  0
   27.0818   -4.9644   44.6564 C   0  0  1  0  0  0  0  0  0  0  0  0
   27.8219   -3.9898   44.0106 C   0  0  1  0  0  0  0  0  0  0  0  0
   29.2408   -4.0163   44.1126 C   0  0  0  0  0  0  0  0  0  0  0  0
   30.0647   -3.2415   43.6101 O   0  0  0  0  0  0  0  0  0  0  0  0
   26.9868   -3.1181   43.3237 N   0  0  0  0  0  0  0  0  0  0  0  0
   25.7842   -3.5629   43.5644 C   0  0  0  0  0  0  0  0  0  0  0  0
   25.7518   -4.6783   44.3724 N   0  0  1  0  0  0  0  0  0  0  0  0
  2  1  1  0  0  0  0
  3  1  1  6  0  0  0
  3  4  1  0  0  0  0
  3  5  1  0  0  0  0
  5  6  1  1  0  0  0
  5  7  1  0  0  0  0
  7  8  1  1  0  0  0
  7  9  1  0  0  0  0
  9  4  1  6  0  0  0
  9 20  1  0  0  0  0
 10 11  1  0  0  0  0
 11 12  1  1  0  0  0
 11 13  1  0  0  0  0
 14 13  1  6  0  0  0
 15 14  1  0  0  0  0
 15 16  1  6  0  0  0
 16 10  1  0  0  0  0
 16 17  2  0  0  0  0
 18 15  1  0  0  0  0
 19 18  1  0  0  0  0
 20 14  1  0  0  0  0
 20 19  1  6  0  0  0
M  END
>  <CHROM.1>
-55.77519612,-17.10096644,26.29580777,-5.72686384,44.24033753,-2.79344009
-0.22660995,-0.21595280

>  <Name>
1nyi_lig

>  <RI>
0

>  <Rbt.Current_Directory>
/home/itssahil/PROJECTS/Mol_Feturizer/New_Systems/rnas/1nyi

>  <Rbt.Executable>
rbdock ($Id: //depot/dev/client3/rdock/2013.1/src/exe/rbdock.cxx#4 $)

>  <Rbt.Library>
libRbt.so (2013.1, Build901 2013/11/27)

>  <Rbt.Parameter_File>
/export/apps/rDock/src/rDock_2013.1_src/data/scripts/dock_solv.prm

>  <Rbt.Receptor>
prm/pocket_docking_5.prm

>  <SCORE>
-8.86895

>  <SCORE.INTER>
-7.52927

>  <SCORE.INTER.CONST>
1

>  <SCORE.INTER.POLAR>
-0.625187

>  <SCORE.INTER.ROT>
2

>  <SCORE.INTER.SOLV>
7.795

>  <SCORE.INTER.VDW>
-10.4672

>  <SCORE.INTER.norm>
-0.376464

>  <SCORE.INTRA>
-1.33968

>  <SCORE.INTRA.DIHEDRAL>
-2.36339

>  <SCORE.INTRA.DIHEDRAL.0>
3.72394

>  <SCORE.INTRA.POLAR>
0

>  <SCORE.INTRA.POLAR.0>
0

>  <SCORE.INTRA.REPUL>
0

>  <SCORE.INTRA.REPUL.0>
0

>  <SCORE.INTRA.SOLV>
1.64117

>  <SCORE.INTRA.SOLV.lig_0>
-49.4697

>  <SCORE.INTRA.VDW>
-0.978569

>  <SCORE.INTRA.VDW.0>
-0.896538

>  <SCORE.INTRA.norm>
-0.0669839

>  <SCORE.RESTR>
0

>  <SCORE.RESTR.CAVITY>
0

>  <SCORE.RESTR.norm>
0

>  <SCORE.SYSTEM>
0

>  <SCORE.SYSTEM.CONST>
0

>  <SCORE.SYSTEM.DIHEDRAL>
0

>  <SCORE.SYSTEM.SOLV>
0

>  <SCORE.SYSTEM.norm>
0

>  <SCORE.heavy>
20

>  <SCORE.norm>
-0.443447

>  <RMSD>
5.671

$$$$
1nyi_lig
 OpenBabel11021811403D
libRbt.so/2013.1/901 2013/11/27
 20 22  0  0  0  0  0  0  0  0999 V2000
   25.2157   -8.4527   43.4926 C   0  0  0  0  0  0  0  0  0  0  0  0
   25.8686   -9.2102   44.5114 O   0  0  0  0  0  0  0  0  0  0  0  0
   24.0287   -7.7027   44.0551 C   0  0  1  0  0  0  0  0  0  0  0  0
   24.4890   -6.8149   45.1097 O   0  0  0  0  0  0  0  0  0  0  0  0
   23.3591   -6.8064   43.0192 C   0  0  1  0  0  0  0  0  0  0  0  0
   22.3188   -7.4954   42.3240 O   0  0  0  0  0  0  0  0  0  0  0  0
   22.8573   -5.6441   43.8735 C   0  0  1  0  0  0  0  0  0  0  0  0
   21.6556   -5.9408   44.5689 O   0  0  0  0  0  0  0  0  0  0  0  0
   24.0133   -5.4976   44.8605 C   0  0  2  0  0  0  0  0  0  0  0  0
   29.0942   -4.9589   44.2420 N   0  0  0  0  0  0  0  0  0  0  0  0
   28.3769   -6.0526   44.6620 C   0  0  1  0  0  0  0  0  0  0  0  0
   29.0992   -7.1354   44.9532 N   0  0  0  0  0  0  0  0  0  0  0  0
   27.0534   -6.0808   44.7901 N   0  0  0  0  0  0  0  0  0  0  0  0
   26.4761   -4.8877   44.4638 C   0  0  1  0  0  0  0  0  0  0  0  0
   27.1095   -3.7354   44.0328 C   0  0  1  0  0  0  0  0  0  0  0  0
   28.5255   -3.7339   43.8941 C   0  0  0  0  0  0  0  0  0  0  0  0
   29.2631   -2.8117   43.5241 O   0  0  0  0  0  0  0  0  0  0  0  0
   26.1814   -2.7326   43.7837 N   0  0  0  0  0  0  0  0  0  0  0  0
   25.0304   -3.2772   44.0677 C   0  0  0  0  0  0  0  0  0  0  0  0
   25.1204   -4.5837   44.4957 N   0  0  1  0  0  0  0  0  0  0  0  0
  2  1  1  0  0  0  0
  3  1  1  6  0  0  0
  3  4  1  0  0  0  0
  3  5  1  0  0  0  0
  5  6  1  1  0  0  0
  5  7  1  0  0  0  0
  7  8  1  1  0  0  0
  7  9  1  0  0  0  0
  9  4  1  6  0  0  0
  9 20  1  0  0  0  0
 10 11  1  0  0  0  0
 11 12  1  1  0  0  0
 11 13  1  0  0  0  0
 14 13  1  6  0  0  0
 15 14  1  0  0  0  0
 15 16  1  6  0  0  0
 16 10  1  0  0  0  0
 16 17  2  0  0  0  0
 18 15  1  0  0  0  0
 19 18  1  0  0  0  0
 20 14  1  0  0  0  0
 20 19  1  6  0  0  0
M  END
>  <CHROM.1>
59.07569704,-3.83515639,25.71461036,-5.71704147,44.13327339,-2.65887128,-0.10132750
-0.06346279

>  <Name>
1nyi_lig

>  <RI>
0

>  <Rbt.Current_Directory>
/home/itssahil/PROJECTS/Mol_Feturizer/New_Systems/rnas/1nyi

>  <Rbt.Executable>
rbdock ($Id: //depot/dev/client3/rdock/2013.1/src/exe/rbdock.cxx#4 $)

>  <Rbt.Library>
libRbt.so (2013.1, Build901 2013/11/27)

>  <Rbt.Parameter_File>
/export/apps/rDock/src/rDock_2013.1_src/data/scripts/dock_solv.prm

>  <Rbt.Receptor>
prm/pocket_docking_4.prm

>  <SCORE>
-8.16001

>  <SCORE.INTER>
-6.84016

>  <SCORE.INTER.CONST>
1

>  <SCORE.INTER.POLAR>
-0.660025

>  <SCORE.INTER.ROT>
2

>  <SCORE.INTER.SOLV>
9.53636

>  <SCORE.INTER.VDW>
-10.4721

>  <SCORE.INTER.norm>
-0.342008

>  <SCORE.INTRA>
-1.31985

>  <SCORE.INTRA.DIHEDRAL>
-2.47698

>  <SCORE.INTRA.DIHEDRAL.0>
3.72394

>  <SCORE.INTRA.POLAR>
0

>  <SCORE.INTRA.POLAR.0>
0

>  <SCORE.INTRA.REPUL>
0

>  <SCORE.INTRA.REPUL.0>
0

>  <SCORE.INTRA.SOLV>
1.38343

>  <SCORE.INTRA.SOLV.lig_0>
-49.4697

>  <SCORE.INTRA.VDW>
-0.773076

>  <SCORE.INTRA.VDW.0>
-0.896538

>  <SCORE.INTRA.norm>
-0.0659925

>  <SCORE.RESTR>
0

>  <SCORE.RESTR.CAVITY>
0

>  <SCORE.RESTR.norm>
0

>  <SCORE.SYSTEM>
0

>  <SCORE.SYSTEM.CONST>
0

>  <SCORE.SYSTEM.DIHEDRAL>
0

>  <SCORE.SYSTEM.SOLV>
0

>  <SCORE.SYSTEM.norm>
0

>  <SCORE.heavy>
20

>  <SCORE.norm>
-0.408001

>  <RMSD>
5.675

$$$$
1nyi_lig
 OpenBabel11021811403D
libRbt.so/2013.1/901 2013/11/27
 20 22  0  0  0  0  0  0  0  0999 V2000
   24.6498   -2.4360   39.6746 C   0  0  0  0  0  0  0  0  0  0  0  0
   25.5789   -2.8150   38.6591 O   0  0  0  0  0  0  0  0  0  0  0  0
   23.2596   -2.2746   39.1008 C   0  0  1  0  0  0  0  0  0  0  0  0
   22.8284   -3.5467   38.5457 O   0  0  0  0  0  0  0  0  0  0  0  0
   22.2272   -1.9124   40.1626 C   0  0  1  0  0  0  0  0  0  0  0  0
   22.0970   -0.4973   40.3060 O   0  0  0  0  0  0  0  0  0  0  0  0
   20.9661   -2.5914   39.6323 C   0  0  1  0  0  0  0  0  0  0  0  0
   20.3321   -1.8585   38.5948 O   0  0  0  0  0  0  0  0  0  0  0  0
   21.5535   -3.8871   39.0771 C   0  0  2  0  0  0  0  0  0  0  0  0
   23.6689   -5.8301   43.3478 N   0  0  0  0  0  0  0  0  0  0  0  0
   23.8776   -4.6130   42.7459 C   0  0  1  0  0  0  0  0  0  0  0  0
   24.7564   -3.8151   43.3543 N   0  0  0  0  0  0  0  0  0  0  0  0
   23.2736   -4.2110   41.6313 N   0  0  0  0  0  0  0  0  0  0  0  0
   22.4188   -5.1534   41.1369 C   0  0  1  0  0  0  0  0  0  0  0  0
   22.1422   -6.4010   41.6676 C   0  0  1  0  0  0  0  0  0  0  0  0
   22.7938   -6.8036   42.8666 C   0  0  0  0  0  0  0  0  0  0  0  0
   22.6766   -7.8673   43.4882 O   0  0  0  0  0  0  0  0  0  0  0  0
   21.2050   -7.0661   40.8875 N   0  0  0  0  0  0  0  0  0  0  0  0
   20.9412   -6.2350   39.9173 C   0  0  0  0  0  0  0  0  0  0  0  0
   21.6418   -5.0509   39.9892 N   0  0  1  0  0  0  0  0  0  0  0  0
  2  1  1  0  0  0  0
  3  1  1  1  0  0  0
  3  4  1  0  0  0  0
  3  5  1  0  0  0  0
  5  6  1  6  0  0  0
  5  7  1  0  0  0  0
  7  8  1  6  0  0  0
  7  9  1  0  0  0  0
  9  4  1  1  0  0  0
  9 20  1  0  0  0  0
 10 11  1  0  0  0  0
 11 12  1  6  0  0  0
 11 13  1  0  0  0  0
 14 13  1  1  0  0  0
 15 14  1  0  0  0  0
 15 16  1  1  0  0  0
 16 10  1  0  0  0  0
 16 17  2  0  0  0  0
 18 15  1  0  0  0  0
 19 18  1  0  0  0  0
 20 14  1  0  0  0  0
 20 19  1  1  0  0  0
M  END
>  <CHROM.1>
61.13931589,58.11472064,22.65269438,-4.20238227,40.70078346,-1.62062938,0.55561024
2.52134252

>  <Name>
1nyi_lig

>  <RI>
0

>  <Rbt.Current_Directory>
/home/itssahil/PROJECTS/Mol_Feturizer/New_Systems/rnas/1nyi

>  <Rbt.Executable>
rbdock ($Id: //depot/dev/client3/rdock/2013.1/src/exe/rbdock.cxx#4 $)

>  <Rbt.Library>
libRbt.so (2013.1, Build901 2013/11/27)

>  <Rbt.Parameter_File>
/export/apps/rDock/src/rDock_2013.1_src/data/scripts/dock_solv.prm

>  <Rbt.Receptor>
prm/pocket_docking_8.prm

>  <SCORE>
-8.15129

>  <SCORE.INTER>
-6.52025

>  <SCORE.INTER.CONST>
1

>  <SCORE.INTER.POLAR>
-0.910627

>  <SCORE.INTER.ROT>
2

>  <SCORE.INTER.SOLV>
10.9826

>  <SCORE.INTER.VDW>
-9.90562

>  <SCORE.INTER.norm>
-0.326013

>  <SCORE.INTRA>
-1.63104

>  <SCORE.INTRA.DIHEDRAL>
-2.51152

>  <SCORE.INTRA.DIHEDRAL.0>
3.72394

>  <SCORE.INTRA.POLAR>
0

>  <SCORE.INTRA.POLAR.0>
0

>  <SCORE.INTRA.REPUL>
0

>  <SCORE.INTRA.REPUL.0>
0

>  <SCORE.INTRA.SOLV>
1.5636

>  <SCORE.INTRA.SOLV.lig_0>
-49.4697

>  <SCORE.INTRA.VDW>
-1.15708

>  <SCORE.INTRA.VDW.0>
-0.896538

>  <SCORE.INTRA.norm>
-0.0815519

>  <SCORE.RESTR>
0

>  <SCORE.RESTR.CAVITY>
0

>  <SCORE.RESTR.norm>
0

>  <SCORE.SYSTEM>
0

>  <SCORE.SYSTEM.CONST>
0

>  <SCORE.SYSTEM.DIHEDRAL>
0

>  <SCORE.SYSTEM.SOLV>
0

>  <SCORE.SYSTEM.norm>
0

>  <SCORE.heavy>
20

>  <SCORE.norm>
-0.407565

>  <RMSD>
5.696

$$$$
1nyi_lig
 OpenBabel11021811403D
libRbt.so/2013.1/901 2013/11/27
 20 22  0  0  0  0  0  0  0  0999 V2000
   25.3490   -8.1245   43.3839 C   0  0  0  0  0  0  0  0  0  0  0  0
   26.0213   -8.7944   44.4503 O   0  0  0  0  0  0  0  0  0  0  0  0
   23.9000   -7.8694   43.7356 C   0  0  1  0  0  0  0  0  0  0  0  0
   23.8434   -6.9814   44.8847 O   0  0  0  0  0  0  0  0  0  0  0  0
   23.1446   -7.1555   42.6202 C   0  0  1  0  0  0  0  0  0  0  0  0
   22.5371   -8.0840   41.7207 O   0  0  0  0  0  0  0  0  0  0  0  0
   22.1379   -6.3121   43.3998 C   0  0  1  0  0  0  0  0  0  0  0  0
   21.0146   -7.0563   43.8472 O   0  0  0  0  0  0  0  0  0  0  0  0
   22.9909   -5.8811   44.5909 C   0  0  2  0  0  0  0  0  0  0  0  0
   27.6478   -3.7235   44.2074 N   0  0  0  0  0  0  0  0  0  0  0  0
   27.3076   -5.0471   44.3480 C   0  0  1  0  0  0  0  0  0  0  0  0
   28.3311   -5.9012   44.3920 N   0  0  0  0  0  0  0  0  0  0  0  0
   26.0598   -5.4976   44.4418 N   0  0  0  0  0  0  0  0  0  0  0  0
   25.1403   -4.4900   44.3920 C   0  0  1  0  0  0  0  0  0  0  0  0
   25.3826   -3.1348   44.2528 C   0  0  1  0  0  0  0  0  0  0  0  0
   26.7259   -2.6789   44.1441 C   0  0  0  0  0  0  0  0  0  0  0  0
   27.1386   -1.5196   44.0125 O   0  0  0  0  0  0  0  0  0  0  0  0
   24.1885   -2.4259   44.2273 N   0  0  0  0  0  0  0  0  0  0  0  0
   23.2657   -3.3390   44.3556 C   0  0  0  0  0  0  0  0  0  0  0  0
   23.7588   -4.6204   44.4692 N   0  0  1  0  0  0  0  0  0  0  0  0
  2  1  1  0  0  0  0
  3  1  1  6  0  0  0
  3  4  1  0  0  0  0
  3  5  1  0  0  0  0
  5  6  1  6  0  0  0
  5  7  1  0  0  0  0
  7  8  1  1  0  0  0
  7  9  1  0  0  0  0
  9  4  1  6  0  0  0
  9 20  1  0  0  0  0
 10 11  1  0  0  0  0
 11 12  1  1  0  0  0
 11 13  1  0  0  0  0
 14 13  1  6  0  0  0
 15 14  1  0  0  0  0
 15 16  1  6  0  0  0
 16 10  1  0  0  0  0
 16 17  2  0  0  0  0
 18 15  1  0  0  0  0
 19 18  1  0  0  0  0
 20 14  1  0  0  0  0
 20 19  1  6  0  0  0
M  END
>  <CHROM.1>
63.01098285,11.41309598,24.76878299,-5.48225310,43.98742143,-2.27331499,-0.11360830
0.10156964

>  <Name>
1nyi_lig

>  <RI>
0

>  <Rbt.Current_Directory>
/home/itssahil/PROJECTS/Mol_Feturizer/New_Systems/rnas/1nyi

>  <Rbt.Executable>
rbdock ($Id: //depot/dev/client3/rdock/2013.1/src/exe/rbdock.cxx#4 $)

>  <Rbt.Library>
libRbt.so (2013.1, Build901 2013/11/27)

>  <Rbt.Parameter_File>
/export/apps/rDock/src/rDock_2013.1_src/data/scripts/dock_solv.prm

>  <Rbt.Receptor>
prm/pocket_docking_2.prm

>  <SCORE>
-2.96057

>  <SCORE.INTER>
-2.98301

>  <SCORE.INTER.CONST>
1

>  <SCORE.INTER.POLAR>
-0.659281

>  <SCORE.INTER.ROT>
2

>  <SCORE.INTER.SOLV>
12.657

>  <SCORE.INTER.VDW>
-8.94341

>  <SCORE.INTER.norm>
-0.149151

>  <SCORE.INTRA>
-1.0008

>  <SCORE.INTRA.DIHEDRAL>
-2.51051

>  <SCORE.INTRA.DIHEDRAL.0>
3.72394

>  <SCORE.INTRA.POLAR>
0

>  <SCORE.INTRA.POLAR.0>
0

>  <SCORE.INTRA.REPUL>
0

>  <SCORE.INTRA.REPUL.0>
0

>  <SCORE.INTRA.SOLV>
2.10528

>  <SCORE.INTRA.SOLV.lig_0>
-49.4697

>  <SCORE.INTRA.VDW>
-0.798189

>  <SCORE.INTRA.VDW.0>
-0.896538

>  <SCORE.INTRA.norm>
-0.05004

>  <SCORE.RESTR>
1.02324

>  <SCORE.RESTR.CAVITY>
1.02324

>  <SCORE.RESTR.norm>
0.051162

>  <SCORE.SYSTEM>
0

>  <SCORE.SYSTEM.CONST>
0

>  <SCORE.SYSTEM.DIHEDRAL>
0

>  <SCORE.SYSTEM.SOLV>
0

>  <SCORE.SYSTEM.norm>
0

>  <SCORE.heavy>
20

>  <SCORE.norm>
-0.148029

>  <RMSD>
5.743

$$$$
1nyi_lig
 OpenBabel11021811403D
libRbt.so/2013.1/901 2013/11/27
 20 22  0  0  0  0  0  0  0  0999 V2000
   26.3617   -3.4841   38.4469 C   0  0  0  0  0  0  0  0  0  0  0  0
   27.1131   -4.5711   37.9068 O   0  0  0  0  0  0  0  0  0  0  0  0
   24.9637   -3.4554   37.8699 C   0  0  1  0  0  0  0  0  0  0  0  0
   24.2620   -4.6620   38.2751 O   0  0  0  0  0  0  0  0  0  0  0  0
   24.1346   -2.2926   38.4038 C   0  0  1  0  0  0  0  0  0  0  0  0
   24.2648   -1.1338   37.5789 O   0  0  0  0  0  0  0  0  0  0  0  0
   22.7245   -2.8793   38.4150 C   0  0  1  0  0  0  0  0  0  0  0  0
   22.1120   -2.8842   37.1343 O   0  0  0  0  0  0  0  0  0  0  0  0
   23.0158   -4.3096   38.8638 C   0  0  2  0  0  0  0  0  0  0  0  0
   20.9336   -7.0683   42.6773 N   0  0  0  0  0  0  0  0  0  0  0  0
   20.6300   -7.0622   41.3376 C   0  0  1  0  0  0  0  0  0  0  0  0
   19.6530   -7.8911   40.9667 N   0  0  0  0  0  0  0  0  0  0  0  0
   21.2354   -6.2992   40.4320 N   0  0  0  0  0  0  0  0  0  0  0  0
   22.1982   -5.5048   40.9846 C   0  0  1  0  0  0  0  0  0  0  0  0
   22.5752   -5.4394   42.3143 C   0  0  1  0  0  0  0  0  0  0  0  0
   21.9192   -6.2734   43.2621 C   0  0  0  0  0  0  0  0  0  0  0  0
   22.1159   -6.3586   44.4810 O   0  0  0  0  0  0  0  0  0  0  0  0
   23.6039   -4.5219   42.4852 N   0  0  0  0  0  0  0  0  0  0  0  0
   23.8229   -4.0526   41.2878 C   0  0  0  0  0  0  0  0  0  0  0  0
   23.0065   -4.5918   40.3179 N   0  0  1  0  0  0  0  0  0  0  0  0
  2  1  1  0  0  0  0
  3  1  1  1  0  0  0
  3  4  1  0  0  0  0
  3  5  1  0  0  0  0
  5  6  1  6  0  0  0
  5  7  1  0  0  0  0
  7  8  1  6  0  0  0
  7  9  1  0  0  0  0
  9  4  1  1  0  0  0
  9 20  1  0  0  0  0
 10 11  1  0  0  0  0
 11 12  1  1  0  0  0
 11 13  1  0  0  0  0
 14 13  1  6  0  0  0
 15 14  1  0  0  0  0
 15 16  1  6  0  0  0
 16 10  1  0  0  0  0
 16 17  2  0  0  0  0
 18 15  1  0  0  0  0
 19 18  1  0  0  0  0
 20 14  1  0  0  0  0
 20 19  1  6  0  0  0
M  END
>  <CHROM.1>
63.94885230,-116.00085766,23.07729350,-4.70463371,40.12180078,-1.00534749
0.33178221,2.03588299

>  <Name>
1nyi_lig

>  <RI>
0

>  <Rbt.Current_Directory>
/home/itssahil/PROJECTS/Mol_Feturizer/New_Systems/rnas/1nyi

>  <Rbt.Executable>
rbdock ($Id: //depot/dev/client3/rdock/2013.1/src/exe/rbdock.cxx#4 $)

>  <Rbt.Library>
libRbt.so (2013.1, Build901 2013/11/27)

>  <Rbt.Parameter_File>
/export/apps/rDock/src/rDock_2013.1_src/data/scripts/dock_solv.prm

>  <Rbt.Receptor>
prm/pocket_docking_7.prm

>  <SCORE>
-10.6999

>  <SCORE.INTER>
-8.60606

>  <SCORE.INTER.CONST>
1

>  <SCORE.INTER.POLAR>
-1.57498

>  <SCORE.INTER.ROT>
2

>  <SCORE.INTER.SOLV>
11.3108

>  <SCORE.INTER.VDW>
-9.19103

>  <SCORE.INTER.norm>
-0.430303

>  <SCORE.INTRA>
-2.09385

>  <SCORE.INTRA.DIHEDRAL>
-2.45475

>  <SCORE.INTRA.DIHEDRAL.0>
3.72394

>  <SCORE.INTRA.POLAR>
0

>  <SCORE.INTRA.POLAR.0>
0

>  <SCORE.INTRA.REPUL>
0

>  <SCORE.INTRA.REPUL.0>
0

>  <SCORE.INTRA.SOLV>
-0.896652

>  <SCORE.INTRA.SOLV.lig_0>
-49.4697

>  <SCORE.INTRA.VDW>
-0.418149

>  <SCORE.INTRA.VDW.0>
-0.896538

>  <SCORE.INTRA.norm>
-0.104693

>  <SCORE.RESTR>
0

>  <SCORE.RESTR.CAVITY>
0

>  <SCORE.RESTR.norm>
0

>  <SCORE.SYSTEM>
0

>  <SCORE.SYSTEM.CONST>
0

>  <SCORE.SYSTEM.DIHEDRAL>
0

>  <SCORE.SYSTEM.SOLV>
0

>  <SCORE.SYSTEM.norm>
0

>  <SCORE.heavy>
20

>  <SCORE.norm>
-0.534995

>  <RMSD>
5.748

$$$$
1nyi_lig
 OpenBabel11021811403D
libRbt.so/2013.1/901 2013/11/27
 20 22  0  0  0  0  0  0  0  0999 V2000
   26.3699   -3.4866   38.4305 C   0  0  0  0  0  0  0  0  0  0  0  0
   27.1003   -4.5969   37.9090 O   0  0  0  0  0  0  0  0  0  0  0  0
   24.9710   -3.4437   37.8565 C   0  0  1  0  0  0  0  0  0  0  0  0
   24.2598   -4.6457   38.2584 O   0  0  0  0  0  0  0  0  0  0  0  0
   24.1530   -2.2759   38.3965 C   0  0  1  0  0  0  0  0  0  0  0  0
   24.2916   -1.1150   37.5758 O   0  0  0  0  0  0  0  0  0  0  0  0
   22.7380   -2.8504   38.4083 C   0  0  1  0  0  0  0  0  0  0  0  0
   22.1230   -2.8451   37.1287 O   0  0  0  0  0  0  0  0  0  0  0  0
   23.0179   -4.2849   38.8510 C   0  0  2  0  0  0  0  0  0  0  0  0
   20.9328   -7.0542   42.6553 N   0  0  0  0  0  0  0  0  0  0  0  0
   20.6283   -7.0423   41.3158 C   0  0  1  0  0  0  0  0  0  0  0  0
   19.6495   -7.8679   40.9424 N   0  0  0  0  0  0  0  0  0  0  0  0
   21.2346   -6.2770   40.4128 N   0  0  0  0  0  0  0  0  0  0  0  0
   22.1993   -5.4867   40.9677 C   0  0  1  0  0  0  0  0  0  0  0  0
   22.5774   -5.4271   42.2974 C   0  0  1  0  0  0  0  0  0  0  0  0
   21.9203   -6.2635   43.2424 C   0  0  0  0  0  0  0  0  0  0  0  0
   22.1177   -6.3537   44.4608 O   0  0  0  0  0  0  0  0  0  0  0  0
   23.6079   -4.5123   42.4711 N   0  0  0  0  0  0  0  0  0  0  0  0
   23.8271   -4.0389   41.2754 C   0  0  0  0  0  0  0  0  0  0  0  0
   23.0090   -4.5727   40.3039 N   0  0  1  0  0  0  0  0  0  0  0  0
  2  1  1  0  0  0  0
  3  1  1  1  0  0  0
  3  4  1  0  0  0  0
  3  5  1  0  0  0  0
  5  6  1  6  0  0  0
  5  7  1  0  0  0  0
  7  8  1  6  0  0  0
  7  9  1  0  0  0  0
  9  4  1  1  0  0  0
  9 20  1  0  0  0  0
 10 11  1  0  0  0  0
 11 12  1  1  0  0  0
 11 13  1  0  0  0  0
 14 13  1  6  0  0  0
 15 14  1  0  0  0  0
 15 16  1  6  0  0  0
 16 10  1  0  0  0  0
 16 17  2  0  0  0  0
 18 15  1  0  0  0  0
 19 18  1  0  0  0  0
 20 14  1  0  0  0  0
 20 19  1  6  0  0  0
M  END
>  <CHROM.1>
62.55060559,-115.61319381,23.08141530,-4.69011004,40.10796997,-1.00516175
0.32698558,2.03991823

>  <Name>
1nyi_lig

>  <RI>
0

>  <Rbt.Current_Directory>
/home/itssahil/PROJECTS/Mol_Feturizer/New_Systems/rnas/1nyi

>  <Rbt.Executable>
rbdock ($Id: //depot/dev/client3/rdock/2013.1/src/exe/rbdock.cxx#4 $)

>  <Rbt.Library>
libRbt.so (2013.1, Build901 2013/11/27)

>  <Rbt.Parameter_File>
/export/apps/rDock/src/rDock_2013.1_src/data/scripts/dock_solv.prm

>  <Rbt.Receptor>
prm/pocket_docking_7.prm

>  <SCORE>
-10.6859

>  <SCORE.INTER>
-8.58055

>  <SCORE.INTER.CONST>
1

>  <SCORE.INTER.POLAR>
-1.557

>  <SCORE.INTER.ROT>
2

>  <SCORE.INTER.SOLV>
11.2435

>  <SCORE.INTER.VDW>
-9.21154

>  <SCORE.INTER.norm>
-0.429028

>  <SCORE.INTRA>
-2.10538

>  <SCORE.INTRA.DIHEDRAL>
-2.49028

>  <SCORE.INTRA.DIHEDRAL.0>
3.72394

>  <SCORE.INTRA.POLAR>
0

>  <SCORE.INTRA.POLAR.0>
0

>  <SCORE.INTRA.REPUL>
0

>  <SCORE.INTRA.REPUL.0>
0

>  <SCORE.INTRA.SOLV>
-0.891352

>  <SCORE.INTRA.SOLV.lig_0>
-49.4697

>  <SCORE.INTRA.VDW>
-0.414569

>  <SCORE.INTRA.VDW.0>
-0.896538

>  <SCORE.INTRA.norm>
-0.105269

>  <SCORE.RESTR>
0

>  <SCORE.RESTR.CAVITY>
0

>  <SCORE.RESTR.norm>
0

>  <SCORE.SYSTEM>
0

>  <SCORE.SYSTEM.CONST>
0

>  <SCORE.SYSTEM.DIHEDRAL>
0

>  <SCORE.SYSTEM.SOLV>
0

>  <SCORE.SYSTEM.norm>
0

>  <SCORE.heavy>
20

>  <SCORE.norm>
-0.534297

>  <RMSD>
5.753

$$$$
1nyi_lig
 OpenBabel11021811403D
libRbt.so/2013.1/901 2013/11/27
 20 22  0  0  0  0  0  0  0  0999 V2000
   21.4060   -6.0715   40.8473 C   0  0  0  0  0  0  0  0  0  0  0  0
   22.5885   -5.2728   40.8899 O   0  0  0  0  0  0  0  0  0  0  0  0
   21.0922   -6.6437   42.2120 C   0  0  1  0  0  0  0  0  0  0  0  0
   22.2228   -7.4389   42.6608 O   0  0  0  0  0  0  0  0  0  0  0  0
   20.8982   -5.5621   43.2690 C   0  0  1  0  0  0  0  0  0  0  0  0
   19.5308   -5.1601   43.3628 O   0  0  0  0  0  0  0  0  0  0  0  0
   21.4221   -6.2453   44.5305 C   0  0  1  0  0  0  0  0  0  0  0  0
   20.4871   -7.1446   45.1072 O   0  0  0  0  0  0  0  0  0  0  0  0
   22.6115   -7.0165   43.9624 C   0  0  2  0  0  0  0  0  0  0  0  0
   27.7173   -7.5545   44.3233 N   0  0  0  0  0  0  0  0  0  0  0  0
   26.7291   -8.5016   44.4403 C   0  0  1  0  0  0  0  0  0  0  0  0
   27.1504   -9.7436   44.6830 N   0  0  0  0  0  0  0  0  0  0  0  0
   25.4279   -8.2492   44.3313 N   0  0  0  0  0  0  0  0  0  0  0  0
   25.1745   -6.9286   44.0964 C   0  0  1  0  0  0  0  0  0  0  0  0
   26.0959   -5.9049   43.9631 C   0  0  1  0  0  0  0  0  0  0  0  0
   27.4828   -6.2026   44.0737 C   0  0  0  0  0  0  0  0  0  0  0  0
   28.4466   -5.4316   43.9826 O   0  0  0  0  0  0  0  0  0  0  0  0
   25.4529   -4.6994   43.7134 N   0  0  0  0  0  0  0  0  0  0  0  0
   24.1842   -5.0030   43.7070 C   0  0  0  0  0  0  0  0  0  0  0  0
   23.9271   -6.3364   43.9391 N   0  0  1  0  0  0  0  0  0  0  0  0
  2  1  1  0  0  0  0
  3  1  1  6  0  0  0
  3  4  1  0  0  0  0
  3  5  1  0  0  0  0
  5  6  1  1  0  0  0
  5  7  1  0  0  0  0
  7  8  1  6  0  0  0
  7  9  1  0  0  0  0
  9  4  1  6  0  0  0
  9 20  1  0  0  0  0
 10 11  1  0  0  0  0
 11 12  1  1  0  0  0
 11 13  1  0  0  0  0
 14 13  1  6  0  0  0
 15 14  1  0  0  0  0
 15 16  1  6  0  0  0
 16 10  1  0  0  0  0
 16 17  2  0  0  0  0
 18 15  1  0  0  0  0
 19 18  1  0  0  0  0
 20 14  1  0  0  0  0
 20 19  1  6  0  0  0
M  END
>  <CHROM.1>
-58.40330046,-90.27926240,23.94383125,-6.53818325,43.58255168,-2.88864700
0.08091015,2.58633819

>  <Name>
1nyi_lig

>  <RI>
0

>  <Rbt.Current_Directory>
/home/itssahil/PROJECTS/Mol_Feturizer/New_Systems/rnas/1nyi

>  <Rbt.Executable>
rbdock ($Id: //depot/dev/client3/rdock/2013.1/src/exe/rbdock.cxx#4 $)

>  <Rbt.Library>
libRbt.so (2013.1, Build901 2013/11/27)

>  <Rbt.Parameter_File>
/export/apps/rDock/src/rDock_2013.1_src/data/scripts/dock_solv.prm

>  <Rbt.Receptor>
prm/pocket_docking_5.prm

>  <SCORE>
-8.34856

>  <SCORE.INTER>
-6.55027

>  <SCORE.INTER.CONST>
1

>  <SCORE.INTER.POLAR>
-0.691945

>  <SCORE.INTER.ROT>
2

>  <SCORE.INTER.SOLV>
7.67698

>  <SCORE.INTER.VDW>
-9.55269

>  <SCORE.INTER.norm>
-0.327514

>  <SCORE.INTRA>
-1.79829

>  <SCORE.INTRA.DIHEDRAL>
-2.57803

>  <SCORE.INTRA.DIHEDRAL.0>
3.72394

>  <SCORE.INTRA.POLAR>
0

>  <SCORE.INTRA.POLAR.0>
0

>  <SCORE.INTRA.REPUL>
0

>  <SCORE.INTRA.REPUL.0>
0

>  <SCORE.INTRA.SOLV>
0.0863424

>  <SCORE.INTRA.SOLV.lig_0>
-49.4697

>  <SCORE.INTRA.VDW>
-0.552446

>  <SCORE.INTRA.VDW.0>
-0.896538

>  <SCORE.INTRA.norm>
-0.0899143

>  <SCORE.RESTR>
0

>  <SCORE.RESTR.CAVITY>
0

>  <SCORE.RESTR.norm>
0

>  <SCORE.SYSTEM>
0

>  <SCORE.SYSTEM.CONST>
0

>  <SCORE.SYSTEM.DIHEDRAL>
0

>  <SCORE.SYSTEM.SOLV>
0

>  <SCORE.SYSTEM.norm>
0

>  <SCORE.heavy>
20

>  <SCORE.norm>
-0.417428

>  <RMSD>
5.762

$$$$
1nyi_lig
 OpenBabel11021811403D
libRbt.so/2013.1/901 2013/11/27
 20 22  0  0  0  0  0  0  0  0999 V2000
   23.6262   -8.1596   46.5695 C   0  0  0  0  0  0  0  0  0  0  0  0
   24.2999   -8.2596   47.8241 O   0  0  0  0  0  0  0  0  0  0  0  0
   24.5302   -8.5906   45.4358 C   0  0  1  0  0  0  0  0  0  0  0  0
   23.7824   -8.5380   44.1908 O   0  0  0  0  0  0  0  0  0  0  0  0
   25.7187   -7.6544   45.2475 C   0  0  1  0  0  0  0  0  0  0  0  0
   26.8453   -8.0759   46.0177 O   0  0  0  0  0  0  0  0  0  0  0  0
   25.9491   -7.7239   43.7392 C   0  0  1  0  0  0  0  0  0  0  0  0
   26.6509   -8.8900   43.3352 O   0  0  0  0  0  0  0  0  0  0  0  0
   24.5088   -7.7759   43.2342 C   0  0  2  0  0  0  0  0  0  0  0  0
   20.3320   -5.4764   41.2963 N   0  0  0  0  0  0  0  0  0  0  0  0
   20.6377   -6.8137   41.3696 C   0  0  1  0  0  0  0  0  0  0  0  0
   19.7204   -7.6406   40.8656 N   0  0  0  0  0  0  0  0  0  0  0  0
   21.7584   -7.3021   41.8932 N   0  0  0  0  0  0  0  0  0  0  0  0
   22.5885   -6.3189   42.3487 C   0  0  1  0  0  0  0  0  0  0  0  0
   22.3710   -4.9526   42.3201 C   0  0  1  0  0  0  0  0  0  0  0  0
   21.1595   -4.4557   41.7638 C   0  0  0  0  0  0  0  0  0  0  0  0
   20.7869   -3.2808   41.6524 O   0  0  0  0  0  0  0  0  0  0  0  0
   23.4404   -4.2763   42.8928 N   0  0  0  0  0  0  0  0  0  0  0  0
   24.2710   -5.2192   43.2435 C   0  0  0  0  0  0  0  0  0  0  0  0
   23.8333   -6.4904   42.9424 N   0  0  1  0  0  0  0  0  0  0  0  0
  2  1  1  0  0  0  0
  3  1  1  1  0  0  0
  3  4  1  0  0  0  0
  3  5  1  0  0  0  0
  5  6  1  1  0  0  0
  5  7  1  0  0  0  0
  7  8  1  1  0  0  0
  7  9  1  0  0  0  0
  9  4  1  1  0  0  0
  9 20  1  0  0  0  0
 10 11  1  0  0  0  0
 11 12  1  6  0  0  0
 11 13  1  0  0  0  0
 14 13  1  1  0  0  0
 15 14  1  0  0  0  0
 15 16  1  1  0  0  0
 16 10  1  0  0  0  0
 16 17  2  0  0  0  0
 18 15  1  0  0  0  0
 19 18  1  0  0  0  0
 20 14  1  0  0  0  0
 20 19  1  1  0  0  0
M  END
>  <CHROM.1>
177.10008145,-64.33597484,23.38596273,-6.82511017,43.46394104,0.67280143
0.53895478,2.77099280

>  <Name>
1nyi_lig

>  <RI>
0

>  <Rbt.Current_Directory>
/home/itssahil/PROJECTS/Mol_Feturizer/New_Systems/rnas/1nyi

>  <Rbt.Executable>
rbdock ($Id: //depot/dev/client3/rdock/2013.1/src/exe/rbdock.cxx#4 $)

>  <Rbt.Library>
libRbt.so (2013.1, Build901 2013/11/27)

>  <Rbt.Parameter_File>
/export/apps/rDock/src/rDock_2013.1_src/data/scripts/dock_solv.prm

>  <Rbt.Receptor>
prm/pocket_docking_6.prm

>  <SCORE>
-8.07966

>  <SCORE.INTER>
-6.40647

>  <SCORE.INTER.CONST>
1

>  <SCORE.INTER.POLAR>
-0.835772

>  <SCORE.INTER.ROT>
2

>  <SCORE.INTER.SOLV>
11.2759

>  <SCORE.INTER.VDW>
-10.177

>  <SCORE.INTER.norm>
-0.320323

>  <SCORE.INTRA>
-1.6732

>  <SCORE.INTRA.DIHEDRAL>
-2.50073

>  <SCORE.INTRA.DIHEDRAL.0>
3.72394

>  <SCORE.INTRA.POLAR>
0

>  <SCORE.INTRA.POLAR.0>
0

>  <SCORE.INTRA.REPUL>
0.00040908

>  <SCORE.INTRA.REPUL.0>
0

>  <SCORE.INTRA.SOLV>
-0.475187

>  <SCORE.INTRA.SOLV.lig_0>
-49.4697

>  <SCORE.INTRA.VDW>
-0.187282

>  <SCORE.INTRA.VDW.0>
-0.896538

>  <SCORE.INTRA.norm>
-0.0836599

>  <SCORE.RESTR>
0

>  <SCORE.RESTR.CAVITY>
0

>  <SCORE.RESTR.norm>
0

>  <SCORE.SYSTEM>
0

>  <SCORE.SYSTEM.CONST>
0

>  <SCORE.SYSTEM.DIHEDRAL>
0

>  <SCORE.SYSTEM.SOLV>
0

>  <SCORE.SYSTEM.norm>
0

>  <SCORE.heavy>
20

>  <SCORE.norm>
-0.403983

>  <RMSD>
5.762

$$$$
1nyi_lig
 OpenBabel11021811403D
libRbt.so/2013.1/901 2013/11/27
 20 22  0  0  0  0  0  0  0  0999 V2000
   21.9383   -6.7048   43.1557 C   0  0  0  0  0  0  0  0  0  0  0  0
   21.5541   -6.4483   41.8049 O   0  0  0  0  0  0  0  0  0  0  0  0
   23.2894   -7.3825   43.2128 C   0  0  1  0  0  0  0  0  0  0  0  0
   24.2678   -6.5398   42.5458 O   0  0  0  0  0  0  0  0  0  0  0  0
   23.7955   -7.5581   44.6403 C   0  0  1  0  0  0  0  0  0  0  0  0
   23.3860   -8.8107   45.1912 O   0  0  0  0  0  0  0  0  0  0  0  0
   25.3075   -7.4328   44.4649 C   0  0  1  0  0  0  0  0  0  0  0  0
   25.9129   -8.6206   43.9768 O   0  0  0  0  0  0  0  0  0  0  0  0
   25.3804   -6.3332   43.4078 C   0  0  2  0  0  0  0  0  0  0  0  0
   28.4198   -2.3362   44.5373 N   0  0  0  0  0  0  0  0  0  0  0  0
   28.7590   -3.6022   44.1256 C   0  0  1  0  0  0  0  0  0  0  0  0
   30.0665   -3.8333   43.9989 N   0  0  0  0  0  0  0  0  0  0  0  0
   27.8835   -4.5679   43.8621 N   0  0  0  0  0  0  0  0  0  0  0  0
   26.5938   -4.1646   44.0556 C   0  0  1  0  0  0  0  0  0  0  0  0
   26.1536   -2.9186   44.4660 C   0  0  1  0  0  0  0  0  0  0  0  0
   27.1097   -1.8991   44.7318 C   0  0  0  0  0  0  0  0  0  0  0  0
   26.9128   -0.7346   45.1015 O   0  0  0  0  0  0  0  0  0  0  0  0
   24.7665   -2.8883   44.5309 N   0  0  0  0  0  0  0  0  0  0  0  0
   24.3983   -4.0882   44.1750 C   0  0  0  0  0  0  0  0  0  0  0  0
   25.4475   -4.9295   43.8760 N   0  0  1  0  0  0  0  0  0  0  0  0
  2  1  1  0  0  0  0
  3  1  1  1  0  0  0
  3  4  1  0  0  0  0
  3  5  1  0  0  0  0
  5  6  1  6  0  0  0
  5  7  1  0  0  0  0
  7  8  1  6  0  0  0
  7  9  1  0  0  0  0
  9  4  1  6  0  0  0
  9 20  1  0  0  0  0
 10 11  1  0  0  0  0
 11 12  1  1  0  0  0
 11 13  1  0  0  0  0
 14 13  1  6  0  0  0
 15 14  1  0  0  0  0
 15 16  1  6  0  0  0
 16 10  1  0  0  0  0
 16 17  2  0  0  0  0
 18 15  1  0  0  0  0
 19 18  1  0  0  0  0
 20 14  1  0  0  0  0
 20 19  1  6  0  0  0
M  END
>  <CHROM.1>
57.65269235,-141.70127021,25.51365259,-5.13956633,43.97674150,2.32510772
0.17194858,-3.11185749

>  <Name>
1nyi_lig

>  <RI>
0

>  <Rbt.Current_Directory>
/home/itssahil/PROJECTS/Mol_Feturizer/New_Systems/rnas/1nyi

>  <Rbt.Executable>
rbdock ($Id: //depot/dev/client3/rdock/2013.1/src/exe/rbdock.cxx#4 $)

>  <Rbt.Library>
libRbt.so (2013.1, Build901 2013/11/27)

>  <Rbt.Parameter_File>
/export/apps/rDock/src/rDock_2013.1_src/data/scripts/dock_solv.prm

>  <Rbt.Receptor>
prm/pocket_docking_2.prm

>  <SCORE>
-2.77259

>  <SCORE.INTER>
-1.58416

>  <SCORE.INTER.CONST>
1

>  <SCORE.INTER.POLAR>
0

>  <SCORE.INTER.ROT>
2

>  <SCORE.INTER.SOLV>
12.0819

>  <SCORE.INTER.VDW>
-10.0167

>  <SCORE.INTER.norm>
-0.0792078

>  <SCORE.INTRA>
-2.03159

>  <SCORE.INTRA.DIHEDRAL>
-2.40412

>  <SCORE.INTRA.DIHEDRAL.0>
3.72394

>  <SCORE.INTRA.POLAR>
0

>  <SCORE.INTRA.POLAR.0>
0

>  <SCORE.INTRA.REPUL>
0

>  <SCORE.INTRA.REPUL.0>
0

>  <SCORE.INTRA.SOLV>
-0.821061

>  <SCORE.INTRA.SOLV.lig_0>
-49.4697

>  <SCORE.INTRA.VDW>
-0.418999

>  <SCORE.INTRA.VDW.0>
-0.896538

>  <SCORE.INTRA.norm>
-0.101579

>  <SCORE.RESTR>
0.843155

>  <SCORE.RESTR.CAVITY>
0.843155

>  <SCORE.RESTR.norm>
0.0421577

>  <SCORE.SYSTEM>
0

>  <SCORE.SYSTEM.CONST>
0

>  <SCORE.SYSTEM.DIHEDRAL>
0

>  <SCORE.SYSTEM.SOLV>
0

>  <SCORE.SYSTEM.norm>
0

>  <SCORE.heavy>
20

>  <SCORE.norm>
-0.138629

>  <RMSD>
5.772

$$$$
1nyi_lig
 OpenBabel11021811403D
libRbt.so/2013.1/901 2013/11/27
 20 22  0  0  0  0  0  0  0  0999 V2000
   26.9260   -4.2243   38.0209 C   0  0  0  0  0  0  0  0  0  0  0  0
   28.1139   -3.4952   37.7122 O   0  0  0  0  0  0  0  0  0  0  0  0
   25.7017   -3.5080   37.4953 C   0  0  1  0  0  0  0  0  0  0  0  0
   24.5243   -4.3056   37.7951 O   0  0  0  0  0  0  0  0  0  0  0  0
   25.4759   -2.1614   38.1737 C   0  0  1  0  0  0  0  0  0  0  0  0
   26.1294   -1.1040   37.4701 O   0  0  0  0  0  0  0  0  0  0  0  0
   23.9528   -2.0484   38.1692 C   0  0  1  0  0  0  0  0  0  0  0  0
   23.4273   -1.6398   36.9152 O   0  0  0  0  0  0  0  0  0  0  0  0
   23.5601   -3.4959   38.4571 C   0  0  2  0  0  0  0  0  0  0  0  0
   20.9913   -6.4425   41.8049 N   0  0  0  0  0  0  0  0  0  0  0  0
   20.8179   -6.3069   40.4489 C   0  0  1  0  0  0  0  0  0  0  0  0
   19.8419   -7.0452   39.9184 N   0  0  0  0  0  0  0  0  0  0  0  0
   21.5434   -5.5060   39.6736 N   0  0  0  0  0  0  0  0  0  0  0  0
   22.4863   -4.8165   40.3799 C   0  0  1  0  0  0  0  0  0  0  0  0
   22.7371   -4.8843   41.7391 C   0  0  1  0  0  0  0  0  0  0  0  0
   21.9537   -5.7564   42.5453 C   0  0  0  0  0  0  0  0  0  0  0  0
   22.0285   -5.9545   43.7646 O   0  0  0  0  0  0  0  0  0  0  0  0
   23.7879   -4.0441   42.0837 N   0  0  0  0  0  0  0  0  0  0  0  0
   24.1430   -3.4892   40.9577 C   0  0  0  0  0  0  0  0  0  0  0  0
   23.3980   -3.8980   39.8734 N   0  0  1  0  0  0  0  0  0  0  0  0
  2  1  1  0  0  0  0
  3  1  1  1  0  0  0
  3  4  1  0  0  0  0
  3  5  1  0  0  0  0
  5  6  1  6  0  0  0
  5  7  1  0  0  0  0
  7  8  1  6  0  0  0
  7  9  1  0  0  0  0
  9  4  1  1  0  0  0
  9 20  1  0  0  0  0
 10 11  1  0  0  0  0
 11 12  1  1  0  0  0
 11 13  1  0  0  0  0
 14 13  1  6  0  0  0
 15 14  1  0  0  0  0
 15 16  1  6  0  0  0
 16 10  1  0  0  0  0
 16 17  2  0  0  0  0
 18 15  1  0  0  0  0
 19 18  1  0  0  0  0
 20 14  1  0  0  0  0
 20 19  1  6  0  0  0
M  END
>  <CHROM.1>
178.22673111,-91.49044127,23.63481820,-4.17094979,39.62616481,-0.80700261
0.35112979,1.94567628

>  <Name>
1nyi_lig

>  <RI>
0

>  <Rbt.Current_Directory>
/home/itssahil/PROJECTS/Mol_Feturizer/New_Systems/rnas/1nyi

>  <Rbt.Executable>
rbdock ($Id: //depot/dev/client3/rdock/2013.1/src/exe/rbdock.cxx#4 $)

>  <Rbt.Library>
libRbt.so (2013.1, Build901 2013/11/27)

>  <Rbt.Parameter_File>
/export/apps/rDock/src/rDock_2013.1_src/data/scripts/dock_solv.prm

>  <Rbt.Receptor>
prm/pocket_docking_7.prm

>  <SCORE>
-11.1018

>  <SCORE.INTER>
-9.19744

>  <SCORE.INTER.CONST>
1

>  <SCORE.INTER.POLAR>
-1.22794

>  <SCORE.INTER.ROT>
2

>  <SCORE.INTER.SOLV>
8.49176

>  <SCORE.INTER.VDW>
-9.80242

>  <SCORE.INTER.norm>
-0.459872

>  <SCORE.INTRA>
-1.90435

>  <SCORE.INTRA.DIHEDRAL>
-2.57849

>  <SCORE.INTRA.DIHEDRAL.0>
3.72394

>  <SCORE.INTRA.POLAR>
0

>  <SCORE.INTRA.POLAR.0>
0

>  <SCORE.INTRA.REPUL>
0

>  <SCORE.INTRA.REPUL.0>
0

>  <SCORE.INTRA.SOLV>
-0.600255

>  <SCORE.INTRA.SOLV.lig_0>
-49.4697

>  <SCORE.INTRA.VDW>
-0.314972

>  <SCORE.INTRA.VDW.0>
-0.896538

>  <SCORE.INTRA.norm>
-0.0952173

>  <SCORE.RESTR>
0

>  <SCORE.RESTR.CAVITY>
0

>  <SCORE.RESTR.norm>
0

>  <SCORE.SYSTEM>
0

>  <SCORE.SYSTEM.CONST>
0

>  <SCORE.SYSTEM.DIHEDRAL>
0

>  <SCORE.SYSTEM.SOLV>
0

>  <SCORE.SYSTEM.norm>
0

>  <SCORE.heavy>
20

>  <SCORE.norm>
-0.555089

>  <RMSD>
5.775

$$$$
1nyi_lig
 OpenBabel11021811403D
libRbt.so/2013.1/901 2013/11/27
 20 22  0  0  0  0  0  0  0  0999 V2000
   22.5761   -6.6267   43.9665 C   0  0  0  0  0  0  0  0  0  0  0  0
   22.8174   -7.8029   43.1942 O   0  0  0  0  0  0  0  0  0  0  0  0
   23.7934   -5.7288   43.9765 C   0  0  1  0  0  0  0  0  0  0  0  0
   24.1240   -5.3681   42.6081 O   0  0  0  0  0  0  0  0  0  0  0  0
   23.5434   -4.4131   44.7051 C   0  0  1  0  0  0  0  0  0  0  0  0
   23.8728   -4.5108   46.0916 O   0  0  0  0  0  0  0  0  0  0  0  0
   24.4336   -3.4417   43.9327 C   0  0  1  0  0  0  0  0  0  0  0  0
   25.8019   -3.5244   44.3022 O   0  0  0  0  0  0  0  0  0  0  0  0
   24.2423   -3.9540   42.5069 C   0  0  2  0  0  0  0  0  0  0  0  0
   22.3586   -3.0922   37.7954 N   0  0  0  0  0  0  0  0  0  0  0  0
   23.5398   -3.6862   38.1683 C   0  0  1  0  0  0  0  0  0  0  0  0
   24.3149   -4.1016   37.1654 N   0  0  0  0  0  0  0  0  0  0  0  0
   23.9323   -3.8561   39.4276 N   0  0  0  0  0  0  0  0  0  0  0  0
   23.0278   -3.3625   40.3229 C   0  0  1  0  0  0  0  0  0  0  0  0
   21.8176   -2.7509   40.0472 C   0  0  1  0  0  0  0  0  0  0  0  0
   21.4156   -2.5901   38.6920 C   0  0  0  0  0  0  0  0  0  0  0  0
   20.3799   -2.0763   38.2505 O   0  0  0  0  0  0  0  0  0  0  0  0
   21.1697   -2.3988   41.2243 N   0  0  0  0  0  0  0  0  0  0  0  0
   21.9806   -2.7861   42.1700 C   0  0  0  0  0  0  0  0  0  0  0  0
   23.1371   -3.3754   41.7083 N   0  0  1  0  0  0  0  0  0  0  0  0
  2  1  1  0  0  0  0
  3  1  1  6  0  0  0
  3  4  1  0  0  0  0
  3  5  1  0  0  0  0
  5  6  1  1  0  0  0
  5  7  1  0  0  0  0
  7  8  1  1  0  0  0
  7  9  1  0  0  0  0
  9  4  1  1  0  0  0
  9 20  1  0  0  0  0
 10 11  1  0  0  0  0
 11 12  1  6  0  0  0
 11 13  1  0  0  0  0
 14 13  1  1  0  0  0
 15 14  1  0  0  0  0
 15 16  1  1  0  0  0
 16 10  1  0  0  0  0
 16 17  2  0  0  0  0
 18 15  1  0  0  0  0
 19 18  1  0  0  0  0
 20 14  1  0  0  0  0
 20 19  1  1  0  0  0
M  END
>  <CHROM.1>
58.71993168,-78.77341532,23.12685144,-4.00813640,41.57101227,-1.06287894
1.02418907,-1.67094432

>  <Name>
1nyi_lig

>  <RI>
0

>  <Rbt.Current_Directory>
/home/itssahil/PROJECTS/Mol_Feturizer/New_Systems/rnas/1nyi

>  <Rbt.Executable>
rbdock ($Id: //depot/dev/client3/rdock/2013.1/src/exe/rbdock.cxx#4 $)

>  <Rbt.Library>
libRbt.so (2013.1, Build901 2013/11/27)

>  <Rbt.Parameter_File>
/export/apps/rDock/src/rDock_2013.1_src/data/scripts/dock_solv.prm

>  <Rbt.Receptor>
prm/pocket_docking_8.prm

>  <SCORE>
-10.1807

>  <SCORE.INTER>
-8.32361

>  <SCORE.INTER.CONST>
1

>  <SCORE.INTER.POLAR>
-1.64276

>  <SCORE.INTER.ROT>
2

>  <SCORE.INTER.SOLV>
8.10398

>  <SCORE.INTER.VDW>
-7.70787

>  <SCORE.INTER.norm>
-0.416181

>  <SCORE.INTRA>
-1.85713

>  <SCORE.INTRA.DIHEDRAL>
-2.57317

>  <SCORE.INTRA.DIHEDRAL.0>
3.72394

>  <SCORE.INTRA.POLAR>
0

>  <SCORE.INTRA.POLAR.0>
0

>  <SCORE.INTRA.REPUL>
0

>  <SCORE.INTRA.REPUL.0>
0

>  <SCORE.INTRA.SOLV>
-0.763661

>  <SCORE.INTRA.SOLV.lig_0>
-49.4697

>  <SCORE.INTRA.VDW>
-0.188709

>  <SCORE.INTRA.VDW.0>
-0.896538

>  <SCORE.INTRA.norm>
-0.0928563

>  <SCORE.RESTR>
0

>  <SCORE.RESTR.CAVITY>
0

>  <SCORE.RESTR.norm>
0

>  <SCORE.SYSTEM>
0

>  <SCORE.SYSTEM.CONST>
0

>  <SCORE.SYSTEM.DIHEDRAL>
0

>  <SCORE.SYSTEM.SOLV>
0

>  <SCORE.SYSTEM.norm>
0

>  <SCORE.heavy>
20

>  <SCORE.norm>
-0.509037

>  <RMSD>
5.783

$$$$
1nyi_lig
 OpenBabel11021811403D
libRbt.so/2013.1/901 2013/11/27
 20 22  0  0  0  0  0  0  0  0999 V2000
   26.9042   -4.2312   38.0244 C   0  0  0  0  0  0  0  0  0  0  0  0
   28.0991   -3.5358   37.6686 O   0  0  0  0  0  0  0  0  0  0  0  0
   25.6833   -3.5101   37.4975 C   0  0  1  0  0  0  0  0  0  0  0  0
   24.5022   -4.3021   37.7975 O   0  0  0  0  0  0  0  0  0  0  0  0
   25.4632   -2.1617   38.1742 C   0  0  1  0  0  0  0  0  0  0  0  0
   26.1217   -1.1079   37.4698 O   0  0  0  0  0  0  0  0  0  0  0  0
   23.9406   -2.0420   38.1689 C   0  0  1  0  0  0  0  0  0  0  0  0
   23.4176   -1.6324   36.9142 O   0  0  0  0  0  0  0  0  0  0  0  0
   23.5413   -3.4873   38.4582 C   0  0  2  0  0  0  0  0  0  0  0  0
   20.9743   -6.4368   41.8048 N   0  0  0  0  0  0  0  0  0  0  0  0
   20.8043   -6.3046   40.4480 C   0  0  1  0  0  0  0  0  0  0  0  0
   19.8326   -7.0478   39.9163 N   0  0  0  0  0  0  0  0  0  0  0  0
   21.5289   -5.5027   39.6732 N   0  0  0  0  0  0  0  0  0  0  0  0
   22.4671   -4.8081   40.3807 C   0  0  1  0  0  0  0  0  0  0  0  0
   22.7144   -4.8722   41.7407 C   0  0  1  0  0  0  0  0  0  0  0  0
   21.9320   -5.7456   42.5465 C   0  0  0  0  0  0  0  0  0  0  0  0
   22.0042   -5.9409   43.7664 O   0  0  0  0  0  0  0  0  0  0  0  0
   23.7610   -4.0272   42.0866 N   0  0  0  0  0  0  0  0  0  0  0  0
   24.1172   -3.4733   40.9604 C   0  0  0  0  0  0  0  0  0  0  0  0
   23.3768   -3.8872   39.8749 N   0  0  1  0  0  0  0  0  0  0  0  0
  2  1  1  0  0  0  0
  3  1  1  1  0  0  0
  3  4  1  0  0  0  0
  3  5  1  0  0  0  0
  5  6  1  6  0  0  0
  5  7  1  0  0  0  0
  7  8  1  6  0  0  0
  7  9  1  0  0  0  0
  9  4  1  1  0  0  0
  9 20  1  0  0  0  0
 10 11  1  0  0  0  0
 11 12  1  1  0  0  0
 11 13  1  0  0  0  0
 14 13  1  6  0  0  0
 15 14  1  0  0  0  0
 15 16  1  6  0  0  0
 16 10  1  0  0  0  0
 16 17  2  0  0  0  0
 18 15  1  0  0  0  0
 19 18  1  0  0  0  0
 20 14  1  0  0  0  0
 20 19  1  6  0  0  0
M  END
>  <CHROM.1>
175.87181201,-90.99569320,23.61718139,-4.16782689,39.62453690,-0.80603336
0.35226038,1.94056132

>  <Name>
1nyi_lig

>  <RI>
0

>  <Rbt.Current_Directory>
/home/itssahil/PROJECTS/Mol_Feturizer/New_Systems/rnas/1nyi

>  <Rbt.Executable>
rbdock ($Id: //depot/dev/client3/rdock/2013.1/src/exe/rbdock.cxx#4 $)

>  <Rbt.Library>
libRbt.so (2013.1, Build901 2013/11/27)

>  <Rbt.Parameter_File>
/export/apps/rDock/src/rDock_2013.1_src/data/scripts/dock_solv.prm

>  <Rbt.Receptor>
prm/pocket_docking_8.prm

>  <SCORE>
-11.1047

>  <SCORE.INTER>
-9.22748

>  <SCORE.INTER.CONST>
1

>  <SCORE.INTER.POLAR>
-1.23233

>  <SCORE.INTER.ROT>
2

>  <SCORE.INTER.SOLV>
8.41232

>  <SCORE.INTER.VDW>
-9.78131

>  <SCORE.INTER.norm>
-0.461374

>  <SCORE.INTRA>
-1.87727

>  <SCORE.INTRA.DIHEDRAL>
-2.53139

>  <SCORE.INTRA.DIHEDRAL.0>
3.72394

>  <SCORE.INTRA.POLAR>
0

>  <SCORE.INTRA.POLAR.0>
0

>  <SCORE.INTRA.REPUL>
0

>  <SCORE.INTRA.REPUL.0>
0

>  <SCORE.INTRA.SOLV>
-0.610385

>  <SCORE.INTRA.SOLV.lig_0>
-49.4697

>  <SCORE.INTRA.VDW>
-0.306386

>  <SCORE.INTRA.VDW.0>
-0.896538

>  <SCORE.INTRA.norm>
-0.0938637

>  <SCORE.RESTR>
0

>  <SCORE.RESTR.CAVITY>
0

>  <SCORE.RESTR.norm>
0

>  <SCORE.SYSTEM>
0

>  <SCORE.SYSTEM.CONST>
0

>  <SCORE.SYSTEM.DIHEDRAL>
0

>  <SCORE.SYSTEM.SOLV>
0

>  <SCORE.SYSTEM.norm>
0

>  <SCORE.heavy>
20

>  <SCORE.norm>
-0.555237

>  <RMSD>
5.784

$$$$
1nyi_lig
 OpenBabel11021811403D
libRbt.so/2013.1/901 2013/11/27
 20 22  0  0  0  0  0  0  0  0999 V2000
   20.0622   -1.6752   40.0865 C   0  0  0  0  0  0  0  0  0  0  0  0
   19.0870   -1.6331   39.0448 O   0  0  0  0  0  0  0  0  0  0  0  0
   21.4488   -1.4208   39.5380 C   0  0  1  0  0  0  0  0  0  0  0  0
   22.4021   -1.4512   40.6345 O   0  0  0  0  0  0  0  0  0  0  0  0
   21.8999   -2.5034   38.5639 C   0  0  1  0  0  0  0  0  0  0  0  0
   21.5443   -2.1798   37.2189 O   0  0  0  0  0  0  0  0  0  0  0  0
   23.4077   -2.5462   38.8039 C   0  0  1  0  0  0  0  0  0  0  0  0
   24.1068   -1.4982   38.1493 O   0  0  0  0  0  0  0  0  0  0  0  0
   23.4599   -2.3478   40.3171 C   0  0  2  0  0  0  0  0  0  0  0  0
   21.3675   -6.9881   41.0776 N   0  0  0  0  0  0  0  0  0  0  0  0
   21.1024   -6.0604   40.0997 C   0  0  1  0  0  0  0  0  0  0  0  0
   20.1661   -6.4094   39.2161 N   0  0  0  0  0  0  0  0  0  0  0  0
   21.7063   -4.8798   39.9986 N   0  0  0  0  0  0  0  0  0  0  0  0
   22.6243   -4.6813   40.9891 C   0  0  1  0  0  0  0  0  0  0  0  0
   22.9606   -5.5500   42.0123 C   0  0  1  0  0  0  0  0  0  0  0  0
   22.3073   -6.8113   42.0927 C   0  0  0  0  0  0  0  0  0  0  0  0
   22.4719   -7.7134   42.9238 O   0  0  0  0  0  0  0  0  0  0  0  0
   23.9511   -4.9985   42.8147 N   0  0  0  0  0  0  0  0  0  0  0  0
   24.1877   -3.8311   42.2827 C   0  0  0  0  0  0  0  0  0  0  0  0
   23.4189   -3.5560   41.1731 N   0  0  1  0  0  0  0  0  0  0  0  0
  2  1  1  0  0  0  0
  3  1  1  1  0  0  0
  3  4  1  0  0  0  0
  3  5  1  0  0  0  0
  5  6  1  6  0  0  0
  5  7  1  0  0  0  0
  7  8  1  6  0  0  0
  7  9  1  0  0  0  0
  9  4  1  1  0  0  0
  9 20  1  0  0  0  0
 10 11  1  0  0  0  0
 11 12  1  1  0  0  0
 11 13  1  0  0  0  0
 14 13  1  6  0  0  0
 15 14  1  0  0  0  0
 15 16  1  6  0  0  0
 16 10  1  0  0  0  0
 16 17  2  0  0  0  0
 18 15  1  0  0  0  0
 19 18  1  0  0  0  0
 20 14  1  0  0  0  0
 20 19  1  6  0  0  0
M  END
>  <CHROM.1>
179.06656727,81.98776908,22.16831175,-3.88787029,40.32030261,1.71495065,-0.53095951
-0.51064399

>  <Name>
1nyi_lig

>  <RI>
0

>  <Rbt.Current_Directory>
/home/itssahil/PROJECTS/Mol_Feturizer/New_Systems/rnas/1nyi

>  <Rbt.Executable>
rbdock ($Id: //depot/dev/client3/rdock/2013.1/src/exe/rbdock.cxx#4 $)

>  <Rbt.Library>
libRbt.so (2013.1, Build901 2013/11/27)

>  <Rbt.Parameter_File>
/export/apps/rDock/src/rDock_2013.1_src/data/scripts/dock_solv.prm

>  <Rbt.Receptor>
prm/pocket_docking_8.prm

>  <SCORE>
-9.48094

>  <SCORE.INTER>
-8.01618

>  <SCORE.INTER.CONST>
1

>  <SCORE.INTER.POLAR>
-0.904036

>  <SCORE.INTER.ROT>
2

>  <SCORE.INTER.SOLV>
10.7608

>  <SCORE.INTER.VDW>
-10.8509

>  <SCORE.INTER.norm>
-0.400809

>  <SCORE.INTRA>
-1.46476

>  <SCORE.INTRA.DIHEDRAL>
-2.42405

>  <SCORE.INTRA.DIHEDRAL.0>
3.72394

>  <SCORE.INTRA.POLAR>
0

>  <SCORE.INTRA.POLAR.0>
0

>  <SCORE.INTRA.REPUL>
0

>  <SCORE.INTRA.REPUL.0>
0

>  <SCORE.INTRA.SOLV>
1.14501

>  <SCORE.INTRA.SOLV.lig_0>
-49.4697

>  <SCORE.INTRA.VDW>
-0.825234

>  <SCORE.INTRA.VDW.0>
-0.896538

>  <SCORE.INTRA.norm>
-0.0732378

>  <SCORE.RESTR>
0

>  <SCORE.RESTR.CAVITY>
0

>  <SCORE.RESTR.norm>
0

>  <SCORE.SYSTEM>
0

>  <SCORE.SYSTEM.CONST>
0

>  <SCORE.SYSTEM.DIHEDRAL>
0

>  <SCORE.SYSTEM.SOLV>
0

>  <SCORE.SYSTEM.norm>
0

>  <SCORE.heavy>
20

>  <SCORE.norm>
-0.474047

>  <RMSD>
5.784

$$$$
1nyi_lig
 OpenBabel11021811403D
libRbt.so/2013.1/901 2013/11/27
 20 22  0  0  0  0  0  0  0  0999 V2000
   22.4893   -5.5103   41.4431 C   0  0  0  0  0  0  0  0  0  0  0  0
   21.8075   -4.2650   41.2935 O   0  0  0  0  0  0  0  0  0  0  0  0
   22.0122   -6.2415   42.6784 C   0  0  1  0  0  0  0  0  0  0  0  0
   22.6985   -7.5198   42.7637 O   0  0  0  0  0  0  0  0  0  0  0  0
   22.3535   -5.4991   43.9656 C   0  0  1  0  0  0  0  0  0  0  0  0
   21.3045   -4.6098   44.3517 O   0  0  0  0  0  0  0  0  0  0  0  0
   22.5764   -6.6450   44.9504 C   0  0  1  0  0  0  0  0  0  0  0  0
   21.3664   -7.1964   45.4480 O   0  0  0  0  0  0  0  0  0  0  0  0
   23.2849   -7.6570   44.0525 C   0  0  2  0  0  0  0  0  0  0  0  0
   27.4909   -4.7462   44.6236 N   0  0  0  0  0  0  0  0  0  0  0  0
   26.1673   -4.4040   44.7585 C   0  0  1  0  0  0  0  0  0  0  0  0
   25.9338   -3.1321   45.0851 N   0  0  0  0  0  0  0  0  0  0  0  0
   25.1510   -5.2437   44.5829 N   0  0  0  0  0  0  0  0  0  0  0  0
   25.5685   -6.4974   44.2407 C   0  0  1  0  0  0  0  0  0  0  0  0
   26.8707   -6.9374   44.0813 C   0  0  1  0  0  0  0  0  0  0  0  0
   27.9408   -6.0221   44.2848 C   0  0  0  0  0  0  0  0  0  0  0  0
   29.1580   -6.2260   44.1927 O   0  0  0  0  0  0  0  0  0  0  0  0
   26.8927   -8.2850   43.7456 N   0  0  0  0  0  0  0  0  0  0  0  0
   25.6352   -8.6293   43.7008 C   0  0  0  0  0  0  0  0  0  0  0  0
   24.7633   -7.6003   43.9820 N   0  0  1  0  0  0  0  0  0  0  0  0
  2  1  1  0  0  0  0
  3  1  1  6  0  0  0
  3  4  1  0  0  0  0
  3  5  1  0  0  0  0
  5  6  1  1  0  0  0
  5  7  1  0  0  0  0
  7  8  1  6  0  0  0
  7  9  1  0  0  0  0
  9  4  1  6  0  0  0
  9 20  1  0  0  0  0
 10 11  1  0  0  0  0
 11 12  1  6  0  0  0
 11 13  1  0  0  0  0
 14 13  1  1  0  0  0
 15 14  1  0  0  0  0
 15 16  1  1  0  0  0
 16 10  1  0  0  0  0
 16 17  2  0  0  0  0
 18 15  1  0  0  0  0
 19 18  1  0  0  0  0
 20 14  1  0  0  0  0
 20 19  1  1  0  0  0
M  END
>  <CHROM.1>
178.05694514,98.66386754,24.51418244,-6.13490001,43.89297989,-3.10652145
0.18056825,-3.10938489

>  <Name>
1nyi_lig

>  <RI>
0

>  <Rbt.Current_Directory>
/home/itssahil/PROJECTS/Mol_Feturizer/New_Systems/rnas/1nyi

>  <Rbt.Executable>
rbdock ($Id: //depot/dev/client3/rdock/2013.1/src/exe/rbdock.cxx#4 $)

>  <Rbt.Library>
libRbt.so (2013.1, Build901 2013/11/27)

>  <Rbt.Parameter_File>
/export/apps/rDock/src/rDock_2013.1_src/data/scripts/dock_solv.prm

>  <Rbt.Receptor>
prm/pocket_docking_4.prm

>  <SCORE>
-9.35858

>  <SCORE.INTER>
-7.9386

>  <SCORE.INTER.CONST>
1

>  <SCORE.INTER.POLAR>
-0.743661

>  <SCORE.INTER.ROT>
2

>  <SCORE.INTER.SOLV>
7.03547

>  <SCORE.INTER.VDW>
-10.092

>  <SCORE.INTER.norm>
-0.39693

>  <SCORE.INTRA>
-1.41998

>  <SCORE.INTRA.DIHEDRAL>
-2.41054

>  <SCORE.INTRA.DIHEDRAL.0>
3.72394

>  <SCORE.INTRA.POLAR>
0

>  <SCORE.INTRA.POLAR.0>
0

>  <SCORE.INTRA.REPUL>
0

>  <SCORE.INTRA.REPUL.0>
0

>  <SCORE.INTRA.SOLV>
0.804187

>  <SCORE.INTRA.SOLV.lig_0>
-49.4697

>  <SCORE.INTRA.VDW>
-0.616802

>  <SCORE.INTRA.VDW.0>
-0.896538

>  <SCORE.INTRA.norm>
-0.070999

>  <SCORE.RESTR>
0

>  <SCORE.RESTR.CAVITY>
0

>  <SCORE.RESTR.norm>
0

>  <SCORE.SYSTEM>
0

>  <SCORE.SYSTEM.CONST>
0

>  <SCORE.SYSTEM.DIHEDRAL>
0

>  <SCORE.SYSTEM.SOLV>
0

>  <SCORE.SYSTEM.norm>
0

>  <SCORE.heavy>
20

>  <SCORE.norm>
-0.467929

>  <RMSD>
5.787

$$$$
1nyi_lig
 OpenBabel11021811403D
libRbt.so/2013.1/901 2013/11/27
 20 22  0  0  0  0  0  0  0  0999 V2000
   22.4672   -5.5044   41.3913 C   0  0  0  0  0  0  0  0  0  0  0  0
   21.7761   -4.2681   41.2122 O   0  0  0  0  0  0  0  0  0  0  0  0
   21.9750   -6.2233   42.6278 C   0  0  1  0  0  0  0  0  0  0  0  0
   22.6566   -7.5026   42.7317 O   0  0  0  0  0  0  0  0  0  0  0  0
   22.3046   -5.4705   43.9120 C   0  0  1  0  0  0  0  0  0  0  0  0
   21.2541   -4.5749   44.2790 O   0  0  0  0  0  0  0  0  0  0  0  0
   22.5137   -6.6083   44.9091 C   0  0  1  0  0  0  0  0  0  0  0  0
   21.2970   -7.1519   45.3986 O   0  0  0  0  0  0  0  0  0  0  0  0
   23.2289   -7.6301   44.0279 C   0  0  2  0  0  0  0  0  0  0  0  0
   27.4351   -4.7161   44.5804 N   0  0  0  0  0  0  0  0  0  0  0  0
   26.1109   -4.3682   44.6929 C   0  0  1  0  0  0  0  0  0  0  0  0
   25.8768   -3.0887   44.9883 N   0  0  0  0  0  0  0  0  0  0  0  0
   25.0947   -5.2094   44.5248 N   0  0  0  0  0  0  0  0  0  0  0  0
   25.5130   -6.4714   44.2154 C   0  0  1  0  0  0  0  0  0  0  0  0
   26.8158   -6.9176   44.0806 C   0  0  1  0  0  0  0  0  0  0  0  0
   27.8857   -6.0002   44.2754 C   0  0  0  0  0  0  0  0  0  0  0  0
   29.1034   -6.2087   44.2015 O   0  0  0  0  0  0  0  0  0  0  0  0
   26.8384   -8.2724   43.7754 N   0  0  0  0  0  0  0  0  0  0  0  0
   25.5807   -8.6150   43.7243 C   0  0  0  0  0  0  0  0  0  0  0  0
   24.7081   -7.5781   43.9726 N   0  0  1  0  0  0  0  0  0  0  0  0
  2  1  1  0  0  0  0
  3  1  1  6  0  0  0
  3  4  1  0  0  0  0
  3  5  1  0  0  0  0
  5  6  1  1  0  0  0
  5  7  1  0  0  0  0
  7  8  1  6  0  0  0
  7  9  1  0  0  0  0
  9  4  1  6  0  0  0
  9 20  1  0  0  0  0
 10 11  1  0  0  0  0
 11 12  1  6  0  0  0
 11 13  1  0  0  0  0
 14 13  1  1  0  0  0
 15 14  1  0  0  0  0
 15 16  1  1  0  0  0
 16 10  1  0  0  0  0
 16 17  2  0  0  0  0
 18 15  1  0  0  0  0
 19 18  1  0  0  0  0
 20 14  1  0  0  0  0
 20 19  1  1  0  0  0
M  END
>  <CHROM.1>
177.16824652,97.88262493,24.46285162,-6.11066496,43.85731922,-3.10090089
0.18681211,-3.13653506

>  <Name>
1nyi_lig

>  <RI>
0

>  <Rbt.Current_Directory>
/home/itssahil/PROJECTS/Mol_Feturizer/New_Systems/rnas/1nyi

>  <Rbt.Executable>
rbdock ($Id: //depot/dev/client3/rdock/2013.1/src/exe/rbdock.cxx#4 $)

>  <Rbt.Library>
libRbt.so (2013.1, Build901 2013/11/27)

>  <Rbt.Parameter_File>
/export/apps/rDock/src/rDock_2013.1_src/data/scripts/dock_solv.prm

>  <Rbt.Receptor>
prm/pocket_docking_4.prm

>  <SCORE>
-9.30971

>  <SCORE.INTER>
-7.89488

>  <SCORE.INTER.CONST>
1

>  <SCORE.INTER.POLAR>
-0.746896

>  <SCORE.INTER.ROT>
2

>  <SCORE.INTER.SOLV>
7.1503

>  <SCORE.INTER.VDW>
-10.0904

>  <SCORE.INTER.norm>
-0.394744

>  <SCORE.INTRA>
-1.41483

>  <SCORE.INTRA.DIHEDRAL>
-2.39496

>  <SCORE.INTRA.DIHEDRAL.0>
3.72394

>  <SCORE.INTRA.POLAR>
0

>  <SCORE.INTRA.POLAR.0>
0

>  <SCORE.INTRA.REPUL>
0

>  <SCORE.INTRA.REPUL.0>
0

>  <SCORE.INTRA.SOLV>
0.819574

>  <SCORE.INTRA.SOLV.lig_0>
-49.4697

>  <SCORE.INTRA.VDW>
-0.627143

>  <SCORE.INTRA.VDW.0>
-0.896538

>  <SCORE.INTRA.norm>
-0.0707417

>  <SCORE.RESTR>
0

>  <SCORE.RESTR.CAVITY>
0

>  <SCORE.RESTR.norm>
0

>  <SCORE.SYSTEM>
0

>  <SCORE.SYSTEM.CONST>
0

>  <SCORE.SYSTEM.DIHEDRAL>
0

>  <SCORE.SYSTEM.SOLV>
0

>  <SCORE.SYSTEM.norm>
0

>  <SCORE.heavy>
20

>  <SCORE.norm>
-0.465485

>  <RMSD>
5.791

$$$$
1nyi_lig
 OpenBabel11021811403D
libRbt.so/2013.1/901 2013/11/27
 20 22  0  0  0  0  0  0  0  0999 V2000
   27.1172   -4.2402   38.0305 C   0  0  0  0  0  0  0  0  0  0  0  0
   28.3341   -3.5667   37.7085 O   0  0  0  0  0  0  0  0  0  0  0  0
   25.9263   -3.5075   37.4534 C   0  0  1  0  0  0  0  0  0  0  0  0
   24.7240   -4.2797   37.7193 O   0  0  0  0  0  0  0  0  0  0  0  0
   25.7019   -2.1492   38.1085 C   0  0  1  0  0  0  0  0  0  0  0  0
   26.4000   -1.1122   37.4174 O   0  0  0  0  0  0  0  0  0  0  0  0
   24.1823   -2.0081   38.0480 C   0  0  1  0  0  0  0  0  0  0  0  0
   23.7099   -1.6043   36.7715 O   0  0  0  0  0  0  0  0  0  0  0  0
   23.7523   -3.4446   38.3373 C   0  0  2  0  0  0  0  0  0  0  0  0
   21.0435   -6.3414   41.6176 N   0  0  0  0  0  0  0  0  0  0  0  0
   20.9256   -6.2239   40.2539 C   0  0  1  0  0  0  0  0  0  0  0  0
   19.9703   -6.9678   39.6943 N   0  0  0  0  0  0  0  0  0  0  0  0
   21.6837   -5.4349   39.4980 N   0  0  0  0  0  0  0  0  0  0  0  0
   22.5986   -4.7373   40.2326 C   0  0  1  0  0  0  0  0  0  0  0  0
   22.7939   -4.7871   41.6016 C   0  0  1  0  0  0  0  0  0  0  0  0
   21.9766   -5.6469   42.3871 C   0  0  0  0  0  0  0  0  0  0  0  0
   22.0015   -5.8286   43.6110 O   0  0  0  0  0  0  0  0  0  0  0  0
   23.8317   -3.9439   41.9773 N   0  0  0  0  0  0  0  0  0  0  0  0
   24.2333   -3.4049   40.8592 C   0  0  0  0  0  0  0  0  0  0  0  0
   23.5320   -3.8272   39.7512 N   0  0  1  0  0  0  0  0  0  0  0  0
  2  1  1  0  0  0  0
  3  1  1  1  0  0  0
  3  4  1  0  0  0  0
  3  5  1  0  0  0  0
  5  6  1  6  0  0  0
  5  7  1  0  0  0  0
  7  8  1  6  0  0  0
  7  9  1  0  0  0  0
  9  4  1  1  0  0  0
  9 20  1  0  0  0  0
 10 11  1  0  0  0  0
 11 12  1  1  0  0  0
 11 13  1  0  0  0  0
 14 13  1  6  0  0  0
 15 14  1  0  0  0  0
 15 16  1  6  0  0  0
 16 10  1  0  0  0  0
 16 17  2  0  0  0  0
 18 15  1  0  0  0  0
 19 18  1  0  0  0  0
 20 14  1  0  0  0  0
 20 19  1  6  0  0  0
M  END
>  <CHROM.1>
175.77540821,-90.48013134,23.78169290,-4.11894721,39.51157421,-0.76570016
0.35856960,1.91273151

>  <Name>
1nyi_lig

>  <RI>
0

>  <Rbt.Current_Directory>
/home/itssahil/PROJECTS/Mol_Feturizer/New_Systems/rnas/1nyi

>  <Rbt.Executable>
rbdock ($Id: //depot/dev/client3/rdock/2013.1/src/exe/rbdock.cxx#4 $)

>  <Rbt.Library>
libRbt.so (2013.1, Build901 2013/11/27)

>  <Rbt.Parameter_File>
/export/apps/rDock/src/rDock_2013.1_src/data/scripts/dock_solv.prm

>  <Rbt.Receptor>
prm/pocket_docking_8.prm

>  <SCORE>
-10.9987

>  <SCORE.INTER>
-9.12643

>  <SCORE.INTER.CONST>
1

>  <SCORE.INTER.POLAR>
-1.20297

>  <SCORE.INTER.ROT>
2

>  <SCORE.INTER.SOLV>
9.03219

>  <SCORE.INTER.VDW>
-10.0184

>  <SCORE.INTER.norm>
-0.456322

>  <SCORE.INTRA>
-1.8723

>  <SCORE.INTRA.DIHEDRAL>
-2.52888

>  <SCORE.INTRA.DIHEDRAL.0>
3.72394

>  <SCORE.INTRA.POLAR>
0

>  <SCORE.INTRA.POLAR.0>
0

>  <SCORE.INTRA.REPUL>
0

>  <SCORE.INTRA.REPUL.0>
0

>  <SCORE.INTRA.SOLV>
-0.608765

>  <SCORE.INTRA.SOLV.lig_0>
-49.4697

>  <SCORE.INTRA.VDW>
-0.303479

>  <SCORE.INTRA.VDW.0>
-0.896538

>  <SCORE.INTRA.norm>
-0.093615

>  <SCORE.RESTR>
0

>  <SCORE.RESTR.CAVITY>
0

>  <SCORE.RESTR.norm>
0

>  <SCORE.SYSTEM>
0

>  <SCORE.SYSTEM.CONST>
0

>  <SCORE.SYSTEM.DIHEDRAL>
0

>  <SCORE.SYSTEM.SOLV>
0

>  <SCORE.SYSTEM.norm>
0

>  <SCORE.heavy>
20

>  <SCORE.norm>
-0.549937

>  <RMSD>
5.795

$$$$
1nyi_lig
 OpenBabel11021811403D
libRbt.so/2013.1/901 2013/11/27
 20 22  0  0  0  0  0  0  0  0999 V2000
   26.7901   -7.6195   44.9913 C   0  0  0  0  0  0  0  0  0  0  0  0
   26.7312   -7.1329   43.6505 O   0  0  0  0  0  0  0  0  0  0  0  0
   25.4002   -7.8194   45.5541 C   0  0  1  0  0  0  0  0  0  0  0  0
   24.7008   -6.5454   45.5456 O   0  0  0  0  0  0  0  0  0  0  0  0
   24.5560   -8.7634   44.7052 C   0  0  1  0  0  0  0  0  0  0  0  0
   24.6903  -10.1183   45.1369 O   0  0  0  0  0  0  0  0  0  0  0  0
   23.1498   -8.1983   44.8947 C   0  0  1  0  0  0  0  0  0  0  0  0
   22.5557   -8.5815   46.1259 O   0  0  0  0  0  0  0  0  0  0  0  0
   23.4441   -6.6998   44.8972 C   0  0  2  0  0  0  0  0  0  0  0  0
   21.0749   -6.1641   40.3597 N   0  0  0  0  0  0  0  0  0  0  0  0
   20.8036   -7.0321   41.3893 C   0  0  1  0  0  0  0  0  0  0  0  0
   19.7766   -7.8589   41.1873 N   0  0  0  0  0  0  0  0  0  0  0  0
   21.4890   -7.0875   42.5276 N   0  0  0  0  0  0  0  0  0  0  0  0
   22.5111   -6.1834   42.5611 C   0  0  1  0  0  0  0  0  0  0  0  0
   22.8621   -5.2723   41.5805 C   0  0  1  0  0  0  0  0  0  0  0  0
   22.1066   -5.2258   40.3758 C   0  0  0  0  0  0  0  0  0  0  0  0
   22.2632   -4.4870   39.3954 O   0  0  0  0  0  0  0  0  0  0  0  0
   23.9495   -4.5108   41.9889 N   0  0  0  0  0  0  0  0  0  0  0  0
   24.2373   -4.9662   43.1771 C   0  0  0  0  0  0  0  0  0  0  0  0
   23.4159   -5.9891   43.5979 N   0  0  1  0  0  0  0  0  0  0  0  0
  2  1  1  0  0  0  0
  3  1  1  6  0  0  0
  3  4  1  0  0  0  0
  3  5  1  0  0  0  0
  5  6  1  1  0  0  0
  5  7  1  0  0  0  0
  7  8  1  1  0  0  0
  7  9  1  0  0  0  0
  9  4  1  6  0  0  0
  9 20  1  0  0  0  0
 10 11  1  0  0  0  0
 11 12  1  6  0  0  0
 11 13  1  0  0  0  0
 14 13  1  1  0  0  0
 15 14  1  0  0  0  0
 15 16  1  1  0  0  0
 16 10  1  0  0  0  0
 16 17  2  0  0  0  0
 18 15  1  0  0  0  0
 19 18  1  0  0  0  0
 20 14  1  0  0  0  0
 20 19  1  1  0  0  0
M  END
>  <CHROM.1>
-60.16717586,162.78207918,23.36686997,-6.83582693,43.21847249,-0.91751412
-0.42376269,-0.78132621

>  <Name>
1nyi_lig

>  <RI>
0

>  <Rbt.Current_Directory>
/home/itssahil/PROJECTS/Mol_Feturizer/New_Systems/rnas/1nyi

>  <Rbt.Executable>
rbdock ($Id: //depot/dev/client3/rdock/2013.1/src/exe/rbdock.cxx#4 $)

>  <Rbt.Library>
libRbt.so (2013.1, Build901 2013/11/27)

>  <Rbt.Parameter_File>
/export/apps/rDock/src/rDock_2013.1_src/data/scripts/dock_solv.prm

>  <Rbt.Receptor>
prm/pocket_docking_6.prm

>  <SCORE>
-6.29114

>  <SCORE.INTER>
-4.73541

>  <SCORE.INTER.CONST>
1

>  <SCORE.INTER.POLAR>
-0.860018

>  <SCORE.INTER.ROT>
2

>  <SCORE.INTER.SOLV>
11.9326

>  <SCORE.INTER.VDW>
-9.2011

>  <SCORE.INTER.norm>
-0.236771

>  <SCORE.INTRA>
-1.55573

>  <SCORE.INTRA.DIHEDRAL>
-2.57416

>  <SCORE.INTRA.DIHEDRAL.0>
3.72394

>  <SCORE.INTRA.POLAR>
0

>  <SCORE.INTRA.POLAR.0>
0

>  <SCORE.INTRA.REPUL>
0

>  <SCORE.INTRA.REPUL.0>
0

>  <SCORE.INTRA.SOLV>
0.488226

>  <SCORE.INTRA.SOLV.lig_0>
-49.4697

>  <SCORE.INTRA.VDW>
-0.512764

>  <SCORE.INTRA.VDW.0>
-0.896538

>  <SCORE.INTRA.norm>
-0.0777865

>  <SCORE.RESTR>
0

>  <SCORE.RESTR.CAVITY>
0

>  <SCORE.RESTR.norm>
0

>  <SCORE.SYSTEM>
0

>  <SCORE.SYSTEM.CONST>
0

>  <SCORE.SYSTEM.DIHEDRAL>
0

>  <SCORE.SYSTEM.SOLV>
0

>  <SCORE.SYSTEM.norm>
0

>  <SCORE.heavy>
20

>  <SCORE.norm>
-0.314557

>  <RMSD>
5.809

$$$$
1nyi_lig
 OpenBabel11021811403D
libRbt.so/2013.1/901 2013/11/27
 20 22  0  0  0  0  0  0  0  0999 V2000
   25.8619   -5.4332   45.2152 C   0  0  0  0  0  0  0  0  0  0  0  0
   26.9008   -6.2928   45.6840 O   0  0  0  0  0  0  0  0  0  0  0  0
   24.6822   -6.2364   44.7139 C   0  0  1  0  0  0  0  0  0  0  0  0
   23.6369   -5.3217   44.2863 O   0  0  0  0  0  0  0  0  0  0  0  0
   25.0256   -7.0777   43.4896 C   0  0  1  0  0  0  0  0  0  0  0  0
   25.4786   -8.3809   43.8594 O   0  0  0  0  0  0  0  0  0  0  0  0
   23.7055   -7.0848   42.7216 C   0  0  1  0  0  0  0  0  0  0  0  0
   22.7625   -8.0102   43.2415 O   0  0  0  0  0  0  0  0  0  0  0  0
   23.2278   -5.6549   42.9652 C   0  0  2  0  0  0  0  0  0  0  0  0
   22.4537   -3.5937   38.3132 N   0  0  0  0  0  0  0  0  0  0  0  0
   21.8397   -4.6713   38.9039 C   0  0  1  0  0  0  0  0  0  0  0  0
   20.9057   -5.2746   38.1672 N   0  0  0  0  0  0  0  0  0  0  0  0
   22.1227   -5.1246   40.1218 N   0  0  0  0  0  0  0  0  0  0  0  0
   23.1084   -4.4004   40.7277 C   0  0  1  0  0  0  0  0  0  0  0  0
   23.7836   -3.3053   40.2180 C   0  0  1  0  0  0  0  0  0  0  0  0
   23.4552   -2.8335   38.9166 C   0  0  0  0  0  0  0  0  0  0  0  0
   23.9408   -1.8782   38.2974 O   0  0  0  0  0  0  0  0  0  0  0  0
   24.7066   -2.8289   41.1400 N   0  0  0  0  0  0  0  0  0  0  0  0
   24.5843   -3.6272   42.1645 C   0  0  0  0  0  0  0  0  0  0  0  0
   23.6394   -4.6152   41.9939 N   0  0  1  0  0  0  0  0  0  0  0  0
  2  1  1  0  0  0  0
  3  1  1  6  0  0  0
  3  4  1  0  0  0  0
  3  5  1  0  0  0  0
  5  6  1  1  0  0  0
  5  7  1  0  0  0  0
  7  8  1  1  0  0  0
  7  9  1  0  0  0  0
  9  4  1  1  0  0  0
  9 20  1  0  0  0  0
 10 11  1  0  0  0  0
 11 12  1  6  0  0  0
 11 13  1  0  0  0  0
 14 13  1  1  0  0  0
 15 14  1  0  0  0  0
 15 16  1  1  0  0  0
 16 10  1  0  0  0  0
 16 17  2  0  0  0  0
 18 15  1  0  0  0  0
 19 18  1  0  0  0  0
 20 14  1  0  0  0  0
 20 19  1  1  0  0  0
M  END
>  <CHROM.1>
178.28274113,-160.21934670,23.82445122,-5.11982495,41.81907930,-1.05103622
-0.78394595,-0.67379645

>  <Name>
1nyi_lig

>  <RI>
0

>  <Rbt.Current_Directory>
/home/itssahil/PROJECTS/Mol_Feturizer/New_Systems/rnas/1nyi

>  <Rbt.Executable>
rbdock ($Id: //depot/dev/client3/rdock/2013.1/src/exe/rbdock.cxx#4 $)

>  <Rbt.Library>
libRbt.so (2013.1, Build901 2013/11/27)

>  <Rbt.Parameter_File>
/export/apps/rDock/src/rDock_2013.1_src/data/scripts/dock_solv.prm

>  <Rbt.Receptor>
prm/pocket_docking_8.prm

>  <SCORE>
-8.81514

>  <SCORE.INTER>
-6.99544

>  <SCORE.INTER.CONST>
1

>  <SCORE.INTER.POLAR>
-0.698637

>  <SCORE.INTER.ROT>
2

>  <SCORE.INTER.SOLV>
8.50618

>  <SCORE.INTER.VDW>
-10.1036

>  <SCORE.INTER.norm>
-0.349772

>  <SCORE.INTRA>
-1.8197

>  <SCORE.INTRA.DIHEDRAL>
-2.42258

>  <SCORE.INTRA.DIHEDRAL.0>
3.72394

>  <SCORE.INTRA.POLAR>
0

>  <SCORE.INTRA.POLAR.0>
0

>  <SCORE.INTRA.REPUL>
0

>  <SCORE.INTRA.REPUL.0>
0

>  <SCORE.INTRA.SOLV>
-0.53631

>  <SCORE.INTRA.SOLV.lig_0>
-49.4697

>  <SCORE.INTRA.VDW>
-0.340251

>  <SCORE.INTRA.VDW.0>
-0.896538

>  <SCORE.INTRA.norm>
-0.0909848

>  <SCORE.RESTR>
0

>  <SCORE.RESTR.CAVITY>
0

>  <SCORE.RESTR.norm>
0

>  <SCORE.SYSTEM>
0

>  <SCORE.SYSTEM.CONST>
0

>  <SCORE.SYSTEM.DIHEDRAL>
0

>  <SCORE.SYSTEM.SOLV>
0

>  <SCORE.SYSTEM.norm>
0

>  <SCORE.heavy>
20

>  <SCORE.norm>
-0.440757

>  <RMSD>
5.829

$$$$
1nyi_lig
 OpenBabel11021811403D
libRbt.so/2013.1/901 2013/11/27
 20 22  0  0  0  0  0  0  0  0999 V2000
   20.5415   -1.8801   40.9253 C   0  0  0  0  0  0  0  0  0  0  0  0
   20.1652   -1.3081   42.1780 O   0  0  0  0  0  0  0  0  0  0  0  0
   22.0317   -2.1348   40.8745 C   0  0  1  0  0  0  0  0  0  0  0  0
   22.4127   -2.9341   42.0270 O   0  0  0  0  0  0  0  0  0  0  0  0
   22.4450   -2.9451   39.6510 C   0  0  1  0  0  0  0  0  0  0  0  0
   22.7715   -2.0988   38.5476 O   0  0  0  0  0  0  0  0  0  0  0  0
   23.6335   -3.7455   40.1797 C   0  0  1  0  0  0  0  0  0  0  0  0
   24.8347   -2.9906   40.2340 O   0  0  0  0  0  0  0  0  0  0  0  0
   23.1518   -4.0691   41.5923 C   0  0  2  0  0  0  0  0  0  0  0  0
   18.8929   -6.7119   40.4235 N   0  0  0  0  0  0  0  0  0  0  0  0
   19.2716   -5.4499   40.0348 C   0  0  1  0  0  0  0  0  0  0  0  0
   18.4124   -4.8127   39.2380 N   0  0  0  0  0  0  0  0  0  0  0  0
   20.4039   -4.8570   40.4025 N   0  0  0  0  0  0  0  0  0  0  0  0
   21.1564   -5.6436   41.2261 C   0  0  1  0  0  0  0  0  0  0  0  0
   20.8625   -6.9204   41.6712 C   0  0  1  0  0  0  0  0  0  0  0  0
   19.6495   -7.5368   41.2554 C   0  0  0  0  0  0  0  0  0  0  0  0
   19.2178   -8.6606   41.5422 O   0  0  0  0  0  0  0  0  0  0  0  0
   21.8823   -7.4009   42.4825 N   0  0  0  0  0  0  0  0  0  0  0  0
   22.7521   -6.4294   42.5209 C   0  0  0  0  0  0  0  0  0  0  0  0
   22.3851   -5.3209   41.7898 N   0  0  1  0  0  0  0  0  0  0  0  0
  2  1  1  0  0  0  0
  3  1  1  6  0  0  0
  3  4  1  0  0  0  0
  3  5  1  0  0  0  0
  5  6  1  6  0  0  0
  5  7  1  0  0  0  0
  7  8  1  1  0  0  0
  7  9  1  0  0  0  0
  9  4  1  6  0  0  0
  9 20  1  0  0  0  0
 10 11  1  0  0  0  0
 11 12  1  1  0  0  0
 11 13  1  0  0  0  0
 14 13  1  6  0  0  0
 15 14  1  0  0  0  0
 15 16  1  6  0  0  0
 16 10  1  0  0  0  0
 16 17  2  0  0  0  0
 18 15  1  0  0  0  0
 19 18  1  0  0  0  0
 20 14  1  0  0  0  0
 20 19  1  6  0  0  0
M  END
>  <CHROM.1>
53.80179782,60.33065501,21.36374243,-4.64029427,40.94122768,1.03188756,-0.23929444
-0.30035637

>  <Name>
1nyi_lig

>  <RI>
0

>  <Rbt.Current_Directory>
/home/itssahil/PROJECTS/Mol_Feturizer/New_Systems/rnas/1nyi

>  <Rbt.Executable>
rbdock ($Id: //depot/dev/client3/rdock/2013.1/src/exe/rbdock.cxx#4 $)

>  <Rbt.Library>
libRbt.so (2013.1, Build901 2013/11/27)

>  <Rbt.Parameter_File>
/export/apps/rDock/src/rDock_2013.1_src/data/scripts/dock_solv.prm

>  <Rbt.Receptor>
prm/pocket_docking_7.prm

>  <SCORE>
-9.51265

>  <SCORE.INTER>
-7.94067

>  <SCORE.INTER.CONST>
1

>  <SCORE.INTER.POLAR>
-0.883323

>  <SCORE.INTER.ROT>
2

>  <SCORE.INTER.SOLV>
9.38077

>  <SCORE.INTER.VDW>
-10.4096

>  <SCORE.INTER.norm>
-0.397034

>  <SCORE.INTRA>
-1.57198

>  <SCORE.INTRA.DIHEDRAL>
-2.3765

>  <SCORE.INTRA.DIHEDRAL.0>
3.72394

>  <SCORE.INTRA.POLAR>
0

>  <SCORE.INTRA.POLAR.0>
0

>  <SCORE.INTRA.REPUL>
0

>  <SCORE.INTRA.REPUL.0>
0

>  <SCORE.INTRA.SOLV>
1.57284

>  <SCORE.INTRA.SOLV.lig_0>
-49.4697

>  <SCORE.INTRA.VDW>
-1.17015

>  <SCORE.INTRA.VDW.0>
-0.896538

>  <SCORE.INTRA.norm>
-0.078599

>  <SCORE.RESTR>
0

>  <SCORE.RESTR.CAVITY>
0

>  <SCORE.RESTR.norm>
0

>  <SCORE.SYSTEM>
0

>  <SCORE.SYSTEM.CONST>
0

>  <SCORE.SYSTEM.DIHEDRAL>
0

>  <SCORE.SYSTEM.SOLV>
0

>  <SCORE.SYSTEM.norm>
0

>  <SCORE.heavy>
20

>  <SCORE.norm>
-0.475633

>  <RMSD>
5.830

$$$$
1nyi_lig
 OpenBabel11021811403D
libRbt.so/2013.1/901 2013/11/27
 20 22  0  0  0  0  0  0  0  0999 V2000
   26.3302   -8.1186   43.4833 C   0  0  0  0  0  0  0  0  0  0  0  0
   27.2086   -8.5679   44.5151 O   0  0  0  0  0  0  0  0  0  0  0  0
   25.0982   -7.4660   44.0701 C   0  0  1  0  0  0  0  0  0  0  0  0
   25.4994   -6.2796   44.8076 O   0  0  0  0  0  0  0  0  0  0  0  0
   24.1268   -6.9818   42.9994 C   0  0  1  0  0  0  0  0  0  0  0  0
   23.1695   -7.9883   42.6663 O   0  0  0  0  0  0  0  0  0  0  0  0
   23.5120   -5.7470   43.6551 C   0  0  1  0  0  0  0  0  0  0  0  0
   22.5004   -6.0623   44.6000 O   0  0  0  0  0  0  0  0  0  0  0  0
   24.7324   -5.1659   44.3659 C   0  0  2  0  0  0  0  0  0  0  0  0
   29.2325   -2.6789   44.1365 N   0  0  0  0  0  0  0  0  0  0  0  0
   28.7669   -3.5558   45.0859 C   0  0  1  0  0  0  0  0  0  0  0  0
   29.6001   -3.8013   46.0982 N   0  0  0  0  0  0  0  0  0  0  0  0
   27.5746   -4.1438   45.0474 N   0  0  0  0  0  0  0  0  0  0  0  0
   26.8486   -3.7711   43.9532 C   0  0  1  0  0  0  0  0  0  0  0  0
   27.2283   -2.8999   42.9473 C   0  0  1  0  0  0  0  0  0  0  0  0
   28.5131   -2.2916   43.0062 C   0  0  0  0  0  0  0  0  0  0  0  0
   29.0272   -1.4967   42.2091 O   0  0  0  0  0  0  0  0  0  0  0  0
   26.2233   -2.7864   41.9953 N   0  0  0  0  0  0  0  0  0  0  0  0
   25.2722   -3.5650   42.4323 C   0  0  0  0  0  0  0  0  0  0  0  0
   25.5679   -4.1962   43.6207 N   0  0  1  0  0  0  0  0  0  0  0  0
  2  1  1  0  0  0  0
  3  1  1  6  0  0  0
  3  4  1  0  0  0  0
  3  5  1  0  0  0  0
  5  6  1  1  0  0  0
  5  7  1  0  0  0  0
  7  8  1  1  0  0  0
  7  9  1  0  0  0  0
  9  4  1  6  0  0  0
  9 20  1  0  0  0  0
 10 11  1  0  0  0  0
 11 12  1  1  0  0  0
 11 13  1  0  0  0  0
 14 13  1  6  0  0  0
 15 14  1  0  0  0  0
 15 16  1  6  0  0  0
 16 10  1  0  0  0  0
 16 17  2  0  0  0  0
 18 15  1  0  0  0  0
 19 18  1  0  0  0  0
 20 14  1  0  0  0  0
 20 19  1  6  0  0  0
M  END
>  <CHROM.1>
63.43739079,-42.38778181,26.27010946,-4.93419025,43.78720984,-2.41929577
-0.38694718,-0.40859406

>  <Name>
1nyi_lig

>  <RI>
0

>  <Rbt.Current_Directory>
/home/itssahil/PROJECTS/Mol_Feturizer/New_Systems/rnas/1nyi

>  <Rbt.Executable>
rbdock ($Id: //depot/dev/client3/rdock/2013.1/src/exe/rbdock.cxx#4 $)

>  <Rbt.Library>
libRbt.so (2013.1, Build901 2013/11/27)

>  <Rbt.Parameter_File>
/export/apps/rDock/src/rDock_2013.1_src/data/scripts/dock_solv.prm

>  <Rbt.Receptor>
prm/pocket_docking_2.prm

>  <SCORE>
-5.5025

>  <SCORE.INTER>
-5.46003

>  <SCORE.INTER.CONST>
1

>  <SCORE.INTER.POLAR>
-0.551899

>  <SCORE.INTER.ROT>
2

>  <SCORE.INTER.SOLV>
10.1045

>  <SCORE.INTER.VDW>
-10.1018

>  <SCORE.INTER.norm>
-0.273001

>  <SCORE.INTRA>
-1.4592

>  <SCORE.INTRA.DIHEDRAL>
-2.39195

>  <SCORE.INTRA.DIHEDRAL.0>
3.72394

>  <SCORE.INTRA.POLAR>
0

>  <SCORE.INTRA.POLAR.0>
0

>  <SCORE.INTRA.REPUL>
0.0467748

>  <SCORE.INTRA.REPUL.0>
0

>  <SCORE.INTRA.SOLV>
-0.417582

>  <SCORE.INTRA.SOLV.lig_0>
-49.4697

>  <SCORE.INTRA.VDW>
-0.288304

>  <SCORE.INTRA.VDW.0>
-0.896538

>  <SCORE.INTRA.norm>
-0.0729599

>  <SCORE.RESTR>
1.41673

>  <SCORE.RESTR.CAVITY>
1.41673

>  <SCORE.RESTR.norm>
0.0708363

>  <SCORE.SYSTEM>
0

>  <SCORE.SYSTEM.CONST>
0

>  <SCORE.SYSTEM.DIHEDRAL>
0

>  <SCORE.SYSTEM.SOLV>
0

>  <SCORE.SYSTEM.norm>
0

>  <SCORE.heavy>
20

>  <SCORE.norm>
-0.275125

>  <RMSD>
5.864

$$$$
1nyi_lig
 OpenBabel11021811403D
libRbt.so/2013.1/901 2013/11/27
 20 22  0  0  0  0  0  0  0  0999 V2000
   26.3201   -8.1201   43.4776 C   0  0  0  0  0  0  0  0  0  0  0  0
   27.1881   -8.5921   44.5081 O   0  0  0  0  0  0  0  0  0  0  0  0
   25.0905   -7.4646   44.0663 C   0  0  1  0  0  0  0  0  0  0  0  0
   25.4960   -6.2809   44.8057 O   0  0  0  0  0  0  0  0  0  0  0  0
   24.1201   -6.9753   42.9970 C   0  0  1  0  0  0  0  0  0  0  0  0
   23.1595   -7.9781   42.6626 O   0  0  0  0  0  0  0  0  0  0  0  0
   23.5097   -5.7398   43.6553 C   0  0  1  0  0  0  0  0  0  0  0  0
   22.4976   -6.0536   44.6002 O   0  0  0  0  0  0  0  0  0  0  0  0
   24.7323   -5.1640   44.3666 C   0  0  2  0  0  0  0  0  0  0  0  0
   29.2384   -2.6874   44.1420 N   0  0  0  0  0  0  0  0  0  0  0  0
   28.7702   -3.5641   45.0903 C   0  0  1  0  0  0  0  0  0  0  0  0
   29.6023   -3.8125   46.1028 N   0  0  0  0  0  0  0  0  0  0  0  0
   27.5766   -4.1492   45.0506 N   0  0  0  0  0  0  0  0  0  0  0  0
   26.8521   -3.7738   43.9563 C   0  0  1  0  0  0  0  0  0  0  0  0
   27.2344   -2.9026   42.9515 C   0  0  1  0  0  0  0  0  0  0  0  0
   28.5206   -2.2974   43.0117 C   0  0  0  0  0  0  0  0  0  0  0  0
   29.0371   -1.5030   42.2156 O   0  0  0  0  0  0  0  0  0  0  0  0
   26.2302   -2.7858   41.9990 N   0  0  0  0  0  0  0  0  0  0  0  0
   25.2770   -3.5625   42.4348 C   0  0  0  0  0  0  0  0  0  0  0  0
   25.5706   -4.1955   43.6227 N   0  0  1  0  0  0  0  0  0  0  0  0
  2  1  1  0  0  0  0
  3  1  1  6  0  0  0
  3  4  1  0  0  0  0
  3  5  1  0  0  0  0
  5  6  1  1  0  0  0
  5  7  1  0  0  0  0
  7  8  1  1  0  0  0
  7  9  1  0  0  0  0
  9  4  1  6  0  0  0
  9 20  1  0  0  0  0
 10 11  1  0  0  0  0
 11 12  1  1  0  0  0
 11 13  1  0  0  0  0
 14 13  1  6  0  0  0
 15 14  1  0  0  0  0
 15 16  1  6  0  0  0
 16 10  1  0  0  0  0
 16 17  2  0  0  0  0
 18 15  1  0  0  0  0
 19 18  1  0  0  0  0
 20 14  1  0  0  0  0
 20 19  1  6  0  0  0
M  END
>  <CHROM.1>
64.30998945,-42.48402155,26.26943784,-4.93615702,43.78818905,-2.42108131
-0.38600320,-0.40749301

>  <Name>
1nyi_lig

>  <RI>
0

>  <Rbt.Current_Directory>
/home/itssahil/PROJECTS/Mol_Feturizer/New_Systems/rnas/1nyi

>  <Rbt.Executable>
rbdock ($Id: //depot/dev/client3/rdock/2013.1/src/exe/rbdock.cxx#4 $)

>  <Rbt.Library>
libRbt.so (2013.1, Build901 2013/11/27)

>  <Rbt.Parameter_File>
/export/apps/rDock/src/rDock_2013.1_src/data/scripts/dock_solv.prm

>  <Rbt.Receptor>
prm/pocket_docking_2.prm

>  <SCORE>
-5.51517

>  <SCORE.INTER>
-5.48962

>  <SCORE.INTER.CONST>
1

>  <SCORE.INTER.POLAR>
-0.557785

>  <SCORE.INTER.ROT>
2

>  <SCORE.INTER.SOLV>
10.0995

>  <SCORE.INTER.VDW>
-10.1003

>  <SCORE.INTER.norm>
-0.274481

>  <SCORE.INTRA>
-1.45091

>  <SCORE.INTRA.DIHEDRAL>
-2.36732

>  <SCORE.INTRA.DIHEDRAL.0>
3.72394

>  <SCORE.INTRA.POLAR>
0

>  <SCORE.INTRA.POLAR.0>
0

>  <SCORE.INTRA.REPUL>
0.0465569

>  <SCORE.INTRA.REPUL.0>
0

>  <SCORE.INTRA.SOLV>
-0.422597

>  <SCORE.INTRA.SOLV.lig_0>
-49.4697

>  <SCORE.INTRA.VDW>
-0.28874

>  <SCORE.INTRA.VDW.0>
-0.896538

>  <SCORE.INTRA.norm>
-0.0725457

>  <SCORE.RESTR>
1.42536

>  <SCORE.RESTR.CAVITY>
1.42536

>  <SCORE.RESTR.norm>
0.0712681

>  <SCORE.SYSTEM>
0

>  <SCORE.SYSTEM.CONST>
0

>  <SCORE.SYSTEM.DIHEDRAL>
0

>  <SCORE.SYSTEM.SOLV>
0

>  <SCORE.SYSTEM.norm>
0

>  <SCORE.heavy>
20

>  <SCORE.norm>
-0.275758

>  <RMSD>
5.865

$$$$
1nyi_lig
 OpenBabel11021811403D
libRbt.so/2013.1/901 2013/11/27
 20 22  0  0  0  0  0  0  0  0999 V2000
   21.3122   -5.8940   41.4060 C   0  0  0  0  0  0  0  0  0  0  0  0
   21.4649   -6.8338   40.3422 O   0  0  0  0  0  0  0  0  0  0  0  0
   21.1168   -6.6028   42.7280 C   0  0  1  0  0  0  0  0  0  0  0  0
   22.2739   -7.4429   42.9877 O   0  0  0  0  0  0  0  0  0  0  0  0
   21.0326   -5.6352   43.9032 C   0  0  1  0  0  0  0  0  0  0  0  0
   19.6843   -5.2414   44.1625 O   0  0  0  0  0  0  0  0  0  0  0  0
   21.6607   -6.4459   45.0350 C   0  0  1  0  0  0  0  0  0  0  0  0
   20.7712   -7.3974   45.6000 O   0  0  0  0  0  0  0  0  0  0  0  0
   22.7842   -7.1577   44.2846 C   0  0  2  0  0  0  0  0  0  0  0  0
   27.8990   -7.7305   44.3066 N   0  0  0  0  0  0  0  0  0  0  0  0
   26.9136   -8.6782   44.4421 C   0  0  1  0  0  0  0  0  0  0  0  0
   27.3409   -9.9314   44.6032 N   0  0  0  0  0  0  0  0  0  0  0  0
   25.6099   -8.4162   44.4246 N   0  0  0  0  0  0  0  0  0  0  0  0
   25.3511   -7.0856   44.2645 C   0  0  1  0  0  0  0  0  0  0  0  0
   26.2693   -6.0604   44.1202 C   0  0  1  0  0  0  0  0  0  0  0  0
   27.6584   -6.3679   44.1320 C   0  0  0  0  0  0  0  0  0  0  0  0
   28.6198   -5.5974   44.0161 O   0  0  0  0  0  0  0  0  0  0  0  0
   25.6201   -4.8425   43.9641 N   0  0  0  0  0  0  0  0  0  0  0  0
   24.3514   -5.1407   44.0223 C   0  0  0  0  0  0  0  0  0  0  0  0
   24.1004   -6.4822   44.2105 N   0  0  1  0  0  0  0  0  0  0  0  0
  2  1  1  0  0  0  0
  3  1  1  6  0  0  0
  3  4  1  0  0  0  0
  3  5  1  0  0  0  0
  5  6  1  1  0  0  0
  5  7  1  0  0  0  0
  7  8  1  6  0  0  0
  7  9  1  0  0  0  0
  9  4  1  6  0  0  0
  9 20  1  0  0  0  0
 10 11  1  0  0  0  0
 11 12  1  1  0  0  0
 11 13  1  0  0  0  0
 14 13  1  6  0  0  0
 15 14  1  0  0  0  0
 15 16  1  6  0  0  0
 16 10  1  0  0  0  0
 16 17  2  0  0  0  0
 18 15  1  0  0  0  0
 19 18  1  0  0  0  0
 20 14  1  0  0  0  0
 20 19  1  6  0  0  0
M  END
>  <CHROM.1>
59.53691148,-94.04316970,24.02442032,-6.74152493,43.82402267,-2.92671796
0.05220028,2.59021417

>  <Name>
1nyi_lig

>  <RI>
0

>  <Rbt.Current_Directory>
/home/itssahil/PROJECTS/Mol_Feturizer/New_Systems/rnas/1nyi

>  <Rbt.Executable>
rbdock ($Id: //depot/dev/client3/rdock/2013.1/src/exe/rbdock.cxx#4 $)

>  <Rbt.Library>
libRbt.so (2013.1, Build901 2013/11/27)

>  <Rbt.Parameter_File>
/export/apps/rDock/src/rDock_2013.1_src/data/scripts/dock_solv.prm

>  <Rbt.Receptor>
prm/pocket_docking_4.prm

>  <SCORE>
-8.44665

>  <SCORE.INTER>
-6.49074

>  <SCORE.INTER.CONST>
1

>  <SCORE.INTER.POLAR>
-1.05711

>  <SCORE.INTER.ROT>
2

>  <SCORE.INTER.SOLV>
7.87574

>  <SCORE.INTER.VDW>
-8.36204

>  <SCORE.INTER.norm>
-0.324537

>  <SCORE.INTRA>
-2.01626

>  <SCORE.INTRA.DIHEDRAL>
-2.58524

>  <SCORE.INTRA.DIHEDRAL.0>
3.72394

>  <SCORE.INTRA.POLAR>
0

>  <SCORE.INTRA.POLAR.0>
0

>  <SCORE.INTRA.REPUL>
0

>  <SCORE.INTRA.REPUL.0>
0

>  <SCORE.INTRA.SOLV>
-0.832365

>  <SCORE.INTRA.SOLV.lig_0>
-49.4697

>  <SCORE.INTRA.VDW>
-0.307458

>  <SCORE.INTRA.VDW.0>
-0.896538

>  <SCORE.INTRA.norm>
-0.100813

>  <SCORE.RESTR>
0.0603539

>  <SCORE.RESTR.CAVITY>
0.0603539

>  <SCORE.RESTR.norm>
0.00301769

>  <SCORE.SYSTEM>
0

>  <SCORE.SYSTEM.CONST>
0

>  <SCORE.SYSTEM.DIHEDRAL>
0

>  <SCORE.SYSTEM.SOLV>
0

>  <SCORE.SYSTEM.norm>
0

>  <SCORE.heavy>
20

>  <SCORE.norm>
-0.422333

>  <RMSD>
5.869

$$$$
1nyi_lig
 OpenBabel11021811403D
libRbt.so/2013.1/901 2013/11/27
 20 22  0  0  0  0  0  0  0  0999 V2000
   24.2148   -4.3335   45.1471 C   0  0  0  0  0  0  0  0  0  0  0  0
   23.5799   -3.9711   46.3733 O   0  0  0  0  0  0  0  0  0  0  0  0
   23.4595   -5.4479   44.4574 C   0  0  1  0  0  0  0  0  0  0  0  0
   22.1145   -4.9881   44.1541 O   0  0  0  0  0  0  0  0  0  0  0  0
   24.0794   -5.8333   43.1189 C   0  0  1  0  0  0  0  0  0  0  0  0
   25.0456   -6.8746   43.2691 O   0  0  0  0  0  0  0  0  0  0  0  0
   22.8563   -6.2477   42.3035 C   0  0  1  0  0  0  0  0  0  0  0  0
   22.4018   -7.5582   42.6061 O   0  0  0  0  0  0  0  0  0  0  0  0
   21.8360   -5.2151   42.7777 C   0  0  2  0  0  0  0  0  0  0  0  0
   23.3026   -2.5892   38.6012 N   0  0  0  0  0  0  0  0  0  0  0  0
   23.6541   -3.8543   39.0053 C   0  0  1  0  0  0  0  0  0  0  0  0
   24.4991   -4.4998   38.2001 N   0  0  0  0  0  0  0  0  0  0  0  0
   23.2137   -4.4395   40.1153 N   0  0  0  0  0  0  0  0  0  0  0  0
   22.3703   -3.6347   40.8254 C   0  0  1  0  0  0  0  0  0  0  0  0
   21.9582   -2.3536   40.5030 C   0  0  1  0  0  0  0  0  0  0  0  0
   22.4356   -1.7534   39.3047 C   0  0  0  0  0  0  0  0  0  0  0  0
   22.1815   -0.6307   38.8502 O   0  0  0  0  0  0  0  0  0  0  0  0
   21.0840   -1.8657   41.4658 N   0  0  0  0  0  0  0  0  0  0  0  0
   20.9888   -2.8315   42.3376 C   0  0  0  0  0  0  0  0  0  0  0  0
   21.7446   -3.9409   42.0279 N   0  0  1  0  0  0  0  0  0  0  0  0
  2  1  1  0  0  0  0
  3  1  1  6  0  0  0
  3  4  1  0  0  0  0
  3  5  1  0  0  0  0
  5  6  1  1  0  0  0
  5  7  1  0  0  0  0
  7  8  1  1  0  0  0
  7  9  1  0  0  0  0
  9  4  1  1  0  0  0
  9 20  1  0  0  0  0
 10 11  1  0  0  0  0
 11 12  1  1  0  0  0
 11 13  1  0  0  0  0
 14 13  1  6  0  0  0
 15 14  1  0  0  0  0
 15 16  1  6  0  0  0
 16 10  1  0  0  0  0
 16 17  2  0  0  0  0
 18 15  1  0  0  0  0
 19 18  1  0  0  0  0
 20 14  1  0  0  0  0
 20 19  1  6  0  0  0
M  END
>  <CHROM.1>
61.02366655,131.66323860,22.86060443,-4.17086035,41.83321821,1.29177161,-1.06818450
1.89164527

>  <Name>
1nyi_lig

>  <RI>
0

>  <Rbt.Current_Directory>
/home/itssahil/PROJECTS/Mol_Feturizer/New_Systems/rnas/1nyi

>  <Rbt.Executable>
rbdock ($Id: //depot/dev/client3/rdock/2013.1/src/exe/rbdock.cxx#4 $)

>  <Rbt.Library>
libRbt.so (2013.1, Build901 2013/11/27)

>  <Rbt.Parameter_File>
/export/apps/rDock/src/rDock_2013.1_src/data/scripts/dock_solv.prm

>  <Rbt.Receptor>
prm/pocket_docking_7.prm

>  <SCORE>
-11.1367

>  <SCORE.INTER>
-9.52731

>  <SCORE.INTER.CONST>
1

>  <SCORE.INTER.POLAR>
-1.6414

>  <SCORE.INTER.ROT>
2

>  <SCORE.INTER.SOLV>
10.5772

>  <SCORE.INTER.VDW>
-9.33929

>  <SCORE.INTER.norm>
-0.476366

>  <SCORE.INTRA>
-1.60937

>  <SCORE.INTRA.DIHEDRAL>
-2.54211

>  <SCORE.INTRA.DIHEDRAL.0>
3.72394

>  <SCORE.INTRA.POLAR>
0

>  <SCORE.INTRA.POLAR.0>
0

>  <SCORE.INTRA.REPUL>
0

>  <SCORE.INTRA.REPUL.0>
0

>  <SCORE.INTRA.SOLV>
-0.0825272

>  <SCORE.INTRA.SOLV.lig_0>
-49.4697

>  <SCORE.INTRA.VDW>
-0.297051

>  <SCORE.INTRA.VDW.0>
-0.896538

>  <SCORE.INTRA.norm>
-0.0804684

>  <SCORE.RESTR>
0

>  <SCORE.RESTR.CAVITY>
0

>  <SCORE.RESTR.norm>
0

>  <SCORE.SYSTEM>
0

>  <SCORE.SYSTEM.CONST>
0

>  <SCORE.SYSTEM.DIHEDRAL>
0

>  <SCORE.SYSTEM.SOLV>
0

>  <SCORE.SYSTEM.norm>
0

>  <SCORE.heavy>
20

>  <SCORE.norm>
-0.556834

>  <RMSD>
5.869

$$$$
1nyi_lig
 OpenBabel11021811403D
libRbt.so/2013.1/901 2013/11/27
 20 22  0  0  0  0  0  0  0  0999 V2000
   22.8695   -6.3779   44.0569 C   0  0  0  0  0  0  0  0  0  0  0  0
   22.0058   -7.2492   43.3270 O   0  0  0  0  0  0  0  0  0  0  0  0
   22.9142   -5.0060   43.4213 C   0  0  1  0  0  0  0  0  0  0  0  0
   23.7631   -4.1421   44.2246 O   0  0  0  0  0  0  0  0  0  0  0  0
   23.5382   -5.0262   42.0304 C   0  0  1  0  0  0  0  0  0  0  0  0
   22.5522   -5.2254   41.0163 O   0  0  0  0  0  0  0  0  0  0  0  0
   24.2183   -3.6604   41.9613 C   0  0  1  0  0  0  0  0  0  0  0  0
   23.3170   -2.6022   41.6723 O   0  0  0  0  0  0  0  0  0  0  0  0
   24.7401   -3.5306   43.3907 C   0  0  2  0  0  0  0  0  0  0  0  0
   29.7711   -2.4693   43.6160 N   0  0  0  0  0  0  0  0  0  0  0  0
   28.7247   -1.6628   43.2396 C   0  0  1  0  0  0  0  0  0  0  0  0
   29.0569   -0.4224   42.8789 N   0  0  0  0  0  0  0  0  0  0  0  0
   27.4510   -2.0447   43.2152 N   0  0  0  0  0  0  0  0  0  0  0  0
   27.2927   -3.3445   43.6010 C   0  0  1  0  0  0  0  0  0  0  0  0
   28.2783   -4.2319   43.9958 C   0  0  1  0  0  0  0  0  0  0  0  0
   29.6323   -3.7960   44.0231 C   0  0  0  0  0  0  0  0  0  0  0  0
   30.6418   -4.4349   44.3460 O   0  0  0  0  0  0  0  0  0  0  0  0
   27.7232   -5.4605   44.3297 N   0  0  0  0  0  0  0  0  0  0  0  0
   26.4435   -5.3041   44.1298 C   0  0  0  0  0  0  0  0  0  0  0  0
   26.0973   -4.0490   43.6793 N   0  0  1  0  0  0  0  0  0  0  0  0
  2  1  1  0  0  0  0
  3  1  1  1  0  0  0
  3  4  1  0  0  0  0
  3  5  1  0  0  0  0
  5  6  1  6  0  0  0
  5  7  1  0  0  0  0
  7  8  1  1  0  0  0
  7  9  1  0  0  0  0
  9  4  1  1  0  0  0
  9 20  1  0  0  0  0
 10 11  1  0  0  0  0
 11 12  1  6  0  0  0
 11 13  1  0  0  0  0
 14 13  1  1  0  0  0
 15 14  1  0  0  0  0
 15 16  1  1  0  0  0
 16 10  1  0  0  0  0
 16 17  2  0  0  0  0
 18 15  1  0  0  0  0
 19 18  1  0  0  0  0
 20 14  1  0  0  0  0
 20 19  1  1  0  0  0
M  END
>  <CHROM.1>
177.87640621,-146.72917767,25.97872223,-4.03501325,43.29426686,-2.87110230
-0.28972323,-0.43499960

>  <Name>
1nyi_lig

>  <RI>
0

>  <Rbt.Current_Directory>
/home/itssahil/PROJECTS/Mol_Feturizer/New_Systems/rnas/1nyi

>  <Rbt.Executable>
rbdock ($Id: //depot/dev/client3/rdock/2013.1/src/exe/rbdock.cxx#4 $)

>  <Rbt.Library>
libRbt.so (2013.1, Build901 2013/11/27)

>  <Rbt.Parameter_File>
/export/apps/rDock/src/rDock_2013.1_src/data/scripts/dock_solv.prm

>  <Rbt.Receptor>
prm/pocket_docking_5.prm

>  <SCORE>
-9.62048

>  <SCORE.INTER>
-7.71449

>  <SCORE.INTER.CONST>
1

>  <SCORE.INTER.POLAR>
-0.968242

>  <SCORE.INTER.ROT>
2

>  <SCORE.INTER.SOLV>
12.0503

>  <SCORE.INTER.VDW>
-10.8656

>  <SCORE.INTER.norm>
-0.385725

>  <SCORE.INTRA>
-1.90598

>  <SCORE.INTRA.DIHEDRAL>
-2.4023

>  <SCORE.INTRA.DIHEDRAL.0>
3.72394

>  <SCORE.INTRA.POLAR>
0

>  <SCORE.INTRA.POLAR.0>
0

>  <SCORE.INTRA.REPUL>
0

>  <SCORE.INTRA.REPUL.0>
0

>  <SCORE.INTRA.SOLV>
-0.62168

>  <SCORE.INTRA.SOLV.lig_0>
-49.4697

>  <SCORE.INTRA.VDW>
-0.393993

>  <SCORE.INTRA.VDW.0>
-0.896538

>  <SCORE.INTRA.norm>
-0.0952992

>  <SCORE.RESTR>
0

>  <SCORE.RESTR.CAVITY>
0

>  <SCORE.RESTR.norm>
0

>  <SCORE.SYSTEM>
0

>  <SCORE.SYSTEM.CONST>
0

>  <SCORE.SYSTEM.DIHEDRAL>
0

>  <SCORE.SYSTEM.SOLV>
0

>  <SCORE.SYSTEM.norm>
0

>  <SCORE.heavy>
20

>  <SCORE.norm>
-0.481024

>  <RMSD>
5.872

$$$$
1nyi_lig
 OpenBabel11021811403D
libRbt.so/2013.1/901 2013/11/27
 20 22  0  0  0  0  0  0  0  0999 V2000
   22.8391   -6.8610   44.3776 C   0  0  0  0  0  0  0  0  0  0  0  0
   22.6054   -8.2689   44.3450 O   0  0  0  0  0  0  0  0  0  0  0  0
   21.9754   -6.1471   43.3614 C   0  0  1  0  0  0  0  0  0  0  0  0
   22.1916   -4.7151   43.4822 O   0  0  0  0  0  0  0  0  0  0  0  0
   22.3453   -6.5042   41.9260 C   0  0  1  0  0  0  0  0  0  0  0  0
   21.5951   -7.6247   41.4546 O   0  0  0  0  0  0  0  0  0  0  0  0
   22.0389   -5.2067   41.1808 C   0  0  1  0  0  0  0  0  0  0  0  0
   20.6565   -5.0331   40.9081 O   0  0  0  0  0  0  0  0  0  0  0  0
   22.5063   -4.1744   42.2046 C   0  0  2  0  0  0  0  0  0  0  0  0
   27.0220   -3.8805   44.6563 N   0  0  0  0  0  0  0  0  0  0  0  0
   25.8210   -4.3822   45.0956 C   0  0  1  0  0  0  0  0  0  0  0  0
   25.8209   -4.8648   46.3391 N   0  0  0  0  0  0  0  0  0  0  0  0
   24.7051   -4.4055   44.3724 N   0  0  0  0  0  0  0  0  0  0  0  0
   24.8802   -3.8619   43.1326 C   0  0  1  0  0  0  0  0  0  0  0  0
   26.0436   -3.3339   42.6011 C   0  0  1  0  0  0  0  0  0  0  0  0
   27.2267   -3.3299   43.3914 C   0  0  0  0  0  0  0  0  0  0  0  0
   28.3516   -2.9086   43.0937 O   0  0  0  0  0  0  0  0  0  0  0  0
   25.8295   -2.8910   41.3022 N   0  0  0  0  0  0  0  0  0  0  0  0
   24.5699   -3.1446   41.0760 C   0  0  0  0  0  0  0  0  0  0  0  0
   23.9172   -3.7282   42.1396 N   0  0  1  0  0  0  0  0  0  0  0  0
  2  1  1  0  0  0  0
  3  1  1  1  0  0  0
  3  4  1  0  0  0  0
  3  5  1  0  0  0  0
  5  6  1  6  0  0  0
  5  7  1  0  0  0  0
  7  8  1  1  0  0  0
  7  9  1  0  0  0  0
  9  4  1  1  0  0  0
  9 20  1  0  0  0  0
 10 11  1  0  0  0  0
 11 12  1  1  0  0  0
 11 13  1  0  0  0  0
 14 13  1  6  0  0  0
 15 14  1  0  0  0  0
 15 16  1  6  0  0  0
 16 10  1  0  0  0  0
 16 17  2  0  0  0  0
 18 15  1  0  0  0  0
 19 18  1  0  0  0  0
 20 14  1  0  0  0  0
 20 19  1  6  0  0  0
M  END
>  <CHROM.1>
176.84710943,3.55628703,24.09934697,-4.80612545,43.01221244,-3.03680627,-0.55962525
-0.94532096

>  <Name>
1nyi_lig

>  <RI>
0

>  <Rbt.Current_Directory>
/home/itssahil/PROJECTS/Mol_Feturizer/New_Systems/rnas/1nyi

>  <Rbt.Executable>
rbdock ($Id: //depot/dev/client3/rdock/2013.1/src/exe/rbdock.cxx#4 $)

>  <Rbt.Library>
libRbt.so (2013.1, Build901 2013/11/27)

>  <Rbt.Parameter_File>
/export/apps/rDock/src/rDock_2013.1_src/data/scripts/dock_solv.prm

>  <Rbt.Receptor>
prm/pocket_docking_5.prm

>  <SCORE>
-7.78749

>  <SCORE.INTER>
-6.50374

>  <SCORE.INTER.CONST>
1

>  <SCORE.INTER.POLAR>
-1.0832

>  <SCORE.INTER.ROT>
2

>  <SCORE.INTER.SOLV>
10.4788

>  <SCORE.INTER.VDW>
-9.15142

>  <SCORE.INTER.norm>
-0.325187

>  <SCORE.INTRA>
-1.28375

>  <SCORE.INTRA.DIHEDRAL>
-2.47975

>  <SCORE.INTRA.DIHEDRAL.0>
3.72394

>  <SCORE.INTRA.POLAR>
0

>  <SCORE.INTRA.POLAR.0>
0

>  <SCORE.INTRA.REPUL>
0

>  <SCORE.INTRA.REPUL.0>
0

>  <SCORE.INTRA.SOLV>
1.15517

>  <SCORE.INTRA.SOLV.lig_0>
-49.4697

>  <SCORE.INTRA.VDW>
-0.621452

>  <SCORE.INTRA.VDW.0>
-0.896538

>  <SCORE.INTRA.norm>
-0.0641873

>  <SCORE.RESTR>
0

>  <SCORE.RESTR.CAVITY>
0

>  <SCORE.RESTR.norm>
0

>  <SCORE.SYSTEM>
0

>  <SCORE.SYSTEM.CONST>
0

>  <SCORE.SYSTEM.DIHEDRAL>
0

>  <SCORE.SYSTEM.SOLV>
0

>  <SCORE.SYSTEM.norm>
0

>  <SCORE.heavy>
20

>  <SCORE.norm>
-0.389374

>  <RMSD>
5.884

$$$$
1nyi_lig
 OpenBabel11021811403D
libRbt.so/2013.1/901 2013/11/27
 20 22  0  0  0  0  0  0  0  0999 V2000
   22.8989   -6.4517   44.1374 C   0  0  0  0  0  0  0  0  0  0  0  0
   22.0338   -7.3394   43.4292 O   0  0  0  0  0  0  0  0  0  0  0  0
   22.9194   -5.0859   43.4876 C   0  0  1  0  0  0  0  0  0  0  0  0
   23.7727   -4.2056   44.2681 O   0  0  0  0  0  0  0  0  0  0  0  0
   23.5205   -5.1138   42.0867 C   0  0  1  0  0  0  0  0  0  0  0  0
   22.5200   -5.3329   41.0912 O   0  0  0  0  0  0  0  0  0  0  0  0
   24.1857   -3.7422   41.9930 C   0  0  1  0  0  0  0  0  0  0  0  0
   23.2692   -2.6959   41.7085 O   0  0  0  0  0  0  0  0  0  0  0  0
   24.7296   -3.5930   43.4121 C   0  0  2  0  0  0  0  0  0  0  0  0
   29.7488   -2.4676   43.5867 N   0  0  0  0  0  0  0  0  0  0  0  0
   28.6879   -1.6731   43.2256 C   0  0  1  0  0  0  0  0  0  0  0  0
   29.0001   -0.4269   42.8670 N   0  0  0  0  0  0  0  0  0  0  0  0
   27.4190   -2.0713   43.2136 N   0  0  0  0  0  0  0  0  0  0  0  0
   27.2818   -3.3748   43.5950 C   0  0  1  0  0  0  0  0  0  0  0  0
   28.2831   -4.2511   43.9748 C   0  0  1  0  0  0  0  0  0  0  0  0
   29.6316   -3.7978   43.9891 C   0  0  0  0  0  0  0  0  0  0  0  0
   30.6528   -4.4250   44.2979 O   0  0  0  0  0  0  0  0  0  0  0  0
   27.7476   -5.4883   44.3091 N   0  0  0  0  0  0  0  0  0  0  0  0
   26.4639   -5.3475   44.1241 C   0  0  0  0  0  0  0  0  0  0  0  0
   26.0965   -4.0950   43.6833 N   0  0  1  0  0  0  0  0  0  0  0  0
  2  1  1  0  0  0  0
  3  1  1  1  0  0  0
  3  4  1  0  0  0  0
  3  5  1  0  0  0  0
  5  6  1  6  0  0  0
  5  7  1  0  0  0  0
  7  8  1  1  0  0  0
  7  9  1  0  0  0  0
  9  4  1  1  0  0  0
  9 20  1  0  0  0  0
 10 11  1  0  0  0  0
 11 12  1  6  0  0  0
 11 13  1  0  0  0  0
 14 13  1  1  0  0  0
 15 14  1  0  0  0  0
 15 16  1  1  0  0  0
 16 10  1  0  0  0  0
 16 17  2  0  0  0  0
 18 15  1  0  0  0  0
 19 18  1  0  0  0  0
 20 14  1  0  0  0  0
 20 19  1  1  0  0  0
M  END
>  <CHROM.1>
177.97503699,-145.82451966,25.97048675,-4.08289485,43.31169666,-2.85279663
-0.28180748,-0.43050835

>  <Name>
1nyi_lig

>  <RI>
0

>  <Rbt.Current_Directory>
/home/itssahil/PROJECTS/Mol_Feturizer/New_Systems/rnas/1nyi

>  <Rbt.Executable>
rbdock ($Id: //depot/dev/client3/rdock/2013.1/src/exe/rbdock.cxx#4 $)

>  <Rbt.Library>
libRbt.so (2013.1, Build901 2013/11/27)

>  <Rbt.Parameter_File>
/export/apps/rDock/src/rDock_2013.1_src/data/scripts/dock_solv.prm

>  <Rbt.Receptor>
prm/pocket_docking_6.prm

>  <SCORE>
-9.58154

>  <SCORE.INTER>
-7.66883

>  <SCORE.INTER.CONST>
1

>  <SCORE.INTER.POLAR>
-0.960757

>  <SCORE.INTER.ROT>
2

>  <SCORE.INTER.SOLV>
12.1036

>  <SCORE.INTER.VDW>
-10.8779

>  <SCORE.INTER.norm>
-0.383441

>  <SCORE.INTRA>
-1.91271

>  <SCORE.INTRA.DIHEDRAL>
-2.40417

>  <SCORE.INTRA.DIHEDRAL.0>
3.72394

>  <SCORE.INTRA.POLAR>
0

>  <SCORE.INTRA.POLAR.0>
0

>  <SCORE.INTRA.REPUL>
0

>  <SCORE.INTRA.REPUL.0>
0

>  <SCORE.INTRA.SOLV>
-0.625366

>  <SCORE.INTRA.SOLV.lig_0>
-49.4697

>  <SCORE.INTRA.VDW>
-0.397941

>  <SCORE.INTRA.VDW.0>
-0.896538

>  <SCORE.INTRA.norm>
-0.0956355

>  <SCORE.RESTR>
0

>  <SCORE.RESTR.CAVITY>
0

>  <SCORE.RESTR.norm>
0

>  <SCORE.SYSTEM>
0

>  <SCORE.SYSTEM.CONST>
0

>  <SCORE.SYSTEM.DIHEDRAL>
0

>  <SCORE.SYSTEM.SOLV>
0

>  <SCORE.SYSTEM.norm>
0

>  <SCORE.heavy>
20

>  <SCORE.norm>
-0.479077

>  <RMSD>
5.888

$$$$
1nyi_lig
 OpenBabel11021811403D
libRbt.so/2013.1/901 2013/11/27
 20 22  0  0  0  0  0  0  0  0999 V2000
   23.1969   -6.4797   46.6760 C   0  0  0  0  0  0  0  0  0  0  0  0
   22.4761   -7.4034   47.4914 O   0  0  0  0  0  0  0  0  0  0  0  0
   23.0640   -6.8350   45.2116 C   0  0  1  0  0  0  0  0  0  0  0  0
   23.7490   -5.8281   44.4184 O   0  0  0  0  0  0  0  0  0  0  0  0
   23.7331   -8.1613   44.8687 C   0  0  1  0  0  0  0  0  0  0  0  0
   22.8232   -9.2552   44.9934 O   0  0  0  0  0  0  0  0  0  0  0  0
   24.2092   -7.9226   43.4372 C   0  0  1  0  0  0  0  0  0  0  0  0
   23.1742   -8.0590   42.4750 O   0  0  0  0  0  0  0  0  0  0  0  0
   24.6555   -6.4649   43.5260 C   0  0  2  0  0  0  0  0  0  0  0  0
   29.3650   -8.4351   44.1797 N   0  0  0  0  0  0  0  0  0  0  0  0
   28.1976   -9.0639   43.8205 C   0  0  1  0  0  0  0  0  0  0  0  0
   28.2947  -10.3774   43.6094 N   0  0  0  0  0  0  0  0  0  0  0  0
   27.0248   -8.4522   43.6826 N   0  0  0  0  0  0  0  0  0  0  0  0
   27.1035   -7.1157   43.9484 C   0  0  1  0  0  0  0  0  0  0  0  0
   28.2260   -6.3945   44.3152 C   0  0  1  0  0  0  0  0  0  0  0  0
   29.4712   -7.0703   44.4461 C   0  0  0  0  0  0  0  0  0  0  0  0
   30.5734   -6.6024   44.7588 O   0  0  0  0  0  0  0  0  0  0  0  0
   27.9104   -5.0524   44.4829 N   0  0  0  0  0  0  0  0  0  0  0  0
   26.6326   -4.9849   44.2287 C   0  0  0  0  0  0  0  0  0  0  0  0
   26.0626   -6.1960   43.9024 N   0  0  1  0  0  0  0  0  0  0  0  0
  2  1  1  0  0  0  0
  3  1  1  1  0  0  0
  3  4  1  0  0  0  0
  3  5  1  0  0  0  0
  5  6  1  6  0  0  0
  5  7  1  0  0  0  0
  7  8  1  6  0  0  0
  7  9  1  0  0  0  0
  9  4  1  1  0  0  0
  9 20  1  0  0  0  0
 10 11  1  0  0  0  0
 11 12  1  1  0  0  0
 11 13  1  0  0  0  0
 14 13  1  6  0  0  0
 15 14  1  0  0  0  0
 15 16  1  6  0  0  0
 16 10  1  0  0  0  0
 16 17  2  0  0  0  0
 18 15  1  0  0  0  0
 19 18  1  0  0  0  0
 20 14  1  0  0  0  0
 20 19  1  6  0  0  0
M  END
>  <CHROM.1>
176.84788982,135.78413441,25.93119230,-7.31065703,44.44437980,-3.09100400
-0.15766156,-2.82845471

>  <Name>
1nyi_lig

>  <RI>
0

>  <Rbt.Current_Directory>
/home/itssahil/PROJECTS/Mol_Feturizer/New_Systems/rnas/1nyi

>  <Rbt.Executable>
rbdock ($Id: //depot/dev/client3/rdock/2013.1/src/exe/rbdock.cxx#4 $)

>  <Rbt.Library>
libRbt.so (2013.1, Build901 2013/11/27)

>  <Rbt.Parameter_File>
/export/apps/rDock/src/rDock_2013.1_src/data/scripts/dock_solv.prm

>  <Rbt.Receptor>
prm/pocket_docking_8.prm

>  <SCORE>
-9.17429

>  <SCORE.INTER>
-7.7075

>  <SCORE.INTER.CONST>
1

>  <SCORE.INTER.POLAR>
-0.433821

>  <SCORE.INTER.ROT>
2

>  <SCORE.INTER.SOLV>
11.194

>  <SCORE.INTER.VDW>
-12.3569

>  <SCORE.INTER.norm>
-0.385375

>  <SCORE.INTRA>
-1.46679

>  <SCORE.INTRA.DIHEDRAL>
-2.52918

>  <SCORE.INTRA.DIHEDRAL.0>
3.72394

>  <SCORE.INTRA.POLAR>
0

>  <SCORE.INTRA.POLAR.0>
0

>  <SCORE.INTRA.REPUL>
0

>  <SCORE.INTRA.REPUL.0>
0

>  <SCORE.INTRA.SOLV>
0.0858115

>  <SCORE.INTRA.SOLV.lig_0>
-49.4697

>  <SCORE.INTRA.VDW>
-0.245103

>  <SCORE.INTRA.VDW.0>
-0.896538

>  <SCORE.INTRA.norm>
-0.0733394

>  <SCORE.RESTR>
0

>  <SCORE.RESTR.CAVITY>
0

>  <SCORE.RESTR.norm>
0

>  <SCORE.SYSTEM>
0

>  <SCORE.SYSTEM.CONST>
0

>  <SCORE.SYSTEM.DIHEDRAL>
0

>  <SCORE.SYSTEM.SOLV>
0

>  <SCORE.SYSTEM.norm>
0

>  <SCORE.heavy>
20

>  <SCORE.norm>
-0.458714

>  <RMSD>
5.890

$$$$
1nyi_lig
 OpenBabel11021811403D
libRbt.so/2013.1/901 2013/11/27
 20 22  0  0  0  0  0  0  0  0999 V2000
   22.9795   -6.5357   44.0781 C   0  0  0  0  0  0  0  0  0  0  0  0
   22.1446   -7.3977   43.3049 O   0  0  0  0  0  0  0  0  0  0  0  0
   22.9672   -5.1298   43.5200 C   0  0  1  0  0  0  0  0  0  0  0  0
   23.8138   -4.2870   44.3476 O   0  0  0  0  0  0  0  0  0  0  0  0
   23.5516   -5.0539   42.1139 C   0  0  1  0  0  0  0  0  0  0  0  0
   22.5431   -5.2258   41.1171 O   0  0  0  0  0  0  0  0  0  0  0  0
   24.1905   -3.6667   42.1038 C   0  0  1  0  0  0  0  0  0  0  0  0
   23.2516   -2.6215   41.8993 O   0  0  0  0  0  0  0  0  0  0  0  0
   24.7489   -3.6011   43.5236 C   0  0  2  0  0  0  0  0  0  0  0  0
   29.7616   -2.4342   43.5488 N   0  0  0  0  0  0  0  0  0  0  0  0
   28.6830   -1.6454   43.2297 C   0  0  1  0  0  0  0  0  0  0  0  0
   28.9732   -0.3932   42.8737 N   0  0  0  0  0  0  0  0  0  0  0  0
   27.4178   -2.0545   43.2544 N   0  0  0  0  0  0  0  0  0  0  0  0
   27.3037   -3.3627   43.6270 C   0  0  1  0  0  0  0  0  0  0  0  0
   28.3239   -4.2340   43.9658 C   0  0  1  0  0  0  0  0  0  0  0  0
   29.6684   -3.7692   43.9415 C   0  0  0  0  0  0  0  0  0  0  0  0
   30.7041   -4.3906   44.2112 O   0  0  0  0  0  0  0  0  0  0  0  0
   27.8098   -5.4789   44.3048 N   0  0  0  0  0  0  0  0  0  0  0  0
   26.5197   -5.3474   44.1623 C   0  0  0  0  0  0  0  0  0  0  0  0
   26.1279   -4.0939   43.7460 N   0  0  1  0  0  0  0  0  0  0  0  0
  2  1  1  0  0  0  0
  3  1  1  1  0  0  0
  3  4  1  0  0  0  0
  3  5  1  0  0  0  0
  5  6  1  6  0  0  0
  5  7  1  0  0  0  0
  7  8  1  1  0  0  0
  7  9  1  0  0  0  0
  9  4  1  1  0  0  0
  9 20  1  0  0  0  0
 10 11  1  0  0  0  0
 11 12  1  6  0  0  0
 11 13  1  0  0  0  0
 14 13  1  1  0  0  0
 15 14  1  0  0  0  0
 15 16  1  1  0  0  0
 16 10  1  0  0  0  0
 16 17  2  0  0  0  0
 18 15  1  0  0  0  0
 19 18  1  0  0  0  0
 20 14  1  0  0  0  0
 20 19  1  1  0  0  0
M  END
>  <CHROM.1>
179.22874975,-149.30638266,26.00208402,-4.07031905,43.33115984,-2.83605881
-0.26842429,-0.39382596

>  <Name>
1nyi_lig

>  <RI>
0

>  <Rbt.Current_Directory>
/home/itssahil/PROJECTS/Mol_Feturizer/New_Systems/rnas/1nyi

>  <Rbt.Executable>
rbdock ($Id: //depot/dev/client3/rdock/2013.1/src/exe/rbdock.cxx#4 $)

>  <Rbt.Library>
libRbt.so (2013.1, Build901 2013/11/27)

>  <Rbt.Parameter_File>
/export/apps/rDock/src/rDock_2013.1_src/data/scripts/dock_solv.prm

>  <Rbt.Receptor>
prm/pocket_docking_3.prm

>  <SCORE>
-9.503

>  <SCORE.INTER>
-7.60588

>  <SCORE.INTER.CONST>
1

>  <SCORE.INTER.POLAR>
-0.955023

>  <SCORE.INTER.ROT>
2

>  <SCORE.INTER.SOLV>
12.3136

>  <SCORE.INTER.VDW>
-10.925

>  <SCORE.INTER.norm>
-0.380294

>  <SCORE.INTRA>
-1.89713

>  <SCORE.INTRA.DIHEDRAL>
-2.41467

>  <SCORE.INTRA.DIHEDRAL.0>
3.72394

>  <SCORE.INTRA.POLAR>
0

>  <SCORE.INTRA.POLAR.0>
0

>  <SCORE.INTRA.REPUL>
0

>  <SCORE.INTRA.REPUL.0>
0

>  <SCORE.INTRA.SOLV>
-0.600765

>  <SCORE.INTRA.SOLV.lig_0>
-49.4697

>  <SCORE.INTRA.VDW>
-0.389406

>  <SCORE.INTRA.VDW.0>
-0.896538

>  <SCORE.INTRA.norm>
-0.0948563

>  <SCORE.RESTR>
0

>  <SCORE.RESTR.CAVITY>
0

>  <SCORE.RESTR.norm>
0

>  <SCORE.SYSTEM>
0

>  <SCORE.SYSTEM.CONST>
0

>  <SCORE.SYSTEM.DIHEDRAL>
0

>  <SCORE.SYSTEM.SOLV>
0

>  <SCORE.SYSTEM.norm>
0

>  <SCORE.heavy>
20

>  <SCORE.norm>
-0.47515

>  <RMSD>
5.893

$$$$
1nyi_lig
 OpenBabel11021811403D
libRbt.so/2013.1/901 2013/11/27
 20 22  0  0  0  0  0  0  0  0999 V2000
   22.9858   -6.5248   44.0754 C   0  0  0  0  0  0  0  0  0  0  0  0
   22.1738   -7.3990   43.2916 O   0  0  0  0  0  0  0  0  0  0  0  0
   22.9772   -5.1240   43.5045 C   0  0  1  0  0  0  0  0  0  0  0  0
   23.8143   -4.2724   44.3329 O   0  0  0  0  0  0  0  0  0  0  0  0
   23.5756   -5.0599   42.1036 C   0  0  1  0  0  0  0  0  0  0  0  0
   22.5773   -5.2423   41.0983 O   0  0  0  0  0  0  0  0  0  0  0  0
   24.2126   -3.6719   42.0874 C   0  0  1  0  0  0  0  0  0  0  0  0
   23.2744   -2.6300   41.8640 O   0  0  0  0  0  0  0  0  0  0  0  0
   24.7566   -3.5927   43.5121 C   0  0  2  0  0  0  0  0  0  0  0  0
   29.7678   -2.4205   43.5686 N   0  0  0  0  0  0  0  0  0  0  0  0
   28.6915   -1.6366   43.2305 C   0  0  1  0  0  0  0  0  0  0  0  0
   28.9837   -0.3884   42.8623 N   0  0  0  0  0  0  0  0  0  0  0  0
   27.4265   -2.0467   43.2485 N   0  0  0  0  0  0  0  0  0  0  0  0
   27.3102   -3.3504   43.6357 C   0  0  1  0  0  0  0  0  0  0  0  0
   28.3281   -4.2166   43.9940 C   0  0  1  0  0  0  0  0  0  0  0  0
   29.6723   -3.7508   43.9763 C   0  0  0  0  0  0  0  0  0  0  0  0
   30.7061   -4.3679   44.2627 O   0  0  0  0  0  0  0  0  0  0  0  0
   27.8120   -5.4580   44.3430 N   0  0  0  0  0  0  0  0  0  0  0  0
   26.5231   -5.3295   44.1874 C   0  0  0  0  0  0  0  0  0  0  0  0
   26.1340   -4.0814   43.7527 N   0  0  1  0  0  0  0  0  0  0  0  0
  2  1  1  0  0  0  0
  3  1  1  1  0  0  0
  3  4  1  0  0  0  0
  3  5  1  0  0  0  0
  5  6  1  6  0  0  0
  5  7  1  0  0  0  0
  7  8  1  1  0  0  0
  7  9  1  0  0  0  0
  9  4  1  1  0  0  0
  9 20  1  0  0  0  0
 10 11  1  0  0  0  0
 11 12  1  6  0  0  0
 11 13  1  0  0  0  0
 14 13  1  1  0  0  0
 15 14  1  0  0  0  0
 15 16  1  1  0  0  0
 16 10  1  0  0  0  0
 16 17  2  0  0  0  0
 18 15  1  0  0  0  0
 19 18  1  0  0  0  0
 20 14  1  0  0  0  0
 20 19  1  1  0  0  0
M  END
>  <CHROM.1>
179.98681461,-149.47960264,26.01329431,-4.06258295,43.33363518,-2.83882466
-0.27789125,-0.40448146

>  <Name>
1nyi_lig

>  <RI>
0

>  <Rbt.Current_Directory>
/home/itssahil/PROJECTS/Mol_Feturizer/New_Systems/rnas/1nyi

>  <Rbt.Executable>
rbdock ($Id: //depot/dev/client3/rdock/2013.1/src/exe/rbdock.cxx#4 $)

>  <Rbt.Library>
libRbt.so (2013.1, Build901 2013/11/27)

>  <Rbt.Parameter_File>
/export/apps/rDock/src/rDock_2013.1_src/data/scripts/dock_solv.prm

>  <Rbt.Receptor>
prm/pocket_docking_3.prm

>  <SCORE>
-9.52619

>  <SCORE.INTER>
-7.63723

>  <SCORE.INTER.CONST>
1

>  <SCORE.INTER.POLAR>
-0.958184

>  <SCORE.INTER.ROT>
2

>  <SCORE.INTER.SOLV>
12.1975

>  <SCORE.INTER.VDW>
-10.8967

>  <SCORE.INTER.norm>
-0.381862

>  <SCORE.INTRA>
-1.88959

>  <SCORE.INTRA.DIHEDRAL>
-2.41611

>  <SCORE.INTRA.DIHEDRAL.0>
3.72394

>  <SCORE.INTRA.POLAR>
0

>  <SCORE.INTRA.POLAR.0>
0

>  <SCORE.INTRA.REPUL>
0

>  <SCORE.INTRA.REPUL.0>
0

>  <SCORE.INTRA.SOLV>
-0.595936

>  <SCORE.INTRA.SOLV.lig_0>
-49.4697

>  <SCORE.INTRA.VDW>
-0.383565

>  <SCORE.INTRA.VDW.0>
-0.896538

>  <SCORE.INTRA.norm>
-0.0944794

>  <SCORE.RESTR>
0.000636219

>  <SCORE.RESTR.CAVITY>
0.000636219

>  <SCORE.RESTR.norm>
3.18109e-05

>  <SCORE.SYSTEM>
0

>  <SCORE.SYSTEM.CONST>
0

>  <SCORE.SYSTEM.DIHEDRAL>
0

>  <SCORE.SYSTEM.SOLV>
0

>  <SCORE.SYSTEM.norm>
0

>  <SCORE.heavy>
20

>  <SCORE.norm>
-0.476309

>  <RMSD>
5.893

$$$$
1nyi_lig
 OpenBabel11021811403D
libRbt.so/2013.1/901 2013/11/27
 20 22  0  0  0  0  0  0  0  0999 V2000
   22.9325   -6.4575   44.1591 C   0  0  0  0  0  0  0  0  0  0  0  0
   22.0921   -7.3593   43.4391 O   0  0  0  0  0  0  0  0  0  0  0  0
   22.9447   -5.0933   43.5057 C   0  0  1  0  0  0  0  0  0  0  0  0
   23.7997   -4.2082   44.2789 O   0  0  0  0  0  0  0  0  0  0  0  0
   23.5376   -5.1229   42.1014 C   0  0  1  0  0  0  0  0  0  0  0  0
   22.5320   -5.3479   41.1124 O   0  0  0  0  0  0  0  0  0  0  0  0
   24.1977   -3.7494   42.0002 C   0  0  1  0  0  0  0  0  0  0  0  0
   23.2761   -2.7068   41.7184 O   0  0  0  0  0  0  0  0  0  0  0  0
   24.7495   -3.5947   43.4157 C   0  0  2  0  0  0  0  0  0  0  0  0
   29.7614   -2.4398   43.6048 N   0  0  0  0  0  0  0  0  0  0  0  0
   28.6954   -1.6474   43.2542 C   0  0  1  0  0  0  0  0  0  0  0  0
   28.9997   -0.3946   42.9120 N   0  0  0  0  0  0  0  0  0  0  0  0
   27.4292   -2.0535   43.2371 N   0  0  0  0  0  0  0  0  0  0  0  0
   27.3003   -3.3627   43.6013 C   0  0  1  0  0  0  0  0  0  0  0  0
   28.3072   -4.2376   43.9694 C   0  0  1  0  0  0  0  0  0  0  0  0
   29.6528   -3.7759   43.9896 C   0  0  0  0  0  0  0  0  0  0  0  0
   30.6780   -4.4007   44.2900 O   0  0  0  0  0  0  0  0  0  0  0  0
   27.7796   -5.4824   44.2874 N   0  0  0  0  0  0  0  0  0  0  0  0
   26.4950   -5.3474   44.1044 C   0  0  0  0  0  0  0  0  0  0  0  0
   26.1196   -4.0915   43.6802 N   0  0  1  0  0  0  0  0  0  0  0  0
  2  1  1  0  0  0  0
  3  1  1  1  0  0  0
  3  4  1  0  0  0  0
  3  5  1  0  0  0  0
  5  6  1  6  0  0  0
  5  7  1  0  0  0  0
  7  8  1  1  0  0  0
  7  9  1  0  0  0  0
  9  4  1  1  0  0  0
  9 20  1  0  0  0  0
 10 11  1  0  0  0  0
 11 12  1  6  0  0  0
 11 13  1  0  0  0  0
 14 13  1  1  0  0  0
 15 14  1  0  0  0  0
 15 16  1  1  0  0  0
 16 10  1  0  0  0  0
 16 17  2  0  0  0  0
 18 15  1  0  0  0  0
 19 18  1  0  0  0  0
 20 14  1  0  0  0  0
 20 19  1  1  0  0  0
M  END
>  <CHROM.1>
179.42244786,-144.84607757,25.99159098,-4.07805235,43.32078433,-2.84493501
-0.28118949,-0.41917143

>  <Name>
1nyi_lig

>  <RI>
0

>  <Rbt.Current_Directory>
/home/itssahil/PROJECTS/Mol_Feturizer/New_Systems/rnas/1nyi

>  <Rbt.Executable>
rbdock ($Id: //depot/dev/client3/rdock/2013.1/src/exe/rbdock.cxx#4 $)

>  <Rbt.Library>
libRbt.so (2013.1, Build901 2013/11/27)

>  <Rbt.Parameter_File>
/export/apps/rDock/src/rDock_2013.1_src/data/scripts/dock_solv.prm

>  <Rbt.Receptor>
prm/pocket_docking_4.prm

>  <SCORE>
-9.59628

>  <SCORE.INTER>
-7.6827

>  <SCORE.INTER.CONST>
1

>  <SCORE.INTER.POLAR>
-0.960063

>  <SCORE.INTER.ROT>
2

>  <SCORE.INTER.SOLV>
12.0004

>  <SCORE.INTER.VDW>
-10.8551

>  <SCORE.INTER.norm>
-0.384135

>  <SCORE.INTRA>
-1.91358

>  <SCORE.INTRA.DIHEDRAL>
-2.41704

>  <SCORE.INTRA.DIHEDRAL.0>
3.72394

>  <SCORE.INTRA.POLAR>
0

>  <SCORE.INTRA.POLAR.0>
0

>  <SCORE.INTRA.REPUL>
0

>  <SCORE.INTRA.REPUL.0>
0

>  <SCORE.INTRA.SOLV>
-0.6224

>  <SCORE.INTRA.SOLV.lig_0>
-49.4697

>  <SCORE.INTRA.VDW>
-0.393858

>  <SCORE.INTRA.VDW.0>
-0.896538

>  <SCORE.INTRA.norm>
-0.095679

>  <SCORE.RESTR>
0

>  <SCORE.RESTR.CAVITY>
0

>  <SCORE.RESTR.norm>
0

>  <SCORE.SYSTEM>
0

>  <SCORE.SYSTEM.CONST>
0

>  <SCORE.SYSTEM.DIHEDRAL>
0

>  <SCORE.SYSTEM.SOLV>
0

>  <SCORE.SYSTEM.norm>
0

>  <SCORE.heavy>
20

>  <SCORE.norm>
-0.479814

>  <RMSD>
5.896

$$$$
1nyi_lig
 OpenBabel11021811403D
libRbt.so/2013.1/901 2013/11/27
 20 22  0  0  0  0  0  0  0  0999 V2000
   22.5167   -6.8336   42.6749 C   0  0  0  0  0  0  0  0  0  0  0  0
   22.0806   -7.5728   41.5342 O   0  0  0  0  0  0  0  0  0  0  0  0
   23.4742   -7.6509   43.5135 C   0  0  1  0  0  0  0  0  0  0  0  0
   24.8226   -7.4669   43.0032 O   0  0  0  0  0  0  0  0  0  0  0  0
   23.5137   -7.1947   44.9678 C   0  0  1  0  0  0  0  0  0  0  0  0
   22.5583   -7.8974   45.7638 O   0  0  0  0  0  0  0  0  0  0  0  0
   24.9624   -7.4812   45.3573 C   0  0  1  0  0  0  0  0  0  0  0  0
   25.2001   -8.8488   45.6550 O   0  0  0  0  0  0  0  0  0  0  0  0
   25.6850   -7.0903   44.0700 C   0  0  2  0  0  0  0  0  0  0  0  0
   29.6300   -3.8030   44.4163 N   0  0  0  0  0  0  0  0  0  0  0  0
   29.5907   -5.1506   44.6798 C   0  0  1  0  0  0  0  0  0  0  0  0
   30.7413   -5.6899   45.0852 N   0  0  0  0  0  0  0  0  0  0  0  0
   28.5056   -5.9100   44.5588 N   0  0  0  0  0  0  0  0  0  0  0  0
   27.4173   -5.1961   44.1475 C   0  0  1  0  0  0  0  0  0  0  0  0
   27.3569   -3.8442   43.8583 C   0  0  1  0  0  0  0  0  0  0  0  0
   28.5341   -3.0554   43.9858 C   0  0  0  0  0  0  0  0  0  0  0  0
   28.6781   -1.8449   43.7726 O   0  0  0  0  0  0  0  0  0  0  0  0
   26.0764   -3.4884   43.4548 N   0  0  0  0  0  0  0  0  0  0  0  0
   25.3969   -4.6006   43.5118 C   0  0  0  0  0  0  0  0  0  0  0  0
   26.1349   -5.6859   43.9306 N   0  0  1  0  0  0  0  0  0  0  0  0
  2  1  1  0  0  0  0
  3  1  1  6  0  0  0
  3  4  1  0  0  0  0
  3  5  1  0  0  0  0
  5  6  1  1  0  0  0
  5  7  1  0  0  0  0
  7  8  1  6  0  0  0
  7  9  1  0  0  0  0
  9  4  1  6  0  0  0
  9 20  1  0  0  0  0
 10 11  1  0  0  0  0
 11 12  1  1  0  0  0
 11 13  1  0  0  0  0
 14 13  1  6  0  0  0
 15 14  1  0  0  0  0
 15 16  1  6  0  0  0
 16 10  1  0  0  0  0
 16 17  2  0  0  0  0
 18 15  1  0  0  0  0
 19 18  1  0  0  0  0
 20 14  1  0  0  0  0
 20 19  1  6  0  0  0
M  END
>  <CHROM.1>
86.94109624,-137.69916013,26.07775189,-5.85693683,44.08562615,2.69579056
0.37308111,2.61356236

>  <Name>
1nyi_lig

>  <RI>
0

>  <Rbt.Current_Directory>
/home/itssahil/PROJECTS/Mol_Feturizer/New_Systems/rnas/1nyi

>  <Rbt.Executable>
rbdock ($Id: //depot/dev/client3/rdock/2013.1/src/exe/rbdock.cxx#4 $)

>  <Rbt.Library>
libRbt.so (2013.1, Build901 2013/11/27)

>  <Rbt.Parameter_File>
/export/apps/rDock/src/rDock_2013.1_src/data/scripts/dock_solv.prm

>  <Rbt.Receptor>
prm/pocket_docking_4.prm

>  <SCORE>
-6.72996

>  <SCORE.INTER>
-5.69534

>  <SCORE.INTER.CONST>
1

>  <SCORE.INTER.POLAR>
-0.50957

>  <SCORE.INTER.ROT>
2

>  <SCORE.INTER.SOLV>
9.68748

>  <SCORE.INTER.VDW>
-10.2608

>  <SCORE.INTER.norm>
-0.284767

>  <SCORE.INTRA>
-1.03462

>  <SCORE.INTRA.DIHEDRAL>
-0.210555

>  <SCORE.INTRA.DIHEDRAL.0>
3.72394

>  <SCORE.INTRA.POLAR>
0

>  <SCORE.INTRA.POLAR.0>
0

>  <SCORE.INTRA.REPUL>
0

>  <SCORE.INTRA.REPUL.0>
0

>  <SCORE.INTRA.SOLV>
-0.963855

>  <SCORE.INTRA.SOLV.lig_0>
-49.4697

>  <SCORE.INTRA.VDW>
-0.447417

>  <SCORE.INTRA.VDW.0>
-0.896538

>  <SCORE.INTRA.norm>
-0.0517311

>  <SCORE.RESTR>
0

>  <SCORE.RESTR.CAVITY>
0

>  <SCORE.RESTR.norm>
0

>  <SCORE.SYSTEM>
0

>  <SCORE.SYSTEM.CONST>
0

>  <SCORE.SYSTEM.DIHEDRAL>
0

>  <SCORE.SYSTEM.SOLV>
0

>  <SCORE.SYSTEM.norm>
0

>  <SCORE.heavy>
20

>  <SCORE.norm>
-0.336498

>  <RMSD>
5.901

$$$$
1nyi_lig
 OpenBabel11021811403D
libRbt.so/2013.1/901 2013/11/27
 20 22  0  0  0  0  0  0  0  0999 V2000
   22.9630   -6.5375   44.2121 C   0  0  0  0  0  0  0  0  0  0  0  0
   22.1468   -7.4546   43.4837 O   0  0  0  0  0  0  0  0  0  0  0  0
   22.9526   -5.1719   43.5615 C   0  0  1  0  0  0  0  0  0  0  0  0
   23.8026   -4.2776   44.3296 O   0  0  0  0  0  0  0  0  0  0  0  0
   23.5344   -5.1912   42.1524 C   0  0  1  0  0  0  0  0  0  0  0  0
   22.5236   -5.4269   41.1710 O   0  0  0  0  0  0  0  0  0  0  0  0
   24.1762   -3.8091   42.0487 C   0  0  1  0  0  0  0  0  0  0  0  0
   23.2391   -2.7778   41.7766 O   0  0  0  0  0  0  0  0  0  0  0  0
   24.7375   -3.6503   43.4600 C   0  0  2  0  0  0  0  0  0  0  0  0
   29.7365   -2.4344   43.6026 N   0  0  0  0  0  0  0  0  0  0  0  0
   28.6577   -1.6552   43.2614 C   0  0  1  0  0  0  0  0  0  0  0  0
   28.9436   -0.3991   42.9156 N   0  0  0  0  0  0  0  0  0  0  0  0
   27.3964   -2.0767   43.2560 N   0  0  0  0  0  0  0  0  0  0  0  0
   27.2868   -3.3871   43.6222 C   0  0  1  0  0  0  0  0  0  0  0  0
   28.3076   -4.2494   43.9816 C   0  0  1  0  0  0  0  0  0  0  0  0
   29.6476   -3.7714   43.9893 C   0  0  0  0  0  0  0  0  0  0  0  0
   30.6830   -4.3834   44.2806 O   0  0  0  0  0  0  0  0  0  0  0  0
   27.7982   -5.5004   44.3052 N   0  0  0  0  0  0  0  0  0  0  0  0
   26.5104   -5.3811   44.1338 C   0  0  0  0  0  0  0  0  0  0  0  0
   26.1159   -4.1303   43.7123 N   0  0  1  0  0  0  0  0  0  0  0  0
  2  1  1  0  0  0  0
  3  1  1  1  0  0  0
  3  4  1  0  0  0  0
  3  5  1  0  0  0  0
  5  6  1  6  0  0  0
  5  7  1  0  0  0  0
  7  8  1  1  0  0  0
  7  9  1  0  0  0  0
  9  4  1  1  0  0  0
  9 20  1  0  0  0  0
 10 11  1  0  0  0  0
 11 12  1  6  0  0  0
 11 13  1  0  0  0  0
 14 13  1  1  0  0  0
 15 14  1  0  0  0  0
 15 16  1  1  0  0  0
 16 10  1  0  0  0  0
 16 17  2  0  0  0  0
 18 15  1  0  0  0  0
 19 18  1  0  0  0  0
 20 14  1  0  0  0  0
 20 19  1  1  0  0  0
M  END
>  <CHROM.1>
-179.56257792,-145.01458820,25.98602747,-4.11857401,43.35100805,-2.82935561
-0.27861207,-0.41327597

>  <Name>
1nyi_lig

>  <RI>
0

>  <Rbt.Current_Directory>
/home/itssahil/PROJECTS/Mol_Feturizer/New_Systems/rnas/1nyi

>  <Rbt.Executable>
rbdock ($Id: //depot/dev/client3/rdock/2013.1/src/exe/rbdock.cxx#4 $)

>  <Rbt.Library>
libRbt.so (2013.1, Build901 2013/11/27)

>  <Rbt.Parameter_File>
/export/apps/rDock/src/rDock_2013.1_src/data/scripts/dock_solv.prm

>  <Rbt.Receptor>
prm/pocket_docking_3.prm

>  <SCORE>
-9.52083

>  <SCORE.INTER>
-7.61811

>  <SCORE.INTER.CONST>
1

>  <SCORE.INTER.POLAR>
-0.948679

>  <SCORE.INTER.ROT>
2

>  <SCORE.INTER.SOLV>
11.957

>  <SCORE.INTER.VDW>
-10.8355

>  <SCORE.INTER.norm>
-0.380905

>  <SCORE.INTRA>
-1.90272

>  <SCORE.INTRA.DIHEDRAL>
-2.41643

>  <SCORE.INTRA.DIHEDRAL.0>
3.72394

>  <SCORE.INTRA.POLAR>
0

>  <SCORE.INTRA.POLAR.0>
0

>  <SCORE.INTRA.REPUL>
0

>  <SCORE.INTRA.REPUL.0>
0

>  <SCORE.INTRA.SOLV>
-0.61652

>  <SCORE.INTRA.SOLV.lig_0>
-49.4697

>  <SCORE.INTRA.VDW>
-0.386247

>  <SCORE.INTRA.VDW.0>
-0.896538

>  <SCORE.INTRA.norm>
-0.095136

>  <SCORE.RESTR>
0

>  <SCORE.RESTR.CAVITY>
0

>  <SCORE.RESTR.norm>
0

>  <SCORE.SYSTEM>
0

>  <SCORE.SYSTEM.CONST>
0

>  <SCORE.SYSTEM.DIHEDRAL>
0

>  <SCORE.SYSTEM.SOLV>
0

>  <SCORE.SYSTEM.norm>
0

>  <SCORE.heavy>
20

>  <SCORE.norm>
-0.476041

>  <RMSD>
5.908

$$$$
1nyi_lig
 OpenBabel11021811403D
libRbt.so/2013.1/901 2013/11/27
 20 22  0  0  0  0  0  0  0  0999 V2000
   23.0101   -6.6301   44.1296 C   0  0  0  0  0  0  0  0  0  0  0  0
   22.1786   -7.5167   43.3809 O   0  0  0  0  0  0  0  0  0  0  0  0
   22.9781   -5.2362   43.5430 C   0  0  1  0  0  0  0  0  0  0  0  0
   23.8126   -4.3647   44.3532 O   0  0  0  0  0  0  0  0  0  0  0  0
   23.5617   -5.1807   42.1355 C   0  0  1  0  0  0  0  0  0  0  0  0
   22.5559   -5.3870   41.1425 O   0  0  0  0  0  0  0  0  0  0  0  0
   24.1810   -3.7851   42.0971 C   0  0  1  0  0  0  0  0  0  0  0  0
   23.2275   -2.7576   41.8714 O   0  0  0  0  0  0  0  0  0  0  0  0
   24.7381   -3.6827   43.5153 C   0  0  2  0  0  0  0  0  0  0  0  0
   29.7304   -2.4323   43.5619 N   0  0  0  0  0  0  0  0  0  0  0  0
   28.6407   -1.6632   43.2331 C   0  0  1  0  0  0  0  0  0  0  0  0
   28.9119   -0.4081   42.8724 N   0  0  0  0  0  0  0  0  0  0  0  0
   27.3823   -2.0932   43.2529 N   0  0  0  0  0  0  0  0  0  0  0  0
   27.2879   -3.4012   43.6314 C   0  0  1  0  0  0  0  0  0  0  0  0
   28.3206   -4.2538   43.9800 C   0  0  1  0  0  0  0  0  0  0  0  0
   29.6573   -3.7668   43.9607 C   0  0  0  0  0  0  0  0  0  0  0  0
   30.7017   -4.3695   44.2391 O   0  0  0  0  0  0  0  0  0  0  0  0
   27.8254   -5.5054   44.3224 N   0  0  0  0  0  0  0  0  0  0  0  0
   26.5341   -5.3961   44.1723 C   0  0  0  0  0  0  0  0  0  0  0  0
   26.1238   -4.1514   43.7476 N   0  0  1  0  0  0  0  0  0  0  0  0
  2  1  1  0  0  0  0
  3  1  1  1  0  0  0
  3  4  1  0  0  0  0
  3  5  1  0  0  0  0
  5  6  1  6  0  0  0
  5  7  1  0  0  0  0
  7  8  1  1  0  0  0
  7  9  1  0  0  0  0
  9  4  1  1  0  0  0
  9 20  1  0  0  0  0
 10 11  1  0  0  0  0
 11 12  1  6  0  0  0
 11 13  1  0  0  0  0
 14 13  1  1  0  0  0
 15 14  1  0  0  0  0
 15 16  1  1  0  0  0
 16 10  1  0  0  0  0
 16 17  2  0  0  0  0
 18 15  1  0  0  0  0
 19 18  1  0  0  0  0
 20 14  1  0  0  0  0
 20 19  1  1  0  0  0
M  END
>  <CHROM.1>
178.73275659,-148.35734906,25.99632677,-4.13459669,43.34499644,-2.82100170
-0.27655686,-0.40102138

>  <Name>
1nyi_lig

>  <RI>
0

>  <Rbt.Current_Directory>
/home/itssahil/PROJECTS/Mol_Feturizer/New_Systems/rnas/1nyi

>  <Rbt.Executable>
rbdock ($Id: //depot/dev/client3/rdock/2013.1/src/exe/rbdock.cxx#4 $)

>  <Rbt.Library>
libRbt.so (2013.1, Build901 2013/11/27)

>  <Rbt.Parameter_File>
/export/apps/rDock/src/rDock_2013.1_src/data/scripts/dock_solv.prm

>  <Rbt.Receptor>
prm/pocket_docking_3.prm

>  <SCORE>
-9.48462

>  <SCORE.INTER>
-7.59396

>  <SCORE.INTER.CONST>
1

>  <SCORE.INTER.POLAR>
-0.945311

>  <SCORE.INTER.ROT>
2

>  <SCORE.INTER.SOLV>
12.2771

>  <SCORE.INTER.VDW>
-10.9373

>  <SCORE.INTER.norm>
-0.379698

>  <SCORE.INTRA>
-1.89066

>  <SCORE.INTRA.DIHEDRAL>
-2.41148

>  <SCORE.INTRA.DIHEDRAL.0>
3.72394

>  <SCORE.INTRA.POLAR>
0

>  <SCORE.INTRA.POLAR.0>
0

>  <SCORE.INTRA.REPUL>
0

>  <SCORE.INTRA.REPUL.0>
0

>  <SCORE.INTRA.SOLV>
-0.60874

>  <SCORE.INTRA.SOLV.lig_0>
-49.4697

>  <SCORE.INTRA.VDW>
-0.380551

>  <SCORE.INTRA.VDW.0>
-0.896538

>  <SCORE.INTRA.norm>
-0.0945329

>  <SCORE.RESTR>
0

>  <SCORE.RESTR.CAVITY>
0

>  <SCORE.RESTR.norm>
0

>  <SCORE.SYSTEM>
0

>  <SCORE.SYSTEM.CONST>
0

>  <SCORE.SYSTEM.DIHEDRAL>
0

>  <SCORE.SYSTEM.SOLV>
0

>  <SCORE.SYSTEM.norm>
0

>  <SCORE.heavy>
20

>  <SCORE.norm>
-0.474231

>  <RMSD>
5.911

$$$$
1nyi_lig
 OpenBabel11021811403D
libRbt.so/2013.1/901 2013/11/27
 20 22  0  0  0  0  0  0  0  0999 V2000
   26.7452   -3.3963   38.4222 C   0  0  0  0  0  0  0  0  0  0  0  0
   26.4363   -3.0617   39.7752 O   0  0  0  0  0  0  0  0  0  0  0  0
   25.4844   -3.5170   37.5951 C   0  0  1  0  0  0  0  0  0  0  0  0
   24.7303   -4.6725   38.0514 O   0  0  0  0  0  0  0  0  0  0  0  0
   24.5560   -2.3198   37.7665 C   0  0  1  0  0  0  0  0  0  0  0  0
   24.8308   -1.3012   36.8037 O   0  0  0  0  0  0  0  0  0  0  0  0
   23.1763   -2.9553   37.6069 C   0  0  1  0  0  0  0  0  0  0  0  0
   22.8224   -3.1875   36.2517 O   0  0  0  0  0  0  0  0  0  0  0  0
   23.3904   -4.2836   38.3292 C   0  0  2  0  0  0  0  0  0  0  0  0
   20.4823   -6.3246   42.0529 N   0  0  0  0  0  0  0  0  0  0  0  0
   20.4228   -6.5172   40.6941 C   0  0  1  0  0  0  0  0  0  0  0  0
   19.4736   -7.3550   40.2742 N   0  0  0  0  0  0  0  0  0  0  0  0
   21.2295   -5.9304   39.8146 N   0  0  0  0  0  0  0  0  0  0  0  0
   22.1301   -5.0975   40.4134 C   0  0  1  0  0  0  0  0  0  0  0  0
   22.2683   -4.8388   41.7657 C   0  0  1  0  0  0  0  0  0  0  0  0
   21.3995   -5.4870   42.6872 C   0  0  0  0  0  0  0  0  0  0  0  0
   21.3703   -5.3873   43.9204 O   0  0  0  0  0  0  0  0  0  0  0  0
   23.3098   -3.9471   41.9878 N   0  0  0  0  0  0  0  0  0  0  0  0
   23.7693   -3.6808   40.7962 C   0  0  0  0  0  0  0  0  0  0  0  0
   23.1038   -4.3332   39.7816 N   0  0  1  0  0  0  0  0  0  0  0  0
  2  1  1  0  0  0  0
  3  1  1  1  0  0  0
  3  4  1  0  0  0  0
  3  5  1  0  0  0  0
  5  6  1  6  0  0  0
  5  7  1  0  0  0  0
  7  8  1  6  0  0  0
  7  9  1  0  0  0  0
  9  4  1  1  0  0  0
  9 20  1  0  0  0  0
 10 11  1  0  0  0  0
 11 12  1  6  0  0  0
 11 13  1  0  0  0  0
 14 13  1  1  0  0  0
 15 14  1  0  0  0  0
 15 16  1  1  0  0  0
 16 10  1  0  0  0  0
 16 17  2  0  0  0  0
 18 15  1  0  0  0  0
 19 18  1  0  0  0  0
 20 14  1  0  0  0  0
 20 19  1  1  0  0  0
M  END
>  <CHROM.1>
-67.44190570,-120.63241130,23.10331027,-4.34528996,39.70502927,-0.77634743
0.52737067,1.73995580

>  <Name>
1nyi_lig

>  <RI>
0

>  <Rbt.Current_Directory>
/home/itssahil/PROJECTS/Mol_Feturizer/New_Systems/rnas/1nyi

>  <Rbt.Executable>
rbdock ($Id: //depot/dev/client3/rdock/2013.1/src/exe/rbdock.cxx#4 $)

>  <Rbt.Library>
libRbt.so (2013.1, Build901 2013/11/27)

>  <Rbt.Parameter_File>
/export/apps/rDock/src/rDock_2013.1_src/data/scripts/dock_solv.prm

>  <Rbt.Receptor>
prm/pocket_docking_8.prm

>  <SCORE>
-9.15683

>  <SCORE.INTER>
-7.76372

>  <SCORE.INTER.CONST>
1

>  <SCORE.INTER.POLAR>
-1.27469

>  <SCORE.INTER.ROT>
2

>  <SCORE.INTER.SOLV>
8.3794

>  <SCORE.INTER.VDW>
-8.6533

>  <SCORE.INTER.norm>
-0.388186

>  <SCORE.INTRA>
-1.39317

>  <SCORE.INTRA.DIHEDRAL>
-2.30411

>  <SCORE.INTRA.DIHEDRAL.0>
3.72394

>  <SCORE.INTRA.POLAR>
0

>  <SCORE.INTRA.POLAR.0>
0

>  <SCORE.INTRA.REPUL>
0

>  <SCORE.INTRA.REPUL.0>
0

>  <SCORE.INTRA.SOLV>
0.114068

>  <SCORE.INTRA.SOLV.lig_0>
-49.4697

>  <SCORE.INTRA.VDW>
-0.298147

>  <SCORE.INTRA.VDW.0>
-0.896538

>  <SCORE.INTRA.norm>
-0.0696583

>  <SCORE.RESTR>
5.43693e-05

>  <SCORE.RESTR.CAVITY>
5.43693e-05

>  <SCORE.RESTR.norm>
2.71846e-06

>  <SCORE.SYSTEM>
0

>  <SCORE.SYSTEM.CONST>
0

>  <SCORE.SYSTEM.DIHEDRAL>
0

>  <SCORE.SYSTEM.SOLV>
0

>  <SCORE.SYSTEM.norm>
0

>  <SCORE.heavy>
20

>  <SCORE.norm>
-0.457842

>  <RMSD>
5.913

$$$$
1nyi_lig
 OpenBabel11021811403D
libRbt.so/2013.1/901 2013/11/27
 20 22  0  0  0  0  0  0  0  0999 V2000
   23.2390   -5.4770   42.1686 C   0  0  0  0  0  0  0  0  0  0  0  0
   22.2368   -4.4963   42.4367 O   0  0  0  0  0  0  0  0  0  0  0  0
   22.9599   -6.7550   42.9281 C   0  0  1  0  0  0  0  0  0  0  0  0
   23.9539   -7.7490   42.5592 O   0  0  0  0  0  0  0  0  0  0  0  0
   23.0881   -6.5783   44.4370 C   0  0  1  0  0  0  0  0  0  0  0  0
   21.8416   -6.2099   45.0295 O   0  0  0  0  0  0  0  0  0  0  0  0
   23.5943   -7.9491   44.8812 C   0  0  1  0  0  0  0  0  0  0  0  0
   22.5657   -8.9242   44.9624 O   0  0  0  0  0  0  0  0  0  0  0  0
   24.5472   -8.2845   43.7360 C   0  0  2  0  0  0  0  0  0  0  0  0
   27.7945   -4.3512   44.4241 N   0  0  0  0  0  0  0  0  0  0  0  0
   26.4253   -4.3438   44.3124 C   0  0  1  0  0  0  0  0  0  0  0  0
   25.8493   -3.1434   44.3935 N   0  0  0  0  0  0  0  0  0  0  0  0
   25.6789   -5.4295   44.1313 N   0  0  0  0  0  0  0  0  0  0  0  0
   26.4294   -6.5674   44.0583 C   0  0  1  0  0  0  0  0  0  0  0  0
   27.8051   -6.6770   44.1589 C   0  0  1  0  0  0  0  0  0  0  0  0
   28.5804   -5.5016   44.3627 C   0  0  0  0  0  0  0  0  0  0  0  0
   29.8082   -5.3982   44.4788 O   0  0  0  0  0  0  0  0  0  0  0  0
   28.1979   -8.0048   44.0510 N   0  0  0  0  0  0  0  0  0  0  0  0
   27.0829   -8.6610   43.8836 C   0  0  0  0  0  0  0  0  0  0  0  0
   25.9607   -7.8619   43.8685 N   0  0  1  0  0  0  0  0  0  0  0  0
  2  1  1  0  0  0  0
  3  1  1  6  0  0  0
  3  4  1  0  0  0  0
  3  5  1  0  0  0  0
  5  6  1  1  0  0  0
  5  7  1  0  0  0  0
  7  8  1  6  0  0  0
  7  9  1  0  0  0  0
  9  4  1  6  0  0  0
  9 20  1  0  0  0  0
 10 11  1  0  0  0  0
 11 12  1  6  0  0  0
 11 13  1  0  0  0  0
 14 13  1  1  0  0  0
 15 14  1  0  0  0  0
 15 16  1  1  0  0  0
 16 10  1  0  0  0  0
 16 17  2  0  0  0  0
 18 15  1  0  0  0  0
 19 18  1  0  0  0  0
 20 14  1  0  0  0  0
 20 19  1  1  0  0  0
M  END
>  <CHROM.1>
176.38655038,64.93644834,25.32305776,-6.42179363,43.95493413,2.96336808,0.11105085
3.05728365

>  <Name>
1nyi_lig

>  <RI>
0

>  <Rbt.Current_Directory>
/home/itssahil/PROJECTS/Mol_Feturizer/New_Systems/rnas/1nyi

>  <Rbt.Executable>
rbdock ($Id: //depot/dev/client3/rdock/2013.1/src/exe/rbdock.cxx#4 $)

>  <Rbt.Library>
libRbt.so (2013.1, Build901 2013/11/27)

>  <Rbt.Parameter_File>
/export/apps/rDock/src/rDock_2013.1_src/data/scripts/dock_solv.prm

>  <Rbt.Receptor>
prm/pocket_docking_3.prm

>  <SCORE>
-8.67506

>  <SCORE.INTER>
-7.11417

>  <SCORE.INTER.CONST>
1

>  <SCORE.INTER.POLAR>
-0.011559

>  <SCORE.INTER.ROT>
2

>  <SCORE.INTER.SOLV>
9.11247

>  <SCORE.INTER.VDW>
-12.6751

>  <SCORE.INTER.norm>
-0.355709

>  <SCORE.INTRA>
-1.56089

>  <SCORE.INTRA.DIHEDRAL>
-2.44329

>  <SCORE.INTRA.DIHEDRAL.0>
3.72394

>  <SCORE.INTRA.POLAR>
0

>  <SCORE.INTRA.POLAR.0>
0

>  <SCORE.INTRA.REPUL>
0

>  <SCORE.INTRA.REPUL.0>
0

>  <SCORE.INTRA.SOLV>
1.68908

>  <SCORE.INTRA.SOLV.lig_0>
-49.4697

>  <SCORE.INTRA.VDW>
-1.18379

>  <SCORE.INTRA.VDW.0>
-0.896538

>  <SCORE.INTRA.norm>
-0.0780445

>  <SCORE.RESTR>
0

>  <SCORE.RESTR.CAVITY>
0

>  <SCORE.RESTR.norm>
0

>  <SCORE.SYSTEM>
0

>  <SCORE.SYSTEM.CONST>
0

>  <SCORE.SYSTEM.DIHEDRAL>
0

>  <SCORE.SYSTEM.SOLV>
0

>  <SCORE.SYSTEM.norm>
0

>  <SCORE.heavy>
20

>  <SCORE.norm>
-0.433753

>  <RMSD>
5.915

$$$$
1nyi_lig
 OpenBabel11021811403D
libRbt.so/2013.1/901 2013/11/27
 20 22  0  0  0  0  0  0  0  0999 V2000
   22.2083   -8.2448   46.1148 C   0  0  0  0  0  0  0  0  0  0  0  0
   21.7647   -6.9473   45.7175 O   0  0  0  0  0  0  0  0  0  0  0  0
   23.4684   -8.6342   45.3742 C   0  0  1  0  0  0  0  0  0  0  0  0
   23.2132   -8.5717   43.9448 O   0  0  0  0  0  0  0  0  0  0  0  0
   24.6208   -7.6703   45.6338 C   0  0  1  0  0  0  0  0  0  0  0  0
   25.4089   -8.0843   46.7508 O   0  0  0  0  0  0  0  0  0  0  0  0
   25.3762   -7.7046   44.3069 C   0  0  1  0  0  0  0  0  0  0  0  0
   26.2063   -8.8478   44.1668 O   0  0  0  0  0  0  0  0  0  0  0  0
   24.2130   -7.7756   43.3199 C   0  0  2  0  0  0  0  0  0  0  0  0
   20.2518   -5.4565   40.9920 N   0  0  0  0  0  0  0  0  0  0  0  0
   20.4389   -6.7869   41.2786 C   0  0  1  0  0  0  0  0  0  0  0  0
   19.4518   -7.6000   40.8996 N   0  0  0  0  0  0  0  0  0  0  0  0
   21.5130   -7.2821   41.8866 N   0  0  0  0  0  0  0  0  0  0  0  0
   22.4269   -6.3153   42.1921 C   0  0  1  0  0  0  0  0  0  0  0  0
   22.3303   -4.9570   41.9461 C   0  0  1  0  0  0  0  0  0  0  0  0
   21.1664   -4.4507   41.3033 C   0  0  0  0  0  0  0  0  0  0  0  0
   20.8983   -3.2802   41.0038 O   0  0  0  0  0  0  0  0  0  0  0  0
   23.4558   -4.2943   42.4186 N   0  0  0  0  0  0  0  0  0  0  0  0
   24.2007   -5.2387   42.9238 C   0  0  0  0  0  0  0  0  0  0  0  0
   23.6527   -6.4985   42.8210 N   0  0  1  0  0  0  0  0  0  0  0  0
  2  1  1  0  0  0  0
  3  1  1  1  0  0  0
  3  4  1  0  0  0  0
  3  5  1  0  0  0  0
  5  6  1  1  0  0  0
  5  7  1  0  0  0  0
  7  8  1  1  0  0  0
  7  9  1  0  0  0  0
  9  4  1  1  0  0  0
  9 20  1  0  0  0  0
 10 11  1  0  0  0  0
 11 12  1  6  0  0  0
 11 13  1  0  0  0  0
 14 13  1  1  0  0  0
 15 14  1  0  0  0  0
 15 16  1  1  0  0  0
 16 10  1  0  0  0  0
 16 17  2  0  0  0  0
 18 15  1  0  0  0  0
 19 18  1  0  0  0  0
 20 14  1  0  0  0  0
 20 19  1  1  0  0  0
M  END
>  <CHROM.1>
-56.87241530,-40.57271581,22.83815167,-6.75334649,43.29695479,0.88334748
0.36095051,2.47502090

>  <Name>
1nyi_lig

>  <RI>
0

>  <Rbt.Current_Directory>
/home/itssahil/PROJECTS/Mol_Feturizer/New_Systems/rnas/1nyi

>  <Rbt.Executable>
rbdock ($Id: //depot/dev/client3/rdock/2013.1/src/exe/rbdock.cxx#4 $)

>  <Rbt.Library>
libRbt.so (2013.1, Build901 2013/11/27)

>  <Rbt.Parameter_File>
/export/apps/rDock/src/rDock_2013.1_src/data/scripts/dock_solv.prm

>  <Rbt.Receptor>
prm/pocket_docking_4.prm

>  <SCORE>
-7.44134

>  <SCORE.INTER>
-6.32376

>  <SCORE.INTER.CONST>
1

>  <SCORE.INTER.POLAR>
-1.0463

>  <SCORE.INTER.ROT>
2

>  <SCORE.INTER.SOLV>
9.85675

>  <SCORE.INTER.VDW>
-8.9471

>  <SCORE.INTER.norm>
-0.316188

>  <SCORE.INTRA>
-1.25766

>  <SCORE.INTRA.DIHEDRAL>
-2.39438

>  <SCORE.INTRA.DIHEDRAL.0>
3.72394

>  <SCORE.INTRA.POLAR>
0

>  <SCORE.INTRA.POLAR.0>
0

>  <SCORE.INTRA.REPUL>
0.0506074

>  <SCORE.INTRA.REPUL.0>
0

>  <SCORE.INTRA.SOLV>
0.617118

>  <SCORE.INTRA.SOLV.lig_0>
-49.4697

>  <SCORE.INTRA.VDW>
-0.62206

>  <SCORE.INTRA.VDW.0>
-0.896538

>  <SCORE.INTRA.norm>
-0.0628828

>  <SCORE.RESTR>
0.140086

>  <SCORE.RESTR.CAVITY>
0.140086

>  <SCORE.RESTR.norm>
0.00700432

>  <SCORE.SYSTEM>
0

>  <SCORE.SYSTEM.CONST>
0

>  <SCORE.SYSTEM.DIHEDRAL>
0

>  <SCORE.SYSTEM.SOLV>
0

>  <SCORE.SYSTEM.norm>
0

>  <SCORE.heavy>
20

>  <SCORE.norm>
-0.372067

>  <RMSD>
5.946

$$$$
1nyi_lig
 OpenBabel11021811403D
libRbt.so/2013.1/901 2013/11/27
 20 22  0  0  0  0  0  0  0  0999 V2000
   22.7359   -7.6691   46.3159 C   0  0  0  0  0  0  0  0  0  0  0  0
   22.1681   -6.4188   45.9257 O   0  0  0  0  0  0  0  0  0  0  0  0
   23.6820   -8.1864   45.2550 C   0  0  1  0  0  0  0  0  0  0  0  0
   22.9604   -8.3089   43.9994 O   0  0  0  0  0  0  0  0  0  0  0  0
   24.8343   -7.2265   44.9809 C   0  0  1  0  0  0  0  0  0  0  0  0
   25.9602   -7.5076   45.8138 O   0  0  0  0  0  0  0  0  0  0  0  0
   25.1008   -7.4572   43.4949 C   0  0  1  0  0  0  0  0  0  0  0  0
   25.8593   -8.6299   43.2396 O   0  0  0  0  0  0  0  0  0  0  0  0
   23.6755   -7.6295   42.9744 C   0  0  2  0  0  0  0  0  0  0  0  0
   19.1076   -5.5178   41.8954 N   0  0  0  0  0  0  0  0  0  0  0  0
   19.4058   -6.7997   42.2893 C   0  0  1  0  0  0  0  0  0  0  0  0
   18.3613   -7.6202   42.4110 N   0  0  0  0  0  0  0  0  0  0  0  0
   20.6340   -7.2434   42.5408 N   0  0  0  0  0  0  0  0  0  0  0  0
   21.5814   -6.2785   42.3546 C   0  0  1  0  0  0  0  0  0  0  0  0
   21.3818   -4.9667   41.9618 C   0  0  1  0  0  0  0  0  0  0  0  0
   20.0571   -4.5135   41.7087 C   0  0  0  0  0  0  0  0  0  0  0  0
   19.6813   -3.3886   41.3552 O   0  0  0  0  0  0  0  0  0  0  0  0
   22.5913   -4.2868   41.8993 N   0  0  0  0  0  0  0  0  0  0  0  0
   23.4824   -5.1769   42.2393 C   0  0  0  0  0  0  0  0  0  0  0  0
   22.9537   -6.4165   42.5253 N   0  0  1  0  0  0  0  0  0  0  0  0
  2  1  1  0  0  0  0
  3  1  1  1  0  0  0
  3  4  1  0  0  0  0
  3  5  1  0  0  0  0
  5  6  1  1  0  0  0
  5  7  1  0  0  0  0
  7  8  1  1  0  0  0
  7  9  1  0  0  0  0
  9  4  1  1  0  0  0
  9 20  1  0  0  0  0
 10 11  1  0  0  0  0
 11 12  1  6  0  0  0
 11 13  1  0  0  0  0
 14 13  1  1  0  0  0
 15 14  1  0  0  0  0
 15 16  1  1  0  0  0
 16 10  1  0  0  0  0
 16 17  2  0  0  0  0
 18 15  1  0  0  0  0
 19 18  1  0  0  0  0
 20 14  1  0  0  0  0
 20 19  1  1  0  0  0
M  END
>  <CHROM.1>
-57.45974555,-38.99267937,22.35055008,-6.57770250,43.29702585,0.65430793
0.07428141,2.37474853

>  <Name>
1nyi_lig

>  <RI>
0

>  <Rbt.Current_Directory>
/home/itssahil/PROJECTS/Mol_Feturizer/New_Systems/rnas/1nyi

>  <Rbt.Executable>
rbdock ($Id: //depot/dev/client3/rdock/2013.1/src/exe/rbdock.cxx#4 $)

>  <Rbt.Library>
libRbt.so (2013.1, Build901 2013/11/27)

>  <Rbt.Parameter_File>
/export/apps/rDock/src/rDock_2013.1_src/data/scripts/dock_solv.prm

>  <Rbt.Receptor>
prm/pocket_docking_7.prm

>  <SCORE>
-9.05909

>  <SCORE.INTER>
-7.80656

>  <SCORE.INTER.CONST>
1

>  <SCORE.INTER.POLAR>
-1.11207

>  <SCORE.INTER.ROT>
2

>  <SCORE.INTER.SOLV>
6.61598

>  <SCORE.INTER.VDW>
-8.63612

>  <SCORE.INTER.norm>
-0.390328

>  <SCORE.INTRA>
-1.25253

>  <SCORE.INTRA.DIHEDRAL>
-2.4029

>  <SCORE.INTRA.DIHEDRAL.0>
3.72394

>  <SCORE.INTRA.POLAR>
0

>  <SCORE.INTRA.POLAR.0>
0

>  <SCORE.INTRA.REPUL>
0.0534362

>  <SCORE.INTRA.REPUL.0>
0

>  <SCORE.INTRA.SOLV>
0.663837

>  <SCORE.INTRA.SOLV.lig_0>
-49.4697

>  <SCORE.INTRA.VDW>
-0.650181

>  <SCORE.INTRA.VDW.0>
-0.896538

>  <SCORE.INTRA.norm>
-0.0626266

>  <SCORE.RESTR>
0

>  <SCORE.RESTR.CAVITY>
0

>  <SCORE.RESTR.norm>
0

>  <SCORE.SYSTEM>
0

>  <SCORE.SYSTEM.CONST>
0

>  <SCORE.SYSTEM.DIHEDRAL>
0

>  <SCORE.SYSTEM.SOLV>
0

>  <SCORE.SYSTEM.norm>
0

>  <SCORE.heavy>
20

>  <SCORE.norm>
-0.452954

>  <RMSD>
5.946

$$$$
1nyi_lig
 OpenBabel11021811403D
libRbt.so/2013.1/901 2013/11/27
 20 22  0  0  0  0  0  0  0  0999 V2000
   22.2630   -7.4410   45.9891 C   0  0  0  0  0  0  0  0  0  0  0  0
   21.8995   -6.1234   45.5772 O   0  0  0  0  0  0  0  0  0  0  0  0
   23.3134   -8.0231   45.0693 C   0  0  1  0  0  0  0  0  0  0  0  0
   22.7922   -8.0446   43.7129 O   0  0  0  0  0  0  0  0  0  0  0  0
   24.5787   -7.1742   45.0157 C   0  0  1  0  0  0  0  0  0  0  0  0
   25.5270   -7.5838   46.0022 O   0  0  0  0  0  0  0  0  0  0  0  0
   25.0553   -7.3947   43.5814 C   0  0  1  0  0  0  0  0  0  0  0  0
   25.7325   -8.6295   43.4021 O   0  0  0  0  0  0  0  0  0  0  0  0
   23.7210   -7.4144   42.8389 C   0  0  2  0  0  0  0  0  0  0  0  0
   20.0983   -5.0785   40.0267 N   0  0  0  0  0  0  0  0  0  0  0  0
   20.2931   -6.4180   40.2611 C   0  0  1  0  0  0  0  0  0  0  0  0
   19.4173   -7.2363   39.6759 N   0  0  0  0  0  0  0  0  0  0  0  0
   21.2735   -6.9166   41.0088 N   0  0  0  0  0  0  0  0  0  0  0  0
   22.0826   -5.9425   41.5185 C   0  0  1  0  0  0  0  0  0  0  0  0
   21.9691   -4.5749   41.3407 C   0  0  1  0  0  0  0  0  0  0  0  0
   20.9054   -4.0658   40.5446 C   0  0  0  0  0  0  0  0  0  0  0  0
   20.6399   -2.8876   40.2745 O   0  0  0  0  0  0  0  0  0  0  0  0
   22.9724   -3.9082   42.0320 N   0  0  0  0  0  0  0  0  0  0  0  0
   23.6645   -4.8587   42.5971 C   0  0  0  0  0  0  0  0  0  0  0  0
   23.1955   -6.1263   42.3303 N   0  0  1  0  0  0  0  0  0  0  0  0
  2  1  1  0  0  0  0
  3  1  1  1  0  0  0
  3  4  1  0  0  0  0
  3  5  1  0  0  0  0
  5  6  1  1  0  0  0
  5  7  1  0  0  0  0
  7  8  1  1  0  0  0
  7  9  1  0  0  0  0
  9  4  1  1  0  0  0
  9 20  1  0  0  0  0
 10 11  1  0  0  0  0
 11 12  1  6  0  0  0
 11 13  1  0  0  0  0
 14 13  1  1  0  0  0
 15 14  1  0  0  0  0
 15 16  1  1  0  0  0
 16 10  1  0  0  0  0
 16 17  2  0  0  0  0
 18 15  1  0  0  0  0
 19 18  1  0  0  0  0
 20 14  1  0  0  0  0
 20 19  1  1  0  0  0
M  END
>  <CHROM.1>
-58.44338436,-64.22013174,22.59748817,-6.31052201,42.69191480,0.61061157
0.79217253,2.90164777

>  <Name>
1nyi_lig

>  <RI>
0

>  <Rbt.Current_Directory>
/home/itssahil/PROJECTS/Mol_Feturizer/New_Systems/rnas/1nyi

>  <Rbt.Executable>
rbdock ($Id: //depot/dev/client3/rdock/2013.1/src/exe/rbdock.cxx#4 $)

>  <Rbt.Library>
libRbt.so (2013.1, Build901 2013/11/27)

>  <Rbt.Parameter_File>
/export/apps/rDock/src/rDock_2013.1_src/data/scripts/dock_solv.prm

>  <Rbt.Receptor>
prm/pocket_docking_8.prm

>  <SCORE>
-10.0939

>  <SCORE.INTER>
-8.43023

>  <SCORE.INTER.CONST>
1

>  <SCORE.INTER.POLAR>
-1.22135

>  <SCORE.INTER.ROT>
2

>  <SCORE.INTER.SOLV>
9.18245

>  <SCORE.INTER.VDW>
-9.54312

>  <SCORE.INTER.norm>
-0.421511

>  <SCORE.INTRA>
-1.66369

>  <SCORE.INTRA.DIHEDRAL>
-2.51737

>  <SCORE.INTRA.DIHEDRAL.0>
3.72394

>  <SCORE.INTRA.POLAR>
0

>  <SCORE.INTRA.POLAR.0>
0

>  <SCORE.INTRA.REPUL>
0.000476893

>  <SCORE.INTRA.REPUL.0>
0

>  <SCORE.INTRA.SOLV>
0.108318

>  <SCORE.INTRA.SOLV.lig_0>
-49.4697

>  <SCORE.INTRA.VDW>
-0.46155

>  <SCORE.INTRA.VDW.0>
-0.896538

>  <SCORE.INTRA.norm>
-0.0831847

>  <SCORE.RESTR>
0

>  <SCORE.RESTR.CAVITY>
0

>  <SCORE.RESTR.norm>
0

>  <SCORE.SYSTEM>
0

>  <SCORE.SYSTEM.CONST>
0

>  <SCORE.SYSTEM.DIHEDRAL>
0

>  <SCORE.SYSTEM.SOLV>
0

>  <SCORE.SYSTEM.norm>
0

>  <SCORE.heavy>
20

>  <SCORE.norm>
-0.504696

>  <RMSD>
5.956

$$$$
1nyi_lig
 OpenBabel11021811403D
libRbt.so/2013.1/901 2013/11/27
 20 22  0  0  0  0  0  0  0  0999 V2000
   22.1194   -7.9730   45.1946 C   0  0  0  0  0  0  0  0  0  0  0  0
   21.9982   -7.7249   46.5952 O   0  0  0  0  0  0  0  0  0  0  0  0
   22.4839   -6.7066   44.4520 C   0  0  1  0  0  0  0  0  0  0  0  0
   23.7803   -6.2436   44.9183 O   0  0  0  0  0  0  0  0  0  0  0  0
   22.6373   -6.9319   42.9520 C   0  0  1  0  0  0  0  0  0  0  0  0
   21.4042   -6.7233   42.2618 O   0  0  0  0  0  0  0  0  0  0  0  0
   23.7224   -5.9226   42.5827 C   0  0  1  0  0  0  0  0  0  0  0  0
   23.2310   -4.5969   42.4544 O   0  0  0  0  0  0  0  0  0  0  0  0
   24.6356   -6.0290   43.8020 C   0  0  2  0  0  0  0  0  0  0  0  0
   29.6416   -6.9318   44.5859 N   0  0  0  0  0  0  0  0  0  0  0  0
   28.9350   -5.7608   44.7143 C   0  0  1  0  0  0  0  0  0  0  0  0
   29.6469   -4.7001   45.0980 N   0  0  0  0  0  0  0  0  0  0  0  0
   27.6314   -5.6387   44.4807 N   0  0  0  0  0  0  0  0  0  0  0  0
   27.0637   -6.8154   44.0855 C   0  0  1  0  0  0  0  0  0  0  0  0
   27.6877   -8.0404   43.9277 C   0  0  1  0  0  0  0  0  0  0  0  0
   29.0812   -8.1473   44.1937 C   0  0  0  0  0  0  0  0  0  0  0  0
   29.8074   -9.1462   44.1129 O   0  0  0  0  0  0  0  0  0  0  0  0
   26.7729   -9.0059   43.5276 N   0  0  0  0  0  0  0  0  0  0  0  0
   25.6396   -8.3650   43.4444 C   0  0  0  0  0  0  0  0  0  0  0  0
   25.7293   -7.0270   43.7599 N   0  0  1  0  0  0  0  0  0  0  0  0
  2  1  1  0  0  0  0
  3  1  1  1  0  0  0
  3  4  1  0  0  0  0
  3  5  1  0  0  0  0
  5  6  1  6  0  0  0
  5  7  1  0  0  0  0
  7  8  1  1  0  0  0
  7  9  1  0  0  0  0
  9  4  1  1  0  0  0
  9 20  1  0  0  0  0
 10 11  1  0  0  0  0
 11 12  1  6  0  0  0
 11 13  1  0  0  0  0
 14 13  1  1  0  0  0
 15 14  1  0  0  0  0
 15 16  1  1  0  0  0
 16 10  1  0  0  0  0
 16 17  2  0  0  0  0
 18 15  1  0  0  0  0
 19 18  1  0  0  0  0
 20 14  1  0  0  0  0
 20 19  1  1  0  0  0
M  END
>  <CHROM.1>
62.36120208,-105.39346261,25.60919313,-6.91965436,44.06327772,3.05873616
-0.05592224,-0.25153793

>  <Name>
1nyi_lig

>  <RI>
0

>  <Rbt.Current_Directory>
/home/itssahil/PROJECTS/Mol_Feturizer/New_Systems/rnas/1nyi

>  <Rbt.Executable>
rbdock ($Id: //depot/dev/client3/rdock/2013.1/src/exe/rbdock.cxx#4 $)

>  <Rbt.Library>
libRbt.so (2013.1, Build901 2013/11/27)

>  <Rbt.Parameter_File>
/export/apps/rDock/src/rDock_2013.1_src/data/scripts/dock_solv.prm

>  <Rbt.Receptor>
prm/pocket_docking_6.prm

>  <SCORE>
-8.69279

>  <SCORE.INTER>
-6.59851

>  <SCORE.INTER.CONST>
1

>  <SCORE.INTER.POLAR>
0

>  <SCORE.INTER.ROT>
2

>  <SCORE.INTER.SOLV>
8.83636

>  <SCORE.INTER.VDW>
-12.2778

>  <SCORE.INTER.norm>
-0.329926

>  <SCORE.INTRA>
-2.09428

>  <SCORE.INTRA.DIHEDRAL>
-2.53547

>  <SCORE.INTRA.DIHEDRAL.0>
3.72394

>  <SCORE.INTRA.POLAR>
0

>  <SCORE.INTRA.POLAR.0>
0

>  <SCORE.INTRA.REPUL>
0

>  <SCORE.INTRA.REPUL.0>
0

>  <SCORE.INTRA.SOLV>
-0.877537

>  <SCORE.INTRA.SOLV.lig_0>
-49.4697

>  <SCORE.INTRA.VDW>
-0.387771

>  <SCORE.INTRA.VDW.0>
-0.896538

>  <SCORE.INTRA.norm>
-0.104714

>  <SCORE.RESTR>
0

>  <SCORE.RESTR.CAVITY>
0

>  <SCORE.RESTR.norm>
0

>  <SCORE.SYSTEM>
0

>  <SCORE.SYSTEM.CONST>
0

>  <SCORE.SYSTEM.DIHEDRAL>
0

>  <SCORE.SYSTEM.SOLV>
0

>  <SCORE.SYSTEM.norm>
0

>  <SCORE.heavy>
20

>  <SCORE.norm>
-0.434639

>  <RMSD>
5.963

$$$$
1nyi_lig
 OpenBabel11021811403D
libRbt.so/2013.1/901 2013/11/27
 20 22  0  0  0  0  0  0  0  0999 V2000
   22.1907   -7.5212   45.8717 C   0  0  0  0  0  0  0  0  0  0  0  0
   21.7921   -6.2087   45.4761 O   0  0  0  0  0  0  0  0  0  0  0  0
   23.2896   -8.0447   44.9736 C   0  0  1  0  0  0  0  0  0  0  0  0
   22.8161   -8.0427   43.5995 O   0  0  0  0  0  0  0  0  0  0  0  0
   24.5292   -7.1571   44.9881 C   0  0  1  0  0  0  0  0  0  0  0  0
   25.4552   -7.5664   45.9956 O   0  0  0  0  0  0  0  0  0  0  0  0
   25.0612   -7.3217   43.5659 C   0  0  1  0  0  0  0  0  0  0  0  0
   25.7821   -8.5300   43.3763 O   0  0  0  0  0  0  0  0  0  0  0  0
   23.7544   -7.3599   42.7767 C   0  0  2  0  0  0  0  0  0  0  0  0
   20.0979   -5.0478   39.9888 N   0  0  0  0  0  0  0  0  0  0  0  0
   20.3163   -6.3869   40.2037 C   0  0  1  0  0  0  0  0  0  0  0  0
   19.4571   -7.2120   39.6035 N   0  0  0  0  0  0  0  0  0  0  0  0
   21.3034   -6.8789   40.9467 N   0  0  0  0  0  0  0  0  0  0  0  0
   22.0933   -5.8982   41.4735 C   0  0  1  0  0  0  0  0  0  0  0  0
   21.9555   -4.5303   41.3160 C   0  0  1  0  0  0  0  0  0  0  0  0
   20.8850   -4.0286   40.5244 C   0  0  0  0  0  0  0  0  0  0  0  0
   20.5989   -2.8515   40.2712 O   0  0  0  0  0  0  0  0  0  0  0  0
   22.9446   -3.8561   42.0203 N   0  0  0  0  0  0  0  0  0  0  0  0
   23.6523   -4.8024   42.5732 C   0  0  0  0  0  0  0  0  0  0  0  0
   23.2071   -6.0741   42.2859 N   0  0  1  0  0  0  0  0  0  0  0  0
  2  1  1  0  0  0  0
  3  1  1  1  0  0  0
  3  4  1  0  0  0  0
  3  5  1  0  0  0  0
  5  6  1  1  0  0  0
  5  7  1  0  0  0  0
  7  8  1  1  0  0  0
  7  9  1  0  0  0  0
  9  4  1  1  0  0  0
  9 20  1  0  0  0  0
 10 11  1  0  0  0  0
 11 12  1  6  0  0  0
 11 13  1  0  0  0  0
 14 13  1  1  0  0  0
 15 14  1  0  0  0  0
 15 16  1  1  0  0  0
 16 10  1  0  0  0  0
 16 17  2  0  0  0  0
 18 15  1  0  0  0  0
 19 18  1  0  0  0  0
 20 14  1  0  0  0  0
 20 19  1  1  0  0  0
M  END
>  <CHROM.1>
-57.88863414,-62.12220978,22.58605534,-6.28510992,42.64319545,0.66063929
0.75690367,2.83942554

>  <Name>
1nyi_lig

>  <RI>
0

>  <Rbt.Current_Directory>
/home/itssahil/PROJECTS/Mol_Feturizer/New_Systems/rnas/1nyi

>  <Rbt.Executable>
rbdock ($Id: //depot/dev/client3/rdock/2013.1/src/exe/rbdock.cxx#4 $)

>  <Rbt.Library>
libRbt.so (2013.1, Build901 2013/11/27)

>  <Rbt.Parameter_File>
/export/apps/rDock/src/rDock_2013.1_src/data/scripts/dock_solv.prm

>  <Rbt.Receptor>
prm/pocket_docking_7.prm

>  <SCORE>
-10.0455

>  <SCORE.INTER>
-8.38778

>  <SCORE.INTER.CONST>
1

>  <SCORE.INTER.POLAR>
-1.23628

>  <SCORE.INTER.ROT>
2

>  <SCORE.INTER.SOLV>
9.32897

>  <SCORE.INTER.VDW>
-9.51392

>  <SCORE.INTER.norm>
-0.419389

>  <SCORE.INTRA>
-1.65768

>  <SCORE.INTRA.DIHEDRAL>
-2.50032

>  <SCORE.INTRA.DIHEDRAL.0>
3.72394

>  <SCORE.INTRA.POLAR>
0

>  <SCORE.INTRA.POLAR.0>
0

>  <SCORE.INTRA.REPUL>
0.00223051

>  <SCORE.INTRA.REPUL.0>
0

>  <SCORE.INTRA.SOLV>
0.121288

>  <SCORE.INTRA.SOLV.lig_0>
-49.4697

>  <SCORE.INTRA.VDW>
-0.47932

>  <SCORE.INTRA.VDW.0>
-0.896538

>  <SCORE.INTRA.norm>
-0.0828841

>  <SCORE.RESTR>
0

>  <SCORE.RESTR.CAVITY>
0

>  <SCORE.RESTR.norm>
0

>  <SCORE.SYSTEM>
0

>  <SCORE.SYSTEM.CONST>
0

>  <SCORE.SYSTEM.DIHEDRAL>
0

>  <SCORE.SYSTEM.SOLV>
0

>  <SCORE.SYSTEM.norm>
0

>  <SCORE.heavy>
20

>  <SCORE.norm>
-0.502273

>  <RMSD>
5.968

$$$$
1nyi_lig
 OpenBabel11021811403D
libRbt.so/2013.1/901 2013/11/27
 20 22  0  0  0  0  0  0  0  0999 V2000
   22.3411   -7.5533   46.0352 C   0  0  0  0  0  0  0  0  0  0  0  0
   21.9774   -6.2238   45.6635 O   0  0  0  0  0  0  0  0  0  0  0  0
   23.3599   -8.1227   45.0729 C   0  0  1  0  0  0  0  0  0  0  0  0
   22.7987   -8.1129   43.7323 O   0  0  0  0  0  0  0  0  0  0  0  0
   24.6289   -7.2809   44.9992 C   0  0  1  0  0  0  0  0  0  0  0  0
   25.6031   -7.7168   45.9485 O   0  0  0  0  0  0  0  0  0  0  0  0
   25.0614   -7.4746   43.5472 C   0  0  1  0  0  0  0  0  0  0  0  0
   25.7245   -8.7096   43.3226 O   0  0  0  0  0  0  0  0  0  0  0  0
   23.7057   -7.4705   42.8444 C   0  0  2  0  0  0  0  0  0  0  0  0
   20.1228   -5.0646   40.0402 N   0  0  0  0  0  0  0  0  0  0  0  0
   20.3315   -6.4102   40.2215 C   0  0  1  0  0  0  0  0  0  0  0  0
   19.4837   -7.2143   39.5783 N   0  0  0  0  0  0  0  0  0  0  0  0
   21.2994   -6.9273   40.9728 N   0  0  0  0  0  0  0  0  0  0  0  0
   22.0802   -5.9652   41.5456 C   0  0  1  0  0  0  0  0  0  0  0  0
   21.9508   -4.5929   41.4242 C   0  0  1  0  0  0  0  0  0  0  0  0
   20.9008   -4.0644   40.6228 C   0  0  0  0  0  0  0  0  0  0  0  0
   20.6247   -2.8793   40.3970 O   0  0  0  0  0  0  0  0  0  0  0  0
   22.9257   -3.9431   42.1703 N   0  0  0  0  0  0  0  0  0  0  0  0
   23.6170   -4.9077   42.7119 C   0  0  0  0  0  0  0  0  0  0  0  0
   23.1743   -6.1689   42.3781 N   0  0  1  0  0  0  0  0  0  0  0  0
  2  1  1  0  0  0  0
  3  1  1  1  0  0  0
  3  4  1  0  0  0  0
  3  5  1  0  0  0  0
  5  6  1  1  0  0  0
  5  7  1  0  0  0  0
  7  8  1  1  0  0  0
  7  9  1  0  0  0  0
  9  4  1  1  0  0  0
  9 20  1  0  0  0  0
 10 11  1  0  0  0  0
 11 12  1  6  0  0  0
 11 13  1  0  0  0  0
 14 13  1  1  0  0  0
 15 14  1  0  0  0  0
 15 16  1  1  0  0  0
 16 10  1  0  0  0  0
 16 17  2  0  0  0  0
 18 15  1  0  0  0  0
 19 18  1  0  0  0  0
 20 14  1  0  0  0  0
 20 19  1  1  0  0  0
M  END
>  <CHROM.1>
-58.60282830,-67.88961461,22.61391835,-6.35972771,42.71333219,0.45449206
0.87563217,3.12942479

>  <Name>
1nyi_lig

>  <RI>
0

>  <Rbt.Current_Directory>
/home/itssahil/PROJECTS/Mol_Feturizer/New_Systems/rnas/1nyi

>  <Rbt.Executable>
rbdock ($Id: //depot/dev/client3/rdock/2013.1/src/exe/rbdock.cxx#4 $)

>  <Rbt.Library>
libRbt.so (2013.1, Build901 2013/11/27)

>  <Rbt.Parameter_File>
/export/apps/rDock/src/rDock_2013.1_src/data/scripts/dock_solv.prm

>  <Rbt.Receptor>
prm/pocket_docking_7.prm

>  <SCORE>
-10.19

>  <SCORE.INTER>
-8.52037

>  <SCORE.INTER.CONST>
1

>  <SCORE.INTER.POLAR>
-1.22362

>  <SCORE.INTER.ROT>
2

>  <SCORE.INTER.SOLV>
9.52813

>  <SCORE.INTER.VDW>
-9.71089

>  <SCORE.INTER.norm>
-0.426018

>  <SCORE.INTRA>
-1.66961

>  <SCORE.INTRA.DIHEDRAL>
-2.53457

>  <SCORE.INTRA.DIHEDRAL.0>
3.72394

>  <SCORE.INTRA.POLAR>
0

>  <SCORE.INTRA.POLAR.0>
0

>  <SCORE.INTRA.REPUL>
0

>  <SCORE.INTRA.REPUL.0>
0

>  <SCORE.INTRA.SOLV>
0.102338

>  <SCORE.INTRA.SOLV.lig_0>
-49.4697

>  <SCORE.INTRA.VDW>
-0.45349

>  <SCORE.INTRA.VDW.0>
-0.896538

>  <SCORE.INTRA.norm>
-0.0834803

>  <SCORE.RESTR>
0

>  <SCORE.RESTR.CAVITY>
0

>  <SCORE.RESTR.norm>
0

>  <SCORE.SYSTEM>
0

>  <SCORE.SYSTEM.CONST>
0

>  <SCORE.SYSTEM.DIHEDRAL>
0

>  <SCORE.SYSTEM.SOLV>
0

>  <SCORE.SYSTEM.norm>
0

>  <SCORE.heavy>
20

>  <SCORE.norm>
-0.509499

>  <RMSD>
5.981

$$$$
1nyi_lig
 OpenBabel11021811403D
libRbt.so/2013.1/901 2013/11/27
 20 22  0  0  0  0  0  0  0  0999 V2000
   22.1271   -5.5598   41.8514 C   0  0  0  0  0  0  0  0  0  0  0  0
   21.6735   -6.1385   40.6277 O   0  0  0  0  0  0  0  0  0  0  0  0
   21.7823   -6.4462   43.0277 C   0  0  1  0  0  0  0  0  0  0  0  0
   22.5951   -7.6494   42.9651 O   0  0  0  0  0  0  0  0  0  0  0  0
   22.1074   -5.7935   44.3667 C   0  0  1  0  0  0  0  0  0  0  0  0
   20.9944   -5.0560   44.8743 O   0  0  0  0  0  0  0  0  0  0  0  0
   22.4880   -6.9956   45.2284 C   0  0  1  0  0  0  0  0  0  0  0  0
   21.3628   -7.7119   45.7150 O   0  0  0  0  0  0  0  0  0  0  0  0
   23.2510   -7.8428   44.2125 C   0  0  2  0  0  0  0  0  0  0  0  0
   27.1354   -4.4932   44.6375 N   0  0  0  0  0  0  0  0  0  0  0  0
   25.7877   -4.2944   44.8146 C   0  0  1  0  0  0  0  0  0  0  0  0
   25.4293   -3.0529   45.1451 N   0  0  0  0  0  0  0  0  0  0  0  0
   24.8626   -5.2396   44.6747 N   0  0  0  0  0  0  0  0  0  0  0  0
   25.4014   -6.4433   44.3226 C   0  0  1  0  0  0  0  0  0  0  0  0
   26.7376   -6.7417   44.1221 C   0  0  1  0  0  0  0  0  0  0  0  0
   27.7089   -5.7154   44.2879 C   0  0  0  0  0  0  0  0  0  0  0  0
   28.9374   -5.7878   44.1567 O   0  0  0  0  0  0  0  0  0  0  0  0
   26.8938   -8.0812   43.7896 N   0  0  0  0  0  0  0  0  0  0  0  0
   25.6798   -8.5590   43.7869 C   0  0  0  0  0  0  0  0  0  0  0  0
   24.7118   -7.6280   44.0935 N   0  0  1  0  0  0  0  0  0  0  0  0
  2  1  1  0  0  0  0
  3  1  1  6  0  0  0
  3  4  1  0  0  0  0
  3  5  1  0  0  0  0
  5  6  1  1  0  0  0
  5  7  1  0  0  0  0
  7  8  1  6  0  0  0
  7  9  1  0  0  0  0
  9  4  1  6  0  0  0
  9 20  1  0  0  0  0
 10 11  1  0  0  0  0
 11 12  1  6  0  0  0
 11 13  1  0  0  0  0
 14 13  1  1  0  0  0
 15 14  1  0  0  0  0
 15 16  1  1  0  0  0
 16 10  1  0  0  0  0
 16 17  2  0  0  0  0
 18 15  1  0  0  0  0
 19 18  1  0  0  0  0
 20 14  1  0  0  0  0
 20 19  1  1  0  0  0
M  END
>  <CHROM.1>
69.43189555,92.98478324,24.32566402,-6.27028525,44.01351800,2.97324783,0.11070628
-2.85908265

>  <Name>
1nyi_lig

>  <RI>
0

>  <Rbt.Current_Directory>
/home/itssahil/PROJECTS/Mol_Feturizer/New_Systems/rnas/1nyi

>  <Rbt.Executable>
rbdock ($Id: //depot/dev/client3/rdock/2013.1/src/exe/rbdock.cxx#4 $)

>  <Rbt.Library>
libRbt.so (2013.1, Build901 2013/11/27)

>  <Rbt.Parameter_File>
/export/apps/rDock/src/rDock_2013.1_src/data/scripts/dock_solv.prm

>  <Rbt.Receptor>
prm/pocket_docking_4.prm

>  <SCORE>
-8.3087

>  <SCORE.INTER>
-6.94154

>  <SCORE.INTER.CONST>
1

>  <SCORE.INTER.POLAR>
-0.738523

>  <SCORE.INTER.ROT>
2

>  <SCORE.INTER.SOLV>
7.42325

>  <SCORE.INTER.VDW>
-9.5737

>  <SCORE.INTER.norm>
-0.347077

>  <SCORE.INTRA>
-1.36724

>  <SCORE.INTRA.DIHEDRAL>
-2.09467

>  <SCORE.INTRA.DIHEDRAL.0>
3.72394

>  <SCORE.INTRA.POLAR>
0

>  <SCORE.INTRA.POLAR.0>
0

>  <SCORE.INTRA.REPUL>
0

>  <SCORE.INTRA.REPUL.0>
0

>  <SCORE.INTRA.SOLV>
0.684906

>  <SCORE.INTRA.SOLV.lig_0>
-49.4697

>  <SCORE.INTRA.VDW>
-0.662355

>  <SCORE.INTRA.VDW.0>
-0.896538

>  <SCORE.INTRA.norm>
-0.0683619

>  <SCORE.RESTR>
7.96931e-05

>  <SCORE.RESTR.CAVITY>
7.96931e-05

>  <SCORE.RESTR.norm>
3.98466e-06

>  <SCORE.SYSTEM>
0

>  <SCORE.SYSTEM.CONST>
0

>  <SCORE.SYSTEM.DIHEDRAL>
0

>  <SCORE.SYSTEM.SOLV>
0

>  <SCORE.SYSTEM.norm>
0

>  <SCORE.heavy>
20

>  <SCORE.norm>
-0.415435

>  <RMSD>
6.004

$$$$
1nyi_lig
 OpenBabel11021811403D
libRbt.so/2013.1/901 2013/11/27
 20 22  0  0  0  0  0  0  0  0999 V2000
   22.6410   -7.7510   46.2462 C   0  0  0  0  0  0  0  0  0  0  0  0
   23.2314   -7.5904   47.5360 O   0  0  0  0  0  0  0  0  0  0  0  0
   23.6835   -8.1355   45.2198 C   0  0  1  0  0  0  0  0  0  0  0  0
   23.0276   -8.3558   43.9417 O   0  0  0  0  0  0  0  0  0  0  0  0
   24.7031   -7.0279   44.9789 C   0  0  1  0  0  0  0  0  0  0  0  0
   25.8283   -7.1527   45.8499 O   0  0  0  0  0  0  0  0  0  0  0  0
   25.0480   -7.2212   43.5037 C   0  0  1  0  0  0  0  0  0  0  0  0
   25.9670   -8.2799   43.2796 O   0  0  0  0  0  0  0  0  0  0  0  0
   23.6775   -7.5861   42.9373 C   0  0  2  0  0  0  0  0  0  0  0  0
   18.8966   -5.6992   42.6707 N   0  0  0  0  0  0  0  0  0  0  0  0
   19.3409   -6.8776   43.2195 C   0  0  1  0  0  0  0  0  0  0  0  0
   18.3983   -7.6485   43.7639 N   0  0  0  0  0  0  0  0  0  0  0  0
   20.6112   -7.2712   43.2302 N   0  0  0  0  0  0  0  0  0  0  0  0
   21.4373   -6.3713   42.6212 C   0  0  1  0  0  0  0  0  0  0  0  0
   21.0873   -5.1641   42.0424 C   0  0  1  0  0  0  0  0  0  0  0  0
   19.7229   -4.7607   42.0529 C   0  0  0  0  0  0  0  0  0  0  0  0
   19.2207   -3.7273   41.5932 O   0  0  0  0  0  0  0  0  0  0  0  0
   22.2105   -4.5204   41.5394 N   0  0  0  0  0  0  0  0  0  0  0  0
   23.1970   -5.3307   41.8081 C   0  0  0  0  0  0  0  0  0  0  0  0
   22.8130   -6.4829   42.4584 N   0  0  1  0  0  0  0  0  0  0  0  0
  2  1  1  0  0  0  0
  3  1  1  1  0  0  0
  3  4  1  0  0  0  0
  3  5  1  0  0  0  0
  5  6  1  1  0  0  0
  5  7  1  0  0  0  0
  7  8  1  1  0  0  0
  7  9  1  0  0  0  0
  9  4  1  1  0  0  0
  9 20  1  0  0  0  0
 10 11  1  0  0  0  0
 11 12  1  6  0  0  0
 11 13  1  0  0  0  0
 14 13  1  1  0  0  0
 15 14  1  0  0  0  0
 15 16  1  1  0  0  0
 16 10  1  0  0  0  0
 16 17  2  0  0  0  0
 18 15  1  0  0  0  0
 19 18  1  0  0  0  0
 20 14  1  0  0  0  0
 20 19  1  1  0  0  0
M  END
>  <CHROM.1>
177.05202448,-17.61553421,22.28659429,-6.66783283,43.56812830,0.62624775
-0.08535584,2.14072381

>  <Name>
1nyi_lig

>  <RI>
0

>  <Rbt.Current_Directory>
/home/itssahil/PROJECTS/Mol_Feturizer/New_Systems/rnas/1nyi

>  <Rbt.Executable>
rbdock ($Id: //depot/dev/client3/rdock/2013.1/src/exe/rbdock.cxx#4 $)

>  <Rbt.Library>
libRbt.so (2013.1, Build901 2013/11/27)

>  <Rbt.Parameter_File>
/export/apps/rDock/src/rDock_2013.1_src/data/scripts/dock_solv.prm

>  <Rbt.Receptor>
prm/pocket_docking_6.prm

>  <SCORE>
-9.1899

>  <SCORE.INTER>
-7.71137

>  <SCORE.INTER.CONST>
1

>  <SCORE.INTER.POLAR>
-1.20416

>  <SCORE.INTER.ROT>
2

>  <SCORE.INTER.SOLV>
5.86667

>  <SCORE.INTER.VDW>
-8.01595

>  <SCORE.INTER.norm>
-0.385568

>  <SCORE.INTRA>
-1.47853

>  <SCORE.INTRA.DIHEDRAL>
-2.40166

>  <SCORE.INTRA.DIHEDRAL.0>
3.72394

>  <SCORE.INTRA.POLAR>
0

>  <SCORE.INTRA.POLAR.0>
0

>  <SCORE.INTRA.REPUL>
0

>  <SCORE.INTRA.REPUL.0>
0

>  <SCORE.INTRA.SOLV>
0.307925

>  <SCORE.INTRA.SOLV.lig_0>
-49.4697

>  <SCORE.INTRA.VDW>
-0.431667

>  <SCORE.INTRA.VDW.0>
-0.896538

>  <SCORE.INTRA.norm>
-0.0739267

>  <SCORE.RESTR>
0

>  <SCORE.RESTR.CAVITY>
0

>  <SCORE.RESTR.norm>
0

>  <SCORE.SYSTEM>
0

>  <SCORE.SYSTEM.CONST>
0

>  <SCORE.SYSTEM.DIHEDRAL>
0

>  <SCORE.SYSTEM.SOLV>
0

>  <SCORE.SYSTEM.norm>
0

>  <SCORE.heavy>
20

>  <SCORE.norm>
-0.459495

>  <RMSD>
6.006

$$$$
1nyi_lig
 OpenBabel11021811403D
libRbt.so/2013.1/901 2013/11/27
 20 22  0  0  0  0  0  0  0  0999 V2000
   23.2969   -7.2923   44.4533 C   0  0  0  0  0  0  0  0  0  0  0  0
   22.4909   -8.2139   43.7192 O   0  0  0  0  0  0  0  0  0  0  0  0
   23.0588   -5.8743   43.9835 C   0  0  1  0  0  0  0  0  0  0  0  0
   23.8604   -4.9697   44.7905 O   0  0  0  0  0  0  0  0  0  0  0  0
   23.5051   -5.6530   42.5425 C   0  0  1  0  0  0  0  0  0  0  0  0
   22.4440   -5.9061   41.6204 O   0  0  0  0  0  0  0  0  0  0  0  0
   23.9602   -4.1953   42.5652 C   0  0  1  0  0  0  0  0  0  0  0  0
   22.8826   -3.2733   42.4991 O   0  0  0  0  0  0  0  0  0  0  0  0
   24.6265   -4.1274   43.9376 C   0  0  2  0  0  0  0  0  0  0  0  0
   29.4356   -2.3613   43.4454 N   0  0  0  0  0  0  0  0  0  0  0  0
   28.2420   -1.7144   43.2351 C   0  0  1  0  0  0  0  0  0  0  0  0
   28.3395   -0.4422   42.8463 N   0  0  0  0  0  0  0  0  0  0  0  0
   27.0453   -2.2733   43.3906 N   0  0  0  0  0  0  0  0  0  0  0  0
   27.1303   -3.5794   43.7782 C   0  0  1  0  0  0  0  0  0  0  0  0
   28.2783   -4.3149   44.0144 C   0  0  1  0  0  0  0  0  0  0  0  0
   29.5465   -3.6910   43.8509 C   0  0  0  0  0  0  0  0  0  0  0  0
   30.6723   -4.1778   44.0157 O   0  0  0  0  0  0  0  0  0  0  0  0
   27.9571   -5.6072   44.4092 N   0  0  0  0  0  0  0  0  0  0  0  0
   26.6528   -5.6355   44.3989 C   0  0  0  0  0  0  0  0  0  0  0  0
   26.0708   -4.4457   44.0198 N   0  0  1  0  0  0  0  0  0  0  0  0
  2  1  1  0  0  0  0
  3  1  1  1  0  0  0
  3  4  1  0  0  0  0
  3  5  1  0  0  0  0
  5  6  1  6  0  0  0
  5  7  1  0  0  0  0
  7  8  1  1  0  0  0
  7  9  1  0  0  0  0
  9  4  1  1  0  0  0
  9 20  1  0  0  0  0
 10 11  1  0  0  0  0
 11 12  1  6  0  0  0
 11 13  1  0  0  0  0
 14 13  1  1  0  0  0
 15 14  1  0  0  0  0
 15 16  1  1  0  0  0
 16 10  1  0  0  0  0
 16 17  2  0  0  0  0
 18 15  1  0  0  0  0
 19 18  1  0  0  0  0
 20 14  1  0  0  0  0
 20 19  1  1  0  0  0
M  END
>  <CHROM.1>
177.88620155,-153.21602160,25.90659406,-4.42966269,43.56864441,-2.68780619
-0.22882993,-0.34490778

>  <Name>
1nyi_lig

>  <RI>
0

>  <Rbt.Current_Directory>
/home/itssahil/PROJECTS/Mol_Feturizer/New_Systems/rnas/1nyi

>  <Rbt.Executable>
rbdock ($Id: //depot/dev/client3/rdock/2013.1/src/exe/rbdock.cxx#4 $)

>  <Rbt.Library>
libRbt.so (2013.1, Build901 2013/11/27)

>  <Rbt.Parameter_File>
/export/apps/rDock/src/rDock_2013.1_src/data/scripts/dock_solv.prm

>  <Rbt.Receptor>
prm/pocket_docking_2.prm

>  <SCORE>
-6.94721

>  <SCORE.INTER>
-6.23588

>  <SCORE.INTER.CONST>
1

>  <SCORE.INTER.POLAR>
-0.857354

>  <SCORE.INTER.ROT>
2

>  <SCORE.INTER.SOLV>
12.7012

>  <SCORE.INTER.VDW>
-10.4665

>  <SCORE.INTER.norm>
-0.311794

>  <SCORE.INTRA>
-1.87261

>  <SCORE.INTRA.DIHEDRAL>
-2.40453

>  <SCORE.INTRA.DIHEDRAL.0>
3.72394

>  <SCORE.INTRA.POLAR>
0

>  <SCORE.INTRA.POLAR.0>
0

>  <SCORE.INTRA.REPUL>
0

>  <SCORE.INTRA.REPUL.0>
0

>  <SCORE.INTRA.SOLV>
-0.585316

>  <SCORE.INTRA.SOLV.lig_0>
-49.4697

>  <SCORE.INTRA.VDW>
-0.377688

>  <SCORE.INTRA.VDW.0>
-0.896538

>  <SCORE.INTRA.norm>
-0.0936304

>  <SCORE.RESTR>
1.16128

>  <SCORE.RESTR.CAVITY>
1.16128

>  <SCORE.RESTR.norm>
0.0580642

>  <SCORE.SYSTEM>
0

>  <SCORE.SYSTEM.CONST>
0

>  <SCORE.SYSTEM.DIHEDRAL>
0

>  <SCORE.SYSTEM.SOLV>
0

>  <SCORE.SYSTEM.norm>
0

>  <SCORE.heavy>
20

>  <SCORE.norm>
-0.34736

>  <RMSD>
6.013

$$$$
1nyi_lig
 OpenBabel11021811403D
libRbt.so/2013.1/901 2013/11/27
 20 22  0  0  0  0  0  0  0  0999 V2000
   22.6485   -7.9408   46.2292 C   0  0  0  0  0  0  0  0  0  0  0  0
   23.2083   -7.9009   47.5418 O   0  0  0  0  0  0  0  0  0  0  0  0
   23.7039   -8.2892   45.2031 C   0  0  1  0  0  0  0  0  0  0  0  0
   23.0747   -8.3950   43.8973 O   0  0  0  0  0  0  0  0  0  0  0  0
   24.7669   -7.2049   45.0663 C   0  0  1  0  0  0  0  0  0  0  0  0
   25.8639   -7.4313   45.9527 O   0  0  0  0  0  0  0  0  0  0  0  0
   25.1437   -7.3059   43.5897 C   0  0  1  0  0  0  0  0  0  0  0  0
   26.0314   -8.3786   43.3125 O   0  0  0  0  0  0  0  0  0  0  0  0
   23.7769   -7.5803   42.9662 C   0  0  2  0  0  0  0  0  0  0  0  0
   19.0580   -5.5561   42.6151 N   0  0  0  0  0  0  0  0  0  0  0  0
   19.4463   -6.7915   43.0734 C   0  0  1  0  0  0  0  0  0  0  0  0
   18.4586   -7.5858   43.4892 N   0  0  0  0  0  0  0  0  0  0  0  0
   20.7057   -7.2165   43.1172 N   0  0  0  0  0  0  0  0  0  0  0  0
   21.5833   -6.2848   42.6430 C   0  0  1  0  0  0  0  0  0  0  0  0
   21.2915   -5.0203   42.1627 C   0  0  1  0  0  0  0  0  0  0  0  0
   19.9371   -4.5852   42.1358 C   0  0  0  0  0  0  0  0  0  0  0  0
   19.4830   -3.5009   41.7491 O   0  0  0  0  0  0  0  0  0  0  0  0
   22.4545   -4.3610   41.7861 N   0  0  0  0  0  0  0  0  0  0  0  0
   23.4074   -5.2177   42.0311 C   0  0  0  0  0  0  0  0  0  0  0  0
   22.9636   -6.4156   42.5468 N   0  0  1  0  0  0  0  0  0  0  0  0
  2  1  1  0  0  0  0
  3  1  1  1  0  0  0
  3  4  1  0  0  0  0
  3  5  1  0  0  0  0
  5  6  1  1  0  0  0
  5  7  1  0  0  0  0
  7  8  1  1  0  0  0
  7  9  1  0  0  0  0
  9  4  1  1  0  0  0
  9 20  1  0  0  0  0
 10 11  1  0  0  0  0
 11 12  1  6  0  0  0
 11 13  1  0  0  0  0
 14 13  1  1  0  0  0
 15 14  1  0  0  0  0
 15 16  1  1  0  0  0
 16 10  1  0  0  0  0
 16 17  2  0  0  0  0
 18 15  1  0  0  0  0
 19 18  1  0  0  0  0
 20 14  1  0  0  0  0
 20 19  1  1  0  0  0
M  END
>  <CHROM.1>
176.70161826,-19.97128880,22.39801373,-6.67269257,43.59935535,0.67153092
-0.07379147,2.22657015

>  <Name>
1nyi_lig

>  <RI>
0

>  <Rbt.Current_Directory>
/home/itssahil/PROJECTS/Mol_Feturizer/New_Systems/rnas/1nyi

>  <Rbt.Executable>
rbdock ($Id: //depot/dev/client3/rdock/2013.1/src/exe/rbdock.cxx#4 $)

>  <Rbt.Library>
libRbt.so (2013.1, Build901 2013/11/27)

>  <Rbt.Parameter_File>
/export/apps/rDock/src/rDock_2013.1_src/data/scripts/dock_solv.prm

>  <Rbt.Receptor>
prm/pocket_docking_6.prm

>  <SCORE>
-9.25316

>  <SCORE.INTER>
-7.8363

>  <SCORE.INTER.CONST>
1

>  <SCORE.INTER.POLAR>
-1.20601

>  <SCORE.INTER.ROT>
2

>  <SCORE.INTER.SOLV>
5.99695

>  <SCORE.INTER.VDW>
-8.13648

>  <SCORE.INTER.norm>
-0.391815

>  <SCORE.INTRA>
-1.41686

>  <SCORE.INTRA.DIHEDRAL>
-2.38893

>  <SCORE.INTRA.DIHEDRAL.0>
3.72394

>  <SCORE.INTRA.POLAR>
0

>  <SCORE.INTRA.POLAR.0>
0

>  <SCORE.INTRA.REPUL>
0.0164911

>  <SCORE.INTRA.REPUL.0>
0

>  <SCORE.INTRA.SOLV>
0.25321

>  <SCORE.INTRA.SOLV.lig_0>
-49.4697

>  <SCORE.INTRA.VDW>
-0.431462

>  <SCORE.INTRA.VDW.0>
-0.896538

>  <SCORE.INTRA.norm>
-0.0708432

>  <SCORE.RESTR>
0

>  <SCORE.RESTR.CAVITY>
0

>  <SCORE.RESTR.norm>
0

>  <SCORE.SYSTEM>
0

>  <SCORE.SYSTEM.CONST>
0

>  <SCORE.SYSTEM.DIHEDRAL>
0

>  <SCORE.SYSTEM.SOLV>
0

>  <SCORE.SYSTEM.norm>
0

>  <SCORE.heavy>
20

>  <SCORE.norm>
-0.462658

>  <RMSD>
6.019

$$$$
1nyi_lig
 OpenBabel11021811403D
libRbt.so/2013.1/901 2013/11/27
 20 22  0  0  0  0  0  0  0  0999 V2000
   22.5657   -7.5166   46.1311 C   0  0  0  0  0  0  0  0  0  0  0  0
   23.1390   -7.5262   47.4385 O   0  0  0  0  0  0  0  0  0  0  0  0
   23.5222   -8.1060   45.1183 C   0  0  1  0  0  0  0  0  0  0  0  0
   22.8865   -8.1012   43.8114 O   0  0  0  0  0  0  0  0  0  0  0  0
   24.7943   -7.2795   44.9654 C   0  0  1  0  0  0  0  0  0  0  0  0
   25.8156   -7.7185   45.8624 O   0  0  0  0  0  0  0  0  0  0  0  0
   25.1420   -7.4906   43.4933 C   0  0  1  0  0  0  0  0  0  0  0  0
   25.7777   -8.7352   43.2431 O   0  0  0  0  0  0  0  0  0  0  0  0
   23.7489   -7.4769   42.8679 C   0  0  2  0  0  0  0  0  0  0  0  0
   20.1483   -5.0617   40.0946 N   0  0  0  0  0  0  0  0  0  0  0  0
   20.3689   -6.4080   40.2561 C   0  0  1  0  0  0  0  0  0  0  0  0
   19.5292   -7.2100   39.5998 N   0  0  0  0  0  0  0  0  0  0  0  0
   21.3404   -6.9275   41.0011 N   0  0  0  0  0  0  0  0  0  0  0  0
   22.1118   -5.9671   41.5893 C   0  0  1  0  0  0  0  0  0  0  0  0
   21.9702   -4.5944   41.4882 C   0  0  1  0  0  0  0  0  0  0  0  0
   20.9165   -4.0634   40.6932 C   0  0  0  0  0  0  0  0  0  0  0  0
   20.6301   -2.8776   40.4846 O   0  0  0  0  0  0  0  0  0  0  0  0
   22.9381   -3.9470   42.2453 N   0  0  0  0  0  0  0  0  0  0  0  0
   23.6375   -4.9134   42.7735 C   0  0  0  0  0  0  0  0  0  0  0  0
   23.2065   -6.1733   42.4203 N   0  0  1  0  0  0  0  0  0  0  0  0
  2  1  1  0  0  0  0
  3  1  1  1  0  0  0
  3  4  1  0  0  0  0
  3  5  1  0  0  0  0
  5  6  1  1  0  0  0
  5  7  1  0  0  0  0
  7  8  1  1  0  0  0
  7  9  1  0  0  0  0
  9  4  1  1  0  0  0
  9 20  1  0  0  0  0
 10 11  1  0  0  0  0
 11 12  1  6  0  0  0
 11 13  1  0  0  0  0
 14 13  1  1  0  0  0
 15 14  1  0  0  0  0
 15 16  1  1  0  0  0
 16 10  1  0  0  0  0
 16 17  2  0  0  0  0
 18 15  1  0  0  0  0
 19 18  1  0  0  0  0
 20 14  1  0  0  0  0
 20 19  1  1  0  0  0
M  END
>  <CHROM.1>
178.80708620,-71.65501638,22.74611445,-6.43335574,42.84197676,-0.43887776
-0.91710113,-0.00672374

>  <Name>
1nyi_lig

>  <RI>
0

>  <Rbt.Current_Directory>
/home/itssahil/PROJECTS/Mol_Feturizer/New_Systems/rnas/1nyi

>  <Rbt.Executable>
rbdock ($Id: //depot/dev/client3/rdock/2013.1/src/exe/rbdock.cxx#4 $)

>  <Rbt.Library>
libRbt.so (2013.1, Build901 2013/11/27)

>  <Rbt.Parameter_File>
/export/apps/rDock/src/rDock_2013.1_src/data/scripts/dock_solv.prm

>  <Rbt.Receptor>
prm/pocket_docking_5.prm

>  <SCORE>
-10.1303

>  <SCORE.INTER>
-8.41914

>  <SCORE.INTER.CONST>
1

>  <SCORE.INTER.POLAR>
-1.21656

>  <SCORE.INTER.ROT>
2

>  <SCORE.INTER.SOLV>
9.6865

>  <SCORE.INTER.VDW>
-9.71971

>  <SCORE.INTER.norm>
-0.420957

>  <SCORE.INTRA>
-1.71113

>  <SCORE.INTRA.DIHEDRAL>
-2.55317

>  <SCORE.INTRA.DIHEDRAL.0>
3.72394

>  <SCORE.INTRA.POLAR>
0

>  <SCORE.INTRA.POLAR.0>
0

>  <SCORE.INTRA.REPUL>
0

>  <SCORE.INTRA.REPUL.0>
0

>  <SCORE.INTRA.SOLV>
-0.505243

>  <SCORE.INTRA.SOLV.lig_0>
-49.4697

>  <SCORE.INTRA.VDW>
-0.18192

>  <SCORE.INTRA.VDW.0>
-0.896538

>  <SCORE.INTRA.norm>
-0.0855564

>  <SCORE.RESTR>
0

>  <SCORE.RESTR.CAVITY>
0

>  <SCORE.RESTR.norm>
0

>  <SCORE.SYSTEM>
0

>  <SCORE.SYSTEM.CONST>
0

>  <SCORE.SYSTEM.DIHEDRAL>
0

>  <SCORE.SYSTEM.SOLV>
0

>  <SCORE.SYSTEM.norm>
0

>  <SCORE.heavy>
20

>  <SCORE.norm>
-0.506513

>  <RMSD>
6.024

$$$$
1nyi_lig
 OpenBabel11021811403D
libRbt.so/2013.1/901 2013/11/27
 20 22  0  0  0  0  0  0  0  0999 V2000
   21.9034   -7.9231   46.3573 C   0  0  0  0  0  0  0  0  0  0  0  0
   21.5876   -6.6280   45.8462 O   0  0  0  0  0  0  0  0  0  0  0  0
   23.1176   -8.4964   45.6606 C   0  0  1  0  0  0  0  0  0  0  0  0
   22.8691   -8.5261   44.2290 O   0  0  0  0  0  0  0  0  0  0  0  0
   24.3612   -7.6349   45.8495 C   0  0  1  0  0  0  0  0  0  0  0  0
   25.1044   -8.0327   47.0026 O   0  0  0  0  0  0  0  0  0  0  0  0
   25.1085   -7.8535   44.5356 C   0  0  1  0  0  0  0  0  0  0  0  0
   25.8194   -9.0818   44.4958 O   0  0  0  0  0  0  0  0  0  0  0  0
   23.9435   -7.8884   43.5489 C   0  0  2  0  0  0  0  0  0  0  0  0
   20.3873   -5.4653   40.7255 N   0  0  0  0  0  0  0  0  0  0  0  0
   20.4648   -6.7894   41.0833 C   0  0  1  0  0  0  0  0  0  0  0  0
   19.4755   -7.5638   40.6353 N   0  0  0  0  0  0  0  0  0  0  0  0
   21.4394   -7.3142   41.8205 N   0  0  0  0  0  0  0  0  0  0  0  0
   22.3727   -6.3858   42.1815 C   0  0  1  0  0  0  0  0  0  0  0  0
   22.3825   -5.0371   41.8725 C   0  0  1  0  0  0  0  0  0  0  0  0
   21.3230   -4.4979   41.0909 C   0  0  0  0  0  0  0  0  0  0  0  0
   21.1570   -3.3295   40.7182 O   0  0  0  0  0  0  0  0  0  0  0  0
   23.4907   -4.4160   42.4341 N   0  0  0  0  0  0  0  0  0  0  0  0
   24.1224   -5.3755   43.0523 C   0  0  0  0  0  0  0  0  0  0  0  0
   23.5142   -6.6068   42.9429 N   0  0  1  0  0  0  0  0  0  0  0  0
  2  1  1  0  0  0  0
  3  1  1  1  0  0  0
  3  4  1  0  0  0  0
  3  5  1  0  0  0  0
  5  6  1  1  0  0  0
  5  7  1  0  0  0  0
  7  8  1  1  0  0  0
  7  9  1  0  0  0  0
  9  4  1  1  0  0  0
  9 20  1  0  0  0  0
 10 11  1  0  0  0  0
 11 12  1  6  0  0  0
 11 13  1  0  0  0  0
 14 13  1  1  0  0  0
 15 14  1  0  0  0  0
 15 16  1  1  0  0  0
 16 10  1  0  0  0  0
 16 17  2  0  0  0  0
 18 15  1  0  0  0  0
 19 18  1  0  0  0  0
 20 14  1  0  0  0  0
 20 19  1  1  0  0  0
M  END
>  <CHROM.1>
-56.52370033,-47.24847101,22.71854840,-6.76144614,43.35530015,0.96604131
0.42611787,2.40376751

>  <Name>
1nyi_lig

>  <RI>
0

>  <Rbt.Current_Directory>
/home/itssahil/PROJECTS/Mol_Feturizer/New_Systems/rnas/1nyi

>  <Rbt.Executable>
rbdock ($Id: //depot/dev/client3/rdock/2013.1/src/exe/rbdock.cxx#4 $)

>  <Rbt.Library>
libRbt.so (2013.1, Build901 2013/11/27)

>  <Rbt.Parameter_File>
/export/apps/rDock/src/rDock_2013.1_src/data/scripts/dock_solv.prm

>  <Rbt.Receptor>
prm/pocket_docking_5.prm

>  <SCORE>
-8.48057

>  <SCORE.INTER>
-7.0957

>  <SCORE.INTER.CONST>
1

>  <SCORE.INTER.POLAR>
-1.27871

>  <SCORE.INTER.ROT>
2

>  <SCORE.INTER.SOLV>
9.69646

>  <SCORE.INTER.VDW>
-8.63359

>  <SCORE.INTER.norm>
-0.354785

>  <SCORE.INTRA>
-1.38487

>  <SCORE.INTRA.DIHEDRAL>
-2.40743

>  <SCORE.INTRA.DIHEDRAL.0>
3.72394

>  <SCORE.INTRA.POLAR>
0

>  <SCORE.INTRA.POLAR.0>
0

>  <SCORE.INTRA.REPUL>
0.034553

>  <SCORE.INTRA.REPUL.0>
0

>  <SCORE.INTRA.SOLV>
0.403153

>  <SCORE.INTRA.SOLV.lig_0>
-49.4697

>  <SCORE.INTRA.VDW>
-0.555494

>  <SCORE.INTRA.VDW.0>
-0.896538

>  <SCORE.INTRA.norm>
-0.0692434

>  <SCORE.RESTR>
0

>  <SCORE.RESTR.CAVITY>
0

>  <SCORE.RESTR.norm>
0

>  <SCORE.SYSTEM>
0

>  <SCORE.SYSTEM.CONST>
0

>  <SCORE.SYSTEM.DIHEDRAL>
0

>  <SCORE.SYSTEM.SOLV>
0

>  <SCORE.SYSTEM.norm>
0

>  <SCORE.heavy>
20

>  <SCORE.norm>
-0.424028

>  <RMSD>
6.034

$$$$
1nyi_lig
 OpenBabel11021811403D
libRbt.so/2013.1/901 2013/11/27
 20 22  0  0  0  0  0  0  0  0999 V2000
   22.6513   -7.8407   46.2770 C   0  0  0  0  0  0  0  0  0  0  0  0
   23.1775   -7.8716   47.6038 O   0  0  0  0  0  0  0  0  0  0  0  0
   23.6746   -8.3362   45.2793 C   0  0  1  0  0  0  0  0  0  0  0  0
   23.0585   -8.3992   43.9645 O   0  0  0  0  0  0  0  0  0  0  0  0
   24.8604   -7.3884   45.1384 C   0  0  1  0  0  0  0  0  0  0  0  0
   25.9084   -7.7207   46.0503 O   0  0  0  0  0  0  0  0  0  0  0  0
   25.2465   -7.5694   43.6718 C   0  0  1  0  0  0  0  0  0  0  0  0
   26.0055   -8.7458   43.4358 O   0  0  0  0  0  0  0  0  0  0  0  0
   23.8672   -7.6961   43.0288 C   0  0  2  0  0  0  0  0  0  0  0  0
   19.7286   -5.6379   40.7650 N   0  0  0  0  0  0  0  0  0  0  0  0
   20.0239   -6.9568   41.0112 C   0  0  1  0  0  0  0  0  0  0  0  0
   19.1062   -7.8357   40.6056 N   0  0  0  0  0  0  0  0  0  0  0  0
   21.1352   -7.3810   41.6060 N   0  0  0  0  0  0  0  0  0  0  0  0
   21.9672   -6.3526   41.9426 C   0  0  1  0  0  0  0  0  0  0  0  0
   21.7599   -4.9999   41.7380 C   0  0  1  0  0  0  0  0  0  0  0  0
   20.5582   -4.5708   41.1087 C   0  0  0  0  0  0  0  0  0  0  0  0
   20.1953   -3.4175   40.8445 O   0  0  0  0  0  0  0  0  0  0  0  0
   22.8277   -4.2623   42.2327 N   0  0  0  0  0  0  0  0  0  0  0  0
   23.6476   -5.1577   42.7103 C   0  0  0  0  0  0  0  0  0  0  0  0
   23.2042   -6.4543   42.5680 N   0  0  1  0  0  0  0  0  0  0  0  0
  2  1  1  0  0  0  0
  3  1  1  1  0  0  0
  3  4  1  0  0  0  0
  3  5  1  0  0  0  0
  5  6  1  1  0  0  0
  5  7  1  0  0  0  0
  7  8  1  1  0  0  0
  7  9  1  0  0  0  0
  9  4  1  1  0  0  0
  9 20  1  0  0  0  0
 10 11  1  0  0  0  0
 11 12  1  6  0  0  0
 11 13  1  0  0  0  0
 14 13  1  1  0  0  0
 15 14  1  0  0  0  0
 15 16  1  1  0  0  0
 16 10  1  0  0  0  0
 16 17  2  0  0  0  0
 18 15  1  0  0  0  0
 19 18  1  0  0  0  0
 20 14  1  0  0  0  0
 20 19  1  1  0  0  0
M  END
>  <CHROM.1>
175.01200838,-58.22053759,22.67127301,-6.75506886,43.13847881,0.80205112
0.41178933,2.45953417

>  <Name>
1nyi_lig

>  <RI>
0

>  <Rbt.Current_Directory>
/home/itssahil/PROJECTS/Mol_Feturizer/New_Systems/rnas/1nyi

>  <Rbt.Executable>
rbdock ($Id: //depot/dev/client3/rdock/2013.1/src/exe/rbdock.cxx#4 $)

>  <Rbt.Library>
libRbt.so (2013.1, Build901 2013/11/27)

>  <Rbt.Parameter_File>
/export/apps/rDock/src/rDock_2013.1_src/data/scripts/dock_solv.prm

>  <Rbt.Receptor>
prm/pocket_docking_7.prm

>  <SCORE>
-9.40153

>  <SCORE.INTER>
-7.82024

>  <SCORE.INTER.CONST>
1

>  <SCORE.INTER.POLAR>
-1.09593

>  <SCORE.INTER.ROT>
2

>  <SCORE.INTER.SOLV>
10.3199

>  <SCORE.INTER.VDW>
-9.9337

>  <SCORE.INTER.norm>
-0.391012

>  <SCORE.INTRA>
-1.58129

>  <SCORE.INTRA.DIHEDRAL>
-2.41672

>  <SCORE.INTRA.DIHEDRAL.0>
3.72394

>  <SCORE.INTRA.POLAR>
0

>  <SCORE.INTRA.POLAR.0>
0

>  <SCORE.INTRA.REPUL>
0.00791066

>  <SCORE.INTRA.REPUL.0>
0

>  <SCORE.INTRA.SOLV>
-0.439302

>  <SCORE.INTRA.SOLV.lig_0>
-49.4697

>  <SCORE.INTRA.VDW>
-0.192835

>  <SCORE.INTRA.VDW.0>
-0.896538

>  <SCORE.INTRA.norm>
-0.0790646

>  <SCORE.RESTR>
0

>  <SCORE.RESTR.CAVITY>
0

>  <SCORE.RESTR.norm>
0

>  <SCORE.SYSTEM>
0

>  <SCORE.SYSTEM.CONST>
0

>  <SCORE.SYSTEM.DIHEDRAL>
0

>  <SCORE.SYSTEM.SOLV>
0

>  <SCORE.SYSTEM.norm>
0

>  <SCORE.heavy>
20

>  <SCORE.norm>
-0.470077

>  <RMSD>
6.034

$$$$
1nyi_lig
 OpenBabel11021811403D
libRbt.so/2013.1/901 2013/11/27
 20 22  0  0  0  0  0  0  0  0999 V2000
   22.5308   -7.7929   46.1959 C   0  0  0  0  0  0  0  0  0  0  0  0
   23.0819   -7.6471   47.5047 O   0  0  0  0  0  0  0  0  0  0  0  0
   23.6064   -8.1516   45.1946 C   0  0  1  0  0  0  0  0  0  0  0  0
   22.9910   -8.3508   43.8931 O   0  0  0  0  0  0  0  0  0  0  0  0
   24.6260   -7.0338   45.0063 C   0  0  1  0  0  0  0  0  0  0  0  0
   25.7250   -7.1692   45.9086 O   0  0  0  0  0  0  0  0  0  0  0  0
   25.0168   -7.1966   43.5388 C   0  0  1  0  0  0  0  0  0  0  0  0
   25.9487   -8.2456   43.3226 O   0  0  0  0  0  0  0  0  0  0  0  0
   23.6665   -7.5582   42.9240 C   0  0  2  0  0  0  0  0  0  0  0  0
   18.8852   -5.6895   42.5544 N   0  0  0  0  0  0  0  0  0  0  0  0
   19.3199   -6.8754   43.0948 C   0  0  1  0  0  0  0  0  0  0  0  0
   18.3662   -7.6603   43.5983 N   0  0  0  0  0  0  0  0  0  0  0  0
   20.5914   -7.2631   43.1347 N   0  0  0  0  0  0  0  0  0  0  0  0
   21.4298   -6.3485   42.5656 C   0  0  1  0  0  0  0  0  0  0  0  0
   21.0900   -5.1329   41.9985 C   0  0  1  0  0  0  0  0  0  0  0  0
   19.7238   -4.7363   41.9772 C   0  0  0  0  0  0  0  0  0  0  0  0
   19.2295   -3.6971   41.5216 O   0  0  0  0  0  0  0  0  0  0  0  0
   22.2237   -4.4750   41.5392 N   0  0  0  0  0  0  0  0  0  0  0  0
   23.2064   -5.2852   41.8216 C   0  0  0  0  0  0  0  0  0  0  0  0
   22.8101   -6.4507   42.4402 N   0  0  1  0  0  0  0  0  0  0  0  0
  2  1  1  0  0  0  0
  3  1  1  1  0  0  0
  3  4  1  0  0  0  0
  3  5  1  0  0  0  0
  5  6  1  1  0  0  0
  5  7  1  0  0  0  0
  7  8  1  1  0  0  0
  7  9  1  0  0  0  0
  9  4  1  1  0  0  0
  9 20  1  0  0  0  0
 10 11  1  0  0  0  0
 11 12  1  6  0  0  0
 11 13  1  0  0  0  0
 14 13  1  1  0  0  0
 15 14  1  0  0  0  0
 15 16  1  1  0  0  0
 16 10  1  0  0  0  0
 16 17  2  0  0  0  0
 18 15  1  0  0  0  0
 19 18  1  0  0  0  0
 20 14  1  0  0  0  0
 20 19  1  1  0  0  0
M  END
>  <CHROM.1>
177.35678642,-17.46355785,22.25167052,-6.65864547,43.53124984,0.64809235
-0.06546527,2.16070093

>  <Name>
1nyi_lig

>  <RI>
0

>  <Rbt.Current_Directory>
/home/itssahil/PROJECTS/Mol_Feturizer/New_Systems/rnas/1nyi

>  <Rbt.Executable>
rbdock ($Id: //depot/dev/client3/rdock/2013.1/src/exe/rbdock.cxx#4 $)

>  <Rbt.Library>
libRbt.so (2013.1, Build901 2013/11/27)

>  <Rbt.Parameter_File>
/export/apps/rDock/src/rDock_2013.1_src/data/scripts/dock_solv.prm

>  <Rbt.Receptor>
prm/pocket_docking_6.prm

>  <SCORE>
-9.19309

>  <SCORE.INTER>
-7.71432

>  <SCORE.INTER.CONST>
1

>  <SCORE.INTER.POLAR>
-1.19592

>  <SCORE.INTER.ROT>
2

>  <SCORE.INTER.SOLV>
5.87396

>  <SCORE.INTER.VDW>
-8.04779

>  <SCORE.INTER.norm>
-0.385716

>  <SCORE.INTRA>
-1.47877

>  <SCORE.INTRA.DIHEDRAL>
-2.40784

>  <SCORE.INTRA.DIHEDRAL.0>
3.72394

>  <SCORE.INTRA.POLAR>
0

>  <SCORE.INTRA.POLAR.0>
0

>  <SCORE.INTRA.REPUL>
0

>  <SCORE.INTRA.REPUL.0>
0

>  <SCORE.INTRA.SOLV>
0.312873

>  <SCORE.INTRA.SOLV.lig_0>
-49.4697

>  <SCORE.INTRA.VDW>
-0.431288

>  <SCORE.INTRA.VDW.0>
-0.896538

>  <SCORE.INTRA.norm>
-0.0739385

>  <SCORE.RESTR>
0

>  <SCORE.RESTR.CAVITY>
0

>  <SCORE.RESTR.norm>
0

>  <SCORE.SYSTEM>
0

>  <SCORE.SYSTEM.CONST>
0

>  <SCORE.SYSTEM.DIHEDRAL>
0

>  <SCORE.SYSTEM.SOLV>
0

>  <SCORE.SYSTEM.norm>
0

>  <SCORE.heavy>
20

>  <SCORE.norm>
-0.459655

>  <RMSD>
6.036

$$$$
1nyi_lig
 OpenBabel11021811403D
libRbt.so/2013.1/901 2013/11/27
 20 22  0  0  0  0  0  0  0  0999 V2000
   22.3268   -7.3840   46.0251 C   0  0  0  0  0  0  0  0  0  0  0  0
   22.7858   -7.4157   47.3765 O   0  0  0  0  0  0  0  0  0  0  0  0
   23.3517   -7.9912   45.0929 C   0  0  1  0  0  0  0  0  0  0  0  0
   22.8038   -8.0236   43.7471 O   0  0  0  0  0  0  0  0  0  0  0  0
   24.6262   -7.1593   45.0036 C   0  0  1  0  0  0  0  0  0  0  0  0
   25.5884   -7.5681   45.9769 O   0  0  0  0  0  0  0  0  0  0  0  0
   25.0719   -7.4042   43.5634 C   0  0  1  0  0  0  0  0  0  0  0  0
   25.7300   -8.6498   43.3873 O   0  0  0  0  0  0  0  0  0  0  0  0
   23.7232   -7.4165   42.8472 C   0  0  2  0  0  0  0  0  0  0  0  0
   20.1111   -5.0773   40.0242 N   0  0  0  0  0  0  0  0  0  0  0  0
   20.2992   -6.4165   40.2657 C   0  0  1  0  0  0  0  0  0  0  0  0
   19.4190   -7.2335   39.6852 N   0  0  0  0  0  0  0  0  0  0  0  0
   21.2774   -6.9161   41.0155 N   0  0  0  0  0  0  0  0  0  0  0  0
   22.0916   -5.9434   41.5197 C   0  0  1  0  0  0  0  0  0  0  0  0
   21.9850   -4.5762   41.3347 C   0  0  1  0  0  0  0  0  0  0  0  0
   20.9235   -4.0660   40.5364 C   0  0  0  0  0  0  0  0  0  0  0  0
   20.6638   -2.8879   40.2601 O   0  0  0  0  0  0  0  0  0  0  0  0
   22.9920   -3.9109   42.0220 N   0  0  0  0  0  0  0  0  0  0  0  0
   23.6796   -4.8619   42.5918 C   0  0  0  0  0  0  0  0  0  0  0  0
   23.2040   -6.1285   42.3319 N   0  0  1  0  0  0  0  0  0  0  0  0
  2  1  1  0  0  0  0
  3  1  1  1  0  0  0
  3  4  1  0  0  0  0
  3  5  1  0  0  0  0
  5  6  1  1  0  0  0
  5  7  1  0  0  0  0
  7  8  1  1  0  0  0
  7  9  1  0  0  0  0
  9  4  1  1  0  0  0
  9 20  1  0  0  0  0
 10 11  1  0  0  0  0
 11 12  1  6  0  0  0
 11 13  1  0  0  0  0
 14 13  1  1  0  0  0
 15 14  1  0  0  0  0
 15 16  1  1  0  0  0
 16 10  1  0  0  0  0
 16 17  2  0  0  0  0
 18 15  1  0  0  0  0
 19 18  1  0  0  0  0
 20 14  1  0  0  0  0
 20 19  1  1  0  0  0
M  END
>  <CHROM.1>
176.01158060,-65.47098064,22.66656791,-6.37888153,42.79462682,0.80972362
0.69024168,2.62124069

>  <Name>
1nyi_lig

>  <RI>
0

>  <Rbt.Current_Directory>
/home/itssahil/PROJECTS/Mol_Feturizer/New_Systems/rnas/1nyi

>  <Rbt.Executable>
rbdock ($Id: //depot/dev/client3/rdock/2013.1/src/exe/rbdock.cxx#4 $)

>  <Rbt.Library>
libRbt.so (2013.1, Build901 2013/11/27)

>  <Rbt.Parameter_File>
/export/apps/rDock/src/rDock_2013.1_src/data/scripts/dock_solv.prm

>  <Rbt.Receptor>
prm/pocket_docking_7.prm

>  <SCORE>
-10.1002

>  <SCORE.INTER>
-8.42145

>  <SCORE.INTER.CONST>
1

>  <SCORE.INTER.POLAR>
-1.22104

>  <SCORE.INTER.ROT>
2

>  <SCORE.INTER.SOLV>
9.20513

>  <SCORE.INTER.VDW>
-9.54588

>  <SCORE.INTER.norm>
-0.421072

>  <SCORE.INTRA>
-1.67877

>  <SCORE.INTRA.DIHEDRAL>
-2.47987

>  <SCORE.INTRA.DIHEDRAL.0>
3.72394

>  <SCORE.INTRA.POLAR>
0

>  <SCORE.INTRA.POLAR.0>
0

>  <SCORE.INTRA.REPUL>
0

>  <SCORE.INTRA.REPUL.0>
0

>  <SCORE.INTRA.SOLV>
-0.486908

>  <SCORE.INTRA.SOLV.lig_0>
-49.4697

>  <SCORE.INTRA.VDW>
-0.195383

>  <SCORE.INTRA.VDW.0>
-0.896538

>  <SCORE.INTRA.norm>
-0.0839386

>  <SCORE.RESTR>
0

>  <SCORE.RESTR.CAVITY>
0

>  <SCORE.RESTR.norm>
0

>  <SCORE.SYSTEM>
0

>  <SCORE.SYSTEM.CONST>
0

>  <SCORE.SYSTEM.DIHEDRAL>
0

>  <SCORE.SYSTEM.SOLV>
0

>  <SCORE.SYSTEM.norm>
0

>  <SCORE.heavy>
20

>  <SCORE.norm>
-0.505011

>  <RMSD>
6.039

$$$$
1nyi_lig
 OpenBabel11021811403D
libRbt.so/2013.1/901 2013/11/27
 20 22  0  0  0  0  0  0  0  0999 V2000
   24.9744   -3.4403   38.5460 C   0  0  0  0  0  0  0  0  0  0  0  0
   25.4960   -4.5444   37.8064 O   0  0  0  0  0  0  0  0  0  0  0  0
   23.5834   -3.0823   38.0716 C   0  0  1  0  0  0  0  0  0  0  0  0
   22.8442   -4.3066   37.8126 O   0  0  0  0  0  0  0  0  0  0  0  0
   22.7821   -2.3276   39.1265 C   0  0  1  0  0  0  0  0  0  0  0  0
   22.9527   -0.9148   39.0030 O   0  0  0  0  0  0  0  0  0  0  0  0
   21.3560   -2.7975   38.8468 C   0  0  1  0  0  0  0  0  0  0  0  0
   20.7561   -2.1342   37.7443 O   0  0  0  0  0  0  0  0  0  0  0  0
   21.6028   -4.2656   38.5060 C   0  0  2  0  0  0  0  0  0  0  0  0
   23.4792   -5.5775   43.1154 N   0  0  0  0  0  0  0  0  0  0  0  0
   23.8078   -4.5149   42.3092 C   0  0  1  0  0  0  0  0  0  0  0  0
   24.7508   -3.7018   42.7874 N   0  0  0  0  0  0  0  0  0  0  0  0
   23.2566   -4.2707   41.1238 N   0  0  0  0  0  0  0  0  0  0  0  0
   22.3227   -5.2066   40.7844 C   0  0  1  0  0  0  0  0  0  0  0  0
   21.9244   -6.3060   41.5243 C   0  0  1  0  0  0  0  0  0  0  0  0
   22.5220   -6.5396   42.7941 C   0  0  0  0  0  0  0  0  0  0  0  0
   22.2987   -7.4567   43.5946 O   0  0  0  0  0  0  0  0  0  0  0  0
   20.9377   -7.0153   40.8517 N   0  0  0  0  0  0  0  0  0  0  0  0
   20.7637   -6.3552   39.7399 C   0  0  0  0  0  0  0  0  0  0  0  0
   21.5715   -5.2461   39.6158 N   0  0  1  0  0  0  0  0  0  0  0  0
  2  1  1  0  0  0  0
  3  1  1  1  0  0  0
  3  4  1  0  0  0  0
  3  5  1  0  0  0  0
  5  6  1  6  0  0  0
  5  7  1  0  0  0  0
  7  8  1  6  0  0  0
  7  9  1  0  0  0  0
  9  4  1  1  0  0  0
  9 20  1  0  0  0  0
 10 11  1  0  0  0  0
 11 12  1  6  0  0  0
 11 13  1  0  0  0  0
 14 13  1  1  0  0  0
 15 14  1  0  0  0  0
 15 16  1  1  0  0  0
 16 10  1  0  0  0  0
 16 17  2  0  0  0  0
 18 15  1  0  0  0  0
 19 18  1  0  0  0  0
 20 14  1  0  0  0  0
 20 19  1  1  0  0  0
M  END
>  <CHROM.1>
40.34841220,67.95360400,22.71177345,-4.47402033,40.13881681,-1.49824483,0.52529827
2.23348030

>  <Name>
1nyi_lig

>  <RI>
0

>  <Rbt.Current_Directory>
/home/itssahil/PROJECTS/Mol_Feturizer/New_Systems/rnas/1nyi

>  <Rbt.Executable>
rbdock ($Id: //depot/dev/client3/rdock/2013.1/src/exe/rbdock.cxx#4 $)

>  <Rbt.Library>
libRbt.so (2013.1, Build901 2013/11/27)

>  <Rbt.Parameter_File>
/export/apps/rDock/src/rDock_2013.1_src/data/scripts/dock_solv.prm

>  <Rbt.Receptor>
prm/pocket_docking_8.prm

>  <SCORE>
-9.82961

>  <SCORE.INTER>
-8.95058

>  <SCORE.INTER.CONST>
1

>  <SCORE.INTER.POLAR>
-1.6622

>  <SCORE.INTER.ROT>
2

>  <SCORE.INTER.SOLV>
10.0847

>  <SCORE.INTER.VDW>
-8.72131

>  <SCORE.INTER.norm>
-0.447529

>  <SCORE.INTRA>
-0.879028

>  <SCORE.INTRA.DIHEDRAL>
-1.22104

>  <SCORE.INTRA.DIHEDRAL.0>
3.72394

>  <SCORE.INTRA.POLAR>
0

>  <SCORE.INTRA.POLAR.0>
0

>  <SCORE.INTRA.REPUL>
0

>  <SCORE.INTRA.REPUL.0>
0

>  <SCORE.INTRA.SOLV>
1.48472

>  <SCORE.INTRA.SOLV.lig_0>
-49.4697

>  <SCORE.INTRA.VDW>
-1.01087

>  <SCORE.INTRA.VDW.0>
-0.896538

>  <SCORE.INTRA.norm>
-0.0439514

>  <SCORE.RESTR>
0

>  <SCORE.RESTR.CAVITY>
0

>  <SCORE.RESTR.norm>
0

>  <SCORE.SYSTEM>
0

>  <SCORE.SYSTEM.CONST>
0

>  <SCORE.SYSTEM.DIHEDRAL>
0

>  <SCORE.SYSTEM.SOLV>
0

>  <SCORE.SYSTEM.norm>
0

>  <SCORE.heavy>
20

>  <SCORE.norm>
-0.491481

>  <RMSD>
6.059

$$$$
1nyi_lig
 OpenBabel11021811403D
libRbt.so/2013.1/901 2013/11/27
 20 22  0  0  0  0  0  0  0  0999 V2000
   21.9895   -7.5747   45.8573 C   0  0  0  0  0  0  0  0  0  0  0  0
   21.6462   -6.2532   45.4404 O   0  0  0  0  0  0  0  0  0  0  0  0
   23.0965   -8.1414   44.9962 C   0  0  1  0  0  0  0  0  0  0  0  0
   22.6685   -8.1249   43.6074 O   0  0  0  0  0  0  0  0  0  0  0  0
   24.3675   -7.3011   45.0500 C   0  0  1  0  0  0  0  0  0  0  0  0
   25.2442   -7.7426   46.0877 O   0  0  0  0  0  0  0  0  0  0  0  0
   24.9391   -7.4891   43.6462 C   0  0  1  0  0  0  0  0  0  0  0  0
   25.6196   -8.7241   43.4816 O   0  0  0  0  0  0  0  0  0  0  0  0
   23.6582   -7.4799   42.8148 C   0  0  2  0  0  0  0  0  0  0  0  0
   20.1709   -5.0363   39.9240 N   0  0  0  0  0  0  0  0  0  0  0  0
   20.3294   -6.3821   40.1497 C   0  0  1  0  0  0  0  0  0  0  0  0
   19.4534   -7.1749   39.5308 N   0  0  0  0  0  0  0  0  0  0  0  0
   21.2765   -6.9097   40.9201 N   0  0  0  0  0  0  0  0  0  0  0  0
   22.0915   -5.9589   41.4632 C   0  0  1  0  0  0  0  0  0  0  0  0
   22.0132   -4.5875   41.2968 C   0  0  1  0  0  0  0  0  0  0  0  0
   20.9846   -4.0470   40.4757 C   0  0  0  0  0  0  0  0  0  0  0  0
   20.7529   -2.8606   40.2106 O   0  0  0  0  0  0  0  0  0  0  0  0
   23.0103   -3.9501   42.0238 N   0  0  0  0  0  0  0  0  0  0  0  0
   23.6647   -4.9213   42.5986 C   0  0  0  0  0  0  0  0  0  0  0  0
   23.1760   -6.1755   42.3049 N   0  0  1  0  0  0  0  0  0  0  0  0
  2  1  1  0  0  0  0
  3  1  1  1  0  0  0
  3  4  1  0  0  0  0
  3  5  1  0  0  0  0
  5  6  1  1  0  0  0
  5  7  1  0  0  0  0
  7  8  1  1  0  0  0
  7  9  1  0  0  0  0
  9  4  1  1  0  0  0
  9 20  1  0  0  0  0
 10 11  1  0  0  0  0
 11 12  1  6  0  0  0
 11 13  1  0  0  0  0
 14 13  1  1  0  0  0
 15 14  1  0  0  0  0
 15 16  1  1  0  0  0
 16 10  1  0  0  0  0
 16 17  2  0  0  0  0
 18 15  1  0  0  0  0
 19 18  1  0  0  0  0
 20 14  1  0  0  0  0
 20 19  1  1  0  0  0
M  END
>  <CHROM.1>
-57.41305724,-61.67725013,22.53219265,-6.36181430,42.64634507,0.74076743
0.75641271,2.77027851

>  <Name>
1nyi_lig

>  <RI>
0

>  <Rbt.Current_Directory>
/home/itssahil/PROJECTS/Mol_Feturizer/New_Systems/rnas/1nyi

>  <Rbt.Executable>
rbdock ($Id: //depot/dev/client3/rdock/2013.1/src/exe/rbdock.cxx#4 $)

>  <Rbt.Library>
libRbt.so (2013.1, Build901 2013/11/27)

>  <Rbt.Parameter_File>
/export/apps/rDock/src/rDock_2013.1_src/data/scripts/dock_solv.prm

>  <Rbt.Receptor>
prm/pocket_docking_8.prm

>  <SCORE>
-10.052

>  <SCORE.INTER>
-8.40086

>  <SCORE.INTER.CONST>
1

>  <SCORE.INTER.POLAR>
-1.2351

>  <SCORE.INTER.ROT>
2

>  <SCORE.INTER.SOLV>
9.38556

>  <SCORE.INTER.VDW>
-9.54544

>  <SCORE.INTER.norm>
-0.420043

>  <SCORE.INTRA>
-1.65113

>  <SCORE.INTRA.DIHEDRAL>
-2.48988

>  <SCORE.INTRA.DIHEDRAL.0>
3.72394

>  <SCORE.INTRA.POLAR>
0

>  <SCORE.INTRA.POLAR.0>
0

>  <SCORE.INTRA.REPUL>
0.00272601

>  <SCORE.INTRA.REPUL.0>
0

>  <SCORE.INTRA.SOLV>
0.124876

>  <SCORE.INTRA.SOLV.lig_0>
-49.4697

>  <SCORE.INTRA.VDW>
-0.482256

>  <SCORE.INTRA.VDW.0>
-0.896538

>  <SCORE.INTRA.norm>
-0.0825563

>  <SCORE.RESTR>
0

>  <SCORE.RESTR.CAVITY>
0

>  <SCORE.RESTR.norm>
0

>  <SCORE.SYSTEM>
0

>  <SCORE.SYSTEM.CONST>
0

>  <SCORE.SYSTEM.DIHEDRAL>
0

>  <SCORE.SYSTEM.SOLV>
0

>  <SCORE.SYSTEM.norm>
0

>  <SCORE.heavy>
20

>  <SCORE.norm>
-0.502599

>  <RMSD>
6.067

$$$$
1nyi_lig
 OpenBabel11021811403D
libRbt.so/2013.1/901 2013/11/27
 20 22  0  0  0  0  0  0  0  0999 V2000
   22.1955   -7.3656   45.9742 C   0  0  0  0  0  0  0  0  0  0  0  0
   22.6098   -7.3923   47.3401 O   0  0  0  0  0  0  0  0  0  0  0  0
   23.2508   -7.9755   45.0784 C   0  0  1  0  0  0  0  0  0  0  0  0
   22.7454   -8.0181   43.7165 O   0  0  0  0  0  0  0  0  0  0  0  0
   24.5251   -7.1402   45.0236 C   0  0  1  0  0  0  0  0  0  0  0  0
   25.4575   -7.5398   46.0291 O   0  0  0  0  0  0  0  0  0  0  0  0
   25.0162   -7.3929   43.5996 C   0  0  1  0  0  0  0  0  0  0  0  0
   25.6832   -8.6375   43.4522 O   0  0  0  0  0  0  0  0  0  0  0  0
   23.6906   -7.4139   42.8418 C   0  0  2  0  0  0  0  0  0  0  0  0
   20.1202   -5.0968   39.9484 N   0  0  0  0  0  0  0  0  0  0  0  0
   20.2981   -6.4333   40.2116 C   0  0  1  0  0  0  0  0  0  0  0  0
   19.4190   -7.2539   39.6347 N   0  0  0  0  0  0  0  0  0  0  0  0
   21.2660   -6.9271   40.9785 N   0  0  0  0  0  0  0  0  0  0  0  0
   22.0808   -5.9516   41.4762 C   0  0  1  0  0  0  0  0  0  0  0  0
   21.9839   -4.5868   41.2698 C   0  0  1  0  0  0  0  0  0  0  0  0
   20.9334   -4.0826   40.4535 C   0  0  0  0  0  0  0  0  0  0  0  0
   20.6832   -2.9073   40.1572 O   0  0  0  0  0  0  0  0  0  0  0  0
   22.9879   -3.9170   41.9572 N   0  0  0  0  0  0  0  0  0  0  0  0
   23.6643   -4.8632   42.5479 C   0  0  0  0  0  0  0  0  0  0  0  0
   23.1840   -6.1309   42.3022 N   0  0  1  0  0  0  0  0  0  0  0  0
  2  1  1  0  0  0  0
  3  1  1  1  0  0  0
  3  4  1  0  0  0  0
  3  5  1  0  0  0  0
  5  6  1  1  0  0  0
  5  7  1  0  0  0  0
  7  8  1  1  0  0  0
  7  9  1  0  0  0  0
  9  4  1  1  0  0  0
  9 20  1  0  0  0  0
 10 11  1  0  0  0  0
 11 12  1  6  0  0  0
 11 13  1  0  0  0  0
 14 13  1  1  0  0  0
 15 14  1  0  0  0  0
 15 16  1  1  0  0  0
 16 10  1  0  0  0  0
 16 17  2  0  0  0  0
 18 15  1  0  0  0  0
 19 18  1  0  0  0  0
 20 14  1  0  0  0  0
 20 19  1  1  0  0  0
M  END
>  <CHROM.1>
175.76601553,-64.06400823,22.62197773,-6.37824082,42.76466950,0.86798409
0.64641052,2.53694701

>  <Name>
1nyi_lig

>  <RI>
0

>  <Rbt.Current_Directory>
/home/itssahil/PROJECTS/Mol_Feturizer/New_Systems/rnas/1nyi

>  <Rbt.Executable>
rbdock ($Id: //depot/dev/client3/rdock/2013.1/src/exe/rbdock.cxx#4 $)

>  <Rbt.Library>
libRbt.so (2013.1, Build901 2013/11/27)

>  <Rbt.Parameter_File>
/export/apps/rDock/src/rDock_2013.1_src/data/scripts/dock_solv.prm

>  <Rbt.Receptor>
prm/pocket_docking_7.prm

>  <SCORE>
-10.0631

>  <SCORE.INTER>
-8.39818

>  <SCORE.INTER.CONST>
1

>  <SCORE.INTER.POLAR>
-1.25109

>  <SCORE.INTER.ROT>
2

>  <SCORE.INTER.SOLV>
9.25596

>  <SCORE.INTER.VDW>
-9.44715

>  <SCORE.INTER.norm>
-0.419909

>  <SCORE.INTRA>
-1.66494

>  <SCORE.INTRA.DIHEDRAL>
-2.46686

>  <SCORE.INTRA.DIHEDRAL.0>
3.72394

>  <SCORE.INTRA.POLAR>
0

>  <SCORE.INTRA.POLAR.0>
0

>  <SCORE.INTRA.REPUL>
0.000573205

>  <SCORE.INTRA.REPUL.0>
0

>  <SCORE.INTRA.SOLV>
-0.480641

>  <SCORE.INTRA.SOLV.lig_0>
-49.4697

>  <SCORE.INTRA.VDW>
-0.194051

>  <SCORE.INTRA.VDW.0>
-0.896538

>  <SCORE.INTRA.norm>
-0.0832469

>  <SCORE.RESTR>
0

>  <SCORE.RESTR.CAVITY>
0

>  <SCORE.RESTR.norm>
0

>  <SCORE.SYSTEM>
0

>  <SCORE.SYSTEM.CONST>
0

>  <SCORE.SYSTEM.DIHEDRAL>
0

>  <SCORE.SYSTEM.SOLV>
0

>  <SCORE.SYSTEM.norm>
0

>  <SCORE.heavy>
20

>  <SCORE.norm>
-0.503156

>  <RMSD>
6.068

$$$$
1nyi_lig
 OpenBabel11021811403D
libRbt.so/2013.1/901 2013/11/27
 20 22  0  0  0  0  0  0  0  0999 V2000
   22.3415   -7.6172   46.0396 C   0  0  0  0  0  0  0  0  0  0  0  0
   22.7806   -7.6808   47.3965 O   0  0  0  0  0  0  0  0  0  0  0  0
   23.3912   -8.1784   45.1061 C   0  0  1  0  0  0  0  0  0  0  0  0
   22.8654   -8.1783   43.7512 O   0  0  0  0  0  0  0  0  0  0  0  0
   24.6528   -7.3233   45.0632 C   0  0  1  0  0  0  0  0  0  0  0  0
   25.6062   -7.7461   46.0391 O   0  0  0  0  0  0  0  0  0  0  0  0
   25.1253   -7.5164   43.6237 C   0  0  1  0  0  0  0  0  0  0  0  0
   25.8071   -8.7449   43.4203 O   0  0  0  0  0  0  0  0  0  0  0  0
   23.7886   -7.5287   42.8854 C   0  0  2  0  0  0  0  0  0  0  0  0
   20.1290   -5.1570   40.1520 N   0  0  0  0  0  0  0  0  0  0  0  0
   20.3276   -6.4995   40.3654 C   0  0  1  0  0  0  0  0  0  0  0  0
   19.4449   -7.3103   39.7801 N   0  0  0  0  0  0  0  0  0  0  0  0
   21.3177   -7.0075   41.0936 N   0  0  0  0  0  0  0  0  0  0  0  0
   22.1326   -6.0400   41.6064 C   0  0  1  0  0  0  0  0  0  0  0  0
   22.0160   -4.6701   41.4490 C   0  0  1  0  0  0  0  0  0  0  0  0
   20.9420   -4.1510   40.6736 C   0  0  0  0  0  0  0  0  0  0  0  0
   20.6723   -2.9694   40.4233 O   0  0  0  0  0  0  0  0  0  0  0  0
   23.0276   -4.0123   42.1367 N   0  0  0  0  0  0  0  0  0  0  0  0
   23.7274   -4.9700   42.6797 C   0  0  0  0  0  0  0  0  0  0  0  0
   23.2558   -6.2341   42.4014 N   0  0  1  0  0  0  0  0  0  0  0  0
  2  1  1  0  0  0  0
  3  1  1  1  0  0  0
  3  4  1  0  0  0  0
  3  5  1  0  0  0  0
  5  6  1  1  0  0  0
  5  7  1  0  0  0  0
  7  8  1  1  0  0  0
  7  9  1  0  0  0  0
  9  4  1  1  0  0  0
  9 20  1  0  0  0  0
 10 11  1  0  0  0  0
 11 12  1  6  0  0  0
 11 13  1  0  0  0  0
 14 13  1  1  0  0  0
 15 14  1  0  0  0  0
 15 16  1  1  0  0  0
 16 10  1  0  0  0  0
 16 17  2  0  0  0  0
 18 15  1  0  0  0  0
 19 18  1  0  0  0  0
 20 14  1  0  0  0  0
 20 19  1  1  0  0  0
M  END
>  <CHROM.1>
176.11353157,-63.60912533,22.70131868,-6.50555008,42.86769378,0.85092212
0.62309254,2.57376282

>  <Name>
1nyi_lig

>  <RI>
0

>  <Rbt.Current_Directory>
/home/itssahil/PROJECTS/Mol_Feturizer/New_Systems/rnas/1nyi

>  <Rbt.Executable>
rbdock ($Id: //depot/dev/client3/rdock/2013.1/src/exe/rbdock.cxx#4 $)

>  <Rbt.Library>
libRbt.so (2013.1, Build901 2013/11/27)

>  <Rbt.Parameter_File>
/export/apps/rDock/src/rDock_2013.1_src/data/scripts/dock_solv.prm

>  <Rbt.Receptor>
prm/pocket_docking_5.prm

>  <SCORE>
-10.0069

>  <SCORE.INTER>
-8.34432

>  <SCORE.INTER.CONST>
1

>  <SCORE.INTER.POLAR>
-1.19661

>  <SCORE.INTER.ROT>
2

>  <SCORE.INTER.SOLV>
9.63544

>  <SCORE.INTER.VDW>
-9.71934

>  <SCORE.INTER.norm>
-0.417216

>  <SCORE.INTRA>
-1.66258

>  <SCORE.INTRA.DIHEDRAL>
-2.47461

>  <SCORE.INTRA.DIHEDRAL.0>
3.72394

>  <SCORE.INTRA.POLAR>
0

>  <SCORE.INTRA.POLAR.0>
0

>  <SCORE.INTRA.REPUL>
0.000885756

>  <SCORE.INTRA.REPUL.0>
0

>  <SCORE.INTRA.SOLV>
-0.476389

>  <SCORE.INTRA.SOLV.lig_0>
-49.4697

>  <SCORE.INTRA.VDW>
-0.191515

>  <SCORE.INTRA.VDW.0>
-0.896538

>  <SCORE.INTRA.norm>
-0.0831292

>  <SCORE.RESTR>
0

>  <SCORE.RESTR.CAVITY>
0

>  <SCORE.RESTR.norm>
0

>  <SCORE.SYSTEM>
0

>  <SCORE.SYSTEM.CONST>
0

>  <SCORE.SYSTEM.DIHEDRAL>
0

>  <SCORE.SYSTEM.SOLV>
0

>  <SCORE.SYSTEM.norm>
0

>  <SCORE.heavy>
20

>  <SCORE.norm>
-0.500345

>  <RMSD>
6.070

$$$$
1nyi_lig
 OpenBabel11021811403D
libRbt.so/2013.1/901 2013/11/27
 20 22  0  0  0  0  0  0  0  0999 V2000
   21.8767   -7.5825   45.7706 C   0  0  0  0  0  0  0  0  0  0  0  0
   21.5455   -6.2498   45.3802 O   0  0  0  0  0  0  0  0  0  0  0  0
   23.0311   -8.1138   44.9501 C   0  0  1  0  0  0  0  0  0  0  0  0
   22.6603   -8.0911   43.5451 O   0  0  0  0  0  0  0  0  0  0  0  0
   24.2789   -7.2452   45.0654 C   0  0  1  0  0  0  0  0  0  0  0  0
   25.1222   -7.6783   46.1338 O   0  0  0  0  0  0  0  0  0  0  0  0
   24.9119   -7.4039   43.6845 C   0  0  1  0  0  0  0  0  0  0  0  0
   25.6273   -8.6211   43.5352 O   0  0  0  0  0  0  0  0  0  0  0  0
   23.6664   -7.4146   42.8009 C   0  0  2  0  0  0  0  0  0  0  0  0
   20.1881   -5.0117   39.8655 N   0  0  0  0  0  0  0  0  0  0  0  0
   20.3599   -6.3556   40.0928 C   0  0  1  0  0  0  0  0  0  0  0  0
   19.5017   -7.1586   39.4621 N   0  0  0  0  0  0  0  0  0  0  0  0
   21.3030   -6.8721   40.8753 N   0  0  0  0  0  0  0  0  0  0  0  0
   22.0993   -5.9119   41.4295 C   0  0  1  0  0  0  0  0  0  0  0  0
   22.0066   -4.5414   41.2626 C   0  0  1  0  0  0  0  0  0  0  0  0
   20.9824   -4.0130   40.4283 C   0  0  0  0  0  0  0  0  0  0  0  0
   20.7399   -2.8293   40.1606 O   0  0  0  0  0  0  0  0  0  0  0  0
   22.9863   -3.8924   42.0029 N   0  0  0  0  0  0  0  0  0  0  0  0
   23.6448   -4.8560   42.5858 C   0  0  0  0  0  0  0  0  0  0  0  0
   23.1752   -6.1158   42.2853 N   0  0  1  0  0  0  0  0  0  0  0  0
  2  1  1  0  0  0  0
  3  1  1  1  0  0  0
  3  4  1  0  0  0  0
  3  5  1  0  0  0  0
  5  6  1  1  0  0  0
  5  7  1  0  0  0  0
  7  8  1  1  0  0  0
  7  9  1  0  0  0  0
  9  4  1  1  0  0  0
  9 20  1  0  0  0  0
 10 11  1  0  0  0  0
 11 12  1  6  0  0  0
 11 13  1  0  0  0  0
 14 13  1  1  0  0  0
 15 14  1  0  0  0  0
 15 16  1  1  0  0  0
 16 10  1  0  0  0  0
 16 17  2  0  0  0  0
 18 15  1  0  0  0  0
 19 18  1  0  0  0  0
 20 14  1  0  0  0  0
 20 19  1  1  0  0  0
M  END
>  <CHROM.1>
-59.11222312,-59.84376508,22.50885575,-6.31794890,42.61857549,0.77573420
0.74230514,2.72285541

>  <Name>
1nyi_lig

>  <RI>
0

>  <Rbt.Current_Directory>
/home/itssahil/PROJECTS/Mol_Feturizer/New_Systems/rnas/1nyi

>  <Rbt.Executable>
rbdock ($Id: //depot/dev/client3/rdock/2013.1/src/exe/rbdock.cxx#4 $)

>  <Rbt.Library>
libRbt.so (2013.1, Build901 2013/11/27)

>  <Rbt.Parameter_File>
/export/apps/rDock/src/rDock_2013.1_src/data/scripts/dock_solv.prm

>  <Rbt.Receptor>
prm/pocket_docking_6.prm

>  <SCORE>
-10.0062

>  <SCORE.INTER>
-8.37931

>  <SCORE.INTER.CONST>
1

>  <SCORE.INTER.POLAR>
-1.26042

>  <SCORE.INTER.ROT>
2

>  <SCORE.INTER.SOLV>
9.37709

>  <SCORE.INTER.VDW>
-9.44385

>  <SCORE.INTER.norm>
-0.418966

>  <SCORE.INTRA>
-1.62688

>  <SCORE.INTRA.DIHEDRAL>
-2.50442

>  <SCORE.INTRA.DIHEDRAL.0>
3.72394

>  <SCORE.INTRA.POLAR>
0

>  <SCORE.INTRA.POLAR.0>
0

>  <SCORE.INTRA.REPUL>
0.00519395

>  <SCORE.INTRA.REPUL.0>
0

>  <SCORE.INTRA.SOLV>
0.136909

>  <SCORE.INTRA.SOLV.lig_0>
-49.4697

>  <SCORE.INTRA.VDW>
-0.469095

>  <SCORE.INTRA.VDW.0>
-0.896538

>  <SCORE.INTRA.norm>
-0.081344

>  <SCORE.RESTR>
0

>  <SCORE.RESTR.CAVITY>
0

>  <SCORE.RESTR.norm>
0

>  <SCORE.SYSTEM>
0

>  <SCORE.SYSTEM.CONST>
0

>  <SCORE.SYSTEM.DIHEDRAL>
0

>  <SCORE.SYSTEM.SOLV>
0

>  <SCORE.SYSTEM.norm>
0

>  <SCORE.heavy>
20

>  <SCORE.norm>
-0.50031

>  <RMSD>
6.072

$$$$
1nyi_lig
 OpenBabel11021811403D
libRbt.so/2013.1/901 2013/11/27
 20 22  0  0  0  0  0  0  0  0999 V2000
   22.3833   -7.5048   46.0509 C   0  0  0  0  0  0  0  0  0  0  0  0
   22.9107   -7.4991   47.3775 O   0  0  0  0  0  0  0  0  0  0  0  0
   23.3770   -8.0998   45.0779 C   0  0  1  0  0  0  0  0  0  0  0  0
   22.7944   -8.0937   43.7465 O   0  0  0  0  0  0  0  0  0  0  0  0
   24.6580   -7.2793   44.9755 C   0  0  1  0  0  0  0  0  0  0  0  0
   25.6404   -7.7218   45.9133 O   0  0  0  0  0  0  0  0  0  0  0  0
   25.0637   -7.4938   43.5188 C   0  0  1  0  0  0  0  0  0  0  0  0
   25.7032   -8.7415   43.2956 O   0  0  0  0  0  0  0  0  0  0  0  0
   23.6969   -7.4745   42.8378 C   0  0  2  0  0  0  0  0  0  0  0  0
   20.1418   -5.0412   40.0220 N   0  0  0  0  0  0  0  0  0  0  0  0
   20.3372   -6.3883   40.2071 C   0  0  1  0  0  0  0  0  0  0  0  0
   19.4826   -7.1858   39.5646 N   0  0  0  0  0  0  0  0  0  0  0  0
   21.2989   -6.9128   40.9612 N   0  0  0  0  0  0  0  0  0  0  0  0
   22.0881   -5.9569   41.5327 C   0  0  1  0  0  0  0  0  0  0  0  0
   21.9723   -4.5837   41.4076 C   0  0  1  0  0  0  0  0  0  0  0  0
   20.9286   -4.0471   40.6032 C   0  0  0  0  0  0  0  0  0  0  0  0
   20.6644   -2.8600   40.3739 O   0  0  0  0  0  0  0  0  0  0  0  0
   22.9523   -3.9415   42.1535 N   0  0  0  0  0  0  0  0  0  0  0  0
   23.6334   -4.9114   42.6987 C   0  0  0  0  0  0  0  0  0  0  0  0
   23.1789   -6.1690   42.3674 N   0  0  1  0  0  0  0  0  0  0  0  0
  2  1  1  0  0  0  0
  3  1  1  1  0  0  0
  3  4  1  0  0  0  0
  3  5  1  0  0  0  0
  5  6  1  1  0  0  0
  5  7  1  0  0  0  0
  7  8  1  1  0  0  0
  7  9  1  0  0  0  0
  9  4  1  1  0  0  0
  9 20  1  0  0  0  0
 10 11  1  0  0  0  0
 11 12  1  6  0  0  0
 11 13  1  0  0  0  0
 14 13  1  1  0  0  0
 15 14  1  0  0  0  0
 15 16  1  1  0  0  0
 16 10  1  0  0  0  0
 16 17  2  0  0  0  0
 18 15  1  0  0  0  0
 19 18  1  0  0  0  0
 20 14  1  0  0  0  0
 20 19  1  1  0  0  0
M  END
>  <CHROM.1>
179.58272756,-69.04288035,22.67992659,-6.42395206,42.79803072,0.60714159
0.86634390,2.92837932

>  <Name>
1nyi_lig

>  <RI>
0

>  <Rbt.Current_Directory>
/home/itssahil/PROJECTS/Mol_Feturizer/New_Systems/rnas/1nyi

>  <Rbt.Executable>
rbdock ($Id: //depot/dev/client3/rdock/2013.1/src/exe/rbdock.cxx#4 $)

>  <Rbt.Library>
libRbt.so (2013.1, Build901 2013/11/27)

>  <Rbt.Parameter_File>
/export/apps/rDock/src/rDock_2013.1_src/data/scripts/dock_solv.prm

>  <Rbt.Receptor>
prm/pocket_docking_7.prm

>  <SCORE>
-10.1717

>  <SCORE.INTER>
-8.48733

>  <SCORE.INTER.CONST>
1

>  <SCORE.INTER.POLAR>
-1.21872

>  <SCORE.INTER.ROT>
2

>  <SCORE.INTER.SOLV>
9.53754

>  <SCORE.INTER.VDW>
-9.70834

>  <SCORE.INTER.norm>
-0.424366

>  <SCORE.INTRA>
-1.68441

>  <SCORE.INTRA.DIHEDRAL>
-2.54724

>  <SCORE.INTRA.DIHEDRAL.0>
3.72394

>  <SCORE.INTRA.POLAR>
0

>  <SCORE.INTRA.POLAR.0>
0

>  <SCORE.INTRA.REPUL>
0

>  <SCORE.INTRA.REPUL.0>
0

>  <SCORE.INTRA.SOLV>
-0.487585

>  <SCORE.INTRA.SOLV.lig_0>
-49.4697

>  <SCORE.INTRA.VDW>
-0.166999

>  <SCORE.INTRA.VDW.0>
-0.896538

>  <SCORE.INTRA.norm>
-0.0842207

>  <SCORE.RESTR>
0

>  <SCORE.RESTR.CAVITY>
0

>  <SCORE.RESTR.norm>
0

>  <SCORE.SYSTEM>
0

>  <SCORE.SYSTEM.CONST>
0

>  <SCORE.SYSTEM.DIHEDRAL>
0

>  <SCORE.SYSTEM.SOLV>
0

>  <SCORE.SYSTEM.norm>
0

>  <SCORE.heavy>
20

>  <SCORE.norm>
-0.508587

>  <RMSD>
6.073

$$$$
1nyi_lig
 OpenBabel11021811403D
libRbt.so/2013.1/901 2013/11/27
 20 22  0  0  0  0  0  0  0  0999 V2000
   22.6550   -7.9097   46.2324 C   0  0  0  0  0  0  0  0  0  0  0  0
   21.6731   -8.9418   46.3258 O   0  0  0  0  0  0  0  0  0  0  0  0
   23.7116   -8.2616   45.2088 C   0  0  1  0  0  0  0  0  0  0  0  0
   23.0830   -8.3779   43.9036 O   0  0  0  0  0  0  0  0  0  0  0  0
   24.7713   -7.1750   45.0651 C   0  0  1  0  0  0  0  0  0  0  0  0
   25.8688   -7.3923   45.9531 O   0  0  0  0  0  0  0  0  0  0  0  0
   25.1487   -7.2845   43.5892 C   0  0  1  0  0  0  0  0  0  0  0  0
   26.0397   -8.3563   43.3192 O   0  0  0  0  0  0  0  0  0  0  0  0
   23.7829   -7.5672   42.9673 C   0  0  2  0  0  0  0  0  0  0  0  0
   19.0577   -5.5601   42.6013 N   0  0  0  0  0  0  0  0  0  0  0  0
   19.4497   -6.7914   43.0677 C   0  0  1  0  0  0  0  0  0  0  0  0
   18.4644   -7.5861   43.4880 N   0  0  0  0  0  0  0  0  0  0  0  0
   20.7104   -7.2122   43.1146 N   0  0  0  0  0  0  0  0  0  0  0  0
   21.5853   -6.2807   42.6350 C   0  0  1  0  0  0  0  0  0  0  0  0
   21.2897   -5.0202   42.1465 C   0  0  1  0  0  0  0  0  0  0  0  0
   19.9340   -4.5896   42.1162 C   0  0  0  0  0  0  0  0  0  0  0  0
   19.4766   -3.5092   41.7224 O   0  0  0  0  0  0  0  0  0  0  0  0
   22.4508   -4.3597   41.7662 N   0  0  0  0  0  0  0  0  0  0  0  0
   23.4063   -5.2117   42.0170 C   0  0  0  0  0  0  0  0  0  0  0  0
   22.9660   -6.4077   42.5402 N   0  0  1  0  0  0  0  0  0  0  0  0
  2  1  1  0  0  0  0
  3  1  1  1  0  0  0
  3  4  1  0  0  0  0
  3  5  1  0  0  0  0
  5  6  1  1  0  0  0
  5  7  1  0  0  0  0
  7  8  1  1  0  0  0
  7  9  1  0  0  0  0
  9  4  1  1  0  0  0
  9 20  1  0  0  0  0
 10 11  1  0  0  0  0
 11 12  1  6  0  0  0
 11 13  1  0  0  0  0
 14 13  1  1  0  0  0
 15 14  1  0  0  0  0
 15 16  1  1  0  0  0
 16 10  1  0  0  0  0
 16 17  2  0  0  0  0
 18 15  1  0  0  0  0
 19 18  1  0  0  0  0
 20 14  1  0  0  0  0
 20 19  1  1  0  0  0
M  END
>  <CHROM.1>
62.20460895,-19.99023012,22.31334249,-6.72135248,43.52468898,0.65044987,-0.02377074
2.35778990

>  <Name>
1nyi_lig

>  <RI>
0

>  <Rbt.Current_Directory>
/home/itssahil/PROJECTS/Mol_Feturizer/New_Systems/rnas/1nyi

>  <Rbt.Executable>
rbdock ($Id: //depot/dev/client3/rdock/2013.1/src/exe/rbdock.cxx#4 $)

>  <Rbt.Library>
libRbt.so (2013.1, Build901 2013/11/27)

>  <Rbt.Parameter_File>
/export/apps/rDock/src/rDock_2013.1_src/data/scripts/dock_solv.prm

>  <Rbt.Receptor>
prm/pocket_docking_8.prm

>  <SCORE>
-9.50329

>  <SCORE.INTER>
-7.93709

>  <SCORE.INTER.CONST>
1

>  <SCORE.INTER.POLAR>
-1.21159

>  <SCORE.INTER.ROT>
2

>  <SCORE.INTER.SOLV>
6.02475

>  <SCORE.INTER.VDW>
-8.19434

>  <SCORE.INTER.norm>
-0.396854

>  <SCORE.INTRA>
-1.56621

>  <SCORE.INTRA.DIHEDRAL>
-2.40512

>  <SCORE.INTRA.DIHEDRAL.0>
3.72394

>  <SCORE.INTRA.POLAR>
0

>  <SCORE.INTRA.POLAR.0>
0

>  <SCORE.INTRA.REPUL>
0.016615

>  <SCORE.INTRA.REPUL.0>
0

>  <SCORE.INTRA.SOLV>
0.220567

>  <SCORE.INTRA.SOLV.lig_0>
-49.4697

>  <SCORE.INTRA.VDW>
-0.557005

>  <SCORE.INTRA.VDW.0>
-0.896538

>  <SCORE.INTRA.norm>
-0.0783103

>  <SCORE.RESTR>
0

>  <SCORE.RESTR.CAVITY>
0

>  <SCORE.RESTR.norm>
0

>  <SCORE.SYSTEM>
0

>  <SCORE.SYSTEM.CONST>
0

>  <SCORE.SYSTEM.DIHEDRAL>
0

>  <SCORE.SYSTEM.SOLV>
0

>  <SCORE.SYSTEM.norm>
0

>  <SCORE.heavy>
20

>  <SCORE.norm>
-0.475165

>  <RMSD>
6.073

$$$$
1nyi_lig
 OpenBabel11021811403D
libRbt.so/2013.1/901 2013/11/27
 20 22  0  0  0  0  0  0  0  0999 V2000
   22.6501   -7.9677   46.2161 C   0  0  0  0  0  0  0  0  0  0  0  0
   21.6617   -8.9960   46.2779 O   0  0  0  0  0  0  0  0  0  0  0  0
   23.7112   -8.3005   45.1906 C   0  0  1  0  0  0  0  0  0  0  0  0
   23.0869   -8.4004   43.8820 O   0  0  0  0  0  0  0  0  0  0  0  0
   24.7669   -7.2076   45.0659 C   0  0  1  0  0  0  0  0  0  0  0  0
   25.8626   -7.4334   45.9540 O   0  0  0  0  0  0  0  0  0  0  0  0
   25.1491   -7.2942   43.5897 C   0  0  1  0  0  0  0  0  0  0  0  0
   26.0452   -8.3584   43.3069 O   0  0  0  0  0  0  0  0  0  0  0  0
   23.7862   -7.5733   42.9597 C   0  0  2  0  0  0  0  0  0  0  0  0
   19.0596   -5.5593   42.6564 N   0  0  0  0  0  0  0  0  0  0  0  0
   19.4554   -6.7931   43.1129 C   0  0  1  0  0  0  0  0  0  0  0  0
   18.4740   -7.5885   43.5410 N   0  0  0  0  0  0  0  0  0  0  0  0
   20.7161   -7.2155   43.1437 N   0  0  0  0  0  0  0  0  0  0  0  0
   21.5866   -6.2829   42.6581 C   0  0  1  0  0  0  0  0  0  0  0  0
   21.2869   -5.0200   42.1785 C   0  0  1  0  0  0  0  0  0  0  0  0
   19.9315   -4.5877   42.1656 C   0  0  0  0  0  0  0  0  0  0  0  0
   19.4709   -3.5050   41.7817 O   0  0  0  0  0  0  0  0  0  0  0  0
   22.4444   -4.3591   41.7878 N   0  0  0  0  0  0  0  0  0  0  0  0
   23.4017   -5.2133   42.0240 C   0  0  0  0  0  0  0  0  0  0  0  0
   22.9660   -6.4111   42.5470 N   0  0  1  0  0  0  0  0  0  0  0  0
  2  1  1  0  0  0  0
  3  1  1  1  0  0  0
  3  4  1  0  0  0  0
  3  5  1  0  0  0  0
  5  6  1  1  0  0  0
  5  7  1  0  0  0  0
  7  8  1  1  0  0  0
  7  9  1  0  0  0  0
  9  4  1  1  0  0  0
  9 20  1  0  0  0  0
 10 11  1  0  0  0  0
 11 12  1  6  0  0  0
 11 13  1  0  0  0  0
 14 13  1  1  0  0  0
 15 14  1  0  0  0  0
 15 16  1  1  0  0  0
 16 10  1  0  0  0  0
 16 17  2  0  0  0  0
 18 15  1  0  0  0  0
 19 18  1  0  0  0  0
 20 14  1  0  0  0  0
 20 19  1  1  0  0  0
M  END
>  <CHROM.1>
61.37043847,-18.93845982,22.31266220,-6.73542593,43.53686444,0.64784238,-0.02955972
2.36896069

>  <Name>
1nyi_lig

>  <RI>
0

>  <Rbt.Current_Directory>
/home/itssahil/PROJECTS/Mol_Feturizer/New_Systems/rnas/1nyi

>  <Rbt.Executable>
rbdock ($Id: //depot/dev/client3/rdock/2013.1/src/exe/rbdock.cxx#4 $)

>  <Rbt.Library>
libRbt.so (2013.1, Build901 2013/11/27)

>  <Rbt.Parameter_File>
/export/apps/rDock/src/rDock_2013.1_src/data/scripts/dock_solv.prm

>  <Rbt.Receptor>
prm/pocket_docking_6.prm

>  <SCORE>
-9.51384

>  <SCORE.INTER>
-7.93373

>  <SCORE.INTER.CONST>
1

>  <SCORE.INTER.POLAR>
-1.20973

>  <SCORE.INTER.ROT>
2

>  <SCORE.INTER.SOLV>
6.07575

>  <SCORE.INTER.VDW>
-8.2153

>  <SCORE.INTER.norm>
-0.396686

>  <SCORE.INTRA>
-1.58011

>  <SCORE.INTRA.DIHEDRAL>
-2.41881

>  <SCORE.INTRA.DIHEDRAL.0>
3.72394

>  <SCORE.INTRA.POLAR>
0

>  <SCORE.INTRA.POLAR.0>
0

>  <SCORE.INTRA.REPUL>
0.00944035

>  <SCORE.INTRA.REPUL.0>
0

>  <SCORE.INTRA.SOLV>
0.270769

>  <SCORE.INTRA.SOLV.lig_0>
-49.4697

>  <SCORE.INTRA.VDW>
-0.553291

>  <SCORE.INTRA.VDW.0>
-0.896538

>  <SCORE.INTRA.norm>
-0.0790053

>  <SCORE.RESTR>
0

>  <SCORE.RESTR.CAVITY>
0

>  <SCORE.RESTR.norm>
0

>  <SCORE.SYSTEM>
0

>  <SCORE.SYSTEM.CONST>
0

>  <SCORE.SYSTEM.DIHEDRAL>
0

>  <SCORE.SYSTEM.SOLV>
0

>  <SCORE.SYSTEM.norm>
0

>  <SCORE.heavy>
20

>  <SCORE.norm>
-0.475692

>  <RMSD>
6.083

$$$$
1nyi_lig
 OpenBabel11021811403D
libRbt.so/2013.1/901 2013/11/27
 20 22  0  0  0  0  0  0  0  0999 V2000
   22.2692   -7.4389   46.0107 C   0  0  0  0  0  0  0  0  0  0  0  0
   22.7041   -7.5083   47.3687 O   0  0  0  0  0  0  0  0  0  0  0  0
   23.2948   -8.0532   45.0839 C   0  0  1  0  0  0  0  0  0  0  0  0
   22.7583   -8.0712   43.7333 O   0  0  0  0  0  0  0  0  0  0  0  0
   24.5801   -7.2364   45.0105 C   0  0  1  0  0  0  0  0  0  0  0  0
   25.5286   -7.6626   45.9897 O   0  0  0  0  0  0  0  0  0  0  0  0
   25.0353   -7.4785   43.5729 C   0  0  1  0  0  0  0  0  0  0  0  0
   25.6797   -8.7310   43.3951 O   0  0  0  0  0  0  0  0  0  0  0  0
   23.6929   -7.4702   42.8449 C   0  0  2  0  0  0  0  0  0  0  0  0
   20.1385   -5.0716   39.9985 N   0  0  0  0  0  0  0  0  0  0  0  0
   20.3089   -6.4144   40.2330 C   0  0  1  0  0  0  0  0  0  0  0  0
   19.4260   -7.2175   39.6375 N   0  0  0  0  0  0  0  0  0  0  0  0
   21.2731   -6.9300   40.9901 N   0  0  0  0  0  0  0  0  0  0  0  0
   22.0926   -5.9699   41.5096 C   0  0  1  0  0  0  0  0  0  0  0  0
   22.0034   -4.6005   41.3327 C   0  0  1  0  0  0  0  0  0  0  0  0
   20.9566   -4.0730   40.5263 C   0  0  0  0  0  0  0  0  0  0  0  0
   20.7133   -2.8902   40.2552 O   0  0  0  0  0  0  0  0  0  0  0  0
   23.0103   -3.9512   42.0354 N   0  0  0  0  0  0  0  0  0  0  0  0
   23.6808   -4.9137   42.6063 C   0  0  0  0  0  0  0  0  0  0  0  0
   23.1939   -6.1731   42.3327 N   0  0  1  0  0  0  0  0  0  0  0  0
  2  1  1  0  0  0  0
  3  1  1  1  0  0  0
  3  4  1  0  0  0  0
  3  5  1  0  0  0  0
  5  6  1  1  0  0  0
  5  7  1  0  0  0  0
  7  8  1  1  0  0  0
  7  9  1  0  0  0  0
  9  4  1  1  0  0  0
  9 20  1  0  0  0  0
 10 11  1  0  0  0  0
 11 12  1  6  0  0  0
 11 13  1  0  0  0  0
 14 13  1  1  0  0  0
 15 14  1  0  0  0  0
 15 16  1  1  0  0  0
 16 10  1  0  0  0  0
 16 17  2  0  0  0  0
 18 15  1  0  0  0  0
 19 18  1  0  0  0  0
 20 14  1  0  0  0  0
 20 19  1  1  0  0  0
M  END
>  <CHROM.1>
174.83891401,-65.61901082,22.64987242,-6.42106697,42.78783620,0.83363885
0.68858666,2.60913766

>  <Name>
1nyi_lig

>  <RI>
0

>  <Rbt.Current_Directory>
/home/itssahil/PROJECTS/Mol_Feturizer/New_Systems/rnas/1nyi

>  <Rbt.Executable>
rbdock ($Id: //depot/dev/client3/rdock/2013.1/src/exe/rbdock.cxx#4 $)

>  <Rbt.Library>
libRbt.so (2013.1, Build901 2013/11/27)

>  <Rbt.Parameter_File>
/export/apps/rDock/src/rDock_2013.1_src/data/scripts/dock_solv.prm

>  <Rbt.Receptor>
prm/pocket_docking_6.prm

>  <SCORE>
-10.1118

>  <SCORE.INTER>
-8.44167

>  <SCORE.INTER.CONST>
1

>  <SCORE.INTER.POLAR>
-1.22153

>  <SCORE.INTER.ROT>
2

>  <SCORE.INTER.SOLV>
9.34903

>  <SCORE.INTER.VDW>
-9.6057

>  <SCORE.INTER.norm>
-0.422084

>  <SCORE.INTRA>
-1.67018

>  <SCORE.INTRA.DIHEDRAL>
-2.44346

>  <SCORE.INTRA.DIHEDRAL.0>
3.72394

>  <SCORE.INTRA.POLAR>
0

>  <SCORE.INTRA.POLAR.0>
0

>  <SCORE.INTRA.REPUL>
0

>  <SCORE.INTRA.REPUL.0>
0

>  <SCORE.INTRA.SOLV>
-0.493818

>  <SCORE.INTRA.SOLV.lig_0>
-49.4697

>  <SCORE.INTRA.VDW>
-0.201539

>  <SCORE.INTRA.VDW.0>
-0.896538

>  <SCORE.INTRA.norm>
-0.0835088

>  <SCORE.RESTR>
0

>  <SCORE.RESTR.CAVITY>
0

>  <SCORE.RESTR.norm>
0

>  <SCORE.SYSTEM>
0

>  <SCORE.SYSTEM.CONST>
0

>  <SCORE.SYSTEM.DIHEDRAL>
0

>  <SCORE.SYSTEM.SOLV>
0

>  <SCORE.SYSTEM.norm>
0

>  <SCORE.heavy>
20

>  <SCORE.norm>
-0.505592

>  <RMSD>
6.085

$$$$
1nyi_lig
 OpenBabel11021811403D
libRbt.so/2013.1/901 2013/11/27
 20 22  0  0  0  0  0  0  0  0999 V2000
   22.6553   -7.9414   46.2206 C   0  0  0  0  0  0  0  0  0  0  0  0
   21.6658   -8.9671   46.3032 O   0  0  0  0  0  0  0  0  0  0  0  0
   23.7075   -8.2887   45.1908 C   0  0  1  0  0  0  0  0  0  0  0  0
   23.0741   -8.3935   43.8869 O   0  0  0  0  0  0  0  0  0  0  0  0
   24.7697   -7.2039   45.0515 C   0  0  1  0  0  0  0  0  0  0  0  0
   25.8696   -7.4307   45.9342 O   0  0  0  0  0  0  0  0  0  0  0  0
   25.1417   -7.3035   43.5735 C   0  0  1  0  0  0  0  0  0  0  0  0
   26.0289   -8.3758   43.2926 O   0  0  0  0  0  0  0  0  0  0  0  0
   23.7730   -7.5778   42.9543 C   0  0  2  0  0  0  0  0  0  0  0  0
   19.0523   -5.5552   42.6191 N   0  0  0  0  0  0  0  0  0  0  0  0
   19.4424   -6.7910   43.0751 C   0  0  1  0  0  0  0  0  0  0  0  0
   18.4563   -7.5861   43.4928 N   0  0  0  0  0  0  0  0  0  0  0  0
   20.7021   -7.2155   43.1146 N   0  0  0  0  0  0  0  0  0  0  0  0
   21.5780   -6.2829   42.6389 C   0  0  1  0  0  0  0  0  0  0  0  0
   21.2842   -5.0180   42.1608 C   0  0  1  0  0  0  0  0  0  0  0  0
   19.9296   -4.5835   42.1383 C   0  0  0  0  0  0  0  0  0  0  0  0
   19.4739   -3.4989   41.7540 O   0  0  0  0  0  0  0  0  0  0  0  0
   22.4458   -4.3579   41.7814 N   0  0  0  0  0  0  0  0  0  0  0  0
   23.3998   -5.2144   42.0227 C   0  0  0  0  0  0  0  0  0  0  0  0
   22.9580   -6.4130   42.5385 N   0  0  1  0  0  0  0  0  0  0  0  0
  2  1  1  0  0  0  0
  3  1  1  1  0  0  0
  3  4  1  0  0  0  0
  3  5  1  0  0  0  0
  5  6  1  1  0  0  0
  5  7  1  0  0  0  0
  7  8  1  1  0  0  0
  7  9  1  0  0  0  0
  9  4  1  1  0  0  0
  9 20  1  0  0  0  0
 10 11  1  0  0  0  0
 11 12  1  6  0  0  0
 11 13  1  0  0  0  0
 14 13  1  1  0  0  0
 15 14  1  0  0  0  0
 15 16  1  1  0  0  0
 16 10  1  0  0  0  0
 16 17  2  0  0  0  0
 18 15  1  0  0  0  0
 19 18  1  0  0  0  0
 20 14  1  0  0  0  0
 20 19  1  1  0  0  0
M  END
>  <CHROM.1>
61.80303785,-19.99246639,22.30749061,-6.73187890,43.52249037,0.64957850,-0.02803601
2.36537291

>  <Name>
1nyi_lig

>  <RI>
0

>  <Rbt.Current_Directory>
/home/itssahil/PROJECTS/Mol_Feturizer/New_Systems/rnas/1nyi

>  <Rbt.Executable>
rbdock ($Id: //depot/dev/client3/rdock/2013.1/src/exe/rbdock.cxx#4 $)

>  <Rbt.Library>
libRbt.so (2013.1, Build901 2013/11/27)

>  <Rbt.Parameter_File>
/export/apps/rDock/src/rDock_2013.1_src/data/scripts/dock_solv.prm

>  <Rbt.Receptor>
prm/pocket_docking_8.prm

>  <SCORE>
-9.50703

>  <SCORE.INTER>
-7.94035

>  <SCORE.INTER.CONST>
1

>  <SCORE.INTER.POLAR>
-1.20528

>  <SCORE.INTER.ROT>
2

>  <SCORE.INTER.SOLV>
6.09425

>  <SCORE.INTER.VDW>
-8.24072

>  <SCORE.INTER.norm>
-0.397018

>  <SCORE.INTRA>
-1.56668

>  <SCORE.INTRA.DIHEDRAL>
-2.41127

>  <SCORE.INTRA.DIHEDRAL.0>
3.72394

>  <SCORE.INTRA.POLAR>
0

>  <SCORE.INTRA.POLAR.0>
0

>  <SCORE.INTRA.REPUL>
0.0166296

>  <SCORE.INTRA.REPUL.0>
0

>  <SCORE.INTRA.SOLV>
0.226546

>  <SCORE.INTRA.SOLV.lig_0>
-49.4697

>  <SCORE.INTRA.VDW>
-0.557464

>  <SCORE.INTRA.VDW.0>
-0.896538

>  <SCORE.INTRA.norm>
-0.0783338

>  <SCORE.RESTR>
0

>  <SCORE.RESTR.CAVITY>
0

>  <SCORE.RESTR.norm>
0

>  <SCORE.SYSTEM>
0

>  <SCORE.SYSTEM.CONST>
0

>  <SCORE.SYSTEM.DIHEDRAL>
0

>  <SCORE.SYSTEM.SOLV>
0

>  <SCORE.SYSTEM.norm>
0

>  <SCORE.heavy>
20

>  <SCORE.norm>
-0.475351

>  <RMSD>
6.086

$$$$
1nyi_lig
 OpenBabel11021811403D
libRbt.so/2013.1/901 2013/11/27
 20 22  0  0  0  0  0  0  0  0999 V2000
   22.3382   -7.6469   46.0178 C   0  0  0  0  0  0  0  0  0  0  0  0
   22.8024   -7.7074   47.3664 O   0  0  0  0  0  0  0  0  0  0  0  0
   23.3803   -8.1877   45.0639 C   0  0  1  0  0  0  0  0  0  0  0  0
   22.8417   -8.1627   43.7143 O   0  0  0  0  0  0  0  0  0  0  0  0
   24.6395   -7.3290   45.0256 C   0  0  1  0  0  0  0  0  0  0  0  0
   25.6030   -7.7683   45.9842 O   0  0  0  0  0  0  0  0  0  0  0  0
   25.0989   -7.4933   43.5783 C   0  0  1  0  0  0  0  0  0  0  0  0
   25.7814   -8.7162   43.3449 O   0  0  0  0  0  0  0  0  0  0  0  0
   23.7553   -7.4945   42.8525 C   0  0  2  0  0  0  0  0  0  0  0  0
   20.1042   -5.0828   40.1428 N   0  0  0  0  0  0  0  0  0  0  0  0
   20.3138   -6.4287   40.3210 C   0  0  1  0  0  0  0  0  0  0  0  0
   19.4462   -7.2313   39.7029 N   0  0  0  0  0  0  0  0  0  0  0  0
   21.3003   -6.9474   41.0465 N   0  0  0  0  0  0  0  0  0  0  0  0
   22.0995   -5.9867   41.5958 C   0  0  1  0  0  0  0  0  0  0  0  0
   21.9710   -4.6142   41.4753 C   0  0  1  0  0  0  0  0  0  0  0  0
   20.9010   -4.0839   40.7020 C   0  0  0  0  0  0  0  0  0  0  0  0
   20.6224   -2.8984   40.4815 O   0  0  0  0  0  0  0  0  0  0  0  0
   22.9679   -3.9660   42.1931 N   0  0  0  0  0  0  0  0  0  0  0  0
   23.6709   -4.9318   42.7175 C   0  0  0  0  0  0  0  0  0  0  0  0
   23.2153   -6.1922   42.3984 N   0  0  1  0  0  0  0  0  0  0  0  0
  2  1  1  0  0  0  0
  3  1  1  1  0  0  0
  3  4  1  0  0  0  0
  3  5  1  0  0  0  0
  5  6  1  1  0  0  0
  5  7  1  0  0  0  0
  7  8  1  1  0  0  0
  7  9  1  0  0  0  0
  9  4  1  1  0  0  0
  9 20  1  0  0  0  0
 10 11  1  0  0  0  0
 11 12  1  6  0  0  0
 11 13  1  0  0  0  0
 14 13  1  1  0  0  0
 15 14  1  0  0  0  0
 15 16  1  1  0  0  0
 16 10  1  0  0  0  0
 16 17  2  0  0  0  0
 18 15  1  0  0  0  0
 19 18  1  0  0  0  0
 20 14  1  0  0  0  0
 20 19  1  1  0  0  0
M  END
>  <CHROM.1>
177.43503296,-64.99506448,22.67682468,-6.47316807,42.84914342,0.79656632
0.69372323,2.67378318

>  <Name>
1nyi_lig

>  <RI>
0

>  <Rbt.Current_Directory>
/home/itssahil/PROJECTS/Mol_Feturizer/New_Systems/rnas/1nyi

>  <Rbt.Executable>
rbdock ($Id: //depot/dev/client3/rdock/2013.1/src/exe/rbdock.cxx#4 $)

>  <Rbt.Library>
libRbt.so (2013.1, Build901 2013/11/27)

>  <Rbt.Parameter_File>
/export/apps/rDock/src/rDock_2013.1_src/data/scripts/dock_solv.prm

>  <Rbt.Receptor>
prm/pocket_docking_5.prm

>  <SCORE>
-10.1047

>  <SCORE.INTER>
-8.42514

>  <SCORE.INTER.CONST>
1

>  <SCORE.INTER.POLAR>
-1.18397

>  <SCORE.INTER.ROT>
2

>  <SCORE.INTER.SOLV>
9.4786

>  <SCORE.INTER.VDW>
-9.76307

>  <SCORE.INTER.norm>
-0.421257

>  <SCORE.INTRA>
-1.67953

>  <SCORE.INTRA.DIHEDRAL>
-2.5098

>  <SCORE.INTRA.DIHEDRAL.0>
3.72394

>  <SCORE.INTRA.POLAR>
0

>  <SCORE.INTRA.POLAR.0>
0

>  <SCORE.INTRA.REPUL>
8.30675e-05

>  <SCORE.INTRA.REPUL.0>
0

>  <SCORE.INTRA.SOLV>
-0.476996

>  <SCORE.INTRA.SOLV.lig_0>
-49.4697

>  <SCORE.INTRA.VDW>
-0.186546

>  <SCORE.INTRA.VDW.0>
-0.896538

>  <SCORE.INTRA.norm>
-0.0839764

>  <SCORE.RESTR>
0

>  <SCORE.RESTR.CAVITY>
0

>  <SCORE.RESTR.norm>
0

>  <SCORE.SYSTEM>
0

>  <SCORE.SYSTEM.CONST>
0

>  <SCORE.SYSTEM.DIHEDRAL>
0

>  <SCORE.SYSTEM.SOLV>
0

>  <SCORE.SYSTEM.norm>
0

>  <SCORE.heavy>
20

>  <SCORE.norm>
-0.505233

>  <RMSD>
6.087

$$$$
1nyi_lig
 OpenBabel11021811403D
libRbt.so/2013.1/901 2013/11/27
 20 22  0  0  0  0  0  0  0  0999 V2000
   22.9036   -7.4965   46.2985 C   0  0  0  0  0  0  0  0  0  0  0  0
   21.6613   -8.1684   46.5062 O   0  0  0  0  0  0  0  0  0  0  0  0
   23.6744   -8.1274   45.1601 C   0  0  1  0  0  0  0  0  0  0  0  0
   22.8491   -8.1073   43.9641 O   0  0  0  0  0  0  0  0  0  0  0  0
   24.9375   -7.3498   44.8075 C   0  0  1  0  0  0  0  0  0  0  0  0
   26.0663   -7.8207   45.5454 O   0  0  0  0  0  0  0  0  0  0  0  0
   25.0511   -7.5830   43.3023 C   0  0  1  0  0  0  0  0  0  0  0  0
   25.5967   -8.8518   42.9739 O   0  0  0  0  0  0  0  0  0  0  0  0
   23.5808   -7.5215   42.8940 C   0  0  2  0  0  0  0  0  0  0  0  0
   20.2852   -4.9660   39.8778 N   0  0  0  0  0  0  0  0  0  0  0  0
   20.5711   -6.3091   39.9174 C   0  0  1  0  0  0  0  0  0  0  0  0
   19.8983   -7.0650   39.0485 N   0  0  0  0  0  0  0  0  0  0  0  0
   21.4517   -6.8672   40.7430 N   0  0  0  0  0  0  0  0  0  0  0  0
   22.0566   -5.9494   41.5524 C   0  0  1  0  0  0  0  0  0  0  0  0
   21.8376   -4.5836   41.5877 C   0  0  1  0  0  0  0  0  0  0  0  0
   20.8827   -4.0121   40.7012 C   0  0  0  0  0  0  0  0  0  0  0  0
   20.5501   -2.8255   40.5867 O   0  0  0  0  0  0  0  0  0  0  0  0
   22.6322   -3.9870   42.5581 N   0  0  0  0  0  0  0  0  0  0  0  0
   23.3082   -4.9749   43.0769 C   0  0  0  0  0  0  0  0  0  0  0  0
   23.0239   -6.2015   42.5178 N   0  0  1  0  0  0  0  0  0  0  0  0
  2  1  1  0  0  0  0
  3  1  1  1  0  0  0
  3  4  1  0  0  0  0
  3  5  1  0  0  0  0
  5  6  1  1  0  0  0
  5  7  1  0  0  0  0
  7  8  1  1  0  0  0
  7  9  1  0  0  0  0
  9  4  1  1  0  0  0
  9 20  1  0  0  0  0
 10 11  1  0  0  0  0
 11 12  1  6  0  0  0
 11 13  1  0  0  0  0
 14 13  1  1  0  0  0
 15 14  1  0  0  0  0
 15 16  1  1  0  0  0
 16 10  1  0  0  0  0
 16 17  2  0  0  0  0
 18 15  1  0  0  0  0
 19 18  1  0  0  0  0
 20 14  1  0  0  0  0
 20 19  1  1  0  0  0
M  END
>  <CHROM.1>
56.83313697,-91.58026155,22.66708363,-6.47268184,42.73745737,0.09870320,-0.99940610
0.69374177

>  <Name>
1nyi_lig

>  <RI>
0

>  <Rbt.Current_Directory>
/home/itssahil/PROJECTS/Mol_Feturizer/New_Systems/rnas/1nyi

>  <Rbt.Executable>
rbdock ($Id: //depot/dev/client3/rdock/2013.1/src/exe/rbdock.cxx#4 $)

>  <Rbt.Library>
libRbt.so (2013.1, Build901 2013/11/27)

>  <Rbt.Parameter_File>
/export/apps/rDock/src/rDock_2013.1_src/data/scripts/dock_solv.prm

>  <Rbt.Receptor>
prm/pocket_docking_6.prm

>  <SCORE>
-9.08001

>  <SCORE.INTER>
-7.09641

>  <SCORE.INTER.CONST>
1

>  <SCORE.INTER.POLAR>
-1.20697

>  <SCORE.INTER.ROT>
2

>  <SCORE.INTER.SOLV>
10.5924

>  <SCORE.INTER.VDW>
-9.17184

>  <SCORE.INTER.norm>
-0.354821

>  <SCORE.INTRA>
-1.98359

>  <SCORE.INTRA.DIHEDRAL>
-2.55513

>  <SCORE.INTRA.DIHEDRAL.0>
3.72394

>  <SCORE.INTRA.POLAR>
0

>  <SCORE.INTRA.POLAR.0>
0

>  <SCORE.INTRA.REPUL>
0

>  <SCORE.INTRA.REPUL.0>
0

>  <SCORE.INTRA.SOLV>
-0.81242

>  <SCORE.INTRA.SOLV.lig_0>
-49.4697

>  <SCORE.INTRA.VDW>
-0.299819

>  <SCORE.INTRA.VDW.0>
-0.896538

>  <SCORE.INTRA.norm>
-0.0991797

>  <SCORE.RESTR>
0

>  <SCORE.RESTR.CAVITY>
0

>  <SCORE.RESTR.norm>
0

>  <SCORE.SYSTEM>
0

>  <SCORE.SYSTEM.CONST>
0

>  <SCORE.SYSTEM.DIHEDRAL>
0

>  <SCORE.SYSTEM.SOLV>
0

>  <SCORE.SYSTEM.norm>
0

>  <SCORE.heavy>
20

>  <SCORE.norm>
-0.454

>  <RMSD>
6.088

$$$$
1nyi_lig
 OpenBabel11021811403D
libRbt.so/2013.1/901 2013/11/27
 20 22  0  0  0  0  0  0  0  0999 V2000
   22.2321   -7.5365   45.9450 C   0  0  0  0  0  0  0  0  0  0  0  0
   22.6436   -7.6064   47.3102 O   0  0  0  0  0  0  0  0  0  0  0  0
   23.2948   -8.1059   45.0315 C   0  0  1  0  0  0  0  0  0  0  0  0
   22.7913   -8.1100   43.6682 O   0  0  0  0  0  0  0  0  0  0  0  0
   24.5601   -7.2557   45.0053 C   0  0  1  0  0  0  0  0  0  0  0  0
   25.4958   -7.6775   45.9987 O   0  0  0  0  0  0  0  0  0  0  0  0
   25.0555   -7.4571   43.5747 C   0  0  1  0  0  0  0  0  0  0  0  0
   25.7359   -8.6890   43.3881 O   0  0  0  0  0  0  0  0  0  0  0  0
   23.7309   -7.4679   42.8147 C   0  0  2  0  0  0  0  0  0  0  0  0
   20.0972   -5.0910   40.0514 N   0  0  0  0  0  0  0  0  0  0  0  0
   20.2828   -6.4330   40.2794 C   0  0  1  0  0  0  0  0  0  0  0  0
   19.3931   -7.2416   39.7018 N   0  0  0  0  0  0  0  0  0  0  0  0
   21.2672   -6.9426   41.0143 N   0  0  0  0  0  0  0  0  0  0  0  0
   22.0906   -5.9773   41.5177 C   0  0  1  0  0  0  0  0  0  0  0  0
   21.9872   -4.6082   41.3455 C   0  0  1  0  0  0  0  0  0  0  0  0
   20.9191   -4.0872   40.5632 C   0  0  0  0  0  0  0  0  0  0  0  0
   20.6610   -2.9059   40.2999 O   0  0  0  0  0  0  0  0  0  0  0  0
   23.0043   -3.9526   42.0273 N   0  0  0  0  0  0  0  0  0  0  0  0
   23.6944   -4.9110   42.5815 C   0  0  0  0  0  0  0  0  0  0  0  0
   23.2111   -6.1736   42.3161 N   0  0  1  0  0  0  0  0  0  0  0  0
  2  1  1  0  0  0  0
  3  1  1  1  0  0  0
  3  4  1  0  0  0  0
  3  5  1  0  0  0  0
  5  6  1  1  0  0  0
  5  7  1  0  0  0  0
  7  8  1  1  0  0  0
  7  9  1  0  0  0  0
  9  4  1  1  0  0  0
  9 20  1  0  0  0  0
 10 11  1  0  0  0  0
 11 12  1  6  0  0  0
 11 13  1  0  0  0  0
 14 13  1  1  0  0  0
 15 14  1  0  0  0  0
 15 16  1  1  0  0  0
 16 10  1  0  0  0  0
 16 17  2  0  0  0  0
 18 15  1  0  0  0  0
 19 18  1  0  0  0  0
 20 14  1  0  0  0  0
 20 19  1  1  0  0  0
M  END
>  <CHROM.1>
175.59896254,-62.61362132,22.64017445,-6.44022746,42.78545811,0.88737018
0.58626864,2.52117039

>  <Name>
1nyi_lig

>  <RI>
0

>  <Rbt.Current_Directory>
/home/itssahil/PROJECTS/Mol_Feturizer/New_Systems/rnas/1nyi

>  <Rbt.Executable>
rbdock ($Id: //depot/dev/client3/rdock/2013.1/src/exe/rbdock.cxx#4 $)

>  <Rbt.Library>
libRbt.so (2013.1, Build901 2013/11/27)

>  <Rbt.Parameter_File>
/export/apps/rDock/src/rDock_2013.1_src/data/scripts/dock_solv.prm

>  <Rbt.Receptor>
prm/pocket_docking_6.prm

>  <SCORE>
-10.0216

>  <SCORE.INTER>
-8.37301

>  <SCORE.INTER.CONST>
1

>  <SCORE.INTER.POLAR>
-1.20064

>  <SCORE.INTER.ROT>
2

>  <SCORE.INTER.SOLV>
9.37469

>  <SCORE.INTER.VDW>
-9.63811

>  <SCORE.INTER.norm>
-0.41865

>  <SCORE.INTRA>
-1.64857

>  <SCORE.INTRA.DIHEDRAL>
-2.45552

>  <SCORE.INTRA.DIHEDRAL.0>
3.72394

>  <SCORE.INTRA.POLAR>
0

>  <SCORE.INTRA.POLAR.0>
0

>  <SCORE.INTRA.REPUL>
0.00173239

>  <SCORE.INTRA.REPUL.0>
0

>  <SCORE.INTRA.SOLV>
-0.473368

>  <SCORE.INTRA.SOLV.lig_0>
-49.4697

>  <SCORE.INTRA.VDW>
-0.192784

>  <SCORE.INTRA.VDW.0>
-0.896538

>  <SCORE.INTRA.norm>
-0.0824283

>  <SCORE.RESTR>
0

>  <SCORE.RESTR.CAVITY>
0

>  <SCORE.RESTR.norm>
0

>  <SCORE.SYSTEM>
0

>  <SCORE.SYSTEM.CONST>
0

>  <SCORE.SYSTEM.DIHEDRAL>
0

>  <SCORE.SYSTEM.SOLV>
0

>  <SCORE.SYSTEM.norm>
0

>  <SCORE.heavy>
20

>  <SCORE.norm>
-0.501079

>  <RMSD>
6.095

$$$$
1nyi_lig
 OpenBabel11021811403D
libRbt.so/2013.1/901 2013/11/27
 20 22  0  0  0  0  0  0  0  0999 V2000
   22.7857   -7.2660   46.2264 C   0  0  0  0  0  0  0  0  0  0  0  0
   21.5454   -7.9233   46.4869 O   0  0  0  0  0  0  0  0  0  0  0  0
   23.5493   -7.9711   45.1273 C   0  0  1  0  0  0  0  0  0  0  0  0
   22.7426   -7.9713   43.9185 O   0  0  0  0  0  0  0  0  0  0  0  0
   24.8448   -7.2544   44.7630 C   0  0  1  0  0  0  0  0  0  0  0  0
   25.9449   -7.7342   45.5376 O   0  0  0  0  0  0  0  0  0  0  0  0
   24.9715   -7.5541   43.2708 C   0  0  1  0  0  0  0  0  0  0  0  0
   25.4753   -8.8542   43.0036 O   0  0  0  0  0  0  0  0  0  0  0  0
   23.5105   -7.4572   42.8369 C   0  0  2  0  0  0  0  0  0  0  0  0
   20.2932   -4.9172   39.7247 N   0  0  0  0  0  0  0  0  0  0  0  0
   20.5203   -6.2678   39.8315 C   0  0  1  0  0  0  0  0  0  0  0  0
   19.8043   -7.0369   39.0099 N   0  0  0  0  0  0  0  0  0  0  0  0
   21.3858   -6.8211   40.6762 N   0  0  0  0  0  0  0  0  0  0  0  0
   22.0402   -5.8904   41.4304 C   0  0  1  0  0  0  0  0  0  0  0  0
   21.8818   -4.5162   41.3966 C   0  0  1  0  0  0  0  0  0  0  0  0
   20.9421   -3.9494   40.4911 C   0  0  0  0  0  0  0  0  0  0  0  0
   20.6604   -2.7568   40.3182 O   0  0  0  0  0  0  0  0  0  0  0  0
   22.7138   -3.9061   42.3265 N   0  0  0  0  0  0  0  0  0  0  0  0
   23.3521   -4.8949   42.8894 C   0  0  0  0  0  0  0  0  0  0  0  0
   23.0074   -6.1350   42.3980 N   0  0  1  0  0  0  0  0  0  0  0  0
  2  1  1  0  0  0  0
  3  1  1  1  0  0  0
  3  4  1  0  0  0  0
  3  5  1  0  0  0  0
  5  6  1  1  0  0  0
  5  7  1  0  0  0  0
  7  8  1  1  0  0  0
  7  9  1  0  0  0  0
  9  4  1  1  0  0  0
  9 20  1  0  0  0  0
 10 11  1  0  0  0  0
 11 12  1  6  0  0  0
 11 13  1  0  0  0  0
 14 13  1  1  0  0  0
 15 14  1  0  0  0  0
 15 16  1  1  0  0  0
 16 10  1  0  0  0  0
 16 17  2  0  0  0  0
 18 15  1  0  0  0  0
 19 18  1  0  0  0  0
 20 14  1  0  0  0  0
 20 19  1  1  0  0  0
M  END
>  <CHROM.1>
59.67990460,-89.88918541,22.62333151,-6.38694541,42.64127506,-0.14567091
-1.01887715,0.38355976

>  <Name>
1nyi_lig

>  <RI>
0

>  <Rbt.Current_Directory>
/home/itssahil/PROJECTS/Mol_Feturizer/New_Systems/rnas/1nyi

>  <Rbt.Executable>
rbdock ($Id: //depot/dev/client3/rdock/2013.1/src/exe/rbdock.cxx#4 $)

>  <Rbt.Library>
libRbt.so (2013.1, Build901 2013/11/27)

>  <Rbt.Parameter_File>
/export/apps/rDock/src/rDock_2013.1_src/data/scripts/dock_solv.prm

>  <Rbt.Receptor>
prm/pocket_docking_6.prm

>  <SCORE>
-9.31594

>  <SCORE.INTER>
-7.31635

>  <SCORE.INTER.CONST>
1

>  <SCORE.INTER.POLAR>
-1.23518

>  <SCORE.INTER.ROT>
2

>  <SCORE.INTER.SOLV>
10.3006

>  <SCORE.INTER.VDW>
-9.12716

>  <SCORE.INTER.norm>
-0.365818

>  <SCORE.INTRA>
-1.99959

>  <SCORE.INTRA.DIHEDRAL>
-2.58879

>  <SCORE.INTRA.DIHEDRAL.0>
3.72394

>  <SCORE.INTRA.POLAR>
0

>  <SCORE.INTRA.POLAR.0>
0

>  <SCORE.INTRA.REPUL>
0

>  <SCORE.INTRA.REPUL.0>
0

>  <SCORE.INTRA.SOLV>
-0.816263

>  <SCORE.INTRA.SOLV.lig_0>
-49.4697

>  <SCORE.INTRA.VDW>
-0.297065

>  <SCORE.INTRA.VDW.0>
-0.896538

>  <SCORE.INTRA.norm>
-0.0999796

>  <SCORE.RESTR>
0

>  <SCORE.RESTR.CAVITY>
0

>  <SCORE.RESTR.norm>
0

>  <SCORE.SYSTEM>
0

>  <SCORE.SYSTEM.CONST>
0

>  <SCORE.SYSTEM.DIHEDRAL>
0

>  <SCORE.SYSTEM.SOLV>
0

>  <SCORE.SYSTEM.norm>
0

>  <SCORE.heavy>
20

>  <SCORE.norm>
-0.465797

>  <RMSD>
6.097

$$$$
1nyi_lig
 OpenBabel11021811403D
libRbt.so/2013.1/901 2013/11/27
 20 22  0  0  0  0  0  0  0  0999 V2000
   22.3406   -7.3717   46.0283 C   0  0  0  0  0  0  0  0  0  0  0  0
   21.1435   -8.1481   46.0765 O   0  0  0  0  0  0  0  0  0  0  0  0
   23.3435   -7.9853   45.0766 C   0  0  1  0  0  0  0  0  0  0  0  0
   22.7725   -8.0073   43.7403 O   0  0  0  0  0  0  0  0  0  0  0  0
   24.6244   -7.1655   44.9685 C   0  0  1  0  0  0  0  0  0  0  0  0
   25.5990   -7.5873   45.9238 O   0  0  0  0  0  0  0  0  0  0  0  0
   25.0431   -7.4093   43.5201 C   0  0  1  0  0  0  0  0  0  0  0  0
   25.6859   -8.6605   43.3283 O   0  0  0  0  0  0  0  0  0  0  0  0
   23.6823   -7.4058   42.8270 C   0  0  2  0  0  0  0  0  0  0  0  0
   20.1400   -5.0344   39.9430 N   0  0  0  0  0  0  0  0  0  0  0  0
   20.3338   -6.3772   40.1591 C   0  0  1  0  0  0  0  0  0  0  0  0
   19.4813   -7.1884   39.5312 N   0  0  0  0  0  0  0  0  0  0  0  0
   21.2922   -6.8851   40.9286 N   0  0  0  0  0  0  0  0  0  0  0  0
   22.0797   -5.9170   41.4817 C   0  0  1  0  0  0  0  0  0  0  0  0
   21.9652   -4.5469   41.3253 C   0  0  1  0  0  0  0  0  0  0  0  0
   20.9251   -4.0280   40.5049 C   0  0  0  0  0  0  0  0  0  0  0  0
   20.6625   -2.8462   40.2480 O   0  0  0  0  0  0  0  0  0  0  0  0
   22.9426   -3.8886   42.0605 N   0  0  0  0  0  0  0  0  0  0  0  0
   23.6210   -4.8464   42.6301 C   0  0  0  0  0  0  0  0  0  0  0  0
   23.1670   -6.1109   42.3253 N   0  0  1  0  0  0  0  0  0  0  0  0
  2  1  1  0  0  0  0
  3  1  1  1  0  0  0
  3  4  1  0  0  0  0
  3  5  1  0  0  0  0
  5  6  1  1  0  0  0
  5  7  1  0  0  0  0
  7  8  1  1  0  0  0
  7  9  1  0  0  0  0
  9  4  1  1  0  0  0
  9 20  1  0  0  0  0
 10 11  1  0  0  0  0
 11 12  1  6  0  0  0
 11 13  1  0  0  0  0
 14 13  1  1  0  0  0
 15 14  1  0  0  0  0
 15 16  1  1  0  0  0
 16 10  1  0  0  0  0
 16 17  2  0  0  0  0
 18 15  1  0  0  0  0
 19 18  1  0  0  0  0
 20 14  1  0  0  0  0
 20 19  1  1  0  0  0
M  END
>  <CHROM.1>
61.46339185,-68.73145074,22.56463485,-6.40338547,42.68704727,0.95099507,0.41904771
2.41331767

>  <Name>
1nyi_lig

>  <RI>
0

>  <Rbt.Current_Directory>
/home/itssahil/PROJECTS/Mol_Feturizer/New_Systems/rnas/1nyi

>  <Rbt.Executable>
rbdock ($Id: //depot/dev/client3/rdock/2013.1/src/exe/rbdock.cxx#4 $)

>  <Rbt.Library>
libRbt.so (2013.1, Build901 2013/11/27)

>  <Rbt.Parameter_File>
/export/apps/rDock/src/rDock_2013.1_src/data/scripts/dock_solv.prm

>  <Rbt.Receptor>
prm/pocket_docking_6.prm

>  <SCORE>
-10.2503

>  <SCORE.INTER>
-8.44961

>  <SCORE.INTER.CONST>
1

>  <SCORE.INTER.POLAR>
-1.2488

>  <SCORE.INTER.ROT>
2

>  <SCORE.INTER.SOLV>
9.47308

>  <SCORE.INTER.VDW>
-9.56143

>  <SCORE.INTER.norm>
-0.42248

>  <SCORE.INTRA>
-1.80074

>  <SCORE.INTRA.DIHEDRAL>
-2.53716

>  <SCORE.INTRA.DIHEDRAL.0>
3.72394

>  <SCORE.INTRA.POLAR>
0

>  <SCORE.INTRA.POLAR.0>
0

>  <SCORE.INTRA.REPUL>
0

>  <SCORE.INTRA.REPUL.0>
0

>  <SCORE.INTRA.SOLV>
-0.722879

>  <SCORE.INTRA.SOLV.lig_0>
-49.4697

>  <SCORE.INTRA.VDW>
-0.170718

>  <SCORE.INTRA.VDW.0>
-0.896538

>  <SCORE.INTRA.norm>
-0.0900368

>  <SCORE.RESTR>
0

>  <SCORE.RESTR.CAVITY>
0

>  <SCORE.RESTR.norm>
0

>  <SCORE.SYSTEM>
0

>  <SCORE.SYSTEM.CONST>
0

>  <SCORE.SYSTEM.DIHEDRAL>
0

>  <SCORE.SYSTEM.SOLV>
0

>  <SCORE.SYSTEM.norm>
0

>  <SCORE.heavy>
20

>  <SCORE.norm>
-0.512517

>  <RMSD>
6.103

$$$$
1nyi_lig
 OpenBabel11021811403D
libRbt.so/2013.1/901 2013/11/27
 20 22  0  0  0  0  0  0  0  0999 V2000
   22.2381   -7.4934   45.9900 C   0  0  0  0  0  0  0  0  0  0  0  0
   22.6786   -7.5426   47.3470 O   0  0  0  0  0  0  0  0  0  0  0  0
   23.2752   -8.0897   45.0643 C   0  0  1  0  0  0  0  0  0  0  0  0
   22.7488   -8.0972   43.7096 O   0  0  0  0  0  0  0  0  0  0  0  0
   24.5545   -7.2622   45.0092 C   0  0  1  0  0  0  0  0  0  0  0  0
   25.4992   -7.6915   45.9907 O   0  0  0  0  0  0  0  0  0  0  0  0
   25.0222   -7.4852   43.5724 C   0  0  1  0  0  0  0  0  0  0  0  0
   25.6777   -8.7307   43.3860 O   0  0  0  0  0  0  0  0  0  0  0  0
   23.6851   -7.4795   42.8347 C   0  0  2  0  0  0  0  0  0  0  0  0
   20.1168   -5.0757   40.0101 N   0  0  0  0  0  0  0  0  0  0  0  0
   20.2935   -6.4195   40.2343 C   0  0  1  0  0  0  0  0  0  0  0  0
   19.4136   -7.2221   39.6338 N   0  0  0  0  0  0  0  0  0  0  0  0
   21.2608   -6.9363   40.9865 N   0  0  0  0  0  0  0  0  0  0  0  0
   22.0766   -5.9765   41.5124 C   0  0  1  0  0  0  0  0  0  0  0  0
   21.9810   -4.6061   41.3458 C   0  0  1  0  0  0  0  0  0  0  0  0
   20.9310   -4.0774   40.5445 C   0  0  0  0  0  0  0  0  0  0  0  0
   20.6820   -2.8938   40.2825 O   0  0  0  0  0  0  0  0  0  0  0  0
   22.9857   -3.9576   42.0523 N   0  0  0  0  0  0  0  0  0  0  0  0
   23.6612   -4.9213   42.6152 C   0  0  0  0  0  0  0  0  0  0  0  0
   23.1797   -6.1808   42.3328 N   0  0  1  0  0  0  0  0  0  0  0  0
  2  1  1  0  0  0  0
  3  1  1  1  0  0  0
  3  4  1  0  0  0  0
  3  5  1  0  0  0  0
  5  6  1  1  0  0  0
  5  7  1  0  0  0  0
  7  8  1  1  0  0  0
  7  9  1  0  0  0  0
  9  4  1  1  0  0  0
  9 20  1  0  0  0  0
 10 11  1  0  0  0  0
 11 12  1  6  0  0  0
 11 13  1  0  0  0  0
 14 13  1  1  0  0  0
 15 14  1  0  0  0  0
 15 16  1  1  0  0  0
 16 10  1  0  0  0  0
 16 17  2  0  0  0  0
 18 15  1  0  0  0  0
 19 18  1  0  0  0  0
 20 14  1  0  0  0  0
 20 19  1  1  0  0  0
M  END
>  <CHROM.1>
176.34234470,-65.06624805,22.63090390,-6.43547679,42.78691960,0.83486466
0.68428809,2.61174955

>  <Name>
1nyi_lig

>  <RI>
0

>  <Rbt.Current_Directory>
/home/itssahil/PROJECTS/Mol_Feturizer/New_Systems/rnas/1nyi

>  <Rbt.Executable>
rbdock ($Id: //depot/dev/client3/rdock/2013.1/src/exe/rbdock.cxx#4 $)

>  <Rbt.Library>
libRbt.so (2013.1, Build901 2013/11/27)

>  <Rbt.Parameter_File>
/export/apps/rDock/src/rDock_2013.1_src/data/scripts/dock_solv.prm

>  <Rbt.Receptor>
prm/pocket_docking_7.prm

>  <SCORE>
-10.1005

>  <SCORE.INTER>
-8.42303

>  <SCORE.INTER.CONST>
1

>  <SCORE.INTER.POLAR>
-1.21519

>  <SCORE.INTER.ROT>
2

>  <SCORE.INTER.SOLV>
9.37732

>  <SCORE.INTER.VDW>
-9.62382

>  <SCORE.INTER.norm>
-0.421152

>  <SCORE.INTRA>
-1.67749

>  <SCORE.INTRA.DIHEDRAL>
-2.48685

>  <SCORE.INTRA.DIHEDRAL.0>
3.72394

>  <SCORE.INTRA.POLAR>
0

>  <SCORE.INTRA.POLAR.0>
0

>  <SCORE.INTRA.REPUL>
5.40003e-05

>  <SCORE.INTRA.REPUL.0>
0

>  <SCORE.INTRA.SOLV>
-0.483024

>  <SCORE.INTRA.SOLV.lig_0>
-49.4697

>  <SCORE.INTRA.VDW>
-0.192823

>  <SCORE.INTRA.VDW.0>
-0.896538

>  <SCORE.INTRA.norm>
-0.0838745

>  <SCORE.RESTR>
0

>  <SCORE.RESTR.CAVITY>
0

>  <SCORE.RESTR.norm>
0

>  <SCORE.SYSTEM>
0

>  <SCORE.SYSTEM.CONST>
0

>  <SCORE.SYSTEM.DIHEDRAL>
0

>  <SCORE.SYSTEM.SOLV>
0

>  <SCORE.SYSTEM.norm>
0

>  <SCORE.heavy>
20

>  <SCORE.norm>
-0.505026

>  <RMSD>
6.103

$$$$
1nyi_lig
 OpenBabel11021811403D
libRbt.so/2013.1/901 2013/11/27
 20 22  0  0  0  0  0  0  0  0999 V2000
   22.5129   -7.5406   46.1084 C   0  0  0  0  0  0  0  0  0  0  0  0
   21.3148   -8.3130   46.1856 O   0  0  0  0  0  0  0  0  0  0  0  0
   23.4758   -8.1376   45.1061 C   0  0  1  0  0  0  0  0  0  0  0  0
   22.8557   -8.1249   43.7917 O   0  0  0  0  0  0  0  0  0  0  0  0
   24.7573   -7.3229   44.9696 C   0  0  1  0  0  0  0  0  0  0  0  0
   25.7637   -7.7728   45.8779 O   0  0  0  0  0  0  0  0  0  0  0  0
   25.1205   -7.5351   43.5013 C   0  0  1  0  0  0  0  0  0  0  0  0
   25.7474   -8.7853   43.2567 O   0  0  0  0  0  0  0  0  0  0  0  0
   23.7351   -7.5074   42.8595 C   0  0  2  0  0  0  0  0  0  0  0  0
   20.1675   -5.0531   40.0778 N   0  0  0  0  0  0  0  0  0  0  0  0
   20.3699   -6.4017   40.2439 C   0  0  1  0  0  0  0  0  0  0  0  0
   19.5195   -7.1944   39.5901 N   0  0  0  0  0  0  0  0  0  0  0  0
   21.3343   -6.9317   40.9906 N   0  0  0  0  0  0  0  0  0  0  0  0
   22.1185   -5.9799   41.5757 C   0  0  1  0  0  0  0  0  0  0  0  0
   21.9954   -4.6057   41.4701 C   0  0  1  0  0  0  0  0  0  0  0  0
   20.9490   -4.0633   40.6732 C   0  0  0  0  0  0  0  0  0  0  0  0
   20.6786   -2.8744   40.4607 O   0  0  0  0  0  0  0  0  0  0  0  0
   22.9720   -3.9690   42.2251 N   0  0  0  0  0  0  0  0  0  0  0  0
   23.6582   -4.9429   42.7567 C   0  0  0  0  0  0  0  0  0  0  0  0
   23.2103   -6.1981   42.4075 N   0  0  1  0  0  0  0  0  0  0  0  0
  2  1  1  0  0  0  0
  3  1  1  1  0  0  0
  3  4  1  0  0  0  0
  3  5  1  0  0  0  0
  5  6  1  1  0  0  0
  5  7  1  0  0  0  0
  7  8  1  1  0  0  0
  7  9  1  0  0  0  0
  9  4  1  1  0  0  0
  9 20  1  0  0  0  0
 10 11  1  0  0  0  0
 11 12  1  6  0  0  0
 11 13  1  0  0  0  0
 14 13  1  1  0  0  0
 15 14  1  0  0  0  0
 15 16  1  1  0  0  0
 16 10  1  0  0  0  0
 16 17  2  0  0  0  0
 18 15  1  0  0  0  0
 19 18  1  0  0  0  0
 20 14  1  0  0  0  0
 20 19  1  1  0  0  0
M  END
>  <CHROM.1>
61.62523618,-70.88933561,22.63651431,-6.49698704,42.76115919,0.93359387,0.42065519
2.45433248

>  <Name>
1nyi_lig

>  <RI>
0

>  <Rbt.Current_Directory>
/home/itssahil/PROJECTS/Mol_Feturizer/New_Systems/rnas/1nyi

>  <Rbt.Executable>
rbdock ($Id: //depot/dev/client3/rdock/2013.1/src/exe/rbdock.cxx#4 $)

>  <Rbt.Library>
libRbt.so (2013.1, Build901 2013/11/27)

>  <Rbt.Parameter_File>
/export/apps/rDock/src/rDock_2013.1_src/data/scripts/dock_solv.prm

>  <Rbt.Receptor>
prm/pocket_docking_5.prm

>  <SCORE>
-10.3252

>  <SCORE.INTER>
-8.50721

>  <SCORE.INTER.CONST>
1

>  <SCORE.INTER.POLAR>
-1.21105

>  <SCORE.INTER.ROT>
2

>  <SCORE.INTER.SOLV>
9.77587

>  <SCORE.INTER.VDW>
-9.8266

>  <SCORE.INTER.norm>
-0.425361

>  <SCORE.INTRA>
-1.818

>  <SCORE.INTRA.DIHEDRAL>
-2.54335

>  <SCORE.INTRA.DIHEDRAL.0>
3.72394

>  <SCORE.INTRA.POLAR>
0

>  <SCORE.INTRA.POLAR.0>
0

>  <SCORE.INTRA.REPUL>
0

>  <SCORE.INTRA.REPUL.0>
0

>  <SCORE.INTRA.SOLV>
-0.734759

>  <SCORE.INTRA.SOLV.lig_0>
-49.4697

>  <SCORE.INTRA.VDW>
-0.178944

>  <SCORE.INTRA.VDW.0>
-0.896538

>  <SCORE.INTRA.norm>
-0.0908998

>  <SCORE.RESTR>
0

>  <SCORE.RESTR.CAVITY>
0

>  <SCORE.RESTR.norm>
0

>  <SCORE.SYSTEM>
0

>  <SCORE.SYSTEM.CONST>
0

>  <SCORE.SYSTEM.DIHEDRAL>
0

>  <SCORE.SYSTEM.SOLV>
0

>  <SCORE.SYSTEM.norm>
0

>  <SCORE.heavy>
20

>  <SCORE.norm>
-0.51626

>  <RMSD>
6.104

$$$$
1nyi_lig
 OpenBabel11021811403D
libRbt.so/2013.1/901 2013/11/27
 20 22  0  0  0  0  0  0  0  0999 V2000
   22.5087   -7.5348   46.1177 C   0  0  0  0  0  0  0  0  0  0  0  0
   21.3093   -8.3048   46.1977 O   0  0  0  0  0  0  0  0  0  0  0  0
   23.4694   -8.1355   45.1154 C   0  0  1  0  0  0  0  0  0  0  0  0
   22.8483   -8.1228   43.8015 O   0  0  0  0  0  0  0  0  0  0  0  0
   24.7528   -7.3243   44.9770 C   0  0  1  0  0  0  0  0  0  0  0  0
   25.7587   -7.7756   45.8852 O   0  0  0  0  0  0  0  0  0  0  0  0
   25.1144   -7.5392   43.5088 C   0  0  1  0  0  0  0  0  0  0  0  0
   25.7379   -8.7912   43.2652 O   0  0  0  0  0  0  0  0  0  0  0  0
   23.7287   -7.5087   42.8679 C   0  0  2  0  0  0  0  0  0  0  0  0
   20.1737   -5.0492   40.0746 N   0  0  0  0  0  0  0  0  0  0  0  0
   20.3741   -6.3981   40.2407 C   0  0  1  0  0  0  0  0  0  0  0  0
   19.5252   -7.1896   39.5835 N   0  0  0  0  0  0  0  0  0  0  0  0
   21.3353   -6.9295   40.9907 N   0  0  0  0  0  0  0  0  0  0  0  0
   22.1183   -5.9788   41.5791 C   0  0  1  0  0  0  0  0  0  0  0  0
   21.9971   -4.6044   41.4737 C   0  0  1  0  0  0  0  0  0  0  0  0
   20.9542   -4.0605   40.6733 C   0  0  0  0  0  0  0  0  0  0  0  0
   20.6858   -2.8712   40.4605 O   0  0  0  0  0  0  0  0  0  0  0  0
   22.9716   -3.9692   42.2325 N   0  0  0  0  0  0  0  0  0  0  0  0
   23.6548   -4.9441   42.7661 C   0  0  0  0  0  0  0  0  0  0  0  0
   23.2069   -6.1986   42.4147 N   0  0  1  0  0  0  0  0  0  0  0  0
  2  1  1  0  0  0  0
  3  1  1  1  0  0  0
  3  4  1  0  0  0  0
  3  5  1  0  0  0  0
  5  6  1  1  0  0  0
  5  7  1  0  0  0  0
  7  8  1  1  0  0  0
  7  9  1  0  0  0  0
  9  4  1  1  0  0  0
  9 20  1  0  0  0  0
 10 11  1  0  0  0  0
 11 12  1  6  0  0  0
 11 13  1  0  0  0  0
 14 13  1  1  0  0  0
 15 14  1  0  0  0  0
 15 16  1  1  0  0  0
 16 10  1  0  0  0  0
 16 17  2  0  0  0  0
 18 15  1  0  0  0  0
 19 18  1  0  0  0  0
 20 14  1  0  0  0  0
 20 19  1  1  0  0  0
M  END
>  <CHROM.1>
61.68499577,-71.16862553,22.63485334,-6.49578831,42.76613308,0.93569803,0.42308461
2.45378936

>  <Name>
1nyi_lig

>  <RI>
0

>  <Rbt.Current_Directory>
/home/itssahil/PROJECTS/Mol_Feturizer/New_Systems/rnas/1nyi

>  <Rbt.Executable>
rbdock ($Id: //depot/dev/client3/rdock/2013.1/src/exe/rbdock.cxx#4 $)

>  <Rbt.Library>
libRbt.so (2013.1, Build901 2013/11/27)

>  <Rbt.Parameter_File>
/export/apps/rDock/src/rDock_2013.1_src/data/scripts/dock_solv.prm

>  <Rbt.Receptor>
prm/pocket_docking_5.prm

>  <SCORE>
-10.3241

>  <SCORE.INTER>
-8.50389

>  <SCORE.INTER.CONST>
1

>  <SCORE.INTER.POLAR>
-1.21125

>  <SCORE.INTER.ROT>
2

>  <SCORE.INTER.SOLV>
9.75354

>  <SCORE.INTER.VDW>
-9.81627

>  <SCORE.INTER.norm>
-0.425194

>  <SCORE.INTRA>
-1.8202

>  <SCORE.INTRA.DIHEDRAL>
-2.54359

>  <SCORE.INTRA.DIHEDRAL.0>
3.72394

>  <SCORE.INTRA.POLAR>
0

>  <SCORE.INTRA.POLAR.0>
0

>  <SCORE.INTRA.REPUL>
0

>  <SCORE.INTRA.REPUL.0>
0

>  <SCORE.INTRA.SOLV>
-0.736432

>  <SCORE.INTRA.SOLV.lig_0>
-49.4697

>  <SCORE.INTRA.VDW>
-0.180186

>  <SCORE.INTRA.VDW.0>
-0.896538

>  <SCORE.INTRA.norm>
-0.0910098

>  <SCORE.RESTR>
0

>  <SCORE.RESTR.CAVITY>
0

>  <SCORE.RESTR.norm>
0

>  <SCORE.SYSTEM>
0

>  <SCORE.SYSTEM.CONST>
0

>  <SCORE.SYSTEM.DIHEDRAL>
0

>  <SCORE.SYSTEM.SOLV>
0

>  <SCORE.SYSTEM.norm>
0

>  <SCORE.heavy>
20

>  <SCORE.norm>
-0.516204

>  <RMSD>
6.105

$$$$
1nyi_lig
 OpenBabel11021811403D
libRbt.so/2013.1/901 2013/11/27
 20 22  0  0  0  0  0  0  0  0999 V2000
   25.4431   -7.6399   43.5879 C   0  0  0  0  0  0  0  0  0  0  0  0
   26.2794   -7.7775   44.7367 O   0  0  0  0  0  0  0  0  0  0  0  0
   24.2193   -6.8103   43.9078 C   0  0  1  0  0  0  0  0  0  0  0  0
   24.6439   -5.4790   44.3074 O   0  0  0  0  0  0  0  0  0  0  0  0
   23.3141   -6.6126   42.6971 C   0  0  1  0  0  0  0  0  0  0  0  0
   22.3265   -7.6407   42.6075 O   0  0  0  0  0  0  0  0  0  0  0  0
   22.7300   -5.2249   42.9532 C   0  0  1  0  0  0  0  0  0  0  0  0
   21.6684   -5.2317   43.8959 O   0  0  0  0  0  0  0  0  0  0  0  0
   23.9460   -4.5084   43.5363 C   0  0  2  0  0  0  0  0  0  0  0  0
   24.5249   -2.5243   38.8228 N   0  0  0  0  0  0  0  0  0  0  0  0
   23.4473   -3.1788   39.3684 C   0  0  1  0  0  0  0  0  0  0  0  0
   22.3951   -3.3235   38.5616 N   0  0  0  0  0  0  0  0  0  0  0  0
   23.4064   -3.6579   40.6083 N   0  0  0  0  0  0  0  0  0  0  0  0
   24.5689   -3.4348   41.2882 C   0  0  1  0  0  0  0  0  0  0  0  0
   25.7030   -2.7889   40.8283 C   0  0  1  0  0  0  0  0  0  0  0  0
   25.7180   -2.2764   39.5012 C   0  0  0  0  0  0  0  0  0  0  0  0
   26.6277   -1.6736   38.9175 O   0  0  0  0  0  0  0  0  0  0  0  0
   26.6747   -2.7442   41.8197 N   0  0  0  0  0  0  0  0  0  0  0  0
   26.1304   -3.3546   42.8360 C   0  0  0  0  0  0  0  0  0  0  0  0
   24.8534   -3.8122   42.5951 N   0  0  1  0  0  0  0  0  0  0  0  0
  2  1  1  0  0  0  0
  3  1  1  6  0  0  0
  3  4  1  0  0  0  0
  3  5  1  0  0  0  0
  5  6  1  1  0  0  0
  5  7  1  0  0  0  0
  7  8  1  1  0  0  0
  7  9  1  0  0  0  0
  9  4  1  6  0  0  0
  9 20  1  0  0  0  0
 10 11  1  0  0  0  0
 11 12  1  6  0  0  0
 11 13  1  0  0  0  0
 14 13  1  1  0  0  0
 15 14  1  0  0  0  0
 15 16  1  1  0  0  0
 16 10  1  0  0  0  0
 16 17  2  0  0  0  0
 18 15  1  0  0  0  0
 19 18  1  0  0  0  0
 20 14  1  0  0  0  0
 20 19  1  1  0  0  0
M  END
>  <CHROM.1>
61.65097751,140.72033381,24.42861954,-4.53454674,41.91688170,-1.73165697
-0.32358414,-0.83862787

>  <Name>
1nyi_lig

>  <RI>
0

>  <Rbt.Current_Directory>
/home/itssahil/PROJECTS/Mol_Feturizer/New_Systems/rnas/1nyi

>  <Rbt.Executable>
rbdock ($Id: //depot/dev/client3/rdock/2013.1/src/exe/rbdock.cxx#4 $)

>  <Rbt.Library>
libRbt.so (2013.1, Build901 2013/11/27)

>  <Rbt.Parameter_File>
/export/apps/rDock/src/rDock_2013.1_src/data/scripts/dock_solv.prm

>  <Rbt.Receptor>
prm/pocket_docking_6.prm

>  <SCORE>
-10.4027

>  <SCORE.INTER>
-8.76384

>  <SCORE.INTER.CONST>
1

>  <SCORE.INTER.POLAR>
-0.801199

>  <SCORE.INTER.ROT>
2

>  <SCORE.INTER.SOLV>
10.4052

>  <SCORE.INTER.VDW>
-11.5737

>  <SCORE.INTER.norm>
-0.438192

>  <SCORE.INTRA>
-1.6389

>  <SCORE.INTRA.DIHEDRAL>
-2.56452

>  <SCORE.INTRA.DIHEDRAL.0>
3.72394

>  <SCORE.INTRA.POLAR>
0

>  <SCORE.INTRA.POLAR.0>
0

>  <SCORE.INTRA.REPUL>
0

>  <SCORE.INTRA.REPUL.0>
0

>  <SCORE.INTRA.SOLV>
-0.190835

>  <SCORE.INTRA.SOLV.lig_0>
-49.4697

>  <SCORE.INTRA.VDW>
-0.261219

>  <SCORE.INTRA.VDW.0>
-0.896538

>  <SCORE.INTRA.norm>
-0.0819448

>  <SCORE.RESTR>
0

>  <SCORE.RESTR.CAVITY>
0

>  <SCORE.RESTR.norm>
0

>  <SCORE.SYSTEM>
0

>  <SCORE.SYSTEM.CONST>
0

>  <SCORE.SYSTEM.DIHEDRAL>
0

>  <SCORE.SYSTEM.SOLV>
0

>  <SCORE.SYSTEM.norm>
0

>  <SCORE.heavy>
20

>  <SCORE.norm>
-0.520137

>  <RMSD>
6.105

$$$$
1nyi_lig
 OpenBabel11021811403D
libRbt.so/2013.1/901 2013/11/27
 20 22  0  0  0  0  0  0  0  0999 V2000
   22.5048   -7.6679   46.0971 C   0  0  0  0  0  0  0  0  0  0  0  0
   21.3320   -8.4809   46.1381 O   0  0  0  0  0  0  0  0  0  0  0  0
   23.5021   -8.2099   45.0972 C   0  0  1  0  0  0  0  0  0  0  0  0
   22.9031   -8.1846   43.7733 O   0  0  0  0  0  0  0  0  0  0  0  0
   24.7592   -7.3525   45.0018 C   0  0  1  0  0  0  0  0  0  0  0  0
   25.7646   -7.7926   45.9160 O   0  0  0  0  0  0  0  0  0  0  0  0
   25.1525   -7.5174   43.5353 C   0  0  1  0  0  0  0  0  0  0  0  0
   25.8225   -8.7410   43.2715 O   0  0  0  0  0  0  0  0  0  0  0  0
   23.7774   -7.5174   42.8710 C   0  0  2  0  0  0  0  0  0  0  0  0
   20.0907   -5.1074   40.2085 N   0  0  0  0  0  0  0  0  0  0  0  0
   20.3193   -6.4534   40.3615 C   0  0  1  0  0  0  0  0  0  0  0  0
   19.4627   -7.2565   39.7289 N   0  0  0  0  0  0  0  0  0  0  0  0
   21.3137   -6.9715   41.0767 N   0  0  0  0  0  0  0  0  0  0  0  0
   22.0996   -6.0100   41.6434 C   0  0  1  0  0  0  0  0  0  0  0  0
   21.9516   -4.6374   41.5486 C   0  0  1  0  0  0  0  0  0  0  0  0
   20.8736   -4.1080   40.7858 C   0  0  0  0  0  0  0  0  0  0  0  0
   20.5782   -2.9227   40.5876 O   0  0  0  0  0  0  0  0  0  0  0  0
   22.9398   -3.9887   42.2779 N   0  0  0  0  0  0  0  0  0  0  0  0
   23.6568   -4.9541   42.7839 C   0  0  0  0  0  0  0  0  0  0  0  0
   23.2188   -6.2146   42.4415 N   0  0  1  0  0  0  0  0  0  0  0  0
  2  1  1  0  0  0  0
  3  1  1  1  0  0  0
  3  4  1  0  0  0  0
  3  5  1  0  0  0  0
  5  6  1  1  0  0  0
  5  7  1  0  0  0  0
  7  8  1  1  0  0  0
  7  9  1  0  0  0  0
  9  4  1  1  0  0  0
  9 20  1  0  0  0  0
 10 11  1  0  0  0  0
 11 12  1  6  0  0  0
 11 13  1  0  0  0  0
 14 13  1  1  0  0  0
 15 14  1  0  0  0  0
 15 16  1  1  0  0  0
 16 10  1  0  0  0  0
 16 17  2  0  0  0  0
 18 15  1  0  0  0  0
 19 18  1  0  0  0  0
 20 14  1  0  0  0  0
 20 19  1  1  0  0  0
M  END
>  <CHROM.1>
61.76756271,-67.90171521,22.62575878,-6.53930811,42.81066736,0.91337650,0.40714443
2.47147830

>  <Name>
1nyi_lig

>  <RI>
0

>  <Rbt.Current_Directory>
/home/itssahil/PROJECTS/Mol_Feturizer/New_Systems/rnas/1nyi

>  <Rbt.Executable>
rbdock ($Id: //depot/dev/client3/rdock/2013.1/src/exe/rbdock.cxx#4 $)

>  <Rbt.Library>
libRbt.so (2013.1, Build901 2013/11/27)

>  <Rbt.Parameter_File>
/export/apps/rDock/src/rDock_2013.1_src/data/scripts/dock_solv.prm

>  <Rbt.Receptor>
prm/pocket_docking_5.prm

>  <SCORE>
-10.2566

>  <SCORE.INTER>
-8.46289

>  <SCORE.INTER.CONST>
1

>  <SCORE.INTER.POLAR>
-1.17535

>  <SCORE.INTER.ROT>
2

>  <SCORE.INTER.SOLV>
9.71856

>  <SCORE.INTER.VDW>
-9.89696

>  <SCORE.INTER.norm>
-0.423145

>  <SCORE.INTRA>
-1.79367

>  <SCORE.INTRA.DIHEDRAL>
-2.53006

>  <SCORE.INTRA.DIHEDRAL.0>
3.72394

>  <SCORE.INTRA.POLAR>
0

>  <SCORE.INTRA.POLAR.0>
0

>  <SCORE.INTRA.REPUL>
0

>  <SCORE.INTRA.REPUL.0>
0

>  <SCORE.INTRA.SOLV>
-0.719638

>  <SCORE.INTRA.SOLV.lig_0>
-49.4697

>  <SCORE.INTRA.VDW>
-0.168824

>  <SCORE.INTRA.VDW.0>
-0.896538

>  <SCORE.INTRA.norm>
-0.0896836

>  <SCORE.RESTR>
0

>  <SCORE.RESTR.CAVITY>
0

>  <SCORE.RESTR.norm>
0

>  <SCORE.SYSTEM>
0

>  <SCORE.SYSTEM.CONST>
0

>  <SCORE.SYSTEM.DIHEDRAL>
0

>  <SCORE.SYSTEM.SOLV>
0

>  <SCORE.SYSTEM.norm>
0

>  <SCORE.heavy>
20

>  <SCORE.norm>
-0.512828

>  <RMSD>
6.109

$$$$
1nyi_lig
 OpenBabel11021811403D
libRbt.so/2013.1/901 2013/11/27
 20 22  0  0  0  0  0  0  0  0999 V2000
   22.4943   -7.5481   46.1184 C   0  0  0  0  0  0  0  0  0  0  0  0
   21.3037   -8.3315   46.2002 O   0  0  0  0  0  0  0  0  0  0  0  0
   23.4608   -8.1388   45.1157 C   0  0  1  0  0  0  0  0  0  0  0  0
   22.8423   -8.1249   43.8006 O   0  0  0  0  0  0  0  0  0  0  0  0
   24.7394   -7.3190   44.9831 C   0  0  1  0  0  0  0  0  0  0  0  0
   25.7462   -7.7675   45.8916 O   0  0  0  0  0  0  0  0  0  0  0  0
   25.1053   -7.5259   43.5148 C   0  0  1  0  0  0  0  0  0  0  0  0
   25.7372   -8.7730   43.2677 O   0  0  0  0  0  0  0  0  0  0  0  0
   23.7206   -7.5017   42.8712 C   0  0  2  0  0  0  0  0  0  0  0  0
   20.1519   -5.0536   40.0855 N   0  0  0  0  0  0  0  0  0  0  0  0
   20.3599   -6.4018   40.2475 C   0  0  1  0  0  0  0  0  0  0  0  0
   19.5154   -7.1961   39.5878 N   0  0  0  0  0  0  0  0  0  0  0  0
   21.3240   -6.9302   40.9958 N   0  0  0  0  0  0  0  0  0  0  0  0
   22.1017   -5.9769   41.5871 C   0  0  1  0  0  0  0  0  0  0  0  0
   21.9728   -4.6029   41.4859 C   0  0  1  0  0  0  0  0  0  0  0  0
   20.9268   -4.0623   40.6872 C   0  0  0  0  0  0  0  0  0  0  0  0
   20.6518   -2.8740   40.4780 O   0  0  0  0  0  0  0  0  0  0  0  0
   22.9438   -3.9645   42.2467 N   0  0  0  0  0  0  0  0  0  0  0  0
   23.6325   -4.9372   42.7772 C   0  0  0  0  0  0  0  0  0  0  0  0
   23.1915   -6.1932   42.4220 N   0  0  1  0  0  0  0  0  0  0  0  0
  2  1  1  0  0  0  0
  3  1  1  1  0  0  0
  3  4  1  0  0  0  0
  3  5  1  0  0  0  0
  5  6  1  1  0  0  0
  5  7  1  0  0  0  0
  7  8  1  1  0  0  0
  7  9  1  0  0  0  0
  9  4  1  1  0  0  0
  9 20  1  0  0  0  0
 10 11  1  0  0  0  0
 11 12  1  6  0  0  0
 11 13  1  0  0  0  0
 14 13  1  1  0  0  0
 15 14  1  0  0  0  0
 15 16  1  1  0  0  0
 16 10  1  0  0  0  0
 16 17  2  0  0  0  0
 18 15  1  0  0  0  0
 19 18  1  0  0  0  0
 20 14  1  0  0  0  0
 20 19  1  1  0  0  0
M  END
>  <CHROM.1>
62.11550246,-71.03648996,22.61985598,-6.49554789,42.77298247,0.93203075,0.42624219
2.45821365

>  <Name>
1nyi_lig

>  <RI>
0

>  <Rbt.Current_Directory>
/home/itssahil/PROJECTS/Mol_Feturizer/New_Systems/rnas/1nyi

>  <Rbt.Executable>
rbdock ($Id: //depot/dev/client3/rdock/2013.1/src/exe/rbdock.cxx#4 $)

>  <Rbt.Library>
libRbt.so (2013.1, Build901 2013/11/27)

>  <Rbt.Parameter_File>
/export/apps/rDock/src/rDock_2013.1_src/data/scripts/dock_solv.prm

>  <Rbt.Receptor>
prm/pocket_docking_5.prm

>  <SCORE>
-10.3244

>  <SCORE.INTER>
-8.50648

>  <SCORE.INTER.CONST>
1

>  <SCORE.INTER.POLAR>
-1.20829

>  <SCORE.INTER.ROT>
2

>  <SCORE.INTER.SOLV>
9.70528

>  <SCORE.INTER.VDW>
-9.81179

>  <SCORE.INTER.norm>
-0.425324

>  <SCORE.INTRA>
-1.81789

>  <SCORE.INTRA.DIHEDRAL>
-2.53684

>  <SCORE.INTRA.DIHEDRAL.0>
3.72394

>  <SCORE.INTRA.POLAR>
0

>  <SCORE.INTRA.POLAR.0>
0

>  <SCORE.INTRA.REPUL>
0

>  <SCORE.INTRA.REPUL.0>
0

>  <SCORE.INTRA.SOLV>
-0.737337

>  <SCORE.INTRA.SOLV.lig_0>
-49.4697

>  <SCORE.INTRA.VDW>
-0.1808

>  <SCORE.INTRA.VDW.0>
-0.896538

>  <SCORE.INTRA.norm>
-0.0908943

>  <SCORE.RESTR>
0

>  <SCORE.RESTR.CAVITY>
0

>  <SCORE.RESTR.norm>
0

>  <SCORE.SYSTEM>
0

>  <SCORE.SYSTEM.CONST>
0

>  <SCORE.SYSTEM.DIHEDRAL>
0

>  <SCORE.SYSTEM.SOLV>
0

>  <SCORE.SYSTEM.norm>
0

>  <SCORE.heavy>
20

>  <SCORE.norm>
-0.516218

>  <RMSD>
6.110

$$$$
1nyi_lig
 OpenBabel11021811403D
libRbt.so/2013.1/901 2013/11/27
 20 22  0  0  0  0  0  0  0  0999 V2000
   22.5064   -7.5474   46.1205 C   0  0  0  0  0  0  0  0  0  0  0  0
   21.3071   -8.3184   46.1920 O   0  0  0  0  0  0  0  0  0  0  0  0
   23.4681   -8.1377   45.1131 C   0  0  1  0  0  0  0  0  0  0  0  0
   22.8427   -8.1248   43.8012 O   0  0  0  0  0  0  0  0  0  0  0  0
   24.7454   -7.3170   44.9735 C   0  0  1  0  0  0  0  0  0  0  0  0
   25.7573   -7.7644   45.8769 O   0  0  0  0  0  0  0  0  0  0  0  0
   25.1038   -7.5243   43.5034 C   0  0  1  0  0  0  0  0  0  0  0  0
   25.7352   -8.7711   43.2535 O   0  0  0  0  0  0  0  0  0  0  0  0
   23.7157   -7.5014   42.8670 C   0  0  2  0  0  0  0  0  0  0  0  0
   20.1402   -5.0575   40.0863 N   0  0  0  0  0  0  0  0  0  0  0  0
   20.3515   -6.4055   40.2461 C   0  0  1  0  0  0  0  0  0  0  0  0
   19.5087   -7.2007   39.5854 N   0  0  0  0  0  0  0  0  0  0  0  0
   21.3171   -6.9327   40.9932 N   0  0  0  0  0  0  0  0  0  0  0  0
   22.0927   -5.9785   41.5858 C   0  0  1  0  0  0  0  0  0  0  0  0
   21.9605   -4.6047   41.4868 C   0  0  1  0  0  0  0  0  0  0  0  0
   20.9129   -4.0654   40.6893 C   0  0  0  0  0  0  0  0  0  0  0  0
   20.6350   -2.8773   40.4820 O   0  0  0  0  0  0  0  0  0  0  0  0
   22.9301   -3.9651   42.2483 N   0  0  0  0  0  0  0  0  0  0  0  0
   23.6214   -4.9370   42.7771 C   0  0  0  0  0  0  0  0  0  0  0  0
   23.1833   -6.1934   42.4200 N   0  0  1  0  0  0  0  0  0  0  0  0
  2  1  1  0  0  0  0
  3  1  1  1  0  0  0
  3  4  1  0  0  0  0
  3  5  1  0  0  0  0
  5  6  1  1  0  0  0
  5  7  1  0  0  0  0
  7  8  1  1  0  0  0
  7  9  1  0  0  0  0
  9  4  1  1  0  0  0
  9 20  1  0  0  0  0
 10 11  1  0  0  0  0
 11 12  1  6  0  0  0
 11 13  1  0  0  0  0
 14 13  1  1  0  0  0
 15 14  1  0  0  0  0
 15 16  1  1  0  0  0
 16 10  1  0  0  0  0
 16 17  2  0  0  0  0
 18 15  1  0  0  0  0
 19 18  1  0  0  0  0
 20 14  1  0  0  0  0
 20 19  1  1  0  0  0
M  END
>  <CHROM.1>
61.10339470,-71.35432660,22.61568804,-6.49548012,42.76971472,0.92711631,0.42844252
2.46218067

>  <Name>
1nyi_lig

>  <RI>
0

>  <Rbt.Current_Directory>
/home/itssahil/PROJECTS/Mol_Feturizer/New_Systems/rnas/1nyi

>  <Rbt.Executable>
rbdock ($Id: //depot/dev/client3/rdock/2013.1/src/exe/rbdock.cxx#4 $)

>  <Rbt.Library>
libRbt.so (2013.1, Build901 2013/11/27)

>  <Rbt.Parameter_File>
/export/apps/rDock/src/rDock_2013.1_src/data/scripts/dock_solv.prm

>  <Rbt.Receptor>
prm/pocket_docking_5.prm

>  <SCORE>
-10.3247

>  <SCORE.INTER>
-8.50247

>  <SCORE.INTER.CONST>
1

>  <SCORE.INTER.POLAR>
-1.20812

>  <SCORE.INTER.ROT>
2

>  <SCORE.INTER.SOLV>
9.71347

>  <SCORE.INTER.VDW>
-9.8124

>  <SCORE.INTER.norm>
-0.425123

>  <SCORE.INTRA>
-1.82226

>  <SCORE.INTRA.DIHEDRAL>
-2.55063

>  <SCORE.INTRA.DIHEDRAL.0>
3.72394

>  <SCORE.INTRA.POLAR>
0

>  <SCORE.INTRA.POLAR.0>
0

>  <SCORE.INTRA.REPUL>
0

>  <SCORE.INTRA.REPUL.0>
0

>  <SCORE.INTRA.SOLV>
-0.73524

>  <SCORE.INTRA.SOLV.lig_0>
-49.4697

>  <SCORE.INTRA.VDW>
-0.179321

>  <SCORE.INTRA.VDW.0>
-0.896538

>  <SCORE.INTRA.norm>
-0.0911128

>  <SCORE.RESTR>
0

>  <SCORE.RESTR.CAVITY>
0

>  <SCORE.RESTR.norm>
0

>  <SCORE.SYSTEM>
0

>  <SCORE.SYSTEM.CONST>
0

>  <SCORE.SYSTEM.DIHEDRAL>
0

>  <SCORE.SYSTEM.SOLV>
0

>  <SCORE.SYSTEM.norm>
0

>  <SCORE.heavy>
20

>  <SCORE.norm>
-0.516236

>  <RMSD>
6.110

$$$$
1nyi_lig
 OpenBabel11021811403D
libRbt.so/2013.1/901 2013/11/27
 20 22  0  0  0  0  0  0  0  0999 V2000
   25.3780   -7.6275   43.5901 C   0  0  0  0  0  0  0  0  0  0  0  0
   26.2083   -7.7561   44.7443 O   0  0  0  0  0  0  0  0  0  0  0  0
   24.1606   -6.7822   43.8929 C   0  0  1  0  0  0  0  0  0  0  0  0
   24.5966   -5.4552   44.2942 O   0  0  0  0  0  0  0  0  0  0  0  0
   23.2728   -6.5768   42.6706 C   0  0  1  0  0  0  0  0  0  0  0  0
   22.2738   -7.5930   42.5716 O   0  0  0  0  0  0  0  0  0  0  0  0
   22.7026   -5.1814   42.9161 C   0  0  1  0  0  0  0  0  0  0  0  0
   21.6295   -5.1727   43.8457 O   0  0  0  0  0  0  0  0  0  0  0  0
   23.9200   -4.4782   43.5122 C   0  0  2  0  0  0  0  0  0  0  0  0
   24.5846   -2.5247   38.7972 N   0  0  0  0  0  0  0  0  0  0  0  0
   23.4932   -3.1661   39.3308 C   0  0  1  0  0  0  0  0  0  0  0  0
   22.4512   -3.3050   38.5098 N   0  0  0  0  0  0  0  0  0  0  0  0
   23.4302   -3.6381   40.5725 N   0  0  0  0  0  0  0  0  0  0  0  0
   24.5849   -3.4225   41.2677 C   0  0  1  0  0  0  0  0  0  0  0  0
   25.7316   -2.7899   40.8206 C   0  0  1  0  0  0  0  0  0  0  0  0
   25.7703   -2.2845   39.4912 C   0  0  0  0  0  0  0  0  0  0  0  0
   26.6939   -1.6935   38.9175 O   0  0  0  0  0  0  0  0  0  0  0  0
   26.6895   -2.7490   41.8255 N   0  0  0  0  0  0  0  0  0  0  0  0
   26.1250   -3.3489   42.8372 C   0  0  0  0  0  0  0  0  0  0  0  0
   24.8473   -3.7956   42.5805 N   0  0  1  0  0  0  0  0  0  0  0  0
  2  1  1  0  0  0  0
  3  1  1  6  0  0  0
  3  4  1  0  0  0  0
  3  5  1  0  0  0  0
  5  6  1  1  0  0  0
  5  7  1  0  0  0  0
  7  8  1  1  0  0  0
  7  9  1  0  0  0  0
  9  4  1  6  0  0  0
  9 20  1  0  0  0  0
 10 11  1  0  0  0  0
 11 12  1  6  0  0  0
 11 13  1  0  0  0  0
 14 13  1  1  0  0  0
 15 14  1  0  0  0  0
 15 16  1  1  0  0  0
 16 10  1  0  0  0  0
 16 17  2  0  0  0  0
 18 15  1  0  0  0  0
 19 18  1  0  0  0  0
 20 14  1  0  0  0  0
 20 19  1  1  0  0  0
M  END
>  <CHROM.1>
60.80883284,140.47854144,24.42363853,-4.51652570,41.89752476,-1.75116434
-0.32499169,-0.84936660

>  <Name>
1nyi_lig

>  <RI>
0

>  <Rbt.Current_Directory>
/home/itssahil/PROJECTS/Mol_Feturizer/New_Systems/rnas/1nyi

>  <Rbt.Executable>
rbdock ($Id: //depot/dev/client3/rdock/2013.1/src/exe/rbdock.cxx#4 $)

>  <Rbt.Library>
libRbt.so (2013.1, Build901 2013/11/27)

>  <Rbt.Parameter_File>
/export/apps/rDock/src/rDock_2013.1_src/data/scripts/dock_solv.prm

>  <Rbt.Receptor>
prm/pocket_docking_6.prm

>  <SCORE>
-10.335

>  <SCORE.INTER>
-8.69702

>  <SCORE.INTER.CONST>
1

>  <SCORE.INTER.POLAR>
-0.798244

>  <SCORE.INTER.ROT>
2

>  <SCORE.INTER.SOLV>
10.3551

>  <SCORE.INTER.VDW>
-11.5222

>  <SCORE.INTER.norm>
-0.434851

>  <SCORE.INTRA>
-1.63794

>  <SCORE.INTRA.DIHEDRAL>
-2.57218

>  <SCORE.INTRA.DIHEDRAL.0>
3.72394

>  <SCORE.INTRA.POLAR>
0

>  <SCORE.INTRA.POLAR.0>
0

>  <SCORE.INTRA.REPUL>
0

>  <SCORE.INTRA.REPUL.0>
0

>  <SCORE.INTRA.SOLV>
-0.185542

>  <SCORE.INTRA.SOLV.lig_0>
-49.4697

>  <SCORE.INTRA.VDW>
-0.259084

>  <SCORE.INTRA.VDW.0>
-0.896538

>  <SCORE.INTRA.norm>
-0.0818972

>  <SCORE.RESTR>
0

>  <SCORE.RESTR.CAVITY>
0

>  <SCORE.RESTR.norm>
0

>  <SCORE.SYSTEM>
0

>  <SCORE.SYSTEM.CONST>
0

>  <SCORE.SYSTEM.DIHEDRAL>
0

>  <SCORE.SYSTEM.SOLV>
0

>  <SCORE.SYSTEM.norm>
0

>  <SCORE.heavy>
20

>  <SCORE.norm>
-0.516748

>  <RMSD>
6.115

$$$$
1nyi_lig
 OpenBabel11021811403D
libRbt.so/2013.1/901 2013/11/27
 20 22  0  0  0  0  0  0  0  0999 V2000
   22.4475   -7.5182   46.0917 C   0  0  0  0  0  0  0  0  0  0  0  0
   21.2494   -8.2921   46.1508 O   0  0  0  0  0  0  0  0  0  0  0  0
   23.4241   -8.1109   45.1002 C   0  0  1  0  0  0  0  0  0  0  0  0
   22.8169   -8.1051   43.7798 O   0  0  0  0  0  0  0  0  0  0  0  0
   24.7015   -7.2881   44.9745 C   0  0  1  0  0  0  0  0  0  0  0  0
   25.7018   -7.7293   45.8937 O   0  0  0  0  0  0  0  0  0  0  0  0
   25.0806   -7.5010   43.5104 C   0  0  1  0  0  0  0  0  0  0  0  0
   25.7180   -8.7475   43.2747 O   0  0  0  0  0  0  0  0  0  0  0  0
   23.7014   -7.4838   42.8549 C   0  0  2  0  0  0  0  0  0  0  0  0
   20.1354   -5.0584   40.0459 N   0  0  0  0  0  0  0  0  0  0  0  0
   20.3435   -6.4053   40.2186 C   0  0  1  0  0  0  0  0  0  0  0  0
   19.5001   -7.2049   39.5641 N   0  0  0  0  0  0  0  0  0  0  0  0
   21.3069   -6.9276   40.9722 N   0  0  0  0  0  0  0  0  0  0  0  0
   22.0836   -5.9695   41.5570 C   0  0  1  0  0  0  0  0  0  0  0  0
   21.9545   -4.5964   41.4450 C   0  0  1  0  0  0  0  0  0  0  0  0
   20.9093   -4.0623   40.6409 C   0  0  0  0  0  0  0  0  0  0  0  0
   20.6342   -2.8757   40.4221 O   0  0  0  0  0  0  0  0  0  0  0  0
   22.9243   -3.9518   42.2020 N   0  0  0  0  0  0  0  0  0  0  0  0
   23.6126   -4.9202   42.7409 C   0  0  0  0  0  0  0  0  0  0  0  0
   23.1725   -6.1790   42.3949 N   0  0  1  0  0  0  0  0  0  0  0  0
  2  1  1  0  0  0  0
  3  1  1  1  0  0  0
  3  4  1  0  0  0  0
  3  5  1  0  0  0  0
  5  6  1  1  0  0  0
  5  7  1  0  0  0  0
  7  8  1  1  0  0  0
  7  9  1  0  0  0  0
  9  4  1  1  0  0  0
  9 20  1  0  0  0  0
 10 11  1  0  0  0  0
 11 12  1  6  0  0  0
 11 13  1  0  0  0  0
 14 13  1  1  0  0  0
 15 14  1  0  0  0  0
 15 16  1  1  0  0  0
 16 10  1  0  0  0  0
 16 17  2  0  0  0  0
 18 15  1  0  0  0  0
 19 18  1  0  0  0  0
 20 14  1  0  0  0  0
 20 19  1  1  0  0  0
M  END
>  <CHROM.1>
61.15234799,-70.56040909,22.59435152,-6.48033638,42.74660336,0.93394170,0.42731204
2.45046961

>  <Name>
1nyi_lig

>  <RI>
0

>  <Rbt.Current_Directory>
/home/itssahil/PROJECTS/Mol_Feturizer/New_Systems/rnas/1nyi

>  <Rbt.Executable>
rbdock ($Id: //depot/dev/client3/rdock/2013.1/src/exe/rbdock.cxx#4 $)

>  <Rbt.Library>
libRbt.so (2013.1, Build901 2013/11/27)

>  <Rbt.Parameter_File>
/export/apps/rDock/src/rDock_2013.1_src/data/scripts/dock_solv.prm

>  <Rbt.Receptor>
prm/pocket_docking_6.prm

>  <SCORE>
-10.3463

>  <SCORE.INTER>
-8.53063

>  <SCORE.INTER.CONST>
1

>  <SCORE.INTER.POLAR>
-1.22128

>  <SCORE.INTER.ROT>
2

>  <SCORE.INTER.SOLV>
9.69555

>  <SCORE.INTER.VDW>
-9.78135

>  <SCORE.INTER.norm>
-0.426532

>  <SCORE.INTRA>
-1.8157

>  <SCORE.INTRA.DIHEDRAL>
-2.54731

>  <SCORE.INTRA.DIHEDRAL.0>
3.72394

>  <SCORE.INTRA.POLAR>
0

>  <SCORE.INTRA.POLAR.0>
0

>  <SCORE.INTRA.REPUL>
0

>  <SCORE.INTRA.REPUL.0>
0

>  <SCORE.INTRA.SOLV>
-0.731294

>  <SCORE.INTRA.SOLV.lig_0>
-49.4697

>  <SCORE.INTRA.VDW>
-0.176393

>  <SCORE.INTRA.VDW.0>
-0.896538

>  <SCORE.INTRA.norm>
-0.0907848

>  <SCORE.RESTR>
0

>  <SCORE.RESTR.CAVITY>
0

>  <SCORE.RESTR.norm>
0

>  <SCORE.SYSTEM>
0

>  <SCORE.SYSTEM.CONST>
0

>  <SCORE.SYSTEM.DIHEDRAL>
0

>  <SCORE.SYSTEM.SOLV>
0

>  <SCORE.SYSTEM.norm>
0

>  <SCORE.heavy>
20

>  <SCORE.norm>
-0.517317

>  <RMSD>
6.116

$$$$
1nyi_lig
 OpenBabel11021811403D
libRbt.so/2013.1/901 2013/11/27
 20 22  0  0  0  0  0  0  0  0999 V2000
   22.4198   -7.6368   46.0481 C   0  0  0  0  0  0  0  0  0  0  0  0
   21.2434   -8.4455   46.0562 O   0  0  0  0  0  0  0  0  0  0  0  0
   23.4385   -8.1764   45.0687 C   0  0  1  0  0  0  0  0  0  0  0  0
   22.8682   -8.1481   43.7322 O   0  0  0  0  0  0  0  0  0  0  0  0
   24.6972   -7.3185   45.0023 C   0  0  1  0  0  0  0  0  0  0  0  0
   25.6827   -7.7605   45.9370 O   0  0  0  0  0  0  0  0  0  0  0  0
   25.1220   -7.4801   43.5442 C   0  0  1  0  0  0  0  0  0  0  0  0
   25.7978   -8.7030   43.2922 O   0  0  0  0  0  0  0  0  0  0  0  0
   23.7616   -7.4788   42.8505 C   0  0  2  0  0  0  0  0  0  0  0  0
   20.1404   -5.0636   40.1041 N   0  0  0  0  0  0  0  0  0  0  0  0
   20.3672   -6.4098   40.2575 C   0  0  1  0  0  0  0  0  0  0  0  0
   19.5283   -7.2117   39.6000 N   0  0  0  0  0  0  0  0  0  0  0  0
   21.3437   -6.9293   40.9959 N   0  0  0  0  0  0  0  0  0  0  0  0
   22.1133   -5.9689   41.5864 C   0  0  1  0  0  0  0  0  0  0  0  0
   21.9657   -4.5962   41.4933 C   0  0  1  0  0  0  0  0  0  0  0  0
   20.9067   -4.0654   40.7052 C   0  0  0  0  0  0  0  0  0  0  0  0
   20.6146   -2.8797   40.5042 O   0  0  0  0  0  0  0  0  0  0  0  0
   22.9338   -3.9490   42.2502 N   0  0  0  0  0  0  0  0  0  0  0  0
   23.6391   -4.9153   42.7705 C   0  0  0  0  0  0  0  0  0  0  0  0
   23.2120   -6.1751   42.4121 N   0  0  1  0  0  0  0  0  0  0  0  0
  2  1  1  0  0  0  0
  3  1  1  1  0  0  0
  3  4  1  0  0  0  0
  3  5  1  0  0  0  0
  5  6  1  1  0  0  0
  5  7  1  0  0  0  0
  7  8  1  1  0  0  0
  7  9  1  0  0  0  0
  9  4  1  1  0  0  0
  9 20  1  0  0  0  0
 10 11  1  0  0  0  0
 11 12  1  6  0  0  0
 11 13  1  0  0  0  0
 14 13  1  1  0  0  0
 15 14  1  0  0  0  0
 15 16  1  1  0  0  0
 16 10  1  0  0  0  0
 16 17  2  0  0  0  0
 18 15  1  0  0  0  0
 19 18  1  0  0  0  0
 20 14  1  0  0  0  0
 20 19  1  1  0  0  0
M  END
>  <CHROM.1>
61.42285195,-68.16663672,22.61317197,-6.50054340,42.76440451,0.92800487,0.42815316
2.46917027

>  <Name>
1nyi_lig

>  <RI>
0

>  <Rbt.Current_Directory>
/home/itssahil/PROJECTS/Mol_Feturizer/New_Systems/rnas/1nyi

>  <Rbt.Executable>
rbdock ($Id: //depot/dev/client3/rdock/2013.1/src/exe/rbdock.cxx#4 $)

>  <Rbt.Library>
libRbt.so (2013.1, Build901 2013/11/27)

>  <Rbt.Parameter_File>
/export/apps/rDock/src/rDock_2013.1_src/data/scripts/dock_solv.prm

>  <Rbt.Receptor>
prm/pocket_docking_5.prm

>  <SCORE>
-10.3073

>  <SCORE.INTER>
-8.51096

>  <SCORE.INTER.CONST>
1

>  <SCORE.INTER.POLAR>
-1.21304

>  <SCORE.INTER.ROT>
2

>  <SCORE.INTER.SOLV>
9.8381

>  <SCORE.INTER.VDW>
-9.8432

>  <SCORE.INTER.norm>
-0.425548

>  <SCORE.INTRA>
-1.79632

>  <SCORE.INTRA.DIHEDRAL>
-2.53539

>  <SCORE.INTRA.DIHEDRAL.0>
3.72394

>  <SCORE.INTRA.POLAR>
0

>  <SCORE.INTRA.POLAR.0>
0

>  <SCORE.INTRA.REPUL>
0

>  <SCORE.INTRA.REPUL.0>
0

>  <SCORE.INTRA.SOLV>
-0.719758

>  <SCORE.INTRA.SOLV.lig_0>
-49.4697

>  <SCORE.INTRA.VDW>
-0.168744

>  <SCORE.INTRA.VDW.0>
-0.896538

>  <SCORE.INTRA.norm>
-0.0898159

>  <SCORE.RESTR>
0

>  <SCORE.RESTR.CAVITY>
0

>  <SCORE.RESTR.norm>
0

>  <SCORE.SYSTEM>
0

>  <SCORE.SYSTEM.CONST>
0

>  <SCORE.SYSTEM.DIHEDRAL>
0

>  <SCORE.SYSTEM.SOLV>
0

>  <SCORE.SYSTEM.norm>
0

>  <SCORE.heavy>
20

>  <SCORE.norm>
-0.515364

>  <RMSD>
6.117

$$$$
1nyi_lig
 OpenBabel11021811403D
libRbt.so/2013.1/901 2013/11/27
 20 22  0  0  0  0  0  0  0  0999 V2000
   22.4479   -7.5040   46.0902 C   0  0  0  0  0  0  0  0  0  0  0  0
   21.2445   -8.2696   46.1511 O   0  0  0  0  0  0  0  0  0  0  0  0
   23.4191   -8.1039   45.0976 C   0  0  1  0  0  0  0  0  0  0  0  0
   22.8075   -8.1006   43.7792 O   0  0  0  0  0  0  0  0  0  0  0  0
   24.6990   -7.2861   44.9648 C   0  0  1  0  0  0  0  0  0  0  0  0
   25.7007   -7.7277   45.8823 O   0  0  0  0  0  0  0  0  0  0  0  0
   25.0724   -7.5057   43.5002 C   0  0  1  0  0  0  0  0  0  0  0  0
   25.7046   -8.7553   43.2670 O   0  0  0  0  0  0  0  0  0  0  0  0
   23.6912   -7.4859   42.8492 C   0  0  2  0  0  0  0  0  0  0  0  0
   20.1256   -5.0578   40.0420 N   0  0  0  0  0  0  0  0  0  0  0  0
   20.3296   -6.4048   40.2188 C   0  0  1  0  0  0  0  0  0  0  0  0
   19.4815   -7.2037   39.5694 N   0  0  0  0  0  0  0  0  0  0  0  0
   21.2932   -6.9278   40.9714 N   0  0  0  0  0  0  0  0  0  0  0  0
   22.0750   -5.9705   41.5507 C   0  0  1  0  0  0  0  0  0  0  0  0
   21.9502   -4.5973   41.4343 C   0  0  1  0  0  0  0  0  0  0  0  0
   20.9046   -4.0624   40.6313 C   0  0  0  0  0  0  0  0  0  0  0  0
   20.6330   -2.8756   40.4092 O   0  0  0  0  0  0  0  0  0  0  0  0
   22.9244   -3.9535   42.1863 N   0  0  0  0  0  0  0  0  0  0  0  0
   23.6110   -4.9224   42.7266 C   0  0  0  0  0  0  0  0  0  0  0  0
   23.1654   -6.1808   42.3862 N   0  0  1  0  0  0  0  0  0  0  0  0
  2  1  1  0  0  0  0
  3  1  1  1  0  0  0
  3  4  1  0  0  0  0
  3  5  1  0  0  0  0
  5  6  1  1  0  0  0
  5  7  1  0  0  0  0
  7  8  1  1  0  0  0
  7  9  1  0  0  0  0
  9  4  1  1  0  0  0
  9 20  1  0  0  0  0
 10 11  1  0  0  0  0
 11 12  1  6  0  0  0
 11 13  1  0  0  0  0
 14 13  1  1  0  0  0
 15 14  1  0  0  0  0
 15 16  1  1  0  0  0
 16 10  1  0  0  0  0
 16 17  2  0  0  0  0
 18 15  1  0  0  0  0
 19 18  1  0  0  0  0
 20 14  1  0  0  0  0
 20 19  1  1  0  0  0
M  END
>  <CHROM.1>
60.86023690,-70.58958579,22.58748979,-6.47861648,42.74030793,0.93441817,0.42309416
2.44696142

>  <Name>
1nyi_lig

>  <RI>
0

>  <Rbt.Current_Directory>
/home/itssahil/PROJECTS/Mol_Feturizer/New_Systems/rnas/1nyi

>  <Rbt.Executable>
rbdock ($Id: //depot/dev/client3/rdock/2013.1/src/exe/rbdock.cxx#4 $)

>  <Rbt.Library>
libRbt.so (2013.1, Build901 2013/11/27)

>  <Rbt.Parameter_File>
/export/apps/rDock/src/rDock_2013.1_src/data/scripts/dock_solv.prm

>  <Rbt.Receptor>
prm/pocket_docking_6.prm

>  <SCORE>
-10.3517

>  <SCORE.INTER>
-8.53596

>  <SCORE.INTER.CONST>
1

>  <SCORE.INTER.POLAR>
-1.21735

>  <SCORE.INTER.ROT>
2

>  <SCORE.INTER.SOLV>
9.65319

>  <SCORE.INTER.VDW>
-9.78386

>  <SCORE.INTER.norm>
-0.426798

>  <SCORE.INTRA>
-1.81576

>  <SCORE.INTRA.DIHEDRAL>
-2.54981

>  <SCORE.INTRA.DIHEDRAL.0>
3.72394

>  <SCORE.INTRA.POLAR>
0

>  <SCORE.INTRA.POLAR.0>
0

>  <SCORE.INTRA.REPUL>
0

>  <SCORE.INTRA.REPUL.0>
0

>  <SCORE.INTRA.SOLV>
-0.730361

>  <SCORE.INTRA.SOLV.lig_0>
-49.4697

>  <SCORE.INTRA.VDW>
-0.175675

>  <SCORE.INTRA.VDW.0>
-0.896538

>  <SCORE.INTRA.norm>
-0.0907881

>  <SCORE.RESTR>
0

>  <SCORE.RESTR.CAVITY>
0

>  <SCORE.RESTR.norm>
0

>  <SCORE.SYSTEM>
0

>  <SCORE.SYSTEM.CONST>
0

>  <SCORE.SYSTEM.DIHEDRAL>
0

>  <SCORE.SYSTEM.SOLV>
0

>  <SCORE.SYSTEM.norm>
0

>  <SCORE.heavy>
20

>  <SCORE.norm>
-0.517586

>  <RMSD>
6.119

$$$$
1nyi_lig
 OpenBabel11021811403D
libRbt.so/2013.1/901 2013/11/27
 20 22  0  0  0  0  0  0  0  0999 V2000
   22.3831   -7.4361   46.0621 C   0  0  0  0  0  0  0  0  0  0  0  0
   21.1743   -8.1934   46.1209 O   0  0  0  0  0  0  0  0  0  0  0  0
   23.3669   -8.0644   45.1000 C   0  0  1  0  0  0  0  0  0  0  0  0
   22.7811   -8.0797   43.7701 O   0  0  0  0  0  0  0  0  0  0  0  0
   24.6578   -7.2625   44.9771 C   0  0  1  0  0  0  0  0  0  0  0  0
   25.6368   -7.6969   45.9220 O   0  0  0  0  0  0  0  0  0  0  0  0
   25.0571   -7.5134   43.5244 C   0  0  1  0  0  0  0  0  0  0  0  0
   25.6804   -8.7735   43.3268 O   0  0  0  0  0  0  0  0  0  0  0  0
   23.6890   -7.4916   42.8462 C   0  0  2  0  0  0  0  0  0  0  0  0
   20.1641   -5.0760   39.9777 N   0  0  0  0  0  0  0  0  0  0  0  0
   20.3441   -6.4212   40.1903 C   0  0  1  0  0  0  0  0  0  0  0  0
   19.4811   -7.2219   39.5632 N   0  0  0  0  0  0  0  0  0  0  0  0
   21.2992   -6.9411   40.9559 N   0  0  0  0  0  0  0  0  0  0  0  0
   22.0986   -5.9828   41.5088 C   0  0  1  0  0  0  0  0  0  0  0  0
   21.9984   -4.6112   41.3558 C   0  0  1  0  0  0  0  0  0  0  0  0
   20.9615   -4.0793   40.5396 C   0  0  0  0  0  0  0  0  0  0  0  0
   20.7109   -2.8941   40.2860 O   0  0  0  0  0  0  0  0  0  0  0  0
   22.9849   -3.9651   42.0896 N   0  0  0  0  0  0  0  0  0  0  0  0
   23.6546   -4.9313   42.6551 C   0  0  0  0  0  0  0  0  0  0  0  0
   23.1862   -6.1902   42.3489 N   0  0  1  0  0  0  0  0  0  0  0  0
  2  1  1  0  0  0  0
  3  1  1  1  0  0  0
  3  4  1  0  0  0  0
  3  5  1  0  0  0  0
  5  6  1  1  0  0  0
  5  7  1  0  0  0  0
  7  8  1  1  0  0  0
  7  9  1  0  0  0  0
  9  4  1  1  0  0  0
  9 20  1  0  0  0  0
 10 11  1  0  0  0  0
 11 12  1  6  0  0  0
 11 13  1  0  0  0  0
 14 13  1  1  0  0  0
 15 14  1  0  0  0  0
 15 16  1  1  0  0  0
 16 10  1  0  0  0  0
 16 17  2  0  0  0  0
 18 15  1  0  0  0  0
 19 18  1  0  0  0  0
 20 14  1  0  0  0  0
 20 19  1  1  0  0  0
M  END
>  <CHROM.1>
61.27488810,-69.25948736,22.58787896,-6.47438622,42.71164239,0.95512007,0.40978256
2.41311459

>  <Name>
1nyi_lig

>  <RI>
0

>  <Rbt.Current_Directory>
/home/itssahil/PROJECTS/Mol_Feturizer/New_Systems/rnas/1nyi

>  <Rbt.Executable>
rbdock ($Id: //depot/dev/client3/rdock/2013.1/src/exe/rbdock.cxx#4 $)

>  <Rbt.Library>
libRbt.so (2013.1, Build901 2013/11/27)

>  <Rbt.Parameter_File>
/export/apps/rDock/src/rDock_2013.1_src/data/scripts/dock_solv.prm

>  <Rbt.Receptor>
prm/pocket_docking_6.prm

>  <SCORE>
-10.3056

>  <SCORE.INTER>
-8.50047

>  <SCORE.INTER.CONST>
1

>  <SCORE.INTER.POLAR>
-1.2422

>  <SCORE.INTER.ROT>
2

>  <SCORE.INTER.SOLV>
9.71423

>  <SCORE.INTER.VDW>
-9.69773

>  <SCORE.INTER.norm>
-0.425023

>  <SCORE.INTRA>
-1.8051

>  <SCORE.INTRA.DIHEDRAL>
-2.54124

>  <SCORE.INTRA.DIHEDRAL.0>
3.72394

>  <SCORE.INTRA.POLAR>
0

>  <SCORE.INTRA.POLAR.0>
0

>  <SCORE.INTRA.REPUL>
0

>  <SCORE.INTRA.REPUL.0>
0

>  <SCORE.INTRA.SOLV>
-0.724951

>  <SCORE.INTRA.SOLV.lig_0>
-49.4697

>  <SCORE.INTRA.VDW>
-0.172009

>  <SCORE.INTRA.VDW.0>
-0.896538

>  <SCORE.INTRA.norm>
-0.0902552

>  <SCORE.RESTR>
0

>  <SCORE.RESTR.CAVITY>
0

>  <SCORE.RESTR.norm>
0

>  <SCORE.SYSTEM>
0

>  <SCORE.SYSTEM.CONST>
0

>  <SCORE.SYSTEM.DIHEDRAL>
0

>  <SCORE.SYSTEM.SOLV>
0

>  <SCORE.SYSTEM.norm>
0

>  <SCORE.heavy>
20

>  <SCORE.norm>
-0.515279

>  <RMSD>
6.120

$$$$
1nyi_lig
 OpenBabel11021811403D
libRbt.so/2013.1/901 2013/11/27
 20 22  0  0  0  0  0  0  0  0999 V2000
   22.3620   -7.4599   46.0444 C   0  0  0  0  0  0  0  0  0  0  0  0
   21.1556   -8.2222   46.0822 O   0  0  0  0  0  0  0  0  0  0  0  0
   23.3582   -8.0739   45.0858 C   0  0  1  0  0  0  0  0  0  0  0  0
   22.7820   -8.0867   43.7517 O   0  0  0  0  0  0  0  0  0  0  0  0
   24.6427   -7.2599   44.9767 C   0  0  1  0  0  0  0  0  0  0  0  0
   25.6188   -7.6911   45.9262 O   0  0  0  0  0  0  0  0  0  0  0  0
   25.0546   -7.4989   43.5255 C   0  0  1  0  0  0  0  0  0  0  0  0
   25.6904   -8.7524   43.3252 O   0  0  0  0  0  0  0  0  0  0  0  0
   23.6912   -7.4853   42.8377 C   0  0  2  0  0  0  0  0  0  0  0  0
   20.1448   -5.0820   39.9853 N   0  0  0  0  0  0  0  0  0  0  0  0
   20.3320   -6.4267   40.1951 C   0  0  1  0  0  0  0  0  0  0  0  0
   19.4707   -7.2305   39.5696 N   0  0  0  0  0  0  0  0  0  0  0  0
   21.2922   -6.9432   40.9566 N   0  0  0  0  0  0  0  0  0  0  0  0
   22.0890   -5.9820   41.5082 C   0  0  1  0  0  0  0  0  0  0  0  0
   21.9817   -4.6106   41.3578 C   0  0  1  0  0  0  0  0  0  0  0  0
   20.9394   -4.0824   40.5460 C   0  0  0  0  0  0  0  0  0  0  0  0
   20.6823   -2.8981   40.2952 O   0  0  0  0  0  0  0  0  0  0  0  0
   22.9676   -3.9609   42.0892 N   0  0  0  0  0  0  0  0  0  0  0  0
   23.6438   -4.9249   42.6509 C   0  0  0  0  0  0  0  0  0  0  0  0
   23.1804   -6.1855   42.3442 N   0  0  1  0  0  0  0  0  0  0  0  0
  2  1  1  0  0  0  0
  3  1  1  1  0  0  0
  3  4  1  0  0  0  0
  3  5  1  0  0  0  0
  5  6  1  1  0  0  0
  5  7  1  0  0  0  0
  7  8  1  1  0  0  0
  7  9  1  0  0  0  0
  9  4  1  1  0  0  0
  9 20  1  0  0  0  0
 10 11  1  0  0  0  0
 11 12  1  6  0  0  0
 11 13  1  0  0  0  0
 14 13  1  1  0  0  0
 15 14  1  0  0  0  0
 15 16  1  1  0  0  0
 16 10  1  0  0  0  0
 16 17  2  0  0  0  0
 18 15  1  0  0  0  0
 19 18  1  0  0  0  0
 20 14  1  0  0  0  0
 20 19  1  1  0  0  0
M  END
>  <CHROM.1>
60.81405379,-68.56782448,22.57639536,-6.47606192,42.70798809,0.95126370,0.41069227
2.41756785

>  <Name>
1nyi_lig

>  <RI>
0

>  <Rbt.Current_Directory>
/home/itssahil/PROJECTS/Mol_Feturizer/New_Systems/rnas/1nyi

>  <Rbt.Executable>
rbdock ($Id: //depot/dev/client3/rdock/2013.1/src/exe/rbdock.cxx#4 $)

>  <Rbt.Library>
libRbt.so (2013.1, Build901 2013/11/27)

>  <Rbt.Parameter_File>
/export/apps/rDock/src/rDock_2013.1_src/data/scripts/dock_solv.prm

>  <Rbt.Receptor>
prm/pocket_docking_6.prm

>  <SCORE>
-10.302

>  <SCORE.INTER>
-8.50264

>  <SCORE.INTER.CONST>
1

>  <SCORE.INTER.POLAR>
-1.24056

>  <SCORE.INTER.ROT>
2

>  <SCORE.INTER.SOLV>
9.72374

>  <SCORE.INTER.VDW>
-9.70781

>  <SCORE.INTER.norm>
-0.425132

>  <SCORE.INTRA>
-1.79938

>  <SCORE.INTRA.DIHEDRAL>
-2.54245

>  <SCORE.INTRA.DIHEDRAL.0>
3.72394

>  <SCORE.INTRA.POLAR>
0

>  <SCORE.INTRA.POLAR.0>
0

>  <SCORE.INTRA.REPUL>
0

>  <SCORE.INTRA.REPUL.0>
0

>  <SCORE.INTRA.SOLV>
-0.719609

>  <SCORE.INTRA.SOLV.lig_0>
-49.4697

>  <SCORE.INTRA.VDW>
-0.16835

>  <SCORE.INTRA.VDW.0>
-0.896538

>  <SCORE.INTRA.norm>
-0.0899689

>  <SCORE.RESTR>
0

>  <SCORE.RESTR.CAVITY>
0

>  <SCORE.RESTR.norm>
0

>  <SCORE.SYSTEM>
0

>  <SCORE.SYSTEM.CONST>
0

>  <SCORE.SYSTEM.DIHEDRAL>
0

>  <SCORE.SYSTEM.SOLV>
0

>  <SCORE.SYSTEM.norm>
0

>  <SCORE.heavy>
20

>  <SCORE.norm>
-0.515101

>  <RMSD>
6.125

$$$$
1nyi_lig
 OpenBabel11021811403D
libRbt.so/2013.1/901 2013/11/27
 20 22  0  0  0  0  0  0  0  0999 V2000
   22.4362   -7.3748   46.0830 C   0  0  0  0  0  0  0  0  0  0  0  0
   21.2264   -8.1216   46.2121 O   0  0  0  0  0  0  0  0  0  0  0  0
   23.3772   -8.0378   45.1016 C   0  0  1  0  0  0  0  0  0  0  0  0
   22.7529   -8.0564   43.7894 O   0  0  0  0  0  0  0  0  0  0  0  0
   24.6819   -7.2676   44.9311 C   0  0  1  0  0  0  0  0  0  0  0  0
   25.6778   -7.7125   45.8533 O   0  0  0  0  0  0  0  0  0  0  0  0
   25.0332   -7.5460   43.4710 C   0  0  1  0  0  0  0  0  0  0  0  0
   25.6217   -8.8227   43.2725 O   0  0  0  0  0  0  0  0  0  0  0  0
   23.6469   -7.5012   42.8321 C   0  0  2  0  0  0  0  0  0  0  0  0
   20.1615   -5.0509   39.9448 N   0  0  0  0  0  0  0  0  0  0  0  0
   20.3270   -6.3979   40.1583 C   0  0  1  0  0  0  0  0  0  0  0  0
   19.4595   -7.1900   39.5265 N   0  0  0  0  0  0  0  0  0  0  0  0
   21.2728   -6.9272   40.9290 N   0  0  0  0  0  0  0  0  0  0  0  0
   22.0787   -5.9768   41.4862 C   0  0  1  0  0  0  0  0  0  0  0  0
   21.9929   -4.6042   41.3327 C   0  0  1  0  0  0  0  0  0  0  0  0
   20.9657   -4.0621   40.5109 C   0  0  0  0  0  0  0  0  0  0  0  0
   20.7282   -2.8746   40.2560 O   0  0  0  0  0  0  0  0  0  0  0  0
   22.9818   -3.9679   42.0718 N   0  0  0  0  0  0  0  0  0  0  0  0
   23.6388   -4.9407   42.6409 C   0  0  0  0  0  0  0  0  0  0  0  0
   23.1596   -6.1949   42.3321 N   0  0  1  0  0  0  0  0  0  0  0  0
  2  1  1  0  0  0  0
  3  1  1  1  0  0  0
  3  4  1  0  0  0  0
  3  5  1  0  0  0  0
  5  6  1  1  0  0  0
  5  7  1  0  0  0  0
  7  8  1  1  0  0  0
  7  9  1  0  0  0  0
  9  4  1  1  0  0  0
  9 20  1  0  0  0  0
 10 11  1  0  0  0  0
 11 12  1  6  0  0  0
 11 13  1  0  0  0  0
 14 13  1  1  0  0  0
 15 14  1  0  0  0  0
 15 16  1  1  0  0  0
 16 10  1  0  0  0  0
 16 17  2  0  0  0  0
 18 15  1  0  0  0  0
 19 18  1  0  0  0  0
 20 14  1  0  0  0  0
 20 19  1  1  0  0  0
M  END
>  <CHROM.1>
62.74877765,-71.48349024,22.58384646,-6.46434675,42.69302458,0.95808230,0.40826120
2.40923966

>  <Name>
1nyi_lig

>  <RI>
0

>  <Rbt.Current_Directory>
/home/itssahil/PROJECTS/Mol_Feturizer/New_Systems/rnas/1nyi

>  <Rbt.Executable>
rbdock ($Id: //depot/dev/client3/rdock/2013.1/src/exe/rbdock.cxx#4 $)

>  <Rbt.Library>
libRbt.so (2013.1, Build901 2013/11/27)

>  <Rbt.Parameter_File>
/export/apps/rDock/src/rDock_2013.1_src/data/scripts/dock_solv.prm

>  <Rbt.Receptor>
prm/pocket_docking_8.prm

>  <SCORE>
-10.2806

>  <SCORE.INTER>
-8.4621

>  <SCORE.INTER.CONST>
1

>  <SCORE.INTER.POLAR>
-1.23288

>  <SCORE.INTER.ROT>
2

>  <SCORE.INTER.SOLV>
9.62406

>  <SCORE.INTER.VDW>
-9.67315

>  <SCORE.INTER.norm>
-0.423105

>  <SCORE.INTRA>
-1.81853

>  <SCORE.INTRA.DIHEDRAL>
-2.5268

>  <SCORE.INTRA.DIHEDRAL.0>
3.72394

>  <SCORE.INTRA.POLAR>
0

>  <SCORE.INTRA.POLAR.0>
0

>  <SCORE.INTRA.REPUL>
0

>  <SCORE.INTRA.REPUL.0>
0

>  <SCORE.INTRA.SOLV>
-0.741991

>  <SCORE.INTRA.SOLV.lig_0>
-49.4697

>  <SCORE.INTRA.VDW>
-0.184136

>  <SCORE.INTRA.VDW.0>
-0.896538

>  <SCORE.INTRA.norm>
-0.0909266

>  <SCORE.RESTR>
0

>  <SCORE.RESTR.CAVITY>
0

>  <SCORE.RESTR.norm>
0

>  <SCORE.SYSTEM>
0

>  <SCORE.SYSTEM.CONST>
0

>  <SCORE.SYSTEM.DIHEDRAL>
0

>  <SCORE.SYSTEM.SOLV>
0

>  <SCORE.SYSTEM.norm>
0

>  <SCORE.heavy>
20

>  <SCORE.norm>
-0.514032

>  <RMSD>
6.126

$$$$
1nyi_lig
 OpenBabel11021811403D
libRbt.so/2013.1/901 2013/11/27
 20 22  0  0  0  0  0  0  0  0999 V2000
   23.2465   -8.0176   45.1652 C   0  0  0  0  0  0  0  0  0  0  0  0
   22.3303   -8.1304   44.0762 O   0  0  0  0  0  0  0  0  0  0  0  0
   24.4189   -8.9559   44.9830 C   0  0  1  0  0  0  0  0  0  0  0  0
   25.1901   -8.5276   43.8280 O   0  0  0  0  0  0  0  0  0  0  0  0
   25.3835   -8.9224   46.1633 C   0  0  1  0  0  0  0  0  0  0  0  0
   25.0376   -9.8949   47.1507 O   0  0  0  0  0  0  0  0  0  0  0  0
   26.7282   -9.1874   45.4894 C   0  0  1  0  0  0  0  0  0  0  0  0
   26.9451  -10.5597   45.1972 O   0  0  0  0  0  0  0  0  0  0  0  0
   26.5581   -8.3950   44.1951 C   0  0  2  0  0  0  0  0  0  0  0  0
   25.1591   -3.5076   43.3921 N   0  0  0  0  0  0  0  0  0  0  0  0
   24.4268   -4.6607   43.2459 C   0  0  1  0  0  0  0  0  0  0  0  0
   23.1687   -4.4935   42.8358 N   0  0  0  0  0  0  0  0  0  0  0  0
   24.8938   -5.8837   43.4802 N   0  0  0  0  0  0  0  0  0  0  0  0
   26.1994   -5.8720   43.8784 C   0  0  1  0  0  0  0  0  0  0  0  0
   27.0164   -4.7692   44.0543 C   0  0  1  0  0  0  0  0  0  0  0  0
   26.4901   -3.4707   43.8069 C   0  0  0  0  0  0  0  0  0  0  0  0
   27.0579   -2.3759   43.9098 O   0  0  0  0  0  0  0  0  0  0  0  0
   28.2780   -5.1603   44.4840 N   0  0  0  0  0  0  0  0  0  0  0  0
   28.2091   -6.4612   44.5525 C   0  0  0  0  0  0  0  0  0  0  0  0
   26.9824   -6.9759   44.1942 N   0  0  1  0  0  0  0  0  0  0  0  0
  2  1  1  0  0  0  0
  3  1  1  1  0  0  0
  3  4  1  0  0  0  0
  3  5  1  0  0  0  0
  5  6  1  1  0  0  0
  5  7  1  0  0  0  0
  7  8  1  6  0  0  0
  7  9  1  0  0  0  0
  9  4  1  1  0  0  0
  9 20  1  0  0  0  0
 10 11  1  0  0  0  0
 11 12  1  6  0  0  0
 11 13  1  0  0  0  0
 14 13  1  1  0  0  0
 15 14  1  0  0  0  0
 15 16  1  1  0  0  0
 16 10  1  0  0  0  0
 16 17  2  0  0  0  0
 18 15  1  0  0  0  0
 19 18  1  0  0  0  0
 20 14  1  0  0  0  0
 20 19  1  1  0  0  0
M  END
>  <CHROM.1>
66.10734550,-0.36622842,25.66378632,-6.76289279,44.41943821,1.71346456,0.16334876
2.79948343

>  <Name>
1nyi_lig

>  <RI>
0

>  <Rbt.Current_Directory>
/home/itssahil/PROJECTS/Mol_Feturizer/New_Systems/rnas/1nyi

>  <Rbt.Executable>
rbdock ($Id: //depot/dev/client3/rdock/2013.1/src/exe/rbdock.cxx#4 $)

>  <Rbt.Library>
libRbt.so (2013.1, Build901 2013/11/27)

>  <Rbt.Parameter_File>
/export/apps/rDock/src/rDock_2013.1_src/data/scripts/dock_solv.prm

>  <Rbt.Receptor>
prm/pocket_docking_5.prm

>  <SCORE>
-8.77559

>  <SCORE.INTER>
-7.52119

>  <SCORE.INTER.CONST>
1

>  <SCORE.INTER.POLAR>
-0.747496

>  <SCORE.INTER.ROT>
2

>  <SCORE.INTER.SOLV>
8.16025

>  <SCORE.INTER.VDW>
-10.1759

>  <SCORE.INTER.norm>
-0.37606

>  <SCORE.INTRA>
-1.25439

>  <SCORE.INTRA.DIHEDRAL>
-2.35603

>  <SCORE.INTRA.DIHEDRAL.0>
3.72394

>  <SCORE.INTRA.POLAR>
0

>  <SCORE.INTRA.POLAR.0>
0

>  <SCORE.INTRA.REPUL>
0

>  <SCORE.INTRA.REPUL.0>
0

>  <SCORE.INTRA.SOLV>
1.39193

>  <SCORE.INTRA.SOLV.lig_0>
-49.4697

>  <SCORE.INTRA.VDW>
-0.772341

>  <SCORE.INTRA.VDW.0>
-0.896538

>  <SCORE.INTRA.norm>
-0.0627196

>  <SCORE.RESTR>
0

>  <SCORE.RESTR.CAVITY>
0

>  <SCORE.RESTR.norm>
0

>  <SCORE.SYSTEM>
0

>  <SCORE.SYSTEM.CONST>
0

>  <SCORE.SYSTEM.DIHEDRAL>
0

>  <SCORE.SYSTEM.SOLV>
0

>  <SCORE.SYSTEM.norm>
0

>  <SCORE.heavy>
20

>  <SCORE.norm>
-0.438779

>  <RMSD>
6.127

$$$$
1nyi_lig
 OpenBabel11021811403D
libRbt.so/2013.1/901 2013/11/27
 20 22  0  0  0  0  0  0  0  0999 V2000
   22.4098   -7.5363   46.0592 C   0  0  0  0  0  0  0  0  0  0  0  0
   21.2242   -8.3293   46.1179 O   0  0  0  0  0  0  0  0  0  0  0  0
   23.4015   -8.1207   45.0778 C   0  0  1  0  0  0  0  0  0  0  0  0
   22.8113   -8.1117   43.7498 O   0  0  0  0  0  0  0  0  0  0  0  0
   24.6770   -7.2920   44.9722 C   0  0  1  0  0  0  0  0  0  0  0  0
   25.6672   -7.7330   45.9023 O   0  0  0  0  0  0  0  0  0  0  0  0
   25.0757   -7.4971   43.5121 C   0  0  1  0  0  0  0  0  0  0  0  0
   25.7214   -8.7399   43.2794 O   0  0  0  0  0  0  0  0  0  0  0  0
   23.7050   -7.4828   42.8390 C   0  0  2  0  0  0  0  0  0  0  0  0
   20.1274   -5.0580   40.0444 N   0  0  0  0  0  0  0  0  0  0  0  0
   20.3330   -6.4048   40.2205 C   0  0  1  0  0  0  0  0  0  0  0  0
   19.4833   -7.2045   39.5743 N   0  0  0  0  0  0  0  0  0  0  0  0
   21.2999   -6.9269   40.9697 N   0  0  0  0  0  0  0  0  0  0  0  0
   22.0829   -5.9689   41.5462 C   0  0  1  0  0  0  0  0  0  0  0  0
   21.9566   -4.5958   41.4300 C   0  0  1  0  0  0  0  0  0  0  0  0
   20.9077   -4.0618   40.6308 C   0  0  0  0  0  0  0  0  0  0  0  0
   20.6343   -2.8753   40.4095 O   0  0  0  0  0  0  0  0  0  0  0  0
   22.9330   -3.9511   42.1785 N   0  0  0  0  0  0  0  0  0  0  0  0
   23.6222   -4.9193   42.7164 C   0  0  0  0  0  0  0  0  0  0  0  0
   23.1765   -6.1782   42.3778 N   0  0  1  0  0  0  0  0  0  0  0  0
  2  1  1  0  0  0  0
  3  1  1  1  0  0  0
  3  4  1  0  0  0  0
  3  5  1  0  0  0  0
  5  6  1  1  0  0  0
  5  7  1  0  0  0  0
  7  8  1  1  0  0  0
  7  9  1  0  0  0  0
  9  4  1  1  0  0  0
  9 20  1  0  0  0  0
 10 11  1  0  0  0  0
 11 12  1  6  0  0  0
 11 13  1  0  0  0  0
 14 13  1  1  0  0  0
 15 14  1  0  0  0  0
 15 16  1  1  0  0  0
 16 10  1  0  0  0  0
 16 17  2  0  0  0  0
 18 15  1  0  0  0  0
 19 18  1  0  0  0  0
 20 14  1  0  0  0  0
 20 19  1  1  0  0  0
M  END
>  <CHROM.1>
62.22664118,-69.30538832,22.58572333,-6.48359275,42.73517211,0.93855657,0.41958099
2.44596829

>  <Name>
1nyi_lig

>  <RI>
0

>  <Rbt.Current_Directory>
/home/itssahil/PROJECTS/Mol_Feturizer/New_Systems/rnas/1nyi

>  <Rbt.Executable>
rbdock ($Id: //depot/dev/client3/rdock/2013.1/src/exe/rbdock.cxx#4 $)

>  <Rbt.Library>
libRbt.so (2013.1, Build901 2013/11/27)

>  <Rbt.Parameter_File>
/export/apps/rDock/src/rDock_2013.1_src/data/scripts/dock_solv.prm

>  <Rbt.Receptor>
prm/pocket_docking_7.prm

>  <SCORE>
-10.3406

>  <SCORE.INTER>
-8.53725

>  <SCORE.INTER.CONST>
1

>  <SCORE.INTER.POLAR>
-1.21775

>  <SCORE.INTER.ROT>
2

>  <SCORE.INTER.SOLV>
9.69667

>  <SCORE.INTER.VDW>
-9.7979

>  <SCORE.INTER.norm>
-0.426863

>  <SCORE.INTRA>
-1.80333

>  <SCORE.INTRA.DIHEDRAL>
-2.52855

>  <SCORE.INTRA.DIHEDRAL.0>
3.72394

>  <SCORE.INTRA.POLAR>
0

>  <SCORE.INTRA.POLAR.0>
0

>  <SCORE.INTRA.REPUL>
0

>  <SCORE.INTRA.REPUL.0>
0

>  <SCORE.INTRA.SOLV>
-0.728712

>  <SCORE.INTRA.SOLV.lig_0>
-49.4697

>  <SCORE.INTRA.VDW>
-0.174697

>  <SCORE.INTRA.VDW.0>
-0.896538

>  <SCORE.INTRA.norm>
-0.0901665

>  <SCORE.RESTR>
0

>  <SCORE.RESTR.CAVITY>
0

>  <SCORE.RESTR.norm>
0

>  <SCORE.SYSTEM>
0

>  <SCORE.SYSTEM.CONST>
0

>  <SCORE.SYSTEM.DIHEDRAL>
0

>  <SCORE.SYSTEM.SOLV>
0

>  <SCORE.SYSTEM.norm>
0

>  <SCORE.heavy>
20

>  <SCORE.norm>
-0.517029

>  <RMSD>
6.127

$$$$
1nyi_lig
 OpenBabel11021811403D
libRbt.so/2013.1/901 2013/11/27
 20 22  0  0  0  0  0  0  0  0999 V2000
   22.3195   -7.4370   46.0576 C   0  0  0  0  0  0  0  0  0  0  0  0
   21.1199   -8.2090   46.1103 O   0  0  0  0  0  0  0  0  0  0  0  0
   23.3216   -8.0613   45.1118 C   0  0  1  0  0  0  0  0  0  0  0  0
   22.7582   -8.0779   43.7722 O   0  0  0  0  0  0  0  0  0  0  0  0
   24.6115   -7.2548   45.0110 C   0  0  1  0  0  0  0  0  0  0  0  0
   25.5761   -7.6863   45.9720 O   0  0  0  0  0  0  0  0  0  0  0  0
   25.0360   -7.5034   43.5651 C   0  0  1  0  0  0  0  0  0  0  0  0
   25.6670   -8.7613   43.3773 O   0  0  0  0  0  0  0  0  0  0  0  0
   23.6794   -7.4861   42.8640 C   0  0  2  0  0  0  0  0  0  0  0  0
   20.1726   -5.0785   39.9668 N   0  0  0  0  0  0  0  0  0  0  0  0
   20.3503   -6.4230   40.1854 C   0  0  1  0  0  0  0  0  0  0  0  0
   19.4901   -7.2254   39.5565 N   0  0  0  0  0  0  0  0  0  0  0  0
   21.3006   -6.9408   40.9583 N   0  0  0  0  0  0  0  0  0  0  0  0
   22.0978   -5.9810   41.5121 C   0  0  1  0  0  0  0  0  0  0  0  0
   21.9995   -4.6099   41.3533 C   0  0  1  0  0  0  0  0  0  0  0  0
   20.9677   -4.0803   40.5293 C   0  0  0  0  0  0  0  0  0  0  0  0
   20.7194   -2.8959   40.2699 O   0  0  0  0  0  0  0  0  0  0  0  0
   22.9824   -3.9619   42.0902 N   0  0  0  0  0  0  0  0  0  0  0  0
   23.6481   -4.9265   42.6631 C   0  0  0  0  0  0  0  0  0  0  0  0
   23.1804   -6.1862   42.3590 N   0  0  1  0  0  0  0  0  0  0  0  0
  2  1  1  0  0  0  0
  3  1  1  1  0  0  0
  3  4  1  0  0  0  0
  3  5  1  0  0  0  0
  5  6  1  1  0  0  0
  5  7  1  0  0  0  0
  7  8  1  1  0  0  0
  7  9  1  0  0  0  0
  9  4  1  1  0  0  0
  9 20  1  0  0  0  0
 10 11  1  0  0  0  0
 11 12  1  6  0  0  0
 11 13  1  0  0  0  0
 14 13  1  1  0  0  0
 15 14  1  0  0  0  0
 15 16  1  1  0  0  0
 16 10  1  0  0  0  0
 16 17  2  0  0  0  0
 18 15  1  0  0  0  0
 19 18  1  0  0  0  0
 20 14  1  0  0  0  0
 20 19  1  1  0  0  0
M  END
>  <CHROM.1>
62.10896987,-68.53013972,22.57168924,-6.47248596,42.72011228,0.96391289,0.41311475
2.40661820

>  <Name>
1nyi_lig

>  <RI>
0

>  <Rbt.Current_Directory>
/home/itssahil/PROJECTS/Mol_Feturizer/New_Systems/rnas/1nyi

>  <Rbt.Executable>
rbdock ($Id: //depot/dev/client3/rdock/2013.1/src/exe/rbdock.cxx#4 $)

>  <Rbt.Library>
libRbt.so (2013.1, Build901 2013/11/27)

>  <Rbt.Parameter_File>
/export/apps/rDock/src/rDock_2013.1_src/data/scripts/dock_solv.prm

>  <Rbt.Receptor>
prm/pocket_docking_7.prm

>  <SCORE>
-10.2937

>  <SCORE.INTER>
-8.49611

>  <SCORE.INTER.CONST>
1

>  <SCORE.INTER.POLAR>
-1.24966

>  <SCORE.INTER.ROT>
2

>  <SCORE.INTER.SOLV>
9.6722

>  <SCORE.INTER.VDW>
-9.65595

>  <SCORE.INTER.norm>
-0.424805

>  <SCORE.INTRA>
-1.7976

>  <SCORE.INTRA.DIHEDRAL>
-2.52748

>  <SCORE.INTRA.DIHEDRAL.0>
3.72394

>  <SCORE.INTRA.POLAR>
0

>  <SCORE.INTRA.POLAR.0>
0

>  <SCORE.INTRA.REPUL>
0

>  <SCORE.INTRA.REPUL.0>
0

>  <SCORE.INTRA.SOLV>
-0.724208

>  <SCORE.INTRA.SOLV.lig_0>
-49.4697

>  <SCORE.INTRA.VDW>
-0.171755

>  <SCORE.INTRA.VDW.0>
-0.896538

>  <SCORE.INTRA.norm>
-0.08988

>  <SCORE.RESTR>
0

>  <SCORE.RESTR.CAVITY>
0

>  <SCORE.RESTR.norm>
0

>  <SCORE.SYSTEM>
0

>  <SCORE.SYSTEM.CONST>
0

>  <SCORE.SYSTEM.DIHEDRAL>
0

>  <SCORE.SYSTEM.SOLV>
0

>  <SCORE.SYSTEM.norm>
0

>  <SCORE.heavy>
20

>  <SCORE.norm>
-0.514685

>  <RMSD>
6.129

$$$$
1nyi_lig
 OpenBabel11021811403D
libRbt.so/2013.1/901 2013/11/27
 20 22  0  0  0  0  0  0  0  0999 V2000
   26.0920   -7.7312   43.5906 C   0  0  0  0  0  0  0  0  0  0  0  0
   26.6610   -9.0051   43.8933 O   0  0  0  0  0  0  0  0  0  0  0  0
   24.9839   -7.3908   44.5625 C   0  0  1  0  0  0  0  0  0  0  0  0
   24.5072   -6.0469   44.2815 O   0  0  0  0  0  0  0  0  0  0  0  0
   23.7718   -8.3028   44.4100 C   0  0  1  0  0  0  0  0  0  0  0  0
   23.8678   -9.4486   45.2575 O   0  0  0  0  0  0  0  0  0  0  0  0
   22.6178   -7.3701   44.7720 C   0  0  1  0  0  0  0  0  0  0  0  0
   22.4600   -7.1952   46.1720 O   0  0  0  0  0  0  0  0  0  0  0  0
   23.0929   -6.0685   44.1300 C   0  0  2  0  0  0  0  0  0  0  0  0
   19.7247   -7.0793   40.3721 N   0  0  0  0  0  0  0  0  0  0  0  0
   19.7888   -7.5869   41.6470 C   0  0  1  0  0  0  0  0  0  0  0  0
   18.8413   -8.4717   41.9607 N   0  0  0  0  0  0  0  0  0  0  0  0
   20.7132   -7.2552   42.5437 N   0  0  0  0  0  0  0  0  0  0  0  0
   21.6097   -6.3504   42.0527 C   0  0  1  0  0  0  0  0  0  0  0  0
   21.6289   -5.7836   40.7905 C   0  0  1  0  0  0  0  0  0  0  0  0
   20.6228   -6.1473   39.8526 C   0  0  0  0  0  0  0  0  0  0  0  0
   20.4729   -5.7508   38.6898 O   0  0  0  0  0  0  0  0  0  0  0  0
   22.6883   -4.8933   40.6716 N   0  0  0  0  0  0  0  0  0  0  0  0
   23.2832   -4.9394   41.8317 C   0  0  0  0  0  0  0  0  0  0  0  0
   22.6959   -5.8060   42.7273 N   0  0  1  0  0  0  0  0  0  0  0  0
  2  1  1  0  0  0  0
  3  1  1  6  0  0  0
  3  4  1  0  0  0  0
  3  5  1  0  0  0  0
  5  6  1  1  0  0  0
  5  7  1  0  0  0  0
  7  8  1  1  0  0  0
  7  9  1  0  0  0  0
  9  4  1  6  0  0  0
  9 20  1  0  0  0  0
 10 11  1  0  0  0  0
 11 12  1  6  0  0  0
 11 13  1  0  0  0  0
 14 13  1  1  0  0  0
 15 14  1  0  0  0  0
 15 16  1  1  0  0  0
 16 10  1  0  0  0  0
 16 17  2  0  0  0  0
 18 15  1  0  0  0  0
 19 18  1  0  0  0  0
 20 14  1  0  0  0  0
 20 19  1  1  0  0  0
M  END
>  <CHROM.1>
175.60903172,145.76908053,22.55859859,-6.95522785,42.75243048,-0.76003092
-0.27514258,-0.95067307

>  <Name>
1nyi_lig

>  <RI>
0

>  <Rbt.Current_Directory>
/home/itssahil/PROJECTS/Mol_Feturizer/New_Systems/rnas/1nyi

>  <Rbt.Executable>
rbdock ($Id: //depot/dev/client3/rdock/2013.1/src/exe/rbdock.cxx#4 $)

>  <Rbt.Library>
libRbt.so (2013.1, Build901 2013/11/27)

>  <Rbt.Parameter_File>
/export/apps/rDock/src/rDock_2013.1_src/data/scripts/dock_solv.prm

>  <Rbt.Receptor>
prm/pocket_docking_6.prm

>  <SCORE>
-6.99145

>  <SCORE.INTER>
-5.49953

>  <SCORE.INTER.CONST>
1

>  <SCORE.INTER.POLAR>
-0.721971

>  <SCORE.INTER.ROT>
2

>  <SCORE.INTER.SOLV>
10.8303

>  <SCORE.INTER.VDW>
-9.8032

>  <SCORE.INTER.norm>
-0.274977

>  <SCORE.INTRA>
-1.49191

>  <SCORE.INTRA.DIHEDRAL>
-2.52063

>  <SCORE.INTRA.DIHEDRAL.0>
3.72394

>  <SCORE.INTRA.POLAR>
0

>  <SCORE.INTRA.POLAR.0>
0

>  <SCORE.INTRA.REPUL>
0

>  <SCORE.INTRA.REPUL.0>
0

>  <SCORE.INTRA.SOLV>
-0.012148

>  <SCORE.INTRA.SOLV.lig_0>
-49.4697

>  <SCORE.INTRA.VDW>
-0.225527

>  <SCORE.INTRA.VDW.0>
-0.896538

>  <SCORE.INTRA.norm>
-0.0745957

>  <SCORE.RESTR>
0

>  <SCORE.RESTR.CAVITY>
0

>  <SCORE.RESTR.norm>
0

>  <SCORE.SYSTEM>
0

>  <SCORE.SYSTEM.CONST>
0

>  <SCORE.SYSTEM.DIHEDRAL>
0

>  <SCORE.SYSTEM.SOLV>
0

>  <SCORE.SYSTEM.norm>
0

>  <SCORE.heavy>
20

>  <SCORE.norm>
-0.349572

>  <RMSD>
6.136

$$$$
1nyi_lig
 OpenBabel11021811403D
libRbt.so/2013.1/901 2013/11/27
 20 22  0  0  0  0  0  0  0  0999 V2000
   22.1631   -7.6923   45.8744 C   0  0  0  0  0  0  0  0  0  0  0  0
   22.5788   -7.7297   47.2397 O   0  0  0  0  0  0  0  0  0  0  0  0
   23.2558   -8.2067   44.9636 C   0  0  1  0  0  0  0  0  0  0  0  0
   22.7819   -8.1672   43.5903 O   0  0  0  0  0  0  0  0  0  0  0  0
   24.5051   -7.3333   44.9981 C   0  0  1  0  0  0  0  0  0  0  0  0
   25.4270   -7.7762   45.9952 O   0  0  0  0  0  0  0  0  0  0  0  0
   25.0348   -7.4703   43.5722 C   0  0  1  0  0  0  0  0  0  0  0  0
   25.7423   -8.6816   43.3538 O   0  0  0  0  0  0  0  0  0  0  0  0
   23.7274   -7.4756   42.7831 C   0  0  2  0  0  0  0  0  0  0  0  0
   20.0980   -5.0589   40.0489 N   0  0  0  0  0  0  0  0  0  0  0  0
   20.3021   -6.4050   40.2317 C   0  0  1  0  0  0  0  0  0  0  0  0
   19.4350   -7.2064   39.6113 N   0  0  0  0  0  0  0  0  0  0  0  0
   21.2833   -6.9251   40.9634 N   0  0  0  0  0  0  0  0  0  0  0  0
   22.0829   -5.9656   41.5142 C   0  0  1  0  0  0  0  0  0  0  0  0
   21.9596   -4.5930   41.3895 C   0  0  1  0  0  0  0  0  0  0  0  0
   20.8952   -4.0612   40.6094 C   0  0  0  0  0  0  0  0  0  0  0  0
   20.6217   -2.8754   40.3845 O   0  0  0  0  0  0  0  0  0  0  0  0
   22.9550   -3.9463   42.1106 N   0  0  0  0  0  0  0  0  0  0  0  0
   23.6522   -4.9130   42.6411 C   0  0  0  0  0  0  0  0  0  0  0  0
   23.1940   -6.1727   42.3229 N   0  0  1  0  0  0  0  0  0  0  0  0
  2  1  1  0  0  0  0
  3  1  1  1  0  0  0
  3  4  1  0  0  0  0
  3  5  1  0  0  0  0
  5  6  1  1  0  0  0
  5  7  1  0  0  0  0
  7  8  1  1  0  0  0
  7  9  1  0  0  0  0
  9  4  1  1  0  0  0
  9 20  1  0  0  0  0
 10 11  1  0  0  0  0
 11 12  1  6  0  0  0
 11 13  1  0  0  0  0
 14 13  1  1  0  0  0
 15 14  1  0  0  0  0
 15 16  1  1  0  0  0
 16 10  1  0  0  0  0
 16 17  2  0  0  0  0
 18 15  1  0  0  0  0
 19 18  1  0  0  0  0
 20 14  1  0  0  0  0
 20 19  1  1  0  0  0
M  END
>  <CHROM.1>
179.22171570,-62.21120117,22.61700479,-6.46281788,42.77303702,0.87217736
0.62457852,2.57581298

>  <Name>
1nyi_lig

>  <RI>
0

>  <Rbt.Current_Directory>
/home/itssahil/PROJECTS/Mol_Feturizer/New_Systems/rnas/1nyi

>  <Rbt.Executable>
rbdock ($Id: //depot/dev/client3/rdock/2013.1/src/exe/rbdock.cxx#4 $)

>  <Rbt.Library>
libRbt.so (2013.1, Build901 2013/11/27)

>  <Rbt.Parameter_File>
/export/apps/rDock/src/rDock_2013.1_src/data/scripts/dock_solv.prm

>  <Rbt.Receptor>
prm/pocket_docking_7.prm

>  <SCORE>
-10.1204

>  <SCORE.INTER>
-8.47516

>  <SCORE.INTER.CONST>
1

>  <SCORE.INTER.POLAR>
-1.2006

>  <SCORE.INTER.ROT>
2

>  <SCORE.INTER.SOLV>
9.56382

>  <SCORE.INTER.VDW>
-9.76939

>  <SCORE.INTER.norm>
-0.423758

>  <SCORE.INTRA>
-1.64525

>  <SCORE.INTRA.DIHEDRAL>
-2.51731

>  <SCORE.INTRA.DIHEDRAL.0>
3.72394

>  <SCORE.INTRA.POLAR>
0

>  <SCORE.INTRA.POLAR.0>
0

>  <SCORE.INTRA.REPUL>
0.00213645

>  <SCORE.INTRA.REPUL.0>
0

>  <SCORE.INTRA.SOLV>
-0.452416

>  <SCORE.INTRA.SOLV.lig_0>
-49.4697

>  <SCORE.INTRA.VDW>
-0.171068

>  <SCORE.INTRA.VDW.0>
-0.896538

>  <SCORE.INTRA.norm>
-0.0822625

>  <SCORE.RESTR>
0

>  <SCORE.RESTR.CAVITY>
0

>  <SCORE.RESTR.norm>
0

>  <SCORE.SYSTEM>
0

>  <SCORE.SYSTEM.CONST>
0

>  <SCORE.SYSTEM.DIHEDRAL>
0

>  <SCORE.SYSTEM.SOLV>
0

>  <SCORE.SYSTEM.norm>
0

>  <SCORE.heavy>
20

>  <SCORE.norm>
-0.506021

>  <RMSD>
6.138

$$$$
1nyi_lig
 OpenBabel11021811403D
libRbt.so/2013.1/901 2013/11/27
 20 22  0  0  0  0  0  0  0  0999 V2000
   21.6342   -7.4023   45.4090 C   0  0  0  0  0  0  0  0  0  0  0  0
   20.4639   -8.1319   45.0401 O   0  0  0  0  0  0  0  0  0  0  0  0
   22.8044   -7.7778   44.5270 C   0  0  1  0  0  0  0  0  0  0  0  0
   22.4933   -7.4189   43.1535 O   0  0  0  0  0  0  0  0  0  0  0  0
   24.0732   -7.0101   44.8807 C   0  0  1  0  0  0  0  0  0  0  0  0
   24.8571   -7.7102   45.8480 O   0  0  0  0  0  0  0  0  0  0  0  0
   24.7579   -6.8737   43.5223 C   0  0  1  0  0  0  0  0  0  0  0  0
   25.4398   -8.0522   43.1204 O   0  0  0  0  0  0  0  0  0  0  0  0
   23.5506   -6.6312   42.6191 C   0  0  2  0  0  0  0  0  0  0  0  0
   22.9450   -2.8203   39.2133 N   0  0  0  0  0  0  0  0  0  0  0  0
   23.4469   -4.0856   39.0278 C   0  0  1  0  0  0  0  0  0  0  0  0
   23.8354   -4.3723   37.7845 N   0  0  0  0  0  0  0  0  0  0  0  0
   23.5624   -4.9979   39.9886 N   0  0  0  0  0  0  0  0  0  0  0  0
   23.1313   -4.5339   41.1978 C   0  0  1  0  0  0  0  0  0  0  0  0
   22.6126   -3.2834   41.4838 C   0  0  1  0  0  0  0  0  0  0  0  0
   22.4898   -2.3284   40.4364 C   0  0  0  0  0  0  0  0  0  0  0  0
   22.0522   -1.1722   40.4943 O   0  0  0  0  0  0  0  0  0  0  0  0
   22.2705   -3.1927   42.8268 N   0  0  0  0  0  0  0  0  0  0  0  0
   22.5863   -4.3576   43.3220 C   0  0  0  0  0  0  0  0  0  0  0  0
   23.1228   -5.2300   42.4006 N   0  0  1  0  0  0  0  0  0  0  0  0
  2  1  1  0  0  0  0
  3  1  1  1  0  0  0
  3  4  1  0  0  0  0
  3  5  1  0  0  0  0
  5  6  1  1  0  0  0
  5  7  1  0  0  0  0
  7  8  1  6  0  0  0
  7  9  1  0  0  0  0
  9  4  1  1  0  0  0
  9 20  1  0  0  0  0
 10 11  1  0  0  0  0
 11 12  1  1  0  0  0
 11 13  1  0  0  0  0
 14 13  1  6  0  0  0
 15 14  1  0  0  0  0
 15 16  1  6  0  0  0
 16 10  1  0  0  0  0
 16 17  2  0  0  0  0
 18 15  1  0  0  0  0
 19 18  1  0  0  0  0
 20 14  1  0  0  0  0
 20 19  1  6  0  0  0
M  END
>  <CHROM.1>
62.42960593,-121.40873191,23.09987107,-5.42158017,42.36781599,1.51308108
-0.73655583,2.28468688

>  <Name>
1nyi_lig

>  <RI>
0

>  <Rbt.Current_Directory>
/home/itssahil/PROJECTS/Mol_Feturizer/New_Systems/rnas/1nyi

>  <Rbt.Executable>
rbdock ($Id: //depot/dev/client3/rdock/2013.1/src/exe/rbdock.cxx#4 $)

>  <Rbt.Library>
libRbt.so (2013.1, Build901 2013/11/27)

>  <Rbt.Parameter_File>
/export/apps/rDock/src/rDock_2013.1_src/data/scripts/dock_solv.prm

>  <Rbt.Receptor>
prm/pocket_docking_7.prm

>  <SCORE>
-13.2661

>  <SCORE.INTER>
-11.1606

>  <SCORE.INTER.CONST>
1

>  <SCORE.INTER.POLAR>
-1.64276

>  <SCORE.INTER.ROT>
2

>  <SCORE.INTER.SOLV>
11.9042

>  <SCORE.INTER.VDW>
-10.8659

>  <SCORE.INTER.norm>
-0.558032

>  <SCORE.INTRA>
-2.10544

>  <SCORE.INTRA.DIHEDRAL>
-2.4664

>  <SCORE.INTRA.DIHEDRAL.0>
3.72394

>  <SCORE.INTRA.POLAR>
0

>  <SCORE.INTRA.POLAR.0>
0

>  <SCORE.INTRA.REPUL>
0

>  <SCORE.INTRA.REPUL.0>
0

>  <SCORE.INTRA.SOLV>
-0.891997

>  <SCORE.INTRA.SOLV.lig_0>
-49.4697

>  <SCORE.INTRA.VDW>
-0.426246

>  <SCORE.INTRA.VDW.0>
-0.896538

>  <SCORE.INTRA.norm>
-0.105272

>  <SCORE.RESTR>
0

>  <SCORE.RESTR.CAVITY>
0

>  <SCORE.RESTR.norm>
0

>  <SCORE.SYSTEM>
0

>  <SCORE.SYSTEM.CONST>
0

>  <SCORE.SYSTEM.DIHEDRAL>
0

>  <SCORE.SYSTEM.SOLV>
0

>  <SCORE.SYSTEM.norm>
0

>  <SCORE.heavy>
20

>  <SCORE.norm>
-0.663304

>  <RMSD>
6.138

$$$$
1nyi_lig
 OpenBabel11021811403D
libRbt.so/2013.1/901 2013/11/27
 20 22  0  0  0  0  0  0  0  0999 V2000
   21.5686   -7.3334   45.3717 C   0  0  0  0  0  0  0  0  0  0  0  0
   21.8021   -7.7250   46.7245 O   0  0  0  0  0  0  0  0  0  0  0  0
   22.7261   -7.7376   44.4856 C   0  0  1  0  0  0  0  0  0  0  0  0
   22.4193   -7.3709   43.1132 O   0  0  0  0  0  0  0  0  0  0  0  0
   24.0147   -7.0013   44.8351 C   0  0  1  0  0  0  0  0  0  0  0  0
   24.7844   -7.7207   45.7996 O   0  0  0  0  0  0  0  0  0  0  0  0
   24.6978   -6.8817   43.4743 C   0  0  1  0  0  0  0  0  0  0  0  0
   25.3492   -8.0767   43.0700 O   0  0  0  0  0  0  0  0  0  0  0  0
   23.4938   -6.6094   42.5753 C   0  0  2  0  0  0  0  0  0  0  0  0
   22.9625   -2.7869   39.1702 N   0  0  0  0  0  0  0  0  0  0  0  0
   23.4314   -4.0645   38.9826 C   0  0  1  0  0  0  0  0  0  0  0  0
   23.8047   -4.3617   37.7370 N   0  0  0  0  0  0  0  0  0  0  0  0
   23.5300   -4.9788   39.9433 N   0  0  0  0  0  0  0  0  0  0  0  0
   23.1184   -4.5033   41.1548 C   0  0  1  0  0  0  0  0  0  0  0  0
   22.6330   -3.2399   41.4431 C   0  0  1  0  0  0  0  0  0  0  0  0
   22.5276   -2.2828   40.3956 C   0  0  0  0  0  0  0  0  0  0  0  0
   22.1195   -1.1160   40.4554 O   0  0  0  0  0  0  0  0  0  0  0  0
   22.3017   -3.1398   42.7882 N   0  0  0  0  0  0  0  0  0  0  0  0
   22.5913   -4.3119   43.2823 C   0  0  0  0  0  0  0  0  0  0  0  0
   23.1000   -5.1981   42.3583 N   0  0  1  0  0  0  0  0  0  0  0  0
  2  1  1  0  0  0  0
  3  1  1  1  0  0  0
  3  4  1  0  0  0  0
  3  5  1  0  0  0  0
  5  6  1  1  0  0  0
  5  7  1  0  0  0  0
  7  8  1  6  0  0  0
  7  9  1  0  0  0  0
  9  4  1  1  0  0  0
  9 20  1  0  0  0  0
 10 11  1  0  0  0  0
 11 12  1  1  0  0  0
 11 13  1  0  0  0  0
 14 13  1  6  0  0  0
 15 14  1  0  0  0  0
 15 16  1  6  0  0  0
 16 10  1  0  0  0  0
 16 17  2  0  0  0  0
 18 15  1  0  0  0  0
 19 18  1  0  0  0  0
 20 14  1  0  0  0  0
 20 19  1  6  0  0  0
M  END
>  <CHROM.1>
177.58735450,-121.23380363,23.15094186,-5.37214589,42.42289223,1.48709512
-0.91609454,2.21020643

>  <Name>
1nyi_lig

>  <RI>
0

>  <Rbt.Current_Directory>
/home/itssahil/PROJECTS/Mol_Feturizer/New_Systems/rnas/1nyi

>  <Rbt.Executable>
rbdock ($Id: //depot/dev/client3/rdock/2013.1/src/exe/rbdock.cxx#4 $)

>  <Rbt.Library>
libRbt.so (2013.1, Build901 2013/11/27)

>  <Rbt.Parameter_File>
/export/apps/rDock/src/rDock_2013.1_src/data/scripts/dock_solv.prm

>  <Rbt.Receptor>
prm/pocket_docking_8.prm

>  <SCORE>
-13.1303

>  <SCORE.INTER>
-11.1392

>  <SCORE.INTER.CONST>
1

>  <SCORE.INTER.POLAR>
-1.64276

>  <SCORE.INTER.ROT>
2

>  <SCORE.INTER.SOLV>
11.6272

>  <SCORE.INTER.VDW>
-10.7594

>  <SCORE.INTER.norm>
-0.556962

>  <SCORE.INTRA>
-1.99107

>  <SCORE.INTRA.DIHEDRAL>
-2.47214

>  <SCORE.INTRA.DIHEDRAL.0>
3.72394

>  <SCORE.INTRA.POLAR>
0

>  <SCORE.INTRA.POLAR.0>
0

>  <SCORE.INTRA.REPUL>
0

>  <SCORE.INTRA.REPUL.0>
0

>  <SCORE.INTRA.SOLV>
-0.663242

>  <SCORE.INTRA.SOLV.lig_0>
-49.4697

>  <SCORE.INTRA.VDW>
-0.423381

>  <SCORE.INTRA.VDW.0>
-0.896538

>  <SCORE.INTRA.norm>
-0.0995536

>  <SCORE.RESTR>
0

>  <SCORE.RESTR.CAVITY>
0

>  <SCORE.RESTR.norm>
0

>  <SCORE.SYSTEM>
0

>  <SCORE.SYSTEM.CONST>
0

>  <SCORE.SYSTEM.DIHEDRAL>
0

>  <SCORE.SYSTEM.SOLV>
0

>  <SCORE.SYSTEM.norm>
0

>  <SCORE.heavy>
20

>  <SCORE.norm>
-0.656515

>  <RMSD>
6.138

$$$$
1nyi_lig
 OpenBabel11021811403D
libRbt.so/2013.1/901 2013/11/27
 20 22  0  0  0  0  0  0  0  0999 V2000
   25.5919   -6.5318   43.8503 C   0  0  0  0  0  0  0  0  0  0  0  0
   26.3259   -5.9047   44.9019 O   0  0  0  0  0  0  0  0  0  0  0  0
   24.1558   -6.0566   43.8371 C   0  0  1  0  0  0  0  0  0  0  0  0
   24.1357   -4.6247   43.5890 O   0  0  0  0  0  0  0  0  0  0  0  0
   23.3421   -6.6856   42.7116 C   0  0  1  0  0  0  0  0  0  0  0  0
   22.7103   -7.8950   43.1342 O   0  0  0  0  0  0  0  0  0  0  0  0
   22.3575   -5.5714   42.3628 C   0  0  1  0  0  0  0  0  0  0  0  0
   21.2660   -5.4882   43.2669 O   0  0  0  0  0  0  0  0  0  0  0  0
   23.2547   -4.3442   42.5078 C   0  0  2  0  0  0  0  0  0  0  0  0
   23.4819   -4.3041   37.3662 N   0  0  0  0  0  0  0  0  0  0  0  0
   22.5754   -4.9189   38.1954 C   0  0  1  0  0  0  0  0  0  0  0  0
   21.6115   -5.6072   37.5821 N   0  0  0  0  0  0  0  0  0  0  0  0
   22.6136   -4.8656   39.5237 N   0  0  0  0  0  0  0  0  0  0  0  0
   23.6695   -4.1322   39.9824 C   0  0  1  0  0  0  0  0  0  0  0  0
   24.6305   -3.4785   39.2314 C   0  0  1  0  0  0  0  0  0  0  0  0
   24.5617   -3.5422   37.8118 C   0  0  0  0  0  0  0  0  0  0  0  0
   25.3187   -3.0271   36.9791 O   0  0  0  0  0  0  0  0  0  0  0  0
   25.5346   -2.8247   40.0586 N   0  0  0  0  0  0  0  0  0  0  0  0
   25.1217   -3.0922   41.2669 C   0  0  0  0  0  0  0  0  0  0  0  0
   23.9976   -3.8874   41.3105 N   0  0  1  0  0  0  0  0  0  0  0  0
  2  1  1  0  0  0  0
  3  1  1  6  0  0  0
  3  4  1  0  0  0  0
  3  5  1  0  0  0  0
  5  6  1  1  0  0  0
  5  7  1  0  0  0  0
  7  8  1  1  0  0  0
  7  9  1  0  0  0  0
  9  4  1  1  0  0  0
  9 20  1  0  0  0  0
 10 11  1  0  0  0  0
 11 12  1  1  0  0  0
 11 13  1  0  0  0  0
 14 13  1  6  0  0  0
 15 14  1  0  0  0  0
 15 16  1  6  0  0  0
 16 10  1  0  0  0  0
 16 17  2  0  0  0  0
 18 15  1  0  0  0  0
 19 18  1  0  0  0  0
 20 14  1  0  0  0  0
 20 19  1  6  0  0  0
M  END
>  <CHROM.1>
61.96188306,146.18803241,23.82214804,-4.86315294,41.03871379,-1.54139871
-0.54084722,-1.19321001

>  <Name>
1nyi_lig

>  <RI>
0

>  <Rbt.Current_Directory>
/home/itssahil/PROJECTS/Mol_Feturizer/New_Systems/rnas/1nyi

>  <Rbt.Executable>
rbdock ($Id: //depot/dev/client3/rdock/2013.1/src/exe/rbdock.cxx#4 $)

>  <Rbt.Library>
libRbt.so (2013.1, Build901 2013/11/27)

>  <Rbt.Parameter_File>
/export/apps/rDock/src/rDock_2013.1_src/data/scripts/dock_solv.prm

>  <Rbt.Receptor>
prm/pocket_docking_7.prm

>  <SCORE>
-10.2296

>  <SCORE.INTER>
-8.59127

>  <SCORE.INTER.CONST>
1

>  <SCORE.INTER.POLAR>
-1.20191

>  <SCORE.INTER.ROT>
2

>  <SCORE.INTER.SOLV>
10.9398

>  <SCORE.INTER.VDW>
-10.3011

>  <SCORE.INTER.norm>
-0.429564

>  <SCORE.INTRA>
-1.63831

>  <SCORE.INTRA.DIHEDRAL>
-2.57016

>  <SCORE.INTRA.DIHEDRAL.0>
3.72394

>  <SCORE.INTRA.POLAR>
0

>  <SCORE.INTRA.POLAR.0>
0

>  <SCORE.INTRA.REPUL>
0

>  <SCORE.INTRA.REPUL.0>
0

>  <SCORE.INTRA.SOLV>
-0.230881

>  <SCORE.INTRA.SOLV.lig_0>
-49.4697

>  <SCORE.INTRA.VDW>
-0.237793

>  <SCORE.INTRA.VDW.0>
-0.896538

>  <SCORE.INTRA.norm>
-0.0819156

>  <SCORE.RESTR>
0

>  <SCORE.RESTR.CAVITY>
0

>  <SCORE.RESTR.norm>
0

>  <SCORE.SYSTEM>
0

>  <SCORE.SYSTEM.CONST>
0

>  <SCORE.SYSTEM.DIHEDRAL>
0

>  <SCORE.SYSTEM.SOLV>
0

>  <SCORE.SYSTEM.norm>
0

>  <SCORE.heavy>
20

>  <SCORE.norm>
-0.511479

>  <RMSD>
6.139

$$$$
1nyi_lig
 OpenBabel11021811403D
libRbt.so/2013.1/901 2013/11/27
 20 22  0  0  0  0  0  0  0  0999 V2000
   24.3411   -3.2142   38.6023 C   0  0  0  0  0  0  0  0  0  0  0  0
   24.7558   -4.2656   37.7302 O   0  0  0  0  0  0  0  0  0  0  0  0
   22.9018   -2.8308   38.3385 C   0  0  1  0  0  0  0  0  0  0  0  0
   22.1374   -4.0346   38.0579 O   0  0  0  0  0  0  0  0  0  0  0  0
   22.2364   -2.1882   39.5505 C   0  0  1  0  0  0  0  0  0  0  0  0
   22.3892   -0.7681   39.5409 O   0  0  0  0  0  0  0  0  0  0  0  0
   20.7871   -2.6478   39.4052 C   0  0  1  0  0  0  0  0  0  0  0  0
   20.0550   -1.8917   38.4524 O   0  0  0  0  0  0  0  0  0  0  0  0
   20.9911   -4.0742   38.8995 C   0  0  2  0  0  0  0  0  0  0  0  0
   23.4709   -5.8226   43.0568 N   0  0  0  0  0  0  0  0  0  0  0  0
   23.7022   -4.6903   42.3140 C   0  0  1  0  0  0  0  0  0  0  0  0
   24.7172   -3.9302   42.7275 N   0  0  0  0  0  0  0  0  0  0  0  0
   22.9948   -4.3332   41.2460 N   0  0  0  0  0  0  0  0  0  0  0  0
   22.0061   -5.2287   40.9566 C   0  0  1  0  0  0  0  0  0  0  0  0
   21.6959   -6.3910   41.6404 C   0  0  1  0  0  0  0  0  0  0  0  0
   22.4612   -6.7458   42.7861 C   0  0  0  0  0  0  0  0  0  0  0  0
   22.3359   -7.7331   43.5218 O   0  0  0  0  0  0  0  0  0  0  0  0
   20.6122   -7.0293   41.0510 N   0  0  0  0  0  0  0  0  0  0  0  0
   20.2960   -6.2668   40.0408 C   0  0  0  0  0  0  0  0  0  0  0  0
   21.0981   -5.1546   39.9071 N   0  0  1  0  0  0  0  0  0  0  0  0
  2  1  1  0  0  0  0
  3  1  1  1  0  0  0
  3  4  1  0  0  0  0
  3  5  1  0  0  0  0
  5  6  1  6  0  0  0
  5  7  1  0  0  0  0
  7  8  1  6  0  0  0
  7  9  1  0  0  0  0
  9  4  1  1  0  0  0
  9 20  1  0  0  0  0
 10 11  1  0  0  0  0
 11 12  1  6  0  0  0
 11 13  1  0  0  0  0
 14 13  1  1  0  0  0
 15 14  1  0  0  0  0
 15 16  1  1  0  0  0
 16 10  1  0  0  0  0
 16 17  2  0  0  0  0
 18 15  1  0  0  0  0
 19 18  1  0  0  0  0
 20 14  1  0  0  0  0
 20 19  1  1  0  0  0
M  END
>  <CHROM.1>
38.59642035,66.51876739,22.30561753,-4.43142267,40.34688428,-1.61573937,0.42028193
2.38878114

>  <Name>
1nyi_lig

>  <RI>
0

>  <Rbt.Current_Directory>
/home/itssahil/PROJECTS/Mol_Feturizer/New_Systems/rnas/1nyi

>  <Rbt.Executable>
rbdock ($Id: //depot/dev/client3/rdock/2013.1/src/exe/rbdock.cxx#4 $)

>  <Rbt.Library>
libRbt.so (2013.1, Build901 2013/11/27)

>  <Rbt.Parameter_File>
/export/apps/rDock/src/rDock_2013.1_src/data/scripts/dock_solv.prm

>  <Rbt.Receptor>
prm/pocket_docking_8.prm

>  <SCORE>
-10.0556

>  <SCORE.INTER>
-9.30225

>  <SCORE.INTER.CONST>
1

>  <SCORE.INTER.POLAR>
-1.64276

>  <SCORE.INTER.ROT>
2

>  <SCORE.INTER.SOLV>
9.39023

>  <SCORE.INTER.VDW>
-8.78904

>  <SCORE.INTER.norm>
-0.465112

>  <SCORE.INTRA>
-0.753307

>  <SCORE.INTRA.DIHEDRAL>
-1.01684

>  <SCORE.INTRA.DIHEDRAL.0>
3.72394

>  <SCORE.INTRA.POLAR>
0

>  <SCORE.INTRA.POLAR.0>
0

>  <SCORE.INTRA.REPUL>
0

>  <SCORE.INTRA.REPUL.0>
0

>  <SCORE.INTRA.SOLV>
1.55737

>  <SCORE.INTRA.SOLV.lig_0>
-49.4697

>  <SCORE.INTRA.VDW>
-1.02357

>  <SCORE.INTRA.VDW.0>
-0.896538

>  <SCORE.INTRA.norm>
-0.0376653

>  <SCORE.RESTR>
0

>  <SCORE.RESTR.CAVITY>
0

>  <SCORE.RESTR.norm>
0

>  <SCORE.SYSTEM>
0

>  <SCORE.SYSTEM.CONST>
0

>  <SCORE.SYSTEM.DIHEDRAL>
0

>  <SCORE.SYSTEM.SOLV>
0

>  <SCORE.SYSTEM.norm>
0

>  <SCORE.heavy>
20

>  <SCORE.norm>
-0.502778

>  <RMSD>
6.140

$$$$
1nyi_lig
 OpenBabel11021811403D
libRbt.so/2013.1/901 2013/11/27
 20 22  0  0  0  0  0  0  0  0999 V2000
   22.0119   -8.3158   45.4150 C   0  0  0  0  0  0  0  0  0  0  0  0
   22.3370   -8.8456   46.7002 O   0  0  0  0  0  0  0  0  0  0  0  0
   23.2472   -8.2048   44.5491 C   0  0  1  0  0  0  0  0  0  0  0  0
   22.8522   -7.7774   43.2174 O   0  0  0  0  0  0  0  0  0  0  0  0
   24.2218   -7.1465   45.0539 C   0  0  1  0  0  0  0  0  0  0  0  0
   25.1737   -7.7015   45.9629 O   0  0  0  0  0  0  0  0  0  0  0  0
   24.8431   -6.6339   43.7562 C   0  0  1  0  0  0  0  0  0  0  0  0
   25.8524   -7.4910   43.2442 O   0  0  0  0  0  0  0  0  0  0  0  0
   23.6256   -6.6465   42.8344 C   0  0  2  0  0  0  0  0  0  0  0  0
   22.5143   -2.3583   40.2142 N   0  0  0  0  0  0  0  0  0  0  0  0
   23.4558   -3.3234   39.9506 C   0  0  1  0  0  0  0  0  0  0  0  0
   24.1917   -3.1235   38.8563 N   0  0  0  0  0  0  0  0  0  0  0  0
   23.6619   -4.3996   40.7042 N   0  0  0  0  0  0  0  0  0  0  0  0
   22.8330   -4.4394   41.7879 C   0  0  1  0  0  0  0  0  0  0  0  0
   21.8585   -3.5211   42.1371 C   0  0  1  0  0  0  0  0  0  0  0  0
   21.6504   -2.3832   41.3088 C   0  0  0  0  0  0  0  0  0  0  0  0
   20.8346   -1.4637   41.4522 O   0  0  0  0  0  0  0  0  0  0  0  0
   21.2107   -3.9159   43.3006 N   0  0  0  0  0  0  0  0  0  0  0  0
   21.7932   -5.0348   43.6332 C   0  0  0  0  0  0  0  0  0  0  0  0
   22.7958   -5.4212   42.7709 N   0  0  1  0  0  0  0  0  0  0  0  0
  2  1  1  0  0  0  0
  3  1  1  1  0  0  0
  3  4  1  0  0  0  0
  3  5  1  0  0  0  0
  5  6  1  1  0  0  0
  5  7  1  0  0  0  0
  7  8  1  6  0  0  0
  7  9  1  0  0  0  0
  9  4  1  1  0  0  0
  9 20  1  0  0  0  0
 10 11  1  0  0  0  0
 11 12  1  1  0  0  0
 11 13  1  0  0  0  0
 14 13  1  6  0  0  0
 15 14  1  0  0  0  0
 15 16  1  6  0  0  0
 16 10  1  0  0  0  0
 16 17  2  0  0  0  0
 18 15  1  0  0  0  0
 19 18  1  0  0  0  0
 20 14  1  0  0  0  0
 20 19  1  6  0  0  0
M  END
>  <CHROM.1>
174.91997679,-137.33136051,23.06116169,-5.46598413,42.89808060,1.36945119
-0.50906888,2.33310909

>  <Name>
1nyi_lig

>  <RI>
0

>  <Rbt.Current_Directory>
/home/itssahil/PROJECTS/Mol_Feturizer/New_Systems/rnas/1nyi

>  <Rbt.Executable>
rbdock ($Id: //depot/dev/client3/rdock/2013.1/src/exe/rbdock.cxx#4 $)

>  <Rbt.Library>
libRbt.so (2013.1, Build901 2013/11/27)

>  <Rbt.Parameter_File>
/export/apps/rDock/src/rDock_2013.1_src/data/scripts/dock_solv.prm

>  <Rbt.Receptor>
prm/pocket_docking_6.prm

>  <SCORE>
-9.18188

>  <SCORE.INTER>
-7.2265

>  <SCORE.INTER.CONST>
1

>  <SCORE.INTER.POLAR>
-0.747528

>  <SCORE.INTER.ROT>
2

>  <SCORE.INTER.SOLV>
7.83922

>  <SCORE.INTER.VDW>
-9.87231

>  <SCORE.INTER.norm>
-0.361325

>  <SCORE.INTRA>
-1.95538

>  <SCORE.INTRA.DIHEDRAL>
-2.34343

>  <SCORE.INTRA.DIHEDRAL.0>
3.72394

>  <SCORE.INTRA.POLAR>
0

>  <SCORE.INTRA.POLAR.0>
0

>  <SCORE.INTRA.REPUL>
0

>  <SCORE.INTRA.REPUL.0>
0

>  <SCORE.INTRA.SOLV>
-0.667989

>  <SCORE.INTRA.SOLV.lig_0>
-49.4697

>  <SCORE.INTRA.VDW>
-0.449672

>  <SCORE.INTRA.VDW.0>
-0.896538

>  <SCORE.INTRA.norm>
-0.097769

>  <SCORE.RESTR>
0

>  <SCORE.RESTR.CAVITY>
0

>  <SCORE.RESTR.norm>
0

>  <SCORE.SYSTEM>
0

>  <SCORE.SYSTEM.CONST>
0

>  <SCORE.SYSTEM.DIHEDRAL>
0

>  <SCORE.SYSTEM.SOLV>
0

>  <SCORE.SYSTEM.norm>
0

>  <SCORE.heavy>
20

>  <SCORE.norm>
-0.459094

>  <RMSD>
6.141

$$$$
1nyi_lig
 OpenBabel11021811403D
libRbt.so/2013.1/901 2013/11/27
 20 22  0  0  0  0  0  0  0  0999 V2000
   22.1012   -7.5573   45.7659 C   0  0  0  0  0  0  0  0  0  0  0  0
   22.4338   -7.9440   47.0992 O   0  0  0  0  0  0  0  0  0  0  0  0
   23.1124   -8.0979   44.7793 C   0  0  1  0  0  0  0  0  0  0  0  0
   22.6957   -7.7401   43.4337 O   0  0  0  0  0  0  0  0  0  0  0  0
   24.4956   -7.4836   44.9639 C   0  0  1  0  0  0  0  0  0  0  0  0
   25.2926   -8.2492   45.8688 O   0  0  0  0  0  0  0  0  0  0  0  0
   25.0362   -7.4692   43.5355 C   0  0  1  0  0  0  0  0  0  0  0  0
   25.5229   -8.7333   43.1105 O   0  0  0  0  0  0  0  0  0  0  0  0
   23.7737   -7.1037   42.7580 C   0  0  2  0  0  0  0  0  0  0  0  0
   20.7462   -3.6415   40.4479 N   0  0  0  0  0  0  0  0  0  0  0  0
   20.7059   -5.0134   40.3899 C   0  0  1  0  0  0  0  0  0  0  0  0
   19.7425   -5.5274   39.6238 N   0  0  0  0  0  0  0  0  0  0  0  0
   21.5477   -5.8190   41.0310 N   0  0  0  0  0  0  0  0  0  0  0  0
   22.4751   -5.1278   41.7559 C   0  0  1  0  0  0  0  0  0  0  0  0
   22.5969   -3.7547   41.8769 C   0  0  1  0  0  0  0  0  0  0  0  0
   21.6775   -2.9146   41.1891 C   0  0  0  0  0  0  0  0  0  0  0  0
   21.6238   -1.6782   41.1759 O   0  0  0  0  0  0  0  0  0  0  0  0
   23.6551   -3.4309   42.7162 N   0  0  0  0  0  0  0  0  0  0  0  0
   24.1495   -4.5835   43.0753 C   0  0  0  0  0  0  0  0  0  0  0  0
   23.4954   -5.6668   42.5305 N   0  0  1  0  0  0  0  0  0  0  0  0
  2  1  1  0  0  0  0
  3  1  1  1  0  0  0
  3  4  1  0  0  0  0
  3  5  1  0  0  0  0
  5  6  1  1  0  0  0
  5  7  1  0  0  0  0
  7  8  1  6  0  0  0
  7  9  1  0  0  0  0
  9  4  1  1  0  0  0
  9 20  1  0  0  0  0
 10 11  1  0  0  0  0
 11 12  1  6  0  0  0
 11 13  1  0  0  0  0
 14 13  1  1  0  0  0
 15 14  1  0  0  0  0
 15 16  1  1  0  0  0
 16 10  1  0  0  0  0
 16 17  2  0  0  0  0
 18 15  1  0  0  0  0
 19 18  1  0  0  0  0
 20 14  1  0  0  0  0
 20 19  1  1  0  0  0
M  END
>  <CHROM.1>
177.02930477,-63.13695798,22.86799622,-5.92279543,42.91359442,1.06683667
0.57179273,2.65000742

>  <Name>
1nyi_lig

>  <RI>
0

>  <Rbt.Current_Directory>
/home/itssahil/PROJECTS/Mol_Feturizer/New_Systems/rnas/1nyi

>  <Rbt.Executable>
rbdock ($Id: //depot/dev/client3/rdock/2013.1/src/exe/rbdock.cxx#4 $)

>  <Rbt.Library>
libRbt.so (2013.1, Build901 2013/11/27)

>  <Rbt.Parameter_File>
/export/apps/rDock/src/rDock_2013.1_src/data/scripts/dock_solv.prm

>  <Rbt.Receptor>
prm/pocket_docking_5.prm

>  <SCORE>
-9.4338

>  <SCORE.INTER>
-7.77278

>  <SCORE.INTER.CONST>
1

>  <SCORE.INTER.POLAR>
-0.748331

>  <SCORE.INTER.ROT>
2

>  <SCORE.INTER.SOLV>
7.95805

>  <SCORE.INTER.VDW>
-10.2734

>  <SCORE.INTER.norm>
-0.388639

>  <SCORE.INTRA>
-1.66102

>  <SCORE.INTRA.DIHEDRAL>
-2.49408

>  <SCORE.INTRA.DIHEDRAL.0>
3.72394

>  <SCORE.INTRA.POLAR>
0

>  <SCORE.INTRA.POLAR.0>
0

>  <SCORE.INTRA.REPUL>
0.00125981

>  <SCORE.INTRA.REPUL.0>
0

>  <SCORE.INTRA.SOLV>
-0.46896

>  <SCORE.INTRA.SOLV.lig_0>
-49.4697

>  <SCORE.INTRA.VDW>
-0.185803

>  <SCORE.INTRA.VDW.0>
-0.896538

>  <SCORE.INTRA.norm>
-0.0830512

>  <SCORE.RESTR>
0

>  <SCORE.RESTR.CAVITY>
0

>  <SCORE.RESTR.norm>
0

>  <SCORE.SYSTEM>
0

>  <SCORE.SYSTEM.CONST>
0

>  <SCORE.SYSTEM.DIHEDRAL>
0

>  <SCORE.SYSTEM.SOLV>
0

>  <SCORE.SYSTEM.norm>
0

>  <SCORE.heavy>
20

>  <SCORE.norm>
-0.47169

>  <RMSD>
6.153

$$$$
1nyi_lig
 OpenBabel11021811403D
libRbt.so/2013.1/901 2013/11/27
 20 22  0  0  0  0  0  0  0  0999 V2000
   23.0036   -7.9791   45.2747 C   0  0  0  0  0  0  0  0  0  0  0  0
   22.2329   -9.0977   44.8354 O   0  0  0  0  0  0  0  0  0  0  0  0
   22.7858   -6.7858   44.3711 C   0  0  1  0  0  0  0  0  0  0  0  0
   23.5363   -5.6561   44.8935 O   0  0  0  0  0  0  0  0  0  0  0  0
   23.3119   -7.0179   42.9591 C   0  0  1  0  0  0  0  0  0  0  0  0
   22.3060   -7.5709   42.1091 O   0  0  0  0  0  0  0  0  0  0  0  0
   23.7583   -5.6169   42.5460 C   0  0  1  0  0  0  0  0  0  0  0  0
   22.6819   -4.7863   42.1371 O   0  0  0  0  0  0  0  0  0  0  0  0
   24.3455   -5.1071   43.8603 C   0  0  2  0  0  0  0  0  0  0  0  0
   29.1157   -3.1848   43.6615 N   0  0  0  0  0  0  0  0  0  0  0  0
   27.9277   -2.6150   43.2724 C   0  0  1  0  0  0  0  0  0  0  0  0
   28.0198   -1.3834   42.7687 N   0  0  0  0  0  0  0  0  0  0  0  0
   26.7415   -3.2089   43.3666 N   0  0  0  0  0  0  0  0  0  0  0  0
   26.8321   -4.4663   43.8901 C   0  0  1  0  0  0  0  0  0  0  0  0
   27.9752   -5.1237   44.3094 C   0  0  1  0  0  0  0  0  0  0  0  0
   29.2310   -4.4628   44.2077 C   0  0  0  0  0  0  0  0  0  0  0  0
   30.3507   -4.8808   44.5290 O   0  0  0  0  0  0  0  0  0  0  0  0
   27.6608   -6.3848   44.7992 N   0  0  0  0  0  0  0  0  0  0  0  0
   26.3660   -6.4719   44.6653 C   0  0  0  0  0  0  0  0  0  0  0  0
   25.7843   -5.3514   44.1137 N   0  0  1  0  0  0  0  0  0  0  0  0
  2  1  1  0  0  0  0
  3  1  1  1  0  0  0
  3  4  1  0  0  0  0
  3  5  1  0  0  0  0
  5  6  1  6  0  0  0
  5  7  1  0  0  0  0
  7  8  1  1  0  0  0
  7  9  1  0  0  0  0
  9  4  1  1  0  0  0
  9 20  1  0  0  0  0
 10 11  1  0  0  0  0
 11 12  1  6  0  0  0
 11 13  1  0  0  0  0
 14 13  1  1  0  0  0
 15 14  1  0  0  0  0
 15 16  1  1  0  0  0
 16 10  1  0  0  0  0
 16 17  2  0  0  0  0
 18 15  1  0  0  0  0
 19 18  1  0  0  0  0
 20 14  1  0  0  0  0
 20 19  1  1  0  0  0
M  END
>  <CHROM.1>
177.22555523,-140.25116110,25.63117873,-5.40377768,43.82702691,-2.67697752
-0.30174480,-0.52557446

>  <Name>
1nyi_lig

>  <RI>
0

>  <Rbt.Current_Directory>
/home/itssahil/PROJECTS/Mol_Feturizer/New_Systems/rnas/1nyi

>  <Rbt.Executable>
rbdock ($Id: //depot/dev/client3/rdock/2013.1/src/exe/rbdock.cxx#4 $)

>  <Rbt.Library>
libRbt.so (2013.1, Build901 2013/11/27)

>  <Rbt.Parameter_File>
/export/apps/rDock/src/rDock_2013.1_src/data/scripts/dock_solv.prm

>  <Rbt.Receptor>
prm/pocket_docking_3.prm

>  <SCORE>
-8.17315

>  <SCORE.INTER>
-6.22016

>  <SCORE.INTER.CONST>
1

>  <SCORE.INTER.POLAR>
-0.742202

>  <SCORE.INTER.ROT>
2

>  <SCORE.INTER.SOLV>
12.7414

>  <SCORE.INTER.VDW>
-10.8532

>  <SCORE.INTER.norm>
-0.311008

>  <SCORE.INTRA>
-1.95299

>  <SCORE.INTRA.DIHEDRAL>
-2.39925

>  <SCORE.INTRA.DIHEDRAL.0>
3.72394

>  <SCORE.INTRA.POLAR>
0

>  <SCORE.INTRA.POLAR.0>
0

>  <SCORE.INTRA.REPUL>
0

>  <SCORE.INTRA.REPUL.0>
0

>  <SCORE.INTRA.SOLV>
-0.65198

>  <SCORE.INTRA.SOLV.lig_0>
-49.4697

>  <SCORE.INTRA.VDW>
-0.427375

>  <SCORE.INTRA.VDW.0>
-0.896538

>  <SCORE.INTRA.norm>
-0.0976496

>  <SCORE.RESTR>
0

>  <SCORE.RESTR.CAVITY>
0

>  <SCORE.RESTR.norm>
0

>  <SCORE.SYSTEM>
0

>  <SCORE.SYSTEM.CONST>
0

>  <SCORE.SYSTEM.DIHEDRAL>
0

>  <SCORE.SYSTEM.SOLV>
0

>  <SCORE.SYSTEM.norm>
0

>  <SCORE.heavy>
20

>  <SCORE.norm>
-0.408658

>  <RMSD>
6.162

$$$$
1nyi_lig
 OpenBabel11021811403D
libRbt.so/2013.1/901 2013/11/27
 20 22  0  0  0  0  0  0  0  0999 V2000
   22.1036   -7.5842   45.7883 C   0  0  0  0  0  0  0  0  0  0  0  0
   20.8171   -8.1676   45.5819 O   0  0  0  0  0  0  0  0  0  0  0  0
   23.1043   -8.1166   44.7866 C   0  0  1  0  0  0  0  0  0  0  0  0
   22.6693   -7.7543   43.4481 O   0  0  0  0  0  0  0  0  0  0  0  0
   24.4874   -7.4978   44.9566 C   0  0  1  0  0  0  0  0  0  0  0  0
   25.2987   -8.2643   45.8479 O   0  0  0  0  0  0  0  0  0  0  0  0
   25.0098   -7.4749   43.5216 C   0  0  1  0  0  0  0  0  0  0  0  0
   25.4960   -8.7351   43.0847 O   0  0  0  0  0  0  0  0  0  0  0  0
   23.7363   -7.1106   42.7617 C   0  0  2  0  0  0  0  0  0  0  0  0
   20.7656   -3.6494   40.3777 N   0  0  0  0  0  0  0  0  0  0  0  0
   20.7451   -5.0206   40.2974 C   0  0  1  0  0  0  0  0  0  0  0  0
   19.8215   -5.5341   39.4834 N   0  0  0  0  0  0  0  0  0  0  0  0
   21.5692   -5.8259   40.9614 N   0  0  0  0  0  0  0  0  0  0  0  0
   22.4563   -5.1351   41.7354 C   0  0  1  0  0  0  0  0  0  0  0  0
   22.5556   -3.7627   41.8821 C   0  0  1  0  0  0  0  0  0  0  0  0
   21.6554   -2.9230   41.1687 C   0  0  0  0  0  0  0  0  0  0  0  0
   21.5868   -1.6873   41.1718 O   0  0  0  0  0  0  0  0  0  0  0  0
   23.5731   -3.4394   42.7704 N   0  0  0  0  0  0  0  0  0  0  0  0
   24.0665   -4.5914   43.1327 C   0  0  0  0  0  0  0  0  0  0  0  0
   23.4497   -5.6738   42.5444 N   0  0  1  0  0  0  0  0  0  0  0  0
  2  1  1  0  0  0  0
  3  1  1  1  0  0  0
  3  4  1  0  0  0  0
  3  5  1  0  0  0  0
  5  6  1  1  0  0  0
  5  7  1  0  0  0  0
  7  8  1  6  0  0  0
  7  9  1  0  0  0  0
  9  4  1  1  0  0  0
  9 20  1  0  0  0  0
 10 11  1  0  0  0  0
 11 12  1  6  0  0  0
 11 13  1  0  0  0  0
 14 13  1  1  0  0  0
 15 14  1  0  0  0  0
 15 16  1  1  0  0  0
 16 10  1  0  0  0  0
 16 17  2  0  0  0  0
 18 15  1  0  0  0  0
 19 18  1  0  0  0  0
 20 14  1  0  0  0  0
 20 19  1  1  0  0  0
M  END
>  <CHROM.1>
61.87242015,-66.38290782,22.76120194,-5.94487626,42.81227893,1.12326657,0.36256926
2.57236098

>  <Name>
1nyi_lig

>  <RI>
0

>  <Rbt.Current_Directory>
/home/itssahil/PROJECTS/Mol_Feturizer/New_Systems/rnas/1nyi

>  <Rbt.Executable>
rbdock ($Id: //depot/dev/client3/rdock/2013.1/src/exe/rbdock.cxx#4 $)

>  <Rbt.Library>
libRbt.so (2013.1, Build901 2013/11/27)

>  <Rbt.Parameter_File>
/export/apps/rDock/src/rDock_2013.1_src/data/scripts/dock_solv.prm

>  <Rbt.Receptor>
prm/pocket_docking_5.prm

>  <SCORE>
-9.59159

>  <SCORE.INTER>
-7.79273

>  <SCORE.INTER.CONST>
1

>  <SCORE.INTER.POLAR>
-0.748331

>  <SCORE.INTER.ROT>
2

>  <SCORE.INTER.SOLV>
8.1323

>  <SCORE.INTER.VDW>
-10.3448

>  <SCORE.INTER.norm>
-0.389636

>  <SCORE.INTRA>
-1.79886

>  <SCORE.INTRA.DIHEDRAL>
-2.52239

>  <SCORE.INTRA.DIHEDRAL.0>
3.72394

>  <SCORE.INTRA.POLAR>
0

>  <SCORE.INTRA.POLAR.0>
0

>  <SCORE.INTRA.REPUL>
0

>  <SCORE.INTRA.REPUL.0>
0

>  <SCORE.INTRA.SOLV>
-0.711997

>  <SCORE.INTRA.SOLV.lig_0>
-49.4697

>  <SCORE.INTRA.VDW>
-0.181673

>  <SCORE.INTRA.VDW.0>
-0.896538

>  <SCORE.INTRA.norm>
-0.0899432

>  <SCORE.RESTR>
0

>  <SCORE.RESTR.CAVITY>
0

>  <SCORE.RESTR.norm>
0

>  <SCORE.SYSTEM>
0

>  <SCORE.SYSTEM.CONST>
0

>  <SCORE.SYSTEM.DIHEDRAL>
0

>  <SCORE.SYSTEM.SOLV>
0

>  <SCORE.SYSTEM.norm>
0

>  <SCORE.heavy>
20

>  <SCORE.norm>
-0.47958

>  <RMSD>
6.186

$$$$
1nyi_lig
 OpenBabel11021811403D
libRbt.so/2013.1/901 2013/11/27
 20 22  0  0  0  0  0  0  0  0999 V2000
   20.0734   -6.2989   41.4460 C   0  0  0  0  0  0  0  0  0  0  0  0
   19.9978   -7.2451   40.3796 O   0  0  0  0  0  0  0  0  0  0  0  0
   20.5922   -6.9499   42.7090 C   0  0  1  0  0  0  0  0  0  0  0  0
   22.0135   -7.2111   42.5547 O   0  0  0  0  0  0  0  0  0  0  0  0
   20.4655   -6.0435   43.9284 C   0  0  1  0  0  0  0  0  0  0  0  0
   19.2194   -6.2381   44.5990 O   0  0  0  0  0  0  0  0  0  0  0  0
   21.6783   -6.4519   44.7621 C   0  0  1  0  0  0  0  0  0  0  0  0
   21.4772   -7.6559   45.4871 O   0  0  0  0  0  0  0  0  0  0  0  0
   22.7179   -6.6668   43.6644 C   0  0  2  0  0  0  0  0  0  0  0  0
   27.2875   -4.3295   44.0452 N   0  0  0  0  0  0  0  0  0  0  0  0
   26.8433   -5.4818   44.6469 C   0  0  1  0  0  0  0  0  0  0  0  0
   27.7219   -6.0863   45.4480 N   0  0  0  0  0  0  0  0  0  0  0  0
   25.6297   -5.9992   44.4788 N   0  0  0  0  0  0  0  0  0  0  0  0
   24.8582   -5.2480   43.6399 C   0  0  1  0  0  0  0  0  0  0  0  0
   25.2133   -4.0796   42.9891 C   0  0  1  0  0  0  0  0  0  0  0  0
   26.5211   -3.5519   43.1774 C   0  0  0  0  0  0  0  0  0  0  0  0
   27.0192   -2.5315   42.6851 O   0  0  0  0  0  0  0  0  0  0  0  0
   24.1618   -3.6172   42.2083 N   0  0  0  0  0  0  0  0  0  0  0  0
   23.2082   -4.4867   42.3995 C   0  0  0  0  0  0  0  0  0  0  0  0
   23.5461   -5.5066   43.2619 N   0  0  1  0  0  0  0  0  0  0  0  0
  2  1  1  0  0  0  0
  3  1  1  6  0  0  0
  3  4  1  0  0  0  0
  3  5  1  0  0  0  0
  5  6  1  1  0  0  0
  5  7  1  0  0  0  0
  7  8  1  6  0  0  0
  7  9  1  0  0  0  0
  9  4  1  6  0  0  0
  9 20  1  0  0  0  0
 10 11  1  0  0  0  0
 11 12  1  1  0  0  0
 11 13  1  0  0  0  0
 14 13  1  6  0  0  0
 15 14  1  0  0  0  0
 15 16  1  6  0  0  0
 16 10  1  0  0  0  0
 16 17  2  0  0  0  0
 18 15  1  0  0  0  0
 19 18  1  0  0  0  0
 20 14  1  0  0  0  0
 20 19  1  6  0  0  0
M  END
>  <CHROM.1>
72.73974554,-135.57862804,23.44291981,-5.61290683,43.40869464,3.05312943
0.37440063,2.15176763

>  <Name>
1nyi_lig

>  <RI>
0

>  <Rbt.Current_Directory>
/home/itssahil/PROJECTS/Mol_Feturizer/New_Systems/rnas/1nyi

>  <Rbt.Executable>
rbdock ($Id: //depot/dev/client3/rdock/2013.1/src/exe/rbdock.cxx#4 $)

>  <Rbt.Library>
libRbt.so (2013.1, Build901 2013/11/27)

>  <Rbt.Parameter_File>
/export/apps/rDock/src/rDock_2013.1_src/data/scripts/dock_solv.prm

>  <Rbt.Receptor>
prm/pocket_docking_4.prm

>  <SCORE>
-6.49557

>  <SCORE.INTER>
-4.79627

>  <SCORE.INTER.CONST>
1

>  <SCORE.INTER.POLAR>
-0.870674

>  <SCORE.INTER.ROT>
2

>  <SCORE.INTER.SOLV>
7.56886

>  <SCORE.INTER.VDW>
-7.75155

>  <SCORE.INTER.norm>
-0.239813

>  <SCORE.INTRA>
-1.8504

>  <SCORE.INTRA.DIHEDRAL>
-1.86267

>  <SCORE.INTRA.DIHEDRAL.0>
3.72394

>  <SCORE.INTRA.POLAR>
0

>  <SCORE.INTRA.POLAR.0>
0

>  <SCORE.INTRA.REPUL>
0

>  <SCORE.INTRA.REPUL.0>
0

>  <SCORE.INTRA.SOLV>
-0.921419

>  <SCORE.INTRA.SOLV.lig_0>
-49.4697

>  <SCORE.INTRA.VDW>
-0.458362

>  <SCORE.INTRA.VDW.0>
-0.896538

>  <SCORE.INTRA.norm>
-0.0925202

>  <SCORE.RESTR>
0.151105

>  <SCORE.RESTR.CAVITY>
0.151105

>  <SCORE.RESTR.norm>
0.00755523

>  <SCORE.SYSTEM>
0

>  <SCORE.SYSTEM.CONST>
0

>  <SCORE.SYSTEM.DIHEDRAL>
0

>  <SCORE.SYSTEM.SOLV>
0

>  <SCORE.SYSTEM.norm>
0

>  <SCORE.heavy>
20

>  <SCORE.norm>
-0.324778

>  <RMSD>
6.199

$$$$
1nyi_lig
 OpenBabel11021811403D
libRbt.so/2013.1/901 2013/11/27
 20 22  0  0  0  0  0  0  0  0999 V2000
   22.2426   -7.7001   45.9948 C   0  0  0  0  0  0  0  0  0  0  0  0
   21.0549   -8.4911   45.9539 O   0  0  0  0  0  0  0  0  0  0  0  0
   23.2857   -8.2436   45.0437 C   0  0  1  0  0  0  0  0  0  0  0  0
   22.7573   -8.2009   43.6905 O   0  0  0  0  0  0  0  0  0  0  0  0
   24.5543   -7.3983   45.0221 C   0  0  1  0  0  0  0  0  0  0  0  0
   25.5060   -7.8564   45.9837 O   0  0  0  0  0  0  0  0  0  0  0  0
   25.0224   -7.5547   43.5767 C   0  0  1  0  0  0  0  0  0  0  0  0
   25.6934   -8.7827   43.3374 O   0  0  0  0  0  0  0  0  0  0  0  0
   23.6842   -7.5350   42.8413 C   0  0  2  0  0  0  0  0  0  0  0  0
   20.1033   -5.0618   40.0936 N   0  0  0  0  0  0  0  0  0  0  0  0
   20.3009   -6.4115   40.2569 C   0  0  1  0  0  0  0  0  0  0  0  0
   19.4409   -7.1997   39.6102 N   0  0  0  0  0  0  0  0  0  0  0  0
   21.2694   -6.9467   40.9946 N   0  0  0  0  0  0  0  0  0  0  0  0
   22.0633   -5.9990   41.5733 C   0  0  1  0  0  0  0  0  0  0  0  0
   21.9458   -4.6241   41.4697 C   0  0  1  0  0  0  0  0  0  0  0  0
   20.8948   -4.0761   40.6827 C   0  0  0  0  0  0  0  0  0  0  0  0
   20.6281   -2.8859   40.4735 O   0  0  0  0  0  0  0  0  0  0  0  0
   22.9321   -3.9926   42.2164 N   0  0  0  0  0  0  0  0  0  0  0  0
   23.6184   -4.9701   42.7410 C   0  0  0  0  0  0  0  0  0  0  0  0
   23.1615   -6.2229   42.3950 N   0  0  1  0  0  0  0  0  0  0  0  0
  2  1  1  0  0  0  0
  3  1  1  1  0  0  0
  3  4  1  0  0  0  0
  3  5  1  0  0  0  0
  5  6  1  1  0  0  0
  5  7  1  0  0  0  0
  7  8  1  1  0  0  0
  7  9  1  0  0  0  0
  9  4  1  1  0  0  0
  9 20  1  0  0  0  0
 10 11  1  0  0  0  0
 11 12  1  6  0  0  0
 11 13  1  0  0  0  0
 14 13  1  1  0  0  0
 15 14  1  0  0  0  0
 15 16  1  1  0  0  0
 16 10  1  0  0  0  0
 16 17  2  0  0  0  0
 18 15  1  0  0  0  0
 19 18  1  0  0  0  0
 20 14  1  0  0  0  0
 20 19  1  1  0  0  0
M  END
>  <CHROM.1>
61.00115851,-65.82671101,22.52985351,-6.54318977,42.75109090,0.95250173,0.41272548
2.45670266

>  <Name>
1nyi_lig

>  <RI>
0

>  <Rbt.Current_Directory>
/home/itssahil/PROJECTS/Mol_Feturizer/New_Systems/rnas/1nyi

>  <Rbt.Executable>
rbdock ($Id: //depot/dev/client3/rdock/2013.1/src/exe/rbdock.cxx#4 $)

>  <Rbt.Library>
libRbt.so (2013.1, Build901 2013/11/27)

>  <Rbt.Parameter_File>
/export/apps/rDock/src/rDock_2013.1_src/data/scripts/dock_solv.prm

>  <Rbt.Receptor>
prm/pocket_docking_5.prm

>  <SCORE>
-10.2552

>  <SCORE.INTER>
-8.45944

>  <SCORE.INTER.CONST>
1

>  <SCORE.INTER.POLAR>
-1.1839

>  <SCORE.INTER.ROT>
2

>  <SCORE.INTER.SOLV>
9.69681

>  <SCORE.INTER.VDW>
-9.8589

>  <SCORE.INTER.norm>
-0.422972

>  <SCORE.INTRA>
-1.79591

>  <SCORE.INTRA.DIHEDRAL>
-2.52987

>  <SCORE.INTRA.DIHEDRAL.0>
3.72394

>  <SCORE.INTRA.POLAR>
0

>  <SCORE.INTRA.POLAR.0>
0

>  <SCORE.INTRA.REPUL>
0

>  <SCORE.INTRA.REPUL.0>
0

>  <SCORE.INTRA.SOLV>
-0.70582

>  <SCORE.INTRA.SOLV.lig_0>
-49.4697

>  <SCORE.INTRA.VDW>
-0.178063

>  <SCORE.INTRA.VDW.0>
-0.896538

>  <SCORE.INTRA.norm>
-0.0897955

>  <SCORE.RESTR>
0.000118334

>  <SCORE.RESTR.CAVITY>
0.000118334

>  <SCORE.RESTR.norm>
5.91671e-06

>  <SCORE.SYSTEM>
0

>  <SCORE.SYSTEM.CONST>
0

>  <SCORE.SYSTEM.DIHEDRAL>
0

>  <SCORE.SYSTEM.SOLV>
0

>  <SCORE.SYSTEM.norm>
0

>  <SCORE.heavy>
20

>  <SCORE.norm>
-0.512761

>  <RMSD>
6.199

$$$$
1nyi_lig
 OpenBabel11021811403D
libRbt.so/2013.1/901 2013/11/27
 20 22  0  0  0  0  0  0  0  0999 V2000
   20.3533   -1.6354   41.6198 C   0  0  0  0  0  0  0  0  0  0  0  0
   19.5504   -2.7831   41.8960 O   0  0  0  0  0  0  0  0  0  0  0  0
   21.6768   -2.0376   41.0077 C   0  0  1  0  0  0  0  0  0  0  0  0
   22.3511   -2.9590   41.9069 O   0  0  0  0  0  0  0  0  0  0  0  0
   21.5081   -2.7889   39.6917 C   0  0  1  0  0  0  0  0  0  0  0  0
   21.5098   -1.8977   38.5754 O   0  0  0  0  0  0  0  0  0  0  0  0
   22.6980   -3.7462   39.7111 C   0  0  1  0  0  0  0  0  0  0  0  0
   23.9194   -3.1257   39.3384 O   0  0  0  0  0  0  0  0  0  0  0  0
   22.7317   -4.1270   41.1896 C   0  0  2  0  0  0  0  0  0  0  0  0
   18.9051   -7.3667   40.0275 N   0  0  0  0  0  0  0  0  0  0  0  0
   19.3677   -6.2763   39.3316 C   0  0  1  0  0  0  0  0  0  0  0  0
   18.7351   -6.0156   38.1866 N   0  0  0  0  0  0  0  0  0  0  0  0
   20.3709   -5.4994   39.7299 N   0  0  0  0  0  0  0  0  0  0  0  0
   20.8938   -5.9008   40.9251 C   0  0  1  0  0  0  0  0  0  0  0  0
   20.4991   -6.9790   41.6975 C   0  0  1  0  0  0  0  0  0  0  0  0
   19.4299   -7.8011   41.2445 C   0  0  0  0  0  0  0  0  0  0  0  0
   18.9412   -8.7998   41.7880 O   0  0  0  0  0  0  0  0  0  0  0  0
   21.2834   -7.0739   42.8398 N   0  0  0  0  0  0  0  0  0  0  0  0
   22.1146   -6.0727   42.7473 C   0  0  0  0  0  0  0  0  0  0  0  0
   21.9414   -5.3046   41.6168 N   0  0  1  0  0  0  0  0  0  0  0  0
  2  1  1  0  0  0  0
  3  1  1  1  0  0  0
  3  4  1  0  0  0  0
  3  5  1  0  0  0  0
  5  6  1  6  0  0  0
  5  7  1  0  0  0  0
  7  8  1  1  0  0  0
  7  9  1  0  0  0  0
  9  4  1  1  0  0  0
  9 20  1  0  0  0  0
 10 11  1  0  0  0  0
 11 12  1  1  0  0  0
 11 13  1  0  0  0  0
 14 13  1  6  0  0  0
 15 14  1  0  0  0  0
 15 16  1  6  0  0  0
 16 10  1  0  0  0  0
 16 17  2  0  0  0  0
 18 15  1  0  0  0  0
 19 18  1  0  0  0  0
 20 14  1  0  0  0  0
 20 19  1  6  0  0  0
M  END
>  <CHROM.1>
-56.79444099,104.20702795,20.95111673,-4.86236156,40.75446183,-0.88496705
0.82404400,2.45236350

>  <Name>
1nyi_lig

>  <RI>
0

>  <Rbt.Current_Directory>
/home/itssahil/PROJECTS/Mol_Feturizer/New_Systems/rnas/1nyi

>  <Rbt.Executable>
rbdock ($Id: //depot/dev/client3/rdock/2013.1/src/exe/rbdock.cxx#4 $)

>  <Rbt.Library>
libRbt.so (2013.1, Build901 2013/11/27)

>  <Rbt.Parameter_File>
/export/apps/rDock/src/rDock_2013.1_src/data/scripts/dock_solv.prm

>  <Rbt.Receptor>
prm/pocket_docking_7.prm

>  <SCORE>
-8.07757

>  <SCORE.INTER>
-6.67982

>  <SCORE.INTER.CONST>
1

>  <SCORE.INTER.POLAR>
-0.90706

>  <SCORE.INTER.ROT>
2

>  <SCORE.INTER.SOLV>
6.61235

>  <SCORE.INTER.VDW>
-8.56713

>  <SCORE.INTER.norm>
-0.333991

>  <SCORE.INTRA>
-1.39775

>  <SCORE.INTRA.DIHEDRAL>
-2.39489

>  <SCORE.INTRA.DIHEDRAL.0>
3.72394

>  <SCORE.INTRA.POLAR>
0

>  <SCORE.INTRA.POLAR.0>
0

>  <SCORE.INTRA.REPUL>
0

>  <SCORE.INTRA.REPUL.0>
0

>  <SCORE.INTRA.SOLV>
1.51136

>  <SCORE.INTRA.SOLV.lig_0>
-49.4697

>  <SCORE.INTRA.VDW>
-0.955986

>  <SCORE.INTRA.VDW.0>
-0.896538

>  <SCORE.INTRA.norm>
-0.0698875

>  <SCORE.RESTR>
0

>  <SCORE.RESTR.CAVITY>
0

>  <SCORE.RESTR.norm>
0

>  <SCORE.SYSTEM>
0

>  <SCORE.SYSTEM.CONST>
0

>  <SCORE.SYSTEM.DIHEDRAL>
0

>  <SCORE.SYSTEM.SOLV>
0

>  <SCORE.SYSTEM.norm>
0

>  <SCORE.heavy>
20

>  <SCORE.norm>
-0.403878

>  <RMSD>
6.214

$$$$
1nyi_lig
 OpenBabel11021811403D
libRbt.so/2013.1/901 2013/11/27
 20 22  0  0  0  0  0  0  0  0999 V2000
   25.5739   -6.4970   43.8546 C   0  0  0  0  0  0  0  0  0  0  0  0
   25.6484   -7.8980   44.1182 O   0  0  0  0  0  0  0  0  0  0  0  0
   24.1354   -6.0303   43.8207 C   0  0  1  0  0  0  0  0  0  0  0  0
   24.1099   -4.6007   43.5601 O   0  0  0  0  0  0  0  0  0  0  0  0
   23.3384   -6.6735   42.6913 C   0  0  1  0  0  0  0  0  0  0  0  0
   22.7086   -7.8829   43.1169 O   0  0  0  0  0  0  0  0  0  0  0  0
   22.3516   -5.5680   42.3217 C   0  0  1  0  0  0  0  0  0  0  0  0
   21.2492   -5.4835   43.2123 O   0  0  0  0  0  0  0  0  0  0  0  0
   23.2400   -4.3344   42.4665 C   0  0  2  0  0  0  0  0  0  0  0  0
   23.5086   -4.3089   37.3268 N   0  0  0  0  0  0  0  0  0  0  0  0
   22.5933   -4.9182   38.1503 C   0  0  1  0  0  0  0  0  0  0  0  0
   21.6318   -5.6048   37.5311 N   0  0  0  0  0  0  0  0  0  0  0  0
   22.6210   -4.8616   39.4788 N   0  0  0  0  0  0  0  0  0  0  0  0
   23.6758   -4.1307   39.9440 C   0  0  1  0  0  0  0  0  0  0  0  0
   24.6451   -3.4825   39.1990 C   0  0  1  0  0  0  0  0  0  0  0  0
   24.5875   -3.5497   37.7790 C   0  0  0  0  0  0  0  0  0  0  0  0
   25.3530   -3.0395   36.9511 O   0  0  0  0  0  0  0  0  0  0  0  0
   25.5449   -2.8297   40.0317 N   0  0  0  0  0  0  0  0  0  0  0  0
   25.1214   -3.0924   41.2373 C   0  0  0  0  0  0  0  0  0  0  0  0
   23.9941   -3.8835   41.2740 N   0  0  1  0  0  0  0  0  0  0  0  0
  2  1  1  0  0  0  0
  3  1  1  6  0  0  0
  3  4  1  0  0  0  0
  3  5  1  0  0  0  0
  5  6  1  1  0  0  0
  5  7  1  0  0  0  0
  7  8  1  1  0  0  0
  7  9  1  0  0  0  0
  9  4  1  1  0  0  0
  9 20  1  0  0  0  0
 10 11  1  0  0  0  0
 11 12  1  1  0  0  0
 11 13  1  0  0  0  0
 14 13  1  6  0  0  0
 15 14  1  0  0  0  0
 15 16  1  6  0  0  0
 16 10  1  0  0  0  0
 16 17  2  0  0  0  0
 18 15  1  0  0  0  0
 19 18  1  0  0  0  0
 20 14  1  0  0  0  0
 20 19  1  6  0  0  0
M  END
>  <CHROM.1>
179.57528054,146.85155701,23.78600294,-4.97120222,40.96336497,-1.59221328
-0.54277565,-1.13563944

>  <Name>
1nyi_lig

>  <RI>
0

>  <Rbt.Current_Directory>
/home/itssahil/PROJECTS/Mol_Feturizer/New_Systems/rnas/1nyi

>  <Rbt.Executable>
rbdock ($Id: //depot/dev/client3/rdock/2013.1/src/exe/rbdock.cxx#4 $)

>  <Rbt.Library>
libRbt.so (2013.1, Build901 2013/11/27)

>  <Rbt.Parameter_File>
/export/apps/rDock/src/rDock_2013.1_src/data/scripts/dock_solv.prm

>  <Rbt.Receptor>
prm/pocket_docking_7.prm

>  <SCORE>
-10.4495

>  <SCORE.INTER>
-8.95236

>  <SCORE.INTER.CONST>
1

>  <SCORE.INTER.POLAR>
-1.24073

>  <SCORE.INTER.ROT>
2

>  <SCORE.INTER.SOLV>
11.3559

>  <SCORE.INTER.VDW>
-10.5511

>  <SCORE.INTER.norm>
-0.447618

>  <SCORE.INTRA>
-1.49718

>  <SCORE.INTRA.DIHEDRAL>
-2.58637

>  <SCORE.INTRA.DIHEDRAL.0>
3.72394

>  <SCORE.INTRA.POLAR>
0

>  <SCORE.INTRA.POLAR.0>
0

>  <SCORE.INTRA.REPUL>
0

>  <SCORE.INTRA.REPUL.0>
0

>  <SCORE.INTRA.SOLV>
0.000839507

>  <SCORE.INTRA.SOLV.lig_0>
-49.4697

>  <SCORE.INTRA.VDW>
-0.204415

>  <SCORE.INTRA.VDW.0>
-0.896538

>  <SCORE.INTRA.norm>
-0.0748591

>  <SCORE.RESTR>
0

>  <SCORE.RESTR.CAVITY>
0

>  <SCORE.RESTR.norm>
0

>  <SCORE.SYSTEM>
0

>  <SCORE.SYSTEM.CONST>
0

>  <SCORE.SYSTEM.DIHEDRAL>
0

>  <SCORE.SYSTEM.SOLV>
0

>  <SCORE.SYSTEM.norm>
0

>  <SCORE.heavy>
20

>  <SCORE.norm>
-0.522477

>  <RMSD>
6.243

$$$$
1nyi_lig
 OpenBabel11021811403D
libRbt.so/2013.1/901 2013/11/27
 20 22  0  0  0  0  0  0  0  0999 V2000
   21.9267   -5.7258   38.2722 C   0  0  0  0  0  0  0  0  0  0  0  0
   23.1082   -5.1850   38.8635 O   0  0  0  0  0  0  0  0  0  0  0  0
   20.8590   -5.9603   39.3178 C   0  0  1  0  0  0  0  0  0  0  0  0
   21.3788   -6.8683   40.3265 O   0  0  0  0  0  0  0  0  0  0  0  0
   20.4791   -4.6849   40.0618 C   0  0  1  0  0  0  0  0  0  0  0  0
   19.3970   -4.0071   39.4216 O   0  0  0  0  0  0  0  0  0  0  0  0
   20.1323   -5.2129   41.4523 C   0  0  1  0  0  0  0  0  0  0  0  0
   18.8345   -5.7841   41.5245 O   0  0  0  0  0  0  0  0  0  0  0  0
   21.1940   -6.2982   41.6167 C   0  0  2  0  0  0  0  0  0  0  0  0
   24.9757   -7.6307   44.8435 N   0  0  0  0  0  0  0  0  0  0  0  0
   23.8160   -8.2989   44.5341 C   0  0  1  0  0  0  0  0  0  0  0  0
   23.6405   -9.4639   45.1594 N   0  0  0  0  0  0  0  0  0  0  0  0
   22.8974   -7.8567   43.6800 N   0  0  0  0  0  0  0  0  0  0  0  0
   23.2299   -6.6468   43.1426 C   0  0  1  0  0  0  0  0  0  0  0  0
   24.3681   -5.8996   43.3895 C   0  0  1  0  0  0  0  0  0  0  0  0
   25.3407   -6.3993   44.2997 C   0  0  0  0  0  0  0  0  0  0  0  0
   26.4117   -5.8835   44.6439 O   0  0  0  0  0  0  0  0  0  0  0  0
   24.3559   -4.7301   42.6404 N   0  0  0  0  0  0  0  0  0  0  0  0
   23.2355   -4.7825   41.9742 C   0  0  0  0  0  0  0  0  0  0  0  0
   22.4872   -5.9114   42.2265 N   0  0  1  0  0  0  0  0  0  0  0  0
  2  1  1  0  0  0  0
  3  1  1  6  0  0  0
  3  4  1  0  0  0  0
  3  5  1  0  0  0  0
  5  6  1  6  0  0  0
  5  7  1  0  0  0  0
  7  8  1  6  0  0  0
  7  9  1  0  0  0  0
  9  4  1  6  0  0  0
  9 20  1  0  0  0  0
 10 11  1  0  0  0  0
 11 12  1  1  0  0  0
 11 13  1  0  0  0  0
 14 13  1  6  0  0  0
 15 14  1  0  0  0  0
 15 16  1  6  0  0  0
 16 10  1  0  0  0  0
 16 17  2  0  0  0  0
 18 15  1  0  0  0  0
 19 18  1  0  0  0  0
 20 14  1  0  0  0  0
 20 19  1  6  0  0  0
M  END
>  <CHROM.1>
-58.44862177,-97.53390191,22.57101406,-6.13831253,42.01739106,-2.29995219
0.30045946,2.23355685

>  <Name>
1nyi_lig

>  <RI>
0

>  <Rbt.Current_Directory>
/home/itssahil/PROJECTS/Mol_Feturizer/New_Systems/rnas/1nyi

>  <Rbt.Executable>
rbdock ($Id: //depot/dev/client3/rdock/2013.1/src/exe/rbdock.cxx#4 $)

>  <Rbt.Library>
libRbt.so (2013.1, Build901 2013/11/27)

>  <Rbt.Parameter_File>
/export/apps/rDock/src/rDock_2013.1_src/data/scripts/dock_solv.prm

>  <Rbt.Receptor>
prm/pocket_docking_8.prm

>  <SCORE>
-8.25896

>  <SCORE.INTER>
-6.47249

>  <SCORE.INTER.CONST>
1

>  <SCORE.INTER.POLAR>
-1.01003

>  <SCORE.INTER.ROT>
2

>  <SCORE.INTER.SOLV>
10.5454

>  <SCORE.INTER.VDW>
-9.39669

>  <SCORE.INTER.norm>
-0.323624

>  <SCORE.INTRA>
-1.78647

>  <SCORE.INTRA.DIHEDRAL>
-2.56964

>  <SCORE.INTRA.DIHEDRAL.0>
3.72394

>  <SCORE.INTRA.POLAR>
0

>  <SCORE.INTRA.POLAR.0>
0

>  <SCORE.INTRA.REPUL>
0

>  <SCORE.INTRA.REPUL.0>
0

>  <SCORE.INTRA.SOLV>
0.0851842

>  <SCORE.INTRA.SOLV.lig_0>
-49.4697

>  <SCORE.INTRA.VDW>
-0.544247

>  <SCORE.INTRA.VDW.0>
-0.896538

>  <SCORE.INTRA.norm>
-0.0893237

>  <SCORE.RESTR>
0

>  <SCORE.RESTR.CAVITY>
0

>  <SCORE.RESTR.norm>
0

>  <SCORE.SYSTEM>
0

>  <SCORE.SYSTEM.CONST>
0

>  <SCORE.SYSTEM.DIHEDRAL>
0

>  <SCORE.SYSTEM.SOLV>
0

>  <SCORE.SYSTEM.norm>
0

>  <SCORE.heavy>
20

>  <SCORE.norm>
-0.412948

>  <RMSD>
6.247

$$$$
1nyi_lig
 OpenBabel11021811403D
libRbt.so/2013.1/901 2013/11/27
 20 22  0  0  0  0  0  0  0  0999 V2000
   22.2356   -5.4903   38.5616 C   0  0  0  0  0  0  0  0  0  0  0  0
   21.8911   -4.4719   37.6224 O   0  0  0  0  0  0  0  0  0  0  0  0
   21.0750   -5.7874   39.4852 C   0  0  1  0  0  0  0  0  0  0  0  0
   21.4543   -6.8609   40.3884 O   0  0  0  0  0  0  0  0  0  0  0  0
   20.7174   -4.6018   40.3747 C   0  0  1  0  0  0  0  0  0  0  0  0
   19.7346   -3.7651   39.7629 O   0  0  0  0  0  0  0  0  0  0  0  0
   20.2278   -5.2890   41.6478 C   0  0  1  0  0  0  0  0  0  0  0  0
   18.8952   -5.7680   41.5462 O   0  0  0  0  0  0  0  0  0  0  0  0
   21.2028   -6.4614   41.7303 C   0  0  2  0  0  0  0  0  0  0  0  0
   24.2843   -8.1799   45.4774 N   0  0  0  0  0  0  0  0  0  0  0  0
   23.0675   -8.6606   45.0582 C   0  0  1  0  0  0  0  0  0  0  0  0
   22.6149   -9.7289   45.7162 N   0  0  0  0  0  0  0  0  0  0  0  0
   22.3485   -8.1319   44.0723 N   0  0  0  0  0  0  0  0  0  0  0  0
   22.9523   -7.0399   43.5190 C   0  0  1  0  0  0  0  0  0  0  0  0
   24.1694   -6.4825   43.8694 C   0  0  1  0  0  0  0  0  0  0  0  0
   24.9244   -7.0729   44.9209 C   0  0  0  0  0  0  0  0  0  0  0  0
   26.0232   -6.7241   45.3712 O   0  0  0  0  0  0  0  0  0  0  0  0
   24.4539   -5.3867   43.0648 N   0  0  0  0  0  0  0  0  0  0  0  0
   23.4272   -5.2956   42.2651 C   0  0  0  0  0  0  0  0  0  0  0  0
   22.4647   -6.2579   42.4787 N   0  0  1  0  0  0  0  0  0  0  0  0
  2  1  1  0  0  0  0
  3  1  1  6  0  0  0
  3  4  1  0  0  0  0
  3  5  1  0  0  0  0
  5  6  1  6  0  0  0
  5  7  1  0  0  0  0
  7  8  1  6  0  0  0
  7  9  1  0  0  0  0
  9  4  1  6  0  0  0
  9 20  1  0  0  0  0
 10 11  1  0  0  0  0
 11 12  1  1  0  0  0
 11 13  1  0  0  0  0
 14 13  1  6  0  0  0
 15 14  1  0  0  0  0
 15 16  1  6  0  0  0
 16 10  1  0  0  0  0
 16 17  2  0  0  0  0
 18 15  1  0  0  0  0
 19 18  1  0  0  0  0
 20 14  1  0  0  0  0
 20 19  1  6  0  0  0
M  END
>  <CHROM.1>
177.91626758,-111.03486811,22.37385805,-6.33845282,42.28079391,-2.08266665
0.24256572,2.17685825

>  <Name>
1nyi_lig

>  <RI>
0

>  <Rbt.Current_Directory>
/home/itssahil/PROJECTS/Mol_Feturizer/New_Systems/rnas/1nyi

>  <Rbt.Executable>
rbdock ($Id: //depot/dev/client3/rdock/2013.1/src/exe/rbdock.cxx#4 $)

>  <Rbt.Library>
libRbt.so (2013.1, Build901 2013/11/27)

>  <Rbt.Parameter_File>
/export/apps/rDock/src/rDock_2013.1_src/data/scripts/dock_solv.prm

>  <Rbt.Receptor>
prm/pocket_docking_6.prm

>  <SCORE>
-7.35581

>  <SCORE.INTER>
-5.37003

>  <SCORE.INTER.CONST>
1

>  <SCORE.INTER.POLAR>
-1.05794

>  <SCORE.INTER.ROT>
2

>  <SCORE.INTER.SOLV>
8.77435

>  <SCORE.INTER.VDW>
-7.91168

>  <SCORE.INTER.norm>
-0.268502

>  <SCORE.INTRA>
-1.98577

>  <SCORE.INTRA.DIHEDRAL>
-2.52239

>  <SCORE.INTRA.DIHEDRAL.0>
3.72394

>  <SCORE.INTRA.POLAR>
0

>  <SCORE.INTRA.POLAR.0>
0

>  <SCORE.INTRA.REPUL>
0

>  <SCORE.INTRA.REPUL.0>
0

>  <SCORE.INTRA.SOLV>
-0.656738

>  <SCORE.INTRA.SOLV.lig_0>
-49.4697

>  <SCORE.INTRA.VDW>
-0.396209

>  <SCORE.INTRA.VDW.0>
-0.896538

>  <SCORE.INTRA.norm>
-0.0992887

>  <SCORE.RESTR>
0

>  <SCORE.RESTR.CAVITY>
0

>  <SCORE.RESTR.norm>
0

>  <SCORE.SYSTEM>
0

>  <SCORE.SYSTEM.CONST>
0

>  <SCORE.SYSTEM.DIHEDRAL>
0

>  <SCORE.SYSTEM.SOLV>
0

>  <SCORE.SYSTEM.norm>
0

>  <SCORE.heavy>
20

>  <SCORE.norm>
-0.36779

>  <RMSD>
6.256

$$$$
1nyi_lig
 OpenBabel11021811403D
libRbt.so/2013.1/901 2013/11/27
 20 22  0  0  0  0  0  0  0  0999 V2000
   23.8756   -8.2886   45.7543 C   0  0  0  0  0  0  0  0  0  0  0  0
   23.1911   -9.4772   45.3584 O   0  0  0  0  0  0  0  0  0  0  0  0
   23.4570   -7.1143   44.8976 C   0  0  1  0  0  0  0  0  0  0  0  0
   24.1338   -5.9193   45.3731 O   0  0  0  0  0  0  0  0  0  0  0  0
   23.8734   -7.2763   43.4399 C   0  0  1  0  0  0  0  0  0  0  0  0
   22.8555   -7.9205   42.6724 O   0  0  0  0  0  0  0  0  0  0  0  0
   24.1364   -5.8326   43.0164 C   0  0  1  0  0  0  0  0  0  0  0  0
   22.9489   -5.1125   42.7218 O   0  0  0  0  0  0  0  0  0  0  0  0
   24.7861   -5.2793   44.2828 C   0  0  2  0  0  0  0  0  0  0  0  0
   29.3065   -2.9242   43.5699 N   0  0  0  0  0  0  0  0  0  0  0  0
   28.0375   -2.4834   43.2828 C   0  0  1  0  0  0  0  0  0  0  0  0
   27.9614   -1.2677   42.7395 N   0  0  0  0  0  0  0  0  0  0  0  0
   26.9288   -3.1828   43.5077 N   0  0  0  0  0  0  0  0  0  0  0  0
   27.1902   -4.4062   44.0538 C   0  0  1  0  0  0  0  0  0  0  0  0
   28.4262   -4.9373   44.3776 C   0  0  1  0  0  0  0  0  0  0  0  0
   29.5966   -4.1651   44.1366 C   0  0  0  0  0  0  0  0  0  0  0  0
   30.7769   -4.4637   44.3590 O   0  0  0  0  0  0  0  0  0  0  0  0
   28.2835   -6.2039   44.9296 N   0  0  0  0  0  0  0  0  0  0  0  0
   26.9965   -6.4174   44.9245 C   0  0  0  0  0  0  0  0  0  0  0  0
   26.2592   -5.3775   44.4019 N   0  0  1  0  0  0  0  0  0  0  0  0
  2  1  1  0  0  0  0
  3  1  1  1  0  0  0
  3  4  1  0  0  0  0
  3  5  1  0  0  0  0
  5  6  1  6  0  0  0
  5  7  1  0  0  0  0
  7  8  1  1  0  0  0
  7  9  1  0  0  0  0
  9  4  1  1  0  0  0
  9 20  1  0  0  0  0
 10 11  1  0  0  0  0
 11 12  1  6  0  0  0
 11 13  1  0  0  0  0
 14 13  1  1  0  0  0
 15 14  1  0  0  0  0
 15 16  1  1  0  0  0
 16 10  1  0  0  0  0
 16 17  2  0  0  0  0
 18 15  1  0  0  0  0
 19 18  1  0  0  0  0
 20 14  1  0  0  0  0
 20 19  1  1  0  0  0
M  END
>  <CHROM.1>
177.56694461,-142.98028521,26.08902860,-5.45492867,44.09455549,-2.54257866
-0.27150433,-0.50080855

>  <Name>
1nyi_lig

>  <RI>
0

>  <Rbt.Current_Directory>
/home/itssahil/PROJECTS/Mol_Feturizer/New_Systems/rnas/1nyi

>  <Rbt.Executable>
rbdock ($Id: //depot/dev/client3/rdock/2013.1/src/exe/rbdock.cxx#4 $)

>  <Rbt.Library>
libRbt.so (2013.1, Build901 2013/11/27)

>  <Rbt.Parameter_File>
/export/apps/rDock/src/rDock_2013.1_src/data/scripts/dock_solv.prm

>  <Rbt.Receptor>
prm/pocket_docking_4.prm

>  <SCORE>
-9.25557

>  <SCORE.INTER>
-7.32124

>  <SCORE.INTER.CONST>
1

>  <SCORE.INTER.POLAR>
-0.976091

>  <SCORE.INTER.ROT>
2

>  <SCORE.INTER.SOLV>
12.2487

>  <SCORE.INTER.VDW>
-10.6434

>  <SCORE.INTER.norm>
-0.366062

>  <SCORE.INTRA>
-1.93434

>  <SCORE.INTRA.DIHEDRAL>
-2.40086

>  <SCORE.INTRA.DIHEDRAL.0>
3.72394

>  <SCORE.INTRA.POLAR>
0

>  <SCORE.INTRA.POLAR.0>
0

>  <SCORE.INTRA.REPUL>
0

>  <SCORE.INTRA.REPUL.0>
0

>  <SCORE.INTRA.SOLV>
-0.640272

>  <SCORE.INTRA.SOLV.lig_0>
-49.4697

>  <SCORE.INTRA.VDW>
-0.413768

>  <SCORE.INTRA.VDW.0>
-0.896538

>  <SCORE.INTRA.norm>
-0.0967168

>  <SCORE.RESTR>
0

>  <SCORE.RESTR.CAVITY>
0

>  <SCORE.RESTR.norm>
0

>  <SCORE.SYSTEM>
0

>  <SCORE.SYSTEM.CONST>
0

>  <SCORE.SYSTEM.DIHEDRAL>
0

>  <SCORE.SYSTEM.SOLV>
0

>  <SCORE.SYSTEM.norm>
0

>  <SCORE.heavy>
20

>  <SCORE.norm>
-0.462779

>  <RMSD>
6.270

$$$$
1nyi_lig
 OpenBabel11021811403D
libRbt.so/2013.1/901 2013/11/27
 20 22  0  0  0  0  0  0  0  0999 V2000
   24.8130   -8.9215   44.6023 C   0  0  0  0  0  0  0  0  0  0  0  0
   26.0661   -8.6548   43.9725 O   0  0  0  0  0  0  0  0  0  0  0  0
   23.9430   -7.6842   44.6179 C   0  0  1  0  0  0  0  0  0  0  0  0
   24.5601   -6.6851   45.4742 O   0  0  0  0  0  0  0  0  0  0  0  0
   23.8226   -7.0367   43.2428 C   0  0  1  0  0  0  0  0  0  0  0  0
   22.7038   -7.5498   42.5180 O   0  0  0  0  0  0  0  0  0  0  0  0
   23.6965   -5.5554   43.5929 C   0  0  1  0  0  0  0  0  0  0  0  0
   22.3899   -5.1903   44.0114 O   0  0  0  0  0  0  0  0  0  0  0  0
   24.6704   -5.4569   44.7650 C   0  0  2  0  0  0  0  0  0  0  0  0
   28.2444   -1.7675   44.4420 N   0  0  0  0  0  0  0  0  0  0  0  0
   26.9100   -1.6658   44.7522 C   0  0  1  0  0  0  0  0  0  0  0  0
   26.4726   -0.4318   45.0075 N   0  0  0  0  0  0  0  0  0  0  0  0
   26.0687   -2.6945   44.8041 N   0  0  0  0  0  0  0  0  0  0  0  0
   26.6787   -3.8780   44.5035 C   0  0  1  0  0  0  0  0  0  0  0  0
   28.0087   -4.0818   44.1805 C   0  0  1  0  0  0  0  0  0  0  0  0
   28.8908   -2.9662   44.1416 C   0  0  0  0  0  0  0  0  0  0  0  0
   30.1001   -2.9481   43.8789 O   0  0  0  0  0  0  0  0  0  0  0  0
   28.2549   -5.4300   43.9550 N   0  0  0  0  0  0  0  0  0  0  0  0
   27.0979   -6.0058   44.1332 C   0  0  0  0  0  0  0  0  0  0  0  0
   26.0838   -5.1333   44.4622 N   0  0  1  0  0  0  0  0  0  0  0  0
  2  1  1  0  0  0  0
  3  1  1  6  0  0  0
  3  4  1  0  0  0  0
  3  5  1  0  0  0  0
  5  6  1  1  0  0  0
  5  7  1  0  0  0  0
  7  8  1  1  0  0  0
  7  9  1  0  0  0  0
  9  4  1  6  0  0  0
  9 20  1  0  0  0  0
 10 11  1  0  0  0  0
 11 12  1  6  0  0  0
 11 13  1  0  0  0  0
 14 13  1  1  0  0  0
 15 14  1  0  0  0  0
 15 16  1  1  0  0  0
 16 10  1  0  0  0  0
 16 17  2  0  0  0  0
 18 15  1  0  0  0  0
 19 18  1  0  0  0  0
 20 14  1  0  0  0  0
 20 19  1  1  0  0  0
M  END
>  <CHROM.1>
-66.18899761,-141.06076354,25.93875472,-5.04317146,44.24410303,-2.25520739
-0.00564128,0.09261250

>  <Name>
1nyi_lig

>  <RI>
0

>  <Rbt.Current_Directory>
/home/itssahil/PROJECTS/Mol_Feturizer/New_Systems/rnas/1nyi

>  <Rbt.Executable>
rbdock ($Id: //depot/dev/client3/rdock/2013.1/src/exe/rbdock.cxx#4 $)

>  <Rbt.Library>
libRbt.so (2013.1, Build901 2013/11/27)

>  <Rbt.Parameter_File>
/export/apps/rDock/src/rDock_2013.1_src/data/scripts/dock_solv.prm

>  <Rbt.Receptor>
prm/pocket_docking_2.prm

>  <SCORE>
-5.29544

>  <SCORE.INTER>
-4.76704

>  <SCORE.INTER.CONST>
1

>  <SCORE.INTER.POLAR>
-0.665056

>  <SCORE.INTER.ROT>
2

>  <SCORE.INTER.SOLV>
11.3963

>  <SCORE.INTER.VDW>
-9.69326

>  <SCORE.INTER.norm>
-0.238352

>  <SCORE.INTRA>
-1.21177

>  <SCORE.INTRA.DIHEDRAL>
-2.29226

>  <SCORE.INTRA.DIHEDRAL.0>
3.72394

>  <SCORE.INTRA.POLAR>
0

>  <SCORE.INTRA.POLAR.0>
0

>  <SCORE.INTRA.REPUL>
0

>  <SCORE.INTRA.REPUL.0>
0

>  <SCORE.INTRA.SOLV>
0.15222

>  <SCORE.INTRA.SOLV.lig_0>
-49.4697

>  <SCORE.INTRA.VDW>
-0.14175

>  <SCORE.INTRA.VDW.0>
-0.896538

>  <SCORE.INTRA.norm>
-0.0605886

>  <SCORE.RESTR>
0.683365

>  <SCORE.RESTR.CAVITY>
0.683365

>  <SCORE.RESTR.norm>
0.0341682

>  <SCORE.SYSTEM>
0

>  <SCORE.SYSTEM.CONST>
0

>  <SCORE.SYSTEM.DIHEDRAL>
0

>  <SCORE.SYSTEM.SOLV>
0

>  <SCORE.SYSTEM.norm>
0

>  <SCORE.heavy>
20

>  <SCORE.norm>
-0.264772

>  <RMSD>
6.292

$$$$
1nyi_lig
 OpenBabel11021811403D
libRbt.so/2013.1/901 2013/11/27
 20 22  0  0  0  0  0  0  0  0999 V2000
   20.3236   -6.7706   41.2631 C   0  0  0  0  0  0  0  0  0  0  0  0
   19.6088   -7.9545   40.9086 O   0  0  0  0  0  0  0  0  0  0  0  0
   20.1434   -6.4507   42.7305 C   0  0  1  0  0  0  0  0  0  0  0  0
   20.7965   -7.4807   43.5209 O   0  0  0  0  0  0  0  0  0  0  0  0
   20.8072   -5.1371   43.1284 C   0  0  1  0  0  0  0  0  0  0  0  0
   19.9074   -4.0352   43.0006 O   0  0  0  0  0  0  0  0  0  0  0  0
   21.2339   -5.4137   44.5685 C   0  0  1  0  0  0  0  0  0  0  0  0
   20.1679   -5.2951   45.4988 O   0  0  0  0  0  0  0  0  0  0  0  0
   21.6757   -6.8714   44.4586 C   0  0  2  0  0  0  0  0  0  0  0  0
   25.7450   -9.9362   45.1912 N   0  0  0  0  0  0  0  0  0  0  0  0
   24.4938   -9.9965   45.7550 C   0  0  1  0  0  0  0  0  0  0  0  0
   24.3013  -10.9939   46.6195 N   0  0  0  0  0  0  0  0  0  0  0  0
   23.5085   -9.1423   45.4939 N   0  0  0  0  0  0  0  0  0  0  0  0
   23.8807   -8.1800   44.6002 C   0  0  1  0  0  0  0  0  0  0  0  0
   25.1097   -8.0359   43.9807 C   0  0  1  0  0  0  0  0  0  0  0  0
   26.1443   -8.9690   44.2692 C   0  0  0  0  0  0  0  0  0  0  0  0
   27.2962   -9.0070   43.8183 O   0  0  0  0  0  0  0  0  0  0  0  0
   25.0986   -6.9436   43.1230 N   0  0  0  0  0  0  0  0  0  0  0  0
   23.8960   -6.4514   43.2392 C   0  0  0  0  0  0  0  0  0  0  0  0
   23.0933   -7.1391   44.1228 N   0  0  1  0  0  0  0  0  0  0  0  0
  2  1  1  0  0  0  0
  3  1  1  6  0  0  0
  3  4  1  0  0  0  0
  3  5  1  0  0  0  0
  5  6  1  1  0  0  0
  5  7  1  0  0  0  0
  7  8  1  1  0  0  0
  7  9  1  0  0  0  0
  9  4  1  6  0  0  0
  9 20  1  0  0  0  0
 10 11  1  0  0  0  0
 11 12  1  1  0  0  0
 11 13  1  0  0  0  0
 14 13  1  6  0  0  0
 15 14  1  0  0  0  0
 15 16  1  6  0  0  0
 16 10  1  0  0  0  0
 16 17  2  0  0  0  0
 18 15  1  0  0  0  0
 19 18  1  0  0  0  0
 20 14  1  0  0  0  0
 20 19  1  6  0  0  0
M  END
>  <CHROM.1>
67.14304632,-92.85890550,22.80133463,-7.48167594,43.93517412,-2.60339823
-0.38898969,2.07041140

>  <Name>
1nyi_lig

>  <RI>
0

>  <Rbt.Current_Directory>
/home/itssahil/PROJECTS/Mol_Feturizer/New_Systems/rnas/1nyi

>  <Rbt.Executable>
rbdock ($Id: //depot/dev/client3/rdock/2013.1/src/exe/rbdock.cxx#4 $)

>  <Rbt.Library>
libRbt.so (2013.1, Build901 2013/11/27)

>  <Rbt.Parameter_File>
/export/apps/rDock/src/rDock_2013.1_src/data/scripts/dock_solv.prm

>  <Rbt.Receptor>
prm/pocket_docking_5.prm

>  <SCORE>
-9.10344

>  <SCORE.INTER>
-7.16209

>  <SCORE.INTER.CONST>
1

>  <SCORE.INTER.POLAR>
-1.03114

>  <SCORE.INTER.ROT>
2

>  <SCORE.INTER.SOLV>
9.407

>  <SCORE.INTER.VDW>
-9.40659

>  <SCORE.INTER.norm>
-0.358104

>  <SCORE.INTRA>
-1.94135

>  <SCORE.INTRA.DIHEDRAL>
-2.39915

>  <SCORE.INTRA.DIHEDRAL.0>
3.72394

>  <SCORE.INTRA.POLAR>
0

>  <SCORE.INTRA.POLAR.0>
0

>  <SCORE.INTRA.REPUL>
0

>  <SCORE.INTRA.REPUL.0>
0

>  <SCORE.INTRA.SOLV>
-0.855655

>  <SCORE.INTRA.SOLV.lig_0>
-49.4697

>  <SCORE.INTRA.VDW>
-0.313954

>  <SCORE.INTRA.VDW.0>
-0.896538

>  <SCORE.INTRA.norm>
-0.0970677

>  <SCORE.RESTR>
0

>  <SCORE.RESTR.CAVITY>
0

>  <SCORE.RESTR.norm>
0

>  <SCORE.SYSTEM>
0

>  <SCORE.SYSTEM.CONST>
0

>  <SCORE.SYSTEM.DIHEDRAL>
0

>  <SCORE.SYSTEM.SOLV>
0

>  <SCORE.SYSTEM.norm>
0

>  <SCORE.heavy>
20

>  <SCORE.norm>
-0.455172

>  <RMSD>
6.298

$$$$
1nyi_lig
 OpenBabel11021811403D
libRbt.so/2013.1/901 2013/11/27
 20 22  0  0  0  0  0  0  0  0999 V2000
   24.2094   -8.8791   45.1713 C   0  0  0  0  0  0  0  0  0  0  0  0
   23.9862   -8.9938   46.5766 O   0  0  0  0  0  0  0  0  0  0  0  0
   23.6743   -7.5655   44.6456 C   0  0  1  0  0  0  0  0  0  0  0  0
   24.3409   -6.4747   45.3370 O   0  0  0  0  0  0  0  0  0  0  0  0
   23.9726   -7.3635   43.1642 C   0  0  1  0  0  0  0  0  0  0  0  0
   22.9200   -7.8718   42.3434 O   0  0  0  0  0  0  0  0  0  0  0  0
   24.1419   -5.8484   43.0721 C   0  0  1  0  0  0  0  0  0  0  0  0
   22.9063   -5.1498   43.0412 O   0  0  0  0  0  0  0  0  0  0  0  0
   24.8734   -5.5645   44.3822 C   0  0  2  0  0  0  0  0  0  0  0  0
   29.2203   -2.8635   43.8360 N   0  0  0  0  0  0  0  0  0  0  0  0
   27.9150   -2.4456   43.7423 C   0  0  1  0  0  0  0  0  0  0  0  0
   27.7451   -1.1510   43.4698 N   0  0  0  0  0  0  0  0  0  0  0  0
   26.8580   -3.2372   43.8999 N   0  0  0  0  0  0  0  0  0  0  0  0
   27.2130   -4.5294   44.1595 C   0  0  1  0  0  0  0  0  0  0  0  0
   28.4921   -5.0449   44.2729 C   0  0  1  0  0  0  0  0  0  0  0  0
   29.6063   -4.1753   44.1101 C   0  0  0  0  0  0  0  0  0  0  0  0
   30.8121   -4.4461   44.1767 O   0  0  0  0  0  0  0  0  0  0  0  0
   28.4469   -6.4032   44.5596 N   0  0  0  0  0  0  0  0  0  0  0  0
   27.1736   -6.6832   44.6068 C   0  0  0  0  0  0  0  0  0  0  0  0
   26.3541   -5.6019   44.3677 N   0  0  1  0  0  0  0  0  0  0  0  0
  2  1  1  0  0  0  0
  3  1  1  1  0  0  0
  3  4  1  0  0  0  0
  3  5  1  0  0  0  0
  5  6  1  6  0  0  0
  5  7  1  0  0  0  0
  7  8  1  1  0  0  0
  7  9  1  0  0  0  0
  9  4  1  1  0  0  0
  9 20  1  0  0  0  0
 10 11  1  0  0  0  0
 11 12  1  6  0  0  0
 11 13  1  0  0  0  0
 14 13  1  1  0  0  0
 15 14  1  0  0  0  0
 15 16  1  1  0  0  0
 16 10  1  0  0  0  0
 16 17  2  0  0  0  0
 18 15  1  0  0  0  0
 19 18  1  0  0  0  0
 20 14  1  0  0  0  0
 20 19  1  1  0  0  0
M  END
>  <CHROM.1>
59.25120005,-144.55611155,26.18684464,-5.56328499,44.15794865,-2.50506223
-0.25993051,-0.42262819

>  <Name>
1nyi_lig

>  <RI>
0

>  <Rbt.Current_Directory>
/home/itssahil/PROJECTS/Mol_Feturizer/New_Systems/rnas/1nyi

>  <Rbt.Executable>
rbdock ($Id: //depot/dev/client3/rdock/2013.1/src/exe/rbdock.cxx#4 $)

>  <Rbt.Library>
libRbt.so (2013.1, Build901 2013/11/27)

>  <Rbt.Parameter_File>
/export/apps/rDock/src/rDock_2013.1_src/data/scripts/dock_solv.prm

>  <Rbt.Receptor>
prm/pocket_docking_4.prm

>  <SCORE>
-9.57556

>  <SCORE.INTER>
-7.54801

>  <SCORE.INTER.CONST>
1

>  <SCORE.INTER.POLAR>
-0.739148

>  <SCORE.INTER.ROT>
2

>  <SCORE.INTER.SOLV>
10.9697

>  <SCORE.INTER.VDW>
-11.1581

>  <SCORE.INTER.norm>
-0.377401

>  <SCORE.INTRA>
-2.02755

>  <SCORE.INTRA.DIHEDRAL>
-2.41666

>  <SCORE.INTRA.DIHEDRAL.0>
3.72394

>  <SCORE.INTRA.POLAR>
0

>  <SCORE.INTRA.POLAR.0>
0

>  <SCORE.INTRA.REPUL>
0

>  <SCORE.INTRA.REPUL.0>
0

>  <SCORE.INTRA.SOLV>
-0.816003

>  <SCORE.INTRA.SOLV.lig_0>
-49.4697

>  <SCORE.INTRA.VDW>
-0.41122

>  <SCORE.INTRA.VDW.0>
-0.896538

>  <SCORE.INTRA.norm>
-0.101378

>  <SCORE.RESTR>
0

>  <SCORE.RESTR.CAVITY>
0

>  <SCORE.RESTR.norm>
0

>  <SCORE.SYSTEM>
0

>  <SCORE.SYSTEM.CONST>
0

>  <SCORE.SYSTEM.DIHEDRAL>
0

>  <SCORE.SYSTEM.SOLV>
0

>  <SCORE.SYSTEM.norm>
0

>  <SCORE.heavy>
20

>  <SCORE.norm>
-0.478778

>  <RMSD>
6.320

$$$$
1nyi_lig
 OpenBabel11021811403D
libRbt.so/2013.1/901 2013/11/27
 20 22  0  0  0  0  0  0  0  0999 V2000
   20.9297   -5.4345   39.1626 C   0  0  0  0  0  0  0  0  0  0  0  0
   21.5924   -6.1824   38.1430 O   0  0  0  0  0  0  0  0  0  0  0  0
   20.4900   -6.3371   40.2940 C   0  0  1  0  0  0  0  0  0  0  0  0
   21.6564   -7.0105   40.8401 O   0  0  0  0  0  0  0  0  0  0  0  0
   19.8751   -5.5626   41.4545 C   0  0  1  0  0  0  0  0  0  0  0  0
   18.4614   -5.4261   41.3031 O   0  0  0  0  0  0  0  0  0  0  0  0
   20.2816   -6.4088   42.6593 C   0  0  1  0  0  0  0  0  0  0  0  0
   19.4650   -7.5566   42.8360 O   0  0  0  0  0  0  0  0  0  0  0  0
   21.6926   -6.8256   42.2501 C   0  0  2  0  0  0  0  0  0  0  0  0
   26.4797   -6.5776   44.1239 N   0  0  0  0  0  0  0  0  0  0  0  0
   25.6846   -7.6757   43.9024 C   0  0  1  0  0  0  0  0  0  0  0  0
   26.2292   -8.8517   44.2179 N   0  0  0  0  0  0  0  0  0  0  0  0
   24.4492   -7.6241   43.4127 N   0  0  0  0  0  0  0  0  0  0  0  0
   24.0461   -6.3450   43.1583 C   0  0  1  0  0  0  0  0  0  0  0  0
   24.7696   -5.1806   43.3468 C   0  0  1  0  0  0  0  0  0  0  0  0
   26.0931   -5.2634   43.8624 C   0  0  0  0  0  0  0  0  0  0  0  0
   26.8889   -4.3446   44.0951 O   0  0  0  0  0  0  0  0  0  0  0  0
   24.0252   -4.0751   42.9561 N   0  0  0  0  0  0  0  0  0  0  0  0
   22.8887   -4.5740   42.5545 C   0  0  0  0  0  0  0  0  0  0  0  0
   22.8152   -5.9463   42.6508 N   0  0  1  0  0  0  0  0  0  0  0  0
  2  1  1  0  0  0  0
  3  1  1  6  0  0  0
  3  4  1  0  0  0  0
  3  5  1  0  0  0  0
  5  6  1  6  0  0  0
  5  7  1  0  0  0  0
  7  8  1  6  0  0  0
  7  9  1  0  0  0  0
  9  4  1  6  0  0  0
  9 20  1  0  0  0  0
 10 11  1  0  0  0  0
 11 12  1  1  0  0  0
 11 13  1  0  0  0  0
 14 13  1  6  0  0  0
 15 14  1  0  0  0  0
 15 16  1  6  0  0  0
 16 10  1  0  0  0  0
 16 17  2  0  0  0  0
 18 15  1  0  0  0  0
 19 18  1  0  0  0  0
 20 14  1  0  0  0  0
 20 19  1  6  0  0  0
M  END
>  <CHROM.1>
58.44348546,-99.93727925,22.88426965,-6.16006460,42.31590791,-2.84440937
0.40969598,2.52877627

>  <Name>
1nyi_lig

>  <RI>
0

>  <Rbt.Current_Directory>
/home/itssahil/PROJECTS/Mol_Feturizer/New_Systems/rnas/1nyi

>  <Rbt.Executable>
rbdock ($Id: //depot/dev/client3/rdock/2013.1/src/exe/rbdock.cxx#4 $)

>  <Rbt.Library>
libRbt.so (2013.1, Build901 2013/11/27)

>  <Rbt.Parameter_File>
/export/apps/rDock/src/rDock_2013.1_src/data/scripts/dock_solv.prm

>  <Rbt.Receptor>
prm/pocket_docking_6.prm

>  <SCORE>
-6.37758

>  <SCORE.INTER>
-4.32427

>  <SCORE.INTER.CONST>
1

>  <SCORE.INTER.POLAR>
-0.43426

>  <SCORE.INTER.ROT>
2

>  <SCORE.INTER.SOLV>
10.8151

>  <SCORE.INTER.VDW>
-9.97368

>  <SCORE.INTER.norm>
-0.216213

>  <SCORE.INTRA>
-2.05331

>  <SCORE.INTRA.DIHEDRAL>
-2.56708

>  <SCORE.INTRA.DIHEDRAL.0>
3.72394

>  <SCORE.INTRA.POLAR>
0

>  <SCORE.INTRA.POLAR.0>
0

>  <SCORE.INTRA.REPUL>
0

>  <SCORE.INTRA.REPUL.0>
0

>  <SCORE.INTRA.SOLV>
-0.850001

>  <SCORE.INTRA.SOLV.lig_0>
-49.4697

>  <SCORE.INTRA.VDW>
-0.344769

>  <SCORE.INTRA.VDW.0>
-0.896538

>  <SCORE.INTRA.norm>
-0.102665

>  <SCORE.RESTR>
0

>  <SCORE.RESTR.CAVITY>
0

>  <SCORE.RESTR.norm>
0

>  <SCORE.SYSTEM>
0

>  <SCORE.SYSTEM.CONST>
0

>  <SCORE.SYSTEM.DIHEDRAL>
0

>  <SCORE.SYSTEM.SOLV>
0

>  <SCORE.SYSTEM.norm>
0

>  <SCORE.heavy>
20

>  <SCORE.norm>
-0.318879

>  <RMSD>
6.336

$$$$
1nyi_lig
 OpenBabel11021811403D
libRbt.so/2013.1/901 2013/11/27
 20 22  0  0  0  0  0  0  0  0999 V2000
   23.9148   -7.2127   42.9809 C   0  0  0  0  0  0  0  0  0  0  0  0
   22.5873   -7.7377   42.9990 O   0  0  0  0  0  0  0  0  0  0  0  0
   24.8774   -8.1564   43.6671 C   0  0  1  0  0  0  0  0  0  0  0  0
   26.2189   -7.9073   43.1665 O   0  0  0  0  0  0  0  0  0  0  0  0
   24.9461   -7.9285   45.1731 C   0  0  1  0  0  0  0  0  0  0  0  0
   23.9967   -8.7371   45.8695 O   0  0  0  0  0  0  0  0  0  0  0  0
   26.3980   -8.2828   45.4878 C   0  0  1  0  0  0  0  0  0  0  0  0
   26.6260   -9.6818   45.5685 O   0  0  0  0  0  0  0  0  0  0  0  0
   27.1031   -7.7053   44.2625 C   0  0  2  0  0  0  0  0  0  0  0  0
   31.1401   -4.5417   44.6902 N   0  0  0  0  0  0  0  0  0  0  0  0
   31.1022   -5.9149   44.6978 C   0  0  1  0  0  0  0  0  0  0  0  0
   32.2824   -6.5208   44.8364 N   0  0  0  0  0  0  0  0  0  0  0  0
   29.9920   -6.6380   44.5824 N   0  0  0  0  0  0  0  0  0  0  0  0
   28.8772   -5.8595   44.4627 C   0  0  1  0  0  0  0  0  0  0  0  0
   28.8130   -4.4773   44.4442 C   0  0  1  0  0  0  0  0  0  0  0  0
   30.0160   -3.7265   44.5591 C   0  0  0  0  0  0  0  0  0  0  0  0
   30.1609   -2.4974   44.5606 O   0  0  0  0  0  0  0  0  0  0  0  0
   27.4998   -4.0520   44.2904 N   0  0  0  0  0  0  0  0  0  0  0  0
   26.8062   -5.1551   44.2272 C   0  0  0  0  0  0  0  0  0  0  0  0
   27.5656   -6.2999   44.3312 N   0  0  1  0  0  0  0  0  0  0  0  0
  2  1  1  0  0  0  0
  3  1  1  6  0  0  0
  3  4  1  0  0  0  0
  3  5  1  0  0  0  0
  5  6  1  1  0  0  0
  5  7  1  0  0  0  0
  7  8  1  6  0  0  0
  7  9  1  0  0  0  0
  9  4  1  6  0  0  0
  9 20  1  0  0  0  0
 10 11  1  0  0  0  0
 11 12  1  1  0  0  0
 11 13  1  0  0  0  0
 14 13  1  6  0  0  0
 15 14  1  0  0  0  0
 15 16  1  6  0  0  0
 16 10  1  0  0  0  0
 16 17  2  0  0  0  0
 18 15  1  0  0  0  0
 19 18  1  0  0  0  0
 20 14  1  0  0  0  0
 20 19  1  6  0  0  0
M  END
>  <CHROM.1>
156.42799984,-130.69083210,27.47313677,-6.49031879,44.43771292,2.65422823
0.20746704,2.87906674

>  <Name>
1nyi_lig

>  <RI>
0

>  <Rbt.Current_Directory>
/home/itssahil/PROJECTS/Mol_Feturizer/New_Systems/rnas/1nyi

>  <Rbt.Executable>
rbdock ($Id: //depot/dev/client3/rdock/2013.1/src/exe/rbdock.cxx#4 $)

>  <Rbt.Library>
libRbt.so (2013.1, Build901 2013/11/27)

>  <Rbt.Parameter_File>
/export/apps/rDock/src/rDock_2013.1_src/data/scripts/dock_solv.prm

>  <Rbt.Receptor>
prm/pocket_docking_5.prm

>  <SCORE>
-10.7822

>  <SCORE.INTER>
-9.56252

>  <SCORE.INTER.CONST>
1

>  <SCORE.INTER.POLAR>
-0.748331

>  <SCORE.INTER.ROT>
2

>  <SCORE.INTER.SOLV>
7.3384

>  <SCORE.INTER.VDW>
-11.26

>  <SCORE.INTER.norm>
-0.478126

>  <SCORE.INTRA>
-1.21969

>  <SCORE.INTRA.DIHEDRAL>
-0.715003

>  <SCORE.INTRA.DIHEDRAL.0>
3.72394

>  <SCORE.INTRA.POLAR>
0

>  <SCORE.INTRA.POLAR.0>
0

>  <SCORE.INTRA.REPUL>
0

>  <SCORE.INTRA.REPUL.0>
0

>  <SCORE.INTRA.SOLV>
-0.763463

>  <SCORE.INTRA.SOLV.lig_0>
-49.4697

>  <SCORE.INTRA.VDW>
-0.480455

>  <SCORE.INTRA.VDW.0>
-0.896538

>  <SCORE.INTRA.norm>
-0.0609844

>  <SCORE.RESTR>
0

>  <SCORE.RESTR.CAVITY>
0

>  <SCORE.RESTR.norm>
0

>  <SCORE.SYSTEM>
0

>  <SCORE.SYSTEM.CONST>
0

>  <SCORE.SYSTEM.DIHEDRAL>
0

>  <SCORE.SYSTEM.SOLV>
0

>  <SCORE.SYSTEM.norm>
0

>  <SCORE.heavy>
20

>  <SCORE.norm>
-0.539111

>  <RMSD>
6.344

$$$$
1nyi_lig
 OpenBabel11021811403D
libRbt.so/2013.1/901 2013/11/27
 20 22  0  0  0  0  0  0  0  0999 V2000
   28.5818  -10.8239   42.6473 C   0  0  0  0  0  0  0  0  0  0  0  0
   28.8290  -12.2098   42.8844 O   0  0  0  0  0  0  0  0  0  0  0  0
   28.9337   -9.9973   43.8642 C   0  0  1  0  0  0  0  0  0  0  0  0
   28.7114   -8.5935   43.5606 O   0  0  0  0  0  0  0  0  0  0  0  0
   28.0428  -10.3103   45.0612 C   0  0  1  0  0  0  0  0  0  0  0  0
   28.5994  -11.3459   45.8724 O   0  0  0  0  0  0  0  0  0  0  0  0
   27.9623   -8.9582   45.7668 C   0  0  1  0  0  0  0  0  0  0  0  0
   29.1120   -8.6666   46.5470 O   0  0  0  0  0  0  0  0  0  0  0  0
   27.8885   -8.0161   44.5671 C   0  0  2  0  0  0  0  0  0  0  0  0
   24.5776   -4.2562   43.3881 N   0  0  0  0  0  0  0  0  0  0  0  0
   25.8329   -4.1730   43.9400 C   0  0  1  0  0  0  0  0  0  0  0  0
   26.2597   -2.9388   44.2117 N   0  0  0  0  0  0  0  0  0  0  0  0
   26.6081   -5.2198   44.2082 N   0  0  0  0  0  0  0  0  0  0  0  0
   26.0119   -6.4031   43.8805 C   0  0  1  0  0  0  0  0  0  0  0  0
   24.7590   -6.5892   43.3233 C   0  0  1  0  0  0  0  0  0  0  0  0
   23.9530   -5.4525   43.0362 C   0  0  0  0  0  0  0  0  0  0  0  0
   22.8193   -5.4162   42.5411 O   0  0  0  0  0  0  0  0  0  0  0  0
   24.5116   -7.9406   43.1195 N   0  0  0  0  0  0  0  0  0  0  0  0
   25.5881   -8.5370   43.5523 C   0  0  0  0  0  0  0  0  0  0  0  0
   26.5473   -7.6759   44.0386 N   0  0  1  0  0  0  0  0  0  0  0  0
  2  1  1  0  0  0  0
  3  1  1  6  0  0  0
  3  4  1  0  0  0  0
  3  5  1  0  0  0  0
  5  6  1  1  0  0  0
  5  7  1  0  0  0  0
  7  8  1  6  0  0  0
  7  9  1  0  0  0  0
  9  4  1  6  0  0  0
  9 20  1  0  0  0  0
 10 11  1  0  0  0  0
 11 12  1  1  0  0  0
 11 13  1  0  0  0  0
 14 13  1  6  0  0  0
 15 14  1  0  0  0  0
 15 16  1  6  0  0  0
 16 10  1  0  0  0  0
 16 17  2  0  0  0  0
 18 15  1  0  0  0  0
 19 18  1  0  0  0  0
 20 14  1  0  0  0  0
 20 19  1  6  0  0  0
M  END
>  <CHROM.1>
177.99631047,-113.35495283,26.74949236,-7.74537379,44.00875313,0.81416079
0.61763225,-2.81288612

>  <Name>
1nyi_lig

>  <RI>
0

>  <Rbt.Current_Directory>
/home/itssahil/PROJECTS/Mol_Feturizer/New_Systems/rnas/1nyi

>  <Rbt.Executable>
rbdock ($Id: //depot/dev/client3/rdock/2013.1/src/exe/rbdock.cxx#4 $)

>  <Rbt.Library>
libRbt.so (2013.1, Build901 2013/11/27)

>  <Rbt.Parameter_File>
/export/apps/rDock/src/rDock_2013.1_src/data/scripts/dock_solv.prm

>  <Rbt.Receptor>
prm/pocket_docking_6.prm

>  <SCORE>
-7.69063

>  <SCORE.INTER>
-5.70017

>  <SCORE.INTER.CONST>
1

>  <SCORE.INTER.POLAR>
0

>  <SCORE.INTER.ROT>
2

>  <SCORE.INTER.SOLV>
10.2569

>  <SCORE.INTER.VDW>
-12.1524

>  <SCORE.INTER.norm>
-0.285008

>  <SCORE.INTRA>
-1.99047

>  <SCORE.INTRA.DIHEDRAL>
-2.51357

>  <SCORE.INTRA.DIHEDRAL.0>
3.72394

>  <SCORE.INTRA.POLAR>
0

>  <SCORE.INTRA.POLAR.0>
0

>  <SCORE.INTRA.REPUL>
0

>  <SCORE.INTRA.REPUL.0>
0

>  <SCORE.INTRA.SOLV>
-0.658816

>  <SCORE.INTRA.SOLV.lig_0>
-49.4697

>  <SCORE.INTRA.VDW>
-0.404275

>  <SCORE.INTRA.VDW.0>
-0.896538

>  <SCORE.INTRA.norm>
-0.0995234

>  <SCORE.RESTR>
0

>  <SCORE.RESTR.CAVITY>
0

>  <SCORE.RESTR.norm>
0

>  <SCORE.SYSTEM>
0

>  <SCORE.SYSTEM.CONST>
0

>  <SCORE.SYSTEM.DIHEDRAL>
0

>  <SCORE.SYSTEM.SOLV>
0

>  <SCORE.SYSTEM.norm>
0

>  <SCORE.heavy>
20

>  <SCORE.norm>
-0.384532

>  <RMSD>
6.347

$$$$
1nyi_lig
 OpenBabel11021811403D
libRbt.so/2013.1/901 2013/11/27
 20 22  0  0  0  0  0  0  0  0999 V2000
   21.8066   -1.8312   40.8093 C   0  0  0  0  0  0  0  0  0  0  0  0
   20.8812   -2.6525   41.5213 O   0  0  0  0  0  0  0  0  0  0  0  0
   22.6648   -2.6638   39.8828 C   0  0  1  0  0  0  0  0  0  0  0  0
   23.3245   -3.7016   40.6574 O   0  0  0  0  0  0  0  0  0  0  0  0
   21.8450   -3.3925   38.8237 C   0  0  1  0  0  0  0  0  0  0  0  0
   21.7059   -2.6089   37.6376 O   0  0  0  0  0  0  0  0  0  0  0  0
   22.6490   -4.6747   38.6182 C   0  0  1  0  0  0  0  0  0  0  0  0
   23.7849   -4.4936   37.7859 O   0  0  0  0  0  0  0  0  0  0  0  0
   23.0886   -4.9668   40.0512 C   0  0  2  0  0  0  0  0  0  0  0  0
   18.5556   -7.3790   40.3997 N   0  0  0  0  0  0  0  0  0  0  0  0
   19.0533   -6.5980   39.3851 C   0  0  1  0  0  0  0  0  0  0  0  0
   18.2467   -6.4390   38.3348 N   0  0  0  0  0  0  0  0  0  0  0  0
   20.2485   -6.0148   39.4011 N   0  0  0  0  0  0  0  0  0  0  0  0
   20.9343   -6.2711   40.5532 C   0  0  1  0  0  0  0  0  0  0  0  0
   20.5206   -7.0407   41.6262 C   0  0  1  0  0  0  0  0  0  0  0  0
   19.2417   -7.6625   41.5804 C   0  0  0  0  0  0  0  0  0  0  0  0
   18.7032   -8.3820   42.4311 O   0  0  0  0  0  0  0  0  0  0  0  0
   21.5034   -7.0787   42.6069 N   0  0  0  0  0  0  0  0  0  0  0  0
   22.4691   -6.3440   42.1278 C   0  0  0  0  0  0  0  0  0  0  0  0
   22.2018   -5.8090   40.8867 N   0  0  1  0  0  0  0  0  0  0  0  0
  2  1  1  0  0  0  0
  3  1  1  1  0  0  0
  3  4  1  0  0  0  0
  3  5  1  0  0  0  0
  5  6  1  6  0  0  0
  5  7  1  0  0  0  0
  7  8  1  6  0  0  0
  7  9  1  0  0  0  0
  9  4  1  1  0  0  0
  9 20  1  0  0  0  0
 10 11  1  0  0  0  0
 11 12  1  1  0  0  0
 11 13  1  0  0  0  0
 14 13  1  6  0  0  0
 15 14  1  0  0  0  0
 15 16  1  6  0  0  0
 16 10  1  0  0  0  0
 16 17  2  0  0  0  0
 18 15  1  0  0  0  0
 19 18  1  0  0  0  0
 20 14  1  0  0  0  0
 20 19  1  6  0  0  0
M  END
>  <CHROM.1>
-55.70596173,116.33621033,21.19430515,-5.25549187,40.24797060,-0.76028202
0.68280349,2.12927870

>  <Name>
1nyi_lig

>  <RI>
0

>  <Rbt.Current_Directory>
/home/itssahil/PROJECTS/Mol_Feturizer/New_Systems/rnas/1nyi

>  <Rbt.Executable>
rbdock ($Id: //depot/dev/client3/rdock/2013.1/src/exe/rbdock.cxx#4 $)

>  <Rbt.Library>
libRbt.so (2013.1, Build901 2013/11/27)

>  <Rbt.Parameter_File>
/export/apps/rDock/src/rDock_2013.1_src/data/scripts/dock_solv.prm

>  <Rbt.Receptor>
prm/pocket_docking_7.prm

>  <SCORE>
-12.2347

>  <SCORE.INTER>
-10.7888

>  <SCORE.INTER.CONST>
1

>  <SCORE.INTER.POLAR>
-1.595

>  <SCORE.INTER.ROT>
2

>  <SCORE.INTER.SOLV>
7.88799

>  <SCORE.INTER.VDW>
-9.43853

>  <SCORE.INTER.norm>
-0.539439

>  <SCORE.INTRA>
-1.44597

>  <SCORE.INTRA.DIHEDRAL>
-2.40988

>  <SCORE.INTRA.DIHEDRAL.0>
3.72394

>  <SCORE.INTRA.POLAR>
0

>  <SCORE.INTRA.POLAR.0>
0

>  <SCORE.INTRA.REPUL>
0

>  <SCORE.INTRA.REPUL.0>
0

>  <SCORE.INTRA.SOLV>
1.04584

>  <SCORE.INTRA.SOLV.lig_0>
-49.4697

>  <SCORE.INTRA.VDW>
-0.763953

>  <SCORE.INTRA.VDW.0>
-0.896538

>  <SCORE.INTRA.norm>
-0.0722987

>  <SCORE.RESTR>
0

>  <SCORE.RESTR.CAVITY>
0

>  <SCORE.RESTR.norm>
0

>  <SCORE.SYSTEM>
0

>  <SCORE.SYSTEM.CONST>
0

>  <SCORE.SYSTEM.DIHEDRAL>
0

>  <SCORE.SYSTEM.SOLV>
0

>  <SCORE.SYSTEM.norm>
0

>  <SCORE.heavy>
20

>  <SCORE.norm>
-0.611737

>  <RMSD>
6.402

$$$$
1nyi_lig
 OpenBabel11021811403D
libRbt.so/2013.1/901 2013/11/27
 20 22  0  0  0  0  0  0  0  0999 V2000
   28.4370  -10.2373   46.7321 C   0  0  0  0  0  0  0  0  0  0  0  0
   27.3512  -10.8325   47.4427 O   0  0  0  0  0  0  0  0  0  0  0  0
   28.3816  -10.5958   45.2636 C   0  0  1  0  0  0  0  0  0  0  0  0
   27.1296  -10.1111   44.7072 O   0  0  0  0  0  0  0  0  0  0  0  0
   29.4849   -9.9221   44.4553 C   0  0  1  0  0  0  0  0  0  0  0  0
   30.6566  -10.7362   44.3872 O   0  0  0  0  0  0  0  0  0  0  0  0
   28.8098   -9.7085   43.1021 C   0  0  1  0  0  0  0  0  0  0  0  0
   28.7767  -10.8819   42.3036 O   0  0  0  0  0  0  0  0  0  0  0  0
   27.3971   -9.3346   43.5456 C   0  0  2  0  0  0  0  0  0  0  0  0
   23.8006   -5.6532   43.5743 N   0  0  0  0  0  0  0  0  0  0  0  0
   23.6867   -6.9826   43.2472 C   0  0  1  0  0  0  0  0  0  0  0  0
   22.4672   -7.3816   42.8831 N   0  0  0  0  0  0  0  0  0  0  0  0
   24.6923   -7.8526   43.2717 N   0  0  0  0  0  0  0  0  0  0  0  0
   25.8683   -7.2741   43.6532 C   0  0  1  0  0  0  0  0  0  0  0  0
   26.0829   -5.9519   44.0005 C   0  0  1  0  0  0  0  0  0  0  0  0
   24.9886   -5.0430   43.9761 C   0  0  0  0  0  0  0  0  0  0  0  0
   24.9817   -3.8367   44.2525 O   0  0  0  0  0  0  0  0  0  0  0  0
   27.4124   -5.7482   44.3469 N   0  0  0  0  0  0  0  0  0  0  0  0
   27.9694   -6.9187   44.2005 C   0  0  0  0  0  0  0  0  0  0  0  0
   27.1026   -7.9012   43.7746 N   0  0  1  0  0  0  0  0  0  0  0  0
  2  1  1  0  0  0  0
  3  1  1  1  0  0  0
  3  4  1  0  0  0  0
  3  5  1  0  0  0  0
  5  6  1  6  0  0  0
  5  7  1  0  0  0  0
  7  8  1  6  0  0  0
  7  9  1  0  0  0  0
  9  4  1  1  0  0  0
  9 20  1  0  0  0  0
 10 11  1  0  0  0  0
 11 12  1  6  0  0  0
 11 13  1  0  0  0  0
 14 13  1  1  0  0  0
 15 14  1  0  0  0  0
 15 16  1  1  0  0  0
 16 10  1  0  0  0  0
 16 17  2  0  0  0  0
 18 15  1  0  0  0  0
 19 18  1  0  0  0  0
 20 14  1  0  0  0  0
 20 19  1  1  0  0  0
M  END
>  <CHROM.1>
60.05520825,-84.75513353,26.81430185,-8.19778852,44.18026533,0.81293593,0.16848598
3.06049499

>  <Name>
1nyi_lig

>  <RI>
0

>  <Rbt.Current_Directory>
/home/itssahil/PROJECTS/Mol_Feturizer/New_Systems/rnas/1nyi

>  <Rbt.Executable>
rbdock ($Id: //depot/dev/client3/rdock/2013.1/src/exe/rbdock.cxx#4 $)

>  <Rbt.Library>
libRbt.so (2013.1, Build901 2013/11/27)

>  <Rbt.Parameter_File>
/export/apps/rDock/src/rDock_2013.1_src/data/scripts/dock_solv.prm

>  <Rbt.Receptor>
prm/pocket_docking_7.prm

>  <SCORE>
-10.3763

>  <SCORE.INTER>
-8.43863

>  <SCORE.INTER.CONST>
1

>  <SCORE.INTER.POLAR>
-0.748331

>  <SCORE.INTER.ROT>
2

>  <SCORE.INTER.SOLV>
12.1901

>  <SCORE.INTER.VDW>
-12.128

>  <SCORE.INTER.norm>
-0.421931

>  <SCORE.INTRA>
-1.93771

>  <SCORE.INTRA.DIHEDRAL>
-2.58722

>  <SCORE.INTRA.DIHEDRAL.0>
3.72394

>  <SCORE.INTRA.POLAR>
0

>  <SCORE.INTRA.POLAR.0>
0

>  <SCORE.INTRA.REPUL>
0

>  <SCORE.INTRA.REPUL.0>
0

>  <SCORE.INTRA.SOLV>
-0.795774

>  <SCORE.INTRA.SOLV.lig_0>
-49.4697

>  <SCORE.INTRA.VDW>
-0.246216

>  <SCORE.INTRA.VDW.0>
-0.896538

>  <SCORE.INTRA.norm>
-0.0968857

>  <SCORE.RESTR>
0

>  <SCORE.RESTR.CAVITY>
0

>  <SCORE.RESTR.norm>
0

>  <SCORE.SYSTEM>
0

>  <SCORE.SYSTEM.CONST>
0

>  <SCORE.SYSTEM.DIHEDRAL>
0

>  <SCORE.SYSTEM.SOLV>
0

>  <SCORE.SYSTEM.norm>
0

>  <SCORE.heavy>
20

>  <SCORE.norm>
-0.518817

>  <RMSD>
6.430

$$$$
1nyi_lig
 OpenBabel11021811403D
libRbt.so/2013.1/901 2013/11/27
 20 22  0  0  0  0  0  0  0  0999 V2000
   24.6847   -5.2696   43.3721 C   0  0  0  0  0  0  0  0  0  0  0  0
   25.1890   -4.1513   44.1023 O   0  0  0  0  0  0  0  0  0  0  0  0
   23.2296   -5.0669   43.0120 C   0  0  1  0  0  0  0  0  0  0  0  0
   23.1133   -3.8922   42.1642 O   0  0  0  0  0  0  0  0  0  0  0  0
   22.6617   -6.2250   42.1990 C   0  0  1  0  0  0  0  0  0  0  0  0
   22.0889   -7.2259   43.0418 O   0  0  0  0  0  0  0  0  0  0  0  0
   21.6422   -5.5227   41.3046 C   0  0  1  0  0  0  0  0  0  0  0  0
   20.4216   -5.2342   41.9698 O   0  0  0  0  0  0  0  0  0  0  0  0
   22.3869   -4.2276   40.9879 C   0  0  2  0  0  0  0  0  0  0  0  0
   26.8286   -2.6117   38.9510 N   0  0  0  0  0  0  0  0  0  0  0  0
   26.3055   -2.3805   40.2001 C   0  0  1  0  0  0  0  0  0  0  0  0
   27.0555   -1.6273   41.0059 N   0  0  0  0  0  0  0  0  0  0  0  0
   25.1355   -2.8488   40.6246 N   0  0  0  0  0  0  0  0  0  0  0  0
   24.4961   -3.5867   39.6707 C   0  0  1  0  0  0  0  0  0  0  0  0
   24.9385   -3.8744   38.3915 C   0  0  1  0  0  0  0  0  0  0  0  0
   26.1985   -3.3701   37.9646 C   0  0  0  0  0  0  0  0  0  0  0  0
   26.7591   -3.5203   36.8715 O   0  0  0  0  0  0  0  0  0  0  0  0
   24.0156   -4.6685   37.7232 N   0  0  0  0  0  0  0  0  0  0  0  0
   23.0499   -4.8387   38.5837 C   0  0  0  0  0  0  0  0  0  0  0  0
   23.2590   -4.2084   39.7908 N   0  0  1  0  0  0  0  0  0  0  0  0
  2  1  1  0  0  0  0
  3  1  1  6  0  0  0
  3  4  1  0  0  0  0
  3  5  1  0  0  0  0
  5  6  1  1  0  0  0
  5  7  1  0  0  0  0
  7  8  1  1  0  0  0
  7  9  1  0  0  0  0
  9  4  1  1  0  0  0
  9 20  1  0  0  0  0
 10 11  1  0  0  0  0
 11 12  1  6  0  0  0
 11 13  1  0  0  0  0
 14 13  1  1  0  0  0
 15 14  1  0  0  0  0
 15 16  1  1  0  0  0
 16 10  1  0  0  0  0
 16 17  2  0  0  0  0
 18 15  1  0  0  0  0
 19 18  1  0  0  0  0
 20 14  1  0  0  0  0
 20 19  1  1  0  0  0
M  END
>  <CHROM.1>
61.47064291,-18.34976059,24.14770354,-4.23970224,40.64633123,-2.39478974
-0.55637719,-1.52717188

>  <Name>
1nyi_lig

>  <RI>
0

>  <Rbt.Current_Directory>
/home/itssahil/PROJECTS/Mol_Feturizer/New_Systems/rnas/1nyi

>  <Rbt.Executable>
rbdock ($Id: //depot/dev/client3/rdock/2013.1/src/exe/rbdock.cxx#4 $)

>  <Rbt.Library>
libRbt.so (2013.1, Build901 2013/11/27)

>  <Rbt.Parameter_File>
/export/apps/rDock/src/rDock_2013.1_src/data/scripts/dock_solv.prm

>  <Rbt.Receptor>
prm/pocket_docking_8.prm

>  <SCORE>
-14.1067

>  <SCORE.INTER>
-12.5069

>  <SCORE.INTER.CONST>
1

>  <SCORE.INTER.POLAR>
-1.96906

>  <SCORE.INTER.ROT>
2

>  <SCORE.INTER.SOLV>
14.5983

>  <SCORE.INTER.VDW>
-11.5738

>  <SCORE.INTER.norm>
-0.625344

>  <SCORE.INTRA>
-1.59977

>  <SCORE.INTRA.DIHEDRAL>
-2.41902

>  <SCORE.INTRA.DIHEDRAL.0>
3.72394

>  <SCORE.INTRA.POLAR>
0

>  <SCORE.INTRA.POLAR.0>
0

>  <SCORE.INTRA.REPUL>
0.00516197

>  <SCORE.INTRA.REPUL.0>
0

>  <SCORE.INTRA.SOLV>
0.290071

>  <SCORE.INTRA.SOLV.lig_0>
-49.4697

>  <SCORE.INTRA.VDW>
-0.56111

>  <SCORE.INTRA.VDW.0>
-0.896538

>  <SCORE.INTRA.norm>
-0.0799887

>  <SCORE.RESTR>
0

>  <SCORE.RESTR.CAVITY>
0

>  <SCORE.RESTR.norm>
0

>  <SCORE.SYSTEM>
0

>  <SCORE.SYSTEM.CONST>
0

>  <SCORE.SYSTEM.DIHEDRAL>
0

>  <SCORE.SYSTEM.SOLV>
0

>  <SCORE.SYSTEM.norm>
0

>  <SCORE.heavy>
20

>  <SCORE.norm>
-0.705333

>  <RMSD>
6.431

$$$$
1nyi_lig
 OpenBabel11021811403D
libRbt.so/2013.1/901 2013/11/27
 20 22  0  0  0  0  0  0  0  0999 V2000
   21.6361   -5.6223   38.2641 C   0  0  0  0  0  0  0  0  0  0  0  0
   21.0348   -4.7709   37.2886 O   0  0  0  0  0  0  0  0  0  0  0  0
   20.6410   -5.9966   39.3402 C   0  0  1  0  0  0  0  0  0  0  0  0
   21.2764   -6.9144   40.2708 O   0  0  0  0  0  0  0  0  0  0  0  0
   20.2016   -4.7973   40.1729 C   0  0  1  0  0  0  0  0  0  0  0  0
   19.0415   -4.1729   39.6212 O   0  0  0  0  0  0  0  0  0  0  0  0
   19.9634   -5.4259   41.5443 C   0  0  1  0  0  0  0  0  0  0  0  0
   18.7178   -6.1003   41.6402 O   0  0  0  0  0  0  0  0  0  0  0  0
   21.1112   -6.4317   41.5987 C   0  0  2  0  0  0  0  0  0  0  0  0
   24.9844   -7.5110   44.8115 N   0  0  0  0  0  0  0  0  0  0  0  0
   23.8440   -8.2295   44.5462 C   0  0  1  0  0  0  0  0  0  0  0  0
   23.7184   -9.3752   45.2176 N   0  0  0  0  0  0  0  0  0  0  0  0
   22.8981   -7.8517   43.6912 N   0  0  0  0  0  0  0  0  0  0  0  0
   23.1805   -6.6525   43.1034 C   0  0  1  0  0  0  0  0  0  0  0  0
   24.2957   -5.8581   43.3037 C   0  0  1  0  0  0  0  0  0  0  0  0
   25.2985   -6.2895   44.2161 C   0  0  0  0  0  0  0  0  0  0  0  0
   26.3560   -5.7249   44.5234 O   0  0  0  0  0  0  0  0  0  0  0  0
   24.2319   -4.7190   42.5116 N   0  0  0  0  0  0  0  0  0  0  0  0
   23.1042   -4.8349   41.8660 C   0  0  0  0  0  0  0  0  0  0  0  0
   22.3993   -5.9782   42.1726 N   0  0  1  0  0  0  0  0  0  0  0  0
  2  1  1  0  0  0  0
  3  1  1  6  0  0  0
  3  4  1  0  0  0  0
  3  5  1  0  0  0  0
  5  6  1  6  0  0  0
  5  7  1  0  0  0  0
  7  8  1  6  0  0  0
  7  9  1  0  0  0  0
  9  4  1  6  0  0  0
  9 20  1  0  0  0  0
 10 11  1  0  0  0  0
 11 12  1  1  0  0  0
 11 13  1  0  0  0  0
 14 13  1  6  0  0  0
 15 14  1  0  0  0  0
 15 16  1  6  0  0  0
 16 10  1  0  0  0  0
 16 17  2  0  0  0  0
 18 15  1  0  0  0  0
 19 18  1  0  0  0  0
 20 14  1  0  0  0  0
 20 19  1  6  0  0  0
M  END
>  <CHROM.1>
177.17044284,-103.71619250,22.34918993,-6.13873685,41.92347067,-2.31417083
0.33219081,2.22528506

>  <Name>
1nyi_lig

>  <RI>
0

>  <Rbt.Current_Directory>
/home/itssahil/PROJECTS/Mol_Feturizer/New_Systems/rnas/1nyi

>  <Rbt.Executable>
rbdock ($Id: //depot/dev/client3/rdock/2013.1/src/exe/rbdock.cxx#4 $)

>  <Rbt.Library>
libRbt.so (2013.1, Build901 2013/11/27)

>  <Rbt.Parameter_File>
/export/apps/rDock/src/rDock_2013.1_src/data/scripts/dock_solv.prm

>  <Rbt.Receptor>
prm/pocket_docking_8.prm

>  <SCORE>
-8.09713

>  <SCORE.INTER>
-6.12214

>  <SCORE.INTER.CONST>
1

>  <SCORE.INTER.POLAR>
-0.946047

>  <SCORE.INTER.ROT>
2

>  <SCORE.INTER.SOLV>
9.60123

>  <SCORE.INTER.VDW>
-9.06168

>  <SCORE.INTER.norm>
-0.306107

>  <SCORE.INTRA>
-1.97499

>  <SCORE.INTRA.DIHEDRAL>
-2.5374

>  <SCORE.INTRA.DIHEDRAL.0>
3.72394

>  <SCORE.INTRA.POLAR>
0

>  <SCORE.INTRA.POLAR.0>
0

>  <SCORE.INTRA.REPUL>
0

>  <SCORE.INTRA.REPUL.0>
0

>  <SCORE.INTRA.SOLV>
-0.647543

>  <SCORE.INTRA.SOLV.lig_0>
-49.4697

>  <SCORE.INTRA.VDW>
-0.382518

>  <SCORE.INTRA.VDW.0>
-0.896538

>  <SCORE.INTRA.norm>
-0.0987495

>  <SCORE.RESTR>
0

>  <SCORE.RESTR.CAVITY>
0

>  <SCORE.RESTR.norm>
0

>  <SCORE.SYSTEM>
0

>  <SCORE.SYSTEM.CONST>
0

>  <SCORE.SYSTEM.DIHEDRAL>
0

>  <SCORE.SYSTEM.SOLV>
0

>  <SCORE.SYSTEM.norm>
0

>  <SCORE.heavy>
20

>  <SCORE.norm>
-0.404856

>  <RMSD>
6.450

$$$$
1nyi_lig
 OpenBabel11021811403D
libRbt.so/2013.1/901 2013/11/27
 20 22  0  0  0  0  0  0  0  0999 V2000
   24.5863   -5.3468   43.3569 C   0  0  0  0  0  0  0  0  0  0  0  0
   25.1092   -4.2613   44.1226 O   0  0  0  0  0  0  0  0  0  0  0  0
   23.1392   -5.1010   42.9911 C   0  0  1  0  0  0  0  0  0  0  0  0
   23.0581   -3.9077   42.1655 O   0  0  0  0  0  0  0  0  0  0  0  0
   22.5486   -6.2287   42.1520 C   0  0  1  0  0  0  0  0  0  0  0  0
   21.9452   -7.2311   42.9714 O   0  0  0  0  0  0  0  0  0  0  0  0
   21.5532   -5.4841   41.2647 C   0  0  1  0  0  0  0  0  0  0  0  0
   20.3354   -5.1782   41.9272 O   0  0  0  0  0  0  0  0  0  0  0  0
   22.3321   -4.2022   40.9781 C   0  0  2  0  0  0  0  0  0  0  0  0
   26.8212   -2.6472   38.9986 N   0  0  0  0  0  0  0  0  0  0  0  0
   26.2942   -2.4256   40.2477 C   0  0  1  0  0  0  0  0  0  0  0  0
   27.0541   -1.7018   41.0710 N   0  0  0  0  0  0  0  0  0  0  0  0
   25.1116   -2.8760   40.6565 N   0  0  0  0  0  0  0  0  0  0  0  0
   24.4637   -3.5844   39.6861 C   0  0  1  0  0  0  0  0  0  0  0  0
   24.9090   -3.8602   38.4054 C   0  0  1  0  0  0  0  0  0  0  0  0
   26.1824   -3.3757   37.9955 C   0  0  0  0  0  0  0  0  0  0  0  0
   26.7474   -3.5197   36.9039 O   0  0  0  0  0  0  0  0  0  0  0  0
   23.9743   -4.6235   37.7177 N   0  0  0  0  0  0  0  0  0  0  0  0
   22.9992   -4.7874   38.5687 C   0  0  0  0  0  0  0  0  0  0  0  0
   23.2129   -4.1816   39.7874 N   0  0  1  0  0  0  0  0  0  0  0  0
  2  1  1  0  0  0  0
  3  1  1  6  0  0  0
  3  4  1  0  0  0  0
  3  5  1  0  0  0  0
  5  6  1  1  0  0  0
  5  7  1  0  0  0  0
  7  8  1  1  0  0  0
  7  9  1  0  0  0  0
  9  4  1  1  0  0  0
  9 20  1  0  0  0  0
 10 11  1  0  0  0  0
 11 12  1  6  0  0  0
 11 13  1  0  0  0  0
 14 13  1  1  0  0  0
 15 14  1  0  0  0  0
 15 16  1  1  0  0  0
 16 10  1  0  0  0  0
 16 17  2  0  0  0  0
 18 15  1  0  0  0  0
 19 18  1  0  0  0  0
 20 14  1  0  0  0  0
 20 19  1  1  0  0  0
M  END
>  <CHROM.1>
62.00897091,-18.61743354,24.09271147,-4.24880050,40.64766185,-2.40378754
-0.53461463,-1.51329063

>  <Name>
1nyi_lig

>  <RI>
0

>  <Rbt.Current_Directory>
/home/itssahil/PROJECTS/Mol_Feturizer/New_Systems/rnas/1nyi

>  <Rbt.Executable>
rbdock ($Id: //depot/dev/client3/rdock/2013.1/src/exe/rbdock.cxx#4 $)

>  <Rbt.Library>
libRbt.so (2013.1, Build901 2013/11/27)

>  <Rbt.Parameter_File>
/export/apps/rDock/src/rDock_2013.1_src/data/scripts/dock_solv.prm

>  <Rbt.Receptor>
prm/pocket_docking_7.prm

>  <SCORE>
-14.1035

>  <SCORE.INTER>
-12.513

>  <SCORE.INTER.CONST>
1

>  <SCORE.INTER.POLAR>
-1.95722

>  <SCORE.INTER.ROT>
2

>  <SCORE.INTER.SOLV>
14.4873

>  <SCORE.INTER.VDW>
-11.5804

>  <SCORE.INTER.norm>
-0.625652

>  <SCORE.INTRA>
-1.59043

>  <SCORE.INTRA.DIHEDRAL>
-2.41117

>  <SCORE.INTRA.DIHEDRAL.0>
3.72394

>  <SCORE.INTRA.POLAR>
0

>  <SCORE.INTRA.POLAR.0>
0

>  <SCORE.INTRA.REPUL>
0.0071306

>  <SCORE.INTRA.REPUL.0>
0

>  <SCORE.INTRA.SOLV>
0.272525

>  <SCORE.INTRA.SOLV.lig_0>
-49.4697

>  <SCORE.INTRA.VDW>
-0.556755

>  <SCORE.INTRA.VDW.0>
-0.896538

>  <SCORE.INTRA.norm>
-0.0795213

>  <SCORE.RESTR>
0

>  <SCORE.RESTR.CAVITY>
0

>  <SCORE.RESTR.norm>
0

>  <SCORE.SYSTEM>
0

>  <SCORE.SYSTEM.CONST>
0

>  <SCORE.SYSTEM.DIHEDRAL>
0

>  <SCORE.SYSTEM.SOLV>
0

>  <SCORE.SYSTEM.norm>
0

>  <SCORE.heavy>
20

>  <SCORE.norm>
-0.705173

>  <RMSD>
6.453

$$$$
1nyi_lig
 OpenBabel11021811403D
libRbt.so/2013.1/901 2013/11/27
 20 22  0  0  0  0  0  0  0  0999 V2000
   24.5673   -5.3957   43.3376 C   0  0  0  0  0  0  0  0  0  0  0  0
   25.1117   -4.3218   44.1048 O   0  0  0  0  0  0  0  0  0  0  0  0
   23.1250   -5.1215   42.9736 C   0  0  1  0  0  0  0  0  0  0  0  0
   23.0654   -3.9211   42.1564 O   0  0  0  0  0  0  0  0  0  0  0  0
   22.5144   -6.2324   42.1265 C   0  0  1  0  0  0  0  0  0  0  0  0
   21.8931   -7.2296   42.9387 O   0  0  0  0  0  0  0  0  0  0  0  0
   21.5326   -5.4639   41.2444 C   0  0  1  0  0  0  0  0  0  0  0  0
   20.3204   -5.1410   41.9090 O   0  0  0  0  0  0  0  0  0  0  0  0
   22.3343   -4.1941   40.9670 C   0  0  2  0  0  0  0  0  0  0  0  0
   26.8220   -2.6472   38.9779 N   0  0  0  0  0  0  0  0  0  0  0  0
   26.2943   -2.4175   40.2253 C   0  0  1  0  0  0  0  0  0  0  0  0
   27.0529   -1.6868   41.0437 N   0  0  0  0  0  0  0  0  0  0  0  0
   25.1121   -2.8665   40.6368 N   0  0  0  0  0  0  0  0  0  0  0  0
   24.4655   -3.5827   39.6713 C   0  0  1  0  0  0  0  0  0  0  0  0
   24.9117   -3.8671   38.3927 C   0  0  1  0  0  0  0  0  0  0  0  0
   26.1846   -3.3838   37.9798 C   0  0  0  0  0  0  0  0  0  0  0  0
   26.7502   -3.5348   36.8895 O   0  0  0  0  0  0  0  0  0  0  0  0
   23.9783   -4.6366   37.7102 N   0  0  0  0  0  0  0  0  0  0  0  0
   23.0031   -4.7957   38.5620 C   0  0  0  0  0  0  0  0  0  0  0  0
   23.2155   -4.1809   39.7765 N   0  0  1  0  0  0  0  0  0  0  0  0
  2  1  1  0  0  0  0
  3  1  1  6  0  0  0
  3  4  1  0  0  0  0
  3  5  1  0  0  0  0
  5  6  1  1  0  0  0
  5  7  1  0  0  0  0
  7  8  1  1  0  0  0
  7  9  1  0  0  0  0
  9  4  1  1  0  0  0
  9 20  1  0  0  0  0
 10 11  1  0  0  0  0
 11 12  1  6  0  0  0
 11 13  1  0  0  0  0
 14 13  1  1  0  0  0
 15 14  1  0  0  0  0
 15 16  1  1  0  0  0
 16 10  1  0  0  0  0
 16 17  2  0  0  0  0
 18 15  1  0  0  0  0
 19 18  1  0  0  0  0
 20 14  1  0  0  0  0
 20 19  1  1  0  0  0
M  END
>  <CHROM.1>
61.69453460,-19.98848676,24.08640169,-4.25395445,40.63040915,-2.40666901
-0.53143002,-1.51123444

>  <Name>
1nyi_lig

>  <RI>
0

>  <Rbt.Current_Directory>
/home/itssahil/PROJECTS/Mol_Feturizer/New_Systems/rnas/1nyi

>  <Rbt.Executable>
rbdock ($Id: //depot/dev/client3/rdock/2013.1/src/exe/rbdock.cxx#4 $)

>  <Rbt.Library>
libRbt.so (2013.1, Build901 2013/11/27)

>  <Rbt.Parameter_File>
/export/apps/rDock/src/rDock_2013.1_src/data/scripts/dock_solv.prm

>  <Rbt.Receptor>
prm/pocket_docking_8.prm

>  <SCORE>
-14.1364

>  <SCORE.INTER>
-12.5695

>  <SCORE.INTER.CONST>
1

>  <SCORE.INTER.POLAR>
-1.96003

>  <SCORE.INTER.ROT>
2

>  <SCORE.INTER.SOLV>
14.504

>  <SCORE.INTER.VDW>
-11.6143

>  <SCORE.INTER.norm>
-0.628476

>  <SCORE.INTRA>
-1.56683

>  <SCORE.INTRA.DIHEDRAL>
-2.41274

>  <SCORE.INTRA.DIHEDRAL.0>
3.72394

>  <SCORE.INTRA.POLAR>
0

>  <SCORE.INTRA.POLAR.0>
0

>  <SCORE.INTRA.REPUL>
0.0166036

>  <SCORE.INTRA.REPUL.0>
0

>  <SCORE.INTRA.SOLV>
0.228327

>  <SCORE.INTRA.SOLV.lig_0>
-49.4697

>  <SCORE.INTRA.VDW>
-0.557644

>  <SCORE.INTRA.VDW.0>
-0.896538

>  <SCORE.INTRA.norm>
-0.0783416

>  <SCORE.RESTR>
0

>  <SCORE.RESTR.CAVITY>
0

>  <SCORE.RESTR.norm>
0

>  <SCORE.SYSTEM>
0

>  <SCORE.SYSTEM.CONST>
0

>  <SCORE.SYSTEM.DIHEDRAL>
0

>  <SCORE.SYSTEM.SOLV>
0

>  <SCORE.SYSTEM.norm>
0

>  <SCORE.heavy>
20

>  <SCORE.norm>
-0.706818

>  <RMSD>
6.471

$$$$
1nyi_lig
 OpenBabel11021811403D
libRbt.so/2013.1/901 2013/11/27
 20 22  0  0  0  0  0  0  0  0999 V2000
   23.4309   -3.5276   36.6126 C   0  0  0  0  0  0  0  0  0  0  0  0
   24.5031   -4.3591   36.1688 O   0  0  0  0  0  0  0  0  0  0  0  0
   22.2784   -4.3618   37.1264 C   0  0  1  0  0  0  0  0  0  0  0  0
   22.7861   -5.3238   38.0902 O   0  0  0  0  0  0  0  0  0  0  0  0
   21.2425   -3.5301   37.8744 C   0  0  1  0  0  0  0  0  0  0  0  0
   20.2215   -3.0519   36.9974 O   0  0  0  0  0  0  0  0  0  0  0  0
   20.7337   -4.5157   38.9244 C   0  0  1  0  0  0  0  0  0  0  0  0
   19.7913   -5.4437   38.4083 O   0  0  0  0  0  0  0  0  0  0  0  0
   22.0306   -5.2332   39.2922 C   0  0  2  0  0  0  0  0  0  0  0  0
   23.8444   -5.9350   44.0573 N   0  0  0  0  0  0  0  0  0  0  0  0
   23.0223   -6.7414   43.3084 C   0  0  1  0  0  0  0  0  0  0  0  0
   22.6351   -7.8729   43.8992 N   0  0  0  0  0  0  0  0  0  0  0  0
   22.6088   -6.4582   42.0766 N   0  0  0  0  0  0  0  0  0  0  0  0
   23.0876   -5.2596   41.6324 C   0  0  1  0  0  0  0  0  0  0  0  0
   23.9166   -4.3813   42.3078 C   0  0  1  0  0  0  0  0  0  0  0  0
   24.3535   -4.7121   43.6208 C   0  0  0  0  0  0  0  0  0  0  0  0
   25.0904   -4.0638   44.3746 O   0  0  0  0  0  0  0  0  0  0  0  0
   24.1999   -3.2736   41.5192 N   0  0  0  0  0  0  0  0  0  0  0  0
   23.5485   -3.4895   40.4097 C   0  0  0  0  0  0  0  0  0  0  0  0
   22.8403   -4.6712   40.3979 N   0  0  1  0  0  0  0  0  0  0  0  0
  2  1  1  0  0  0  0
  3  1  1  1  0  0  0
  3  4  1  0  0  0  0
  3  5  1  0  0  0  0
  5  6  1  6  0  0  0
  5  7  1  0  0  0  0
  7  8  1  6  0  0  0
  7  9  1  0  0  0  0
  9  4  1  6  0  0  0
  9 20  1  0  0  0  0
 10 11  1  0  0  0  0
 11 12  1  1  0  0  0
 11 13  1  0  0  0  0
 14 13  1  6  0  0  0
 15 14  1  0  0  0  0
 15 16  1  6  0  0  0
 16 10  1  0  0  0  0
 16 17  2  0  0  0  0
 18 15  1  0  0  0  0
 19 18  1  0  0  0  0
 20 14  1  0  0  0  0
 20 19  1  6  0  0  0
M  END
>  <CHROM.1>
50.90746388,-123.41864309,22.79747519,-4.79672449,40.28376594,-1.90175122
0.53977067,1.97901486

>  <Name>
1nyi_lig

>  <RI>
0

>  <Rbt.Current_Directory>
/home/itssahil/PROJECTS/Mol_Feturizer/New_Systems/rnas/1nyi

>  <Rbt.Executable>
rbdock ($Id: //depot/dev/client3/rdock/2013.1/src/exe/rbdock.cxx#4 $)

>  <Rbt.Library>
libRbt.so (2013.1, Build901 2013/11/27)

>  <Rbt.Parameter_File>
/export/apps/rDock/src/rDock_2013.1_src/data/scripts/dock_solv.prm

>  <Rbt.Receptor>
prm/pocket_docking_8.prm

>  <SCORE>
-10.9065

>  <SCORE.INTER>
-8.98893

>  <SCORE.INTER.CONST>
1

>  <SCORE.INTER.POLAR>
-1.72905

>  <SCORE.INTER.ROT>
2

>  <SCORE.INTER.SOLV>
10.2838

>  <SCORE.INTER.VDW>
-8.59037

>  <SCORE.INTER.norm>
-0.449446

>  <SCORE.INTRA>
-1.9176

>  <SCORE.INTRA.DIHEDRAL>
-2.19824

>  <SCORE.INTRA.DIHEDRAL.0>
3.72394

>  <SCORE.INTRA.POLAR>
0

>  <SCORE.INTRA.POLAR.0>
0

>  <SCORE.INTRA.REPUL>
0

>  <SCORE.INTRA.REPUL.0>
0

>  <SCORE.INTRA.SOLV>
-0.819399

>  <SCORE.INTRA.SOLV.lig_0>
-49.4697

>  <SCORE.INTRA.VDW>
-0.40878

>  <SCORE.INTRA.VDW.0>
-0.896538

>  <SCORE.INTRA.norm>
-0.0958799

>  <SCORE.RESTR>
0

>  <SCORE.RESTR.CAVITY>
0

>  <SCORE.RESTR.norm>
0

>  <SCORE.SYSTEM>
0

>  <SCORE.SYSTEM.CONST>
0

>  <SCORE.SYSTEM.DIHEDRAL>
0

>  <SCORE.SYSTEM.SOLV>
0

>  <SCORE.SYSTEM.norm>
0

>  <SCORE.heavy>
20

>  <SCORE.norm>
-0.545326

>  <RMSD>
6.476

$$$$
1nyi_lig
 OpenBabel11021811403D
libRbt.so/2013.1/901 2013/11/27
 20 22  0  0  0  0  0  0  0  0999 V2000
   19.3195   -3.2947   43.2813 C   0  0  0  0  0  0  0  0  0  0  0  0
   20.4653   -2.4456   43.3466 O   0  0  0  0  0  0  0  0  0  0  0  0
   19.7292   -4.7417   43.1181 C   0  0  1  0  0  0  0  0  0  0  0  0
   20.5441   -4.8686   41.9215 O   0  0  0  0  0  0  0  0  0  0  0  0
   20.5990   -5.2364   44.2684 C   0  0  1  0  0  0  0  0  0  0  0  0
   19.8104   -5.8038   45.3155 O   0  0  0  0  0  0  0  0  0  0  0  0
   21.5100   -6.2464   43.5738 C   0  0  1  0  0  0  0  0  0  0  0  0
   20.8838   -7.5008   43.3498 O   0  0  0  0  0  0  0  0  0  0  0  0
   21.7574   -5.5377   42.2439 C   0  0  2  0  0  0  0  0  0  0  0  0
   25.1118   -3.1627   39.1461 N   0  0  0  0  0  0  0  0  0  0  0  0
   24.1037   -4.0413   38.8316 C   0  0  1  0  0  0  0  0  0  0  0  0
   23.9717   -4.3228   37.5345 N   0  0  0  0  0  0  0  0  0  0  0  0
   23.2903   -4.6034   39.7210 N   0  0  0  0  0  0  0  0  0  0  0  0
   23.5733   -4.2159   40.9989 C   0  0  1  0  0  0  0  0  0  0  0  0
   24.5617   -3.3412   41.4145 C   0  0  1  0  0  0  0  0  0  0  0  0
   25.4125   -2.7451   40.4424 C   0  0  0  0  0  0  0  0  0  0  0  0
   26.3410   -1.9457   40.6166 O   0  0  0  0  0  0  0  0  0  0  0  0
   24.5265   -3.1851   42.7941 N   0  0  0  0  0  0  0  0  0  0  0  0
   23.5470   -3.9540   43.1832 C   0  0  0  0  0  0  0  0  0  0  0  0
   22.9187   -4.6226   42.1555 N   0  0  1  0  0  0  0  0  0  0  0  0
  2  1  1  0  0  0  0
  3  1  1  1  0  0  0
  3  4  1  0  0  0  0
  3  5  1  0  0  0  0
  5  6  1  1  0  0  0
  5  7  1  0  0  0  0
  7  8  1  6  0  0  0
  7  9  1  0  0  0  0
  9  4  1  1  0  0  0
  9 20  1  0  0  0  0
 10 11  1  0  0  0  0
 11 12  1  1  0  0  0
 11 13  1  0  0  0  0
 14 13  1  6  0  0  0
 15 14  1  0  0  0  0
 15 16  1  6  0  0  0
 16 10  1  0  0  0  0
 16 17  2  0  0  0  0
 18 15  1  0  0  0  0
 19 18  1  0  0  0  0
 20 14  1  0  0  0  0
 20 19  1  6  0  0  0
M  END
>  <CHROM.1>
-57.41210669,-78.91574469,22.55190341,-4.29783158,41.90529210,-2.78178808
-0.69836404,-2.15710936

>  <Name>
1nyi_lig

>  <RI>
0

>  <Rbt.Current_Directory>
/home/itssahil/PROJECTS/Mol_Feturizer/New_Systems/rnas/1nyi

>  <Rbt.Executable>
rbdock ($Id: //depot/dev/client3/rdock/2013.1/src/exe/rbdock.cxx#4 $)

>  <Rbt.Library>
libRbt.so (2013.1, Build901 2013/11/27)

>  <Rbt.Parameter_File>
/export/apps/rDock/src/rDock_2013.1_src/data/scripts/dock_solv.prm

>  <Rbt.Receptor>
prm/pocket_docking_8.prm

>  <SCORE>
-10.4547

>  <SCORE.INTER>
-8.73288

>  <SCORE.INTER.CONST>
1

>  <SCORE.INTER.POLAR>
-1.73205

>  <SCORE.INTER.ROT>
2

>  <SCORE.INTER.SOLV>
11.6669

>  <SCORE.INTER.VDW>
-8.87071

>  <SCORE.INTER.norm>
-0.436644

>  <SCORE.INTRA>
-1.7218

>  <SCORE.INTRA.DIHEDRAL>
-2.55163

>  <SCORE.INTRA.DIHEDRAL.0>
3.72394

>  <SCORE.INTRA.POLAR>
0

>  <SCORE.INTRA.POLAR.0>
0

>  <SCORE.INTRA.REPUL>
0

>  <SCORE.INTRA.REPUL.0>
0

>  <SCORE.INTRA.SOLV>
0.0923417

>  <SCORE.INTRA.SOLV.lig_0>
-49.4697

>  <SCORE.INTRA.VDW>
-0.492153

>  <SCORE.INTRA.VDW.0>
-0.896538

>  <SCORE.INTRA.norm>
-0.08609

>  <SCORE.RESTR>
0

>  <SCORE.RESTR.CAVITY>
0

>  <SCORE.RESTR.norm>
0

>  <SCORE.SYSTEM>
0

>  <SCORE.SYSTEM.CONST>
0

>  <SCORE.SYSTEM.DIHEDRAL>
0

>  <SCORE.SYSTEM.SOLV>
0

>  <SCORE.SYSTEM.norm>
0

>  <SCORE.heavy>
20

>  <SCORE.norm>
-0.522734

>  <RMSD>
6.506

$$$$
1nyi_lig
 OpenBabel11021811403D
libRbt.so/2013.1/901 2013/11/27
 20 22  0  0  0  0  0  0  0  0999 V2000
   23.4090   -4.4109   41.9481 C   0  0  0  0  0  0  0  0  0  0  0  0
   22.9395   -3.0829   42.1805 O   0  0  0  0  0  0  0  0  0  0  0  0
   23.2992   -5.2491   43.2025 C   0  0  1  0  0  0  0  0  0  0  0  0
   21.9022   -5.3279   43.5956 O   0  0  0  0  0  0  0  0  0  0  0  0
   23.7524   -6.6885   42.9853 C   0  0  1  0  0  0  0  0  0  0  0  0
   25.1447   -6.8471   43.2621 O   0  0  0  0  0  0  0  0  0  0  0  0
   22.8473   -7.4604   43.9432 C   0  0  1  0  0  0  0  0  0  0  0  0
   23.2833   -7.4005   45.2930 O   0  0  0  0  0  0  0  0  0  0  0  0
   21.5385   -6.6909   43.7791 C   0  0  2  0  0  0  0  0  0  0  0  0
   17.0076   -8.9067   42.7540 N   0  0  0  0  0  0  0  0  0  0  0  0
   17.6058   -8.6626   43.9664 C   0  0  1  0  0  0  0  0  0  0  0  0
   16.9144   -9.0560   45.0370 N   0  0  0  0  0  0  0  0  0  0  0  0
   18.7923   -8.0809   44.1168 N   0  0  0  0  0  0  0  0  0  0  0  0
   19.3648   -7.7555   42.9211 C   0  0  1  0  0  0  0  0  0  0  0  0
   18.8446   -7.9591   41.6551 C   0  0  1  0  0  0  0  0  0  0  0  0
   17.5687   -8.5743   41.5212 C   0  0  0  0  0  0  0  0  0  0  0  0
   16.9433   -8.8353   40.4857 O   0  0  0  0  0  0  0  0  0  0  0  0
   19.7161   -7.4782   40.6865 N   0  0  0  0  0  0  0  0  0  0  0  0
   20.7280   -7.0096   41.3636 C   0  0  0  0  0  0  0  0  0  0  0  0
   20.5983   -7.1451   42.7284 N   0  0  1  0  0  0  0  0  0  0  0  0
  2  1  1  0  0  0  0
  3  1  1  6  0  0  0
  3  4  1  0  0  0  0
  3  5  1  0  0  0  0
  5  6  1  1  0  0  0
  5  7  1  0  0  0  0
  7  8  1  1  0  0  0
  7  9  1  0  0  0  0
  9  4  1  6  0  0  0
  9 20  1  0  0  0  0
 10 11  1  0  0  0  0
 11 12  1  6  0  0  0
 11 13  1  0  0  0  0
 14 13  1  1  0  0  0
 15 14  1  0  0  0  0
 15 16  1  1  0  0  0
 16 10  1  0  0  0  0
 16 17  2  0  0  0  0
 18 15  1  0  0  0  0
 19 18  1  0  0  0  0
 20 14  1  0  0  0  0
 20 19  1  1  0  0  0
M  END
>  <CHROM.1>
61.23438537,-126.86776097,20.67208072,-7.08920546,42.87565781,0.14334882
-0.45732759,-1.06498626

>  <Name>
1nyi_lig

>  <RI>
0

>  <Rbt.Current_Directory>
/home/itssahil/PROJECTS/Mol_Feturizer/New_Systems/rnas/1nyi

>  <Rbt.Executable>
rbdock ($Id: //depot/dev/client3/rdock/2013.1/src/exe/rbdock.cxx#4 $)

>  <Rbt.Library>
libRbt.so (2013.1, Build901 2013/11/27)

>  <Rbt.Parameter_File>
/export/apps/rDock/src/rDock_2013.1_src/data/scripts/dock_solv.prm

>  <Rbt.Receptor>
prm/pocket_docking_7.prm

>  <SCORE>
-5.72861

>  <SCORE.INTER>
-3.61497

>  <SCORE.INTER.CONST>
1

>  <SCORE.INTER.POLAR>
-0.618967

>  <SCORE.INTER.ROT>
2

>  <SCORE.INTER.SOLV>
6.80552

>  <SCORE.INTER.VDW>
-7.5486

>  <SCORE.INTER.norm>
-0.180749

>  <SCORE.INTRA>
-2.11364

>  <SCORE.INTRA.DIHEDRAL>
-2.45962

>  <SCORE.INTRA.DIHEDRAL.0>
3.72394

>  <SCORE.INTRA.POLAR>
0

>  <SCORE.INTRA.POLAR.0>
0

>  <SCORE.INTRA.REPUL>
0

>  <SCORE.INTRA.REPUL.0>
0

>  <SCORE.INTRA.SOLV>
-0.880214

>  <SCORE.INTRA.SOLV.lig_0>
-49.4697

>  <SCORE.INTRA.VDW>
-0.44372

>  <SCORE.INTRA.VDW.0>
-0.896538

>  <SCORE.INTRA.norm>
-0.105682

>  <SCORE.RESTR>
0

>  <SCORE.RESTR.CAVITY>
0

>  <SCORE.RESTR.norm>
0

>  <SCORE.SYSTEM>
0

>  <SCORE.SYSTEM.CONST>
0

>  <SCORE.SYSTEM.DIHEDRAL>
0

>  <SCORE.SYSTEM.SOLV>
0

>  <SCORE.SYSTEM.norm>
0

>  <SCORE.heavy>
20

>  <SCORE.norm>
-0.28643

>  <RMSD>
6.543

$$$$
1nyi_lig
 OpenBabel11021811403D
libRbt.so/2013.1/901 2013/11/27
 20 22  0  0  0  0  0  0  0  0999 V2000
   20.7773   -7.5946   45.1030 C   0  0  0  0  0  0  0  0  0  0  0  0
   20.4245   -7.1306   46.4062 O   0  0  0  0  0  0  0  0  0  0  0  0
   22.0031   -6.8736   44.5873 C   0  0  1  0  0  0  0  0  0  0  0  0
   22.3614   -7.4222   43.2900 O   0  0  0  0  0  0  0  0  0  0  0  0
   21.7531   -5.3875   44.3561 C   0  0  1  0  0  0  0  0  0  0  0  0
   22.0569   -4.6175   45.5202 O   0  0  0  0  0  0  0  0  0  0  0  0
   22.6663   -5.0868   43.1693 C   0  0  1  0  0  0  0  0  0  0  0  0
   24.0269   -4.9227   43.5398 O   0  0  0  0  0  0  0  0  0  0  0  0
   22.4953   -6.3636   42.3492 C   0  0  2  0  0  0  0  0  0  0  0  0
   21.1206   -5.3181   37.5009 N   0  0  0  0  0  0  0  0  0  0  0  0
   22.3185   -5.0966   38.1359 C   0  0  1  0  0  0  0  0  0  0  0  0
   23.2667   -4.5273   37.3903 N   0  0  0  0  0  0  0  0  0  0  0  0
   22.5660   -5.4062   39.4054 N   0  0  0  0  0  0  0  0  0  0  0  0
   21.4850   -5.9672   40.0218 C   0  0  1  0  0  0  0  0  0  0  0  0
   20.2433   -6.2298   39.4704 C   0  0  1  0  0  0  0  0  0  0  0  0
   20.0068   -5.8985   38.1071 C   0  0  0  0  0  0  0  0  0  0  0  0
   18.9747   -6.0570   37.4429 O   0  0  0  0  0  0  0  0  0  0  0  0
   19.4082   -6.8222   40.4089 N   0  0  0  0  0  0  0  0  0  0  0  0
   20.1364   -6.9003   41.4885 C   0  0  0  0  0  0  0  0  0  0  0  0
   21.4101   -6.3962   41.3416 N   0  0  1  0  0  0  0  0  0  0  0  0
  2  1  1  0  0  0  0
  3  1  1  6  0  0  0
  3  4  1  0  0  0  0
  3  5  1  0  0  0  0
  5  6  1  1  0  0  0
  5  7  1  0  0  0  0
  7  8  1  1  0  0  0
  7  9  1  0  0  0  0
  9  4  1  1  0  0  0
  9 20  1  0  0  0  0
 10 11  1  0  0  0  0
 11 12  1  1  0  0  0
 11 13  1  0  0  0  0
 14 13  1  6  0  0  0
 15 14  1  0  0  0  0
 15 16  1  6  0  0  0
 16 10  1  0  0  0  0
 16 17  2  0  0  0  0
 18 15  1  0  0  0  0
 19 18  1  0  0  0  0
 20 14  1  0  0  0  0
 20 19  1  6  0  0  0
M  END
>  <CHROM.1>
177.29243356,-149.82550635,21.47939448,-6.00637530,41.53232050,1.44721292
0.50171578,1.73233737

>  <Name>
1nyi_lig

>  <RI>
0

>  <Rbt.Current_Directory>
/home/itssahil/PROJECTS/Mol_Feturizer/New_Systems/rnas/1nyi

>  <Rbt.Executable>
rbdock ($Id: //depot/dev/client3/rdock/2013.1/src/exe/rbdock.cxx#4 $)

>  <Rbt.Library>
libRbt.so (2013.1, Build901 2013/11/27)

>  <Rbt.Parameter_File>
/export/apps/rDock/src/rDock_2013.1_src/data/scripts/dock_solv.prm

>  <Rbt.Receptor>
prm/pocket_docking_7.prm

>  <SCORE>
-7.39628

>  <SCORE.INTER>
-5.49788

>  <SCORE.INTER.CONST>
1

>  <SCORE.INTER.POLAR>
-1.16791

>  <SCORE.INTER.ROT>
2

>  <SCORE.INTER.SOLV>
8.60542

>  <SCORE.INTER.VDW>
-7.57404

>  <SCORE.INTER.norm>
-0.274894

>  <SCORE.INTRA>
-1.8984

>  <SCORE.INTRA.DIHEDRAL>
-2.39252

>  <SCORE.INTRA.DIHEDRAL.0>
3.72394

>  <SCORE.INTRA.POLAR>
0

>  <SCORE.INTRA.POLAR.0>
0

>  <SCORE.INTRA.REPUL>
0

>  <SCORE.INTRA.REPUL.0>
0

>  <SCORE.INTRA.SOLV>
-0.607687

>  <SCORE.INTRA.SOLV.lig_0>
-49.4697

>  <SCORE.INTRA.VDW>
-0.398296

>  <SCORE.INTRA.VDW.0>
-0.896538

>  <SCORE.INTRA.norm>
-0.0949199

>  <SCORE.RESTR>
0

>  <SCORE.RESTR.CAVITY>
0

>  <SCORE.RESTR.norm>
0

>  <SCORE.SYSTEM>
0

>  <SCORE.SYSTEM.CONST>
0

>  <SCORE.SYSTEM.DIHEDRAL>
0

>  <SCORE.SYSTEM.SOLV>
0

>  <SCORE.SYSTEM.norm>
0

>  <SCORE.heavy>
20

>  <SCORE.norm>
-0.369814

>  <RMSD>
6.808

$$$$
1nyi_lig
 OpenBabel11021811403D
libRbt.so/2013.1/901 2013/11/27
 20 22  0  0  0  0  0  0  0  0999 V2000
   20.1104   -4.8149   44.5587 C   0  0  0  0  0  0  0  0  0  0  0  0
   19.8239   -5.7337   45.6131 O   0  0  0  0  0  0  0  0  0  0  0  0
   20.0426   -5.5008   43.2122 C   0  0  1  0  0  0  0  0  0  0  0  0
   20.2940   -4.5194   42.1703 O   0  0  0  0  0  0  0  0  0  0  0  0
   21.1173   -6.5694   43.0456 C   0  0  1  0  0  0  0  0  0  0  0  0
   20.6550   -7.8498   43.4783 O   0  0  0  0  0  0  0  0  0  0  0  0
   21.4126   -6.5002   41.5488 C   0  0  1  0  0  0  0  0  0  0  0  0
   20.4476   -7.1775   40.7578 O   0  0  0  0  0  0  0  0  0  0  0  0
   21.3237   -4.9943   41.3112 C   0  0  2  0  0  0  0  0  0  0  0  0
   25.5753   -3.2135   39.0218 N   0  0  0  0  0  0  0  0  0  0  0  0
   24.5866   -4.0237   38.5185 C   0  0  1  0  0  0  0  0  0  0  0  0
   24.7486   -4.4072   37.2513 N   0  0  0  0  0  0  0  0  0  0  0  0
   23.5230   -4.4294   39.2062 N   0  0  0  0  0  0  0  0  0  0  0  0
   23.5227   -3.9559   40.4864 C   0  0  1  0  0  0  0  0  0  0  0  0
   24.4671   -3.1388   41.0825 C   0  0  1  0  0  0  0  0  0  0  0  0
   25.5907   -2.7100   40.3223 C   0  0  0  0  0  0  0  0  0  0  0  0
   26.5288   -1.9839   40.6751 O   0  0  0  0  0  0  0  0  0  0  0  0
   24.1101   -2.8574   42.3949 N   0  0  0  0  0  0  0  0  0  0  0  0
   22.9875   -3.4983   42.5708 C   0  0  0  0  0  0  0  0  0  0  0  0
   22.5632   -4.1977   41.4623 N   0  0  1  0  0  0  0  0  0  0  0  0
  2  1  1  0  0  0  0
  3  1  1  1  0  0  0
  3  4  1  0  0  0  0
  3  5  1  0  0  0  0
  5  6  1  6  0  0  0
  5  7  1  0  0  0  0
  7  8  1  6  0  0  0
  7  9  1  0  0  0  0
  9  4  1  1  0  0  0
  9 20  1  0  0  0  0
 10 11  1  0  0  0  0
 11 12  1  1  0  0  0
 11 13  1  0  0  0  0
 14 13  1  6  0  0  0
 15 14  1  0  0  0  0
 15 16  1  6  0  0  0
 16 10  1  0  0  0  0
 16 17  2  0  0  0  0
 18 15  1  0  0  0  0
 19 18  1  0  0  0  0
 20 14  1  0  0  0  0
 20 19  1  6  0  0  0
M  END
>  <CHROM.1>
178.02119114,-150.26177721,22.61873459,-4.63861801,41.48467284,-2.80440902
-0.73288726,-2.04051189

>  <Name>
1nyi_lig

>  <RI>
0

>  <Rbt.Current_Directory>
/home/itssahil/PROJECTS/Mol_Feturizer/New_Systems/rnas/1nyi

>  <Rbt.Executable>
rbdock ($Id: //depot/dev/client3/rdock/2013.1/src/exe/rbdock.cxx#4 $)

>  <Rbt.Library>
libRbt.so (2013.1, Build901 2013/11/27)

>  <Rbt.Parameter_File>
/export/apps/rDock/src/rDock_2013.1_src/data/scripts/dock_solv.prm

>  <Rbt.Receptor>
prm/pocket_docking_8.prm

>  <SCORE>
-9.46663

>  <SCORE.INTER>
-7.57184

>  <SCORE.INTER.CONST>
1

>  <SCORE.INTER.POLAR>
-1.62378

>  <SCORE.INTER.ROT>
2

>  <SCORE.INTER.SOLV>
14.505

>  <SCORE.INTER.VDW>
-9.40364

>  <SCORE.INTER.norm>
-0.378592

>  <SCORE.INTRA>
-1.89479

>  <SCORE.INTRA.DIHEDRAL>
-2.40419

>  <SCORE.INTRA.DIHEDRAL.0>
3.72394

>  <SCORE.INTRA.POLAR>
0

>  <SCORE.INTRA.POLAR.0>
0

>  <SCORE.INTRA.REPUL>
0

>  <SCORE.INTRA.REPUL.0>
0

>  <SCORE.INTRA.SOLV>
-0.601446

>  <SCORE.INTRA.SOLV.lig_0>
-49.4697

>  <SCORE.INTRA.VDW>
-0.391968

>  <SCORE.INTRA.VDW.0>
-0.896538

>  <SCORE.INTRA.norm>
-0.0947394

>  <SCORE.RESTR>
0

>  <SCORE.RESTR.CAVITY>
0

>  <SCORE.RESTR.norm>
0

>  <SCORE.SYSTEM>
0

>  <SCORE.SYSTEM.CONST>
0

>  <SCORE.SYSTEM.DIHEDRAL>
0

>  <SCORE.SYSTEM.SOLV>
0

>  <SCORE.SYSTEM.norm>
0

>  <SCORE.heavy>
20

>  <SCORE.norm>
-0.473331

>  <RMSD>
6.863

$$$$
1nyi_lig
 OpenBabel11021811403D
libRbt.so/2013.1/901 2013/11/27
 20 22  0  0  0  0  0  0  0  0999 V2000
   20.6769   -5.8827   44.9381 C   0  0  0  0  0  0  0  0  0  0  0  0
   19.5277   -6.6956   45.1755 O   0  0  0  0  0  0  0  0  0  0  0  0
   21.7996   -6.6983   44.3361 C   0  0  1  0  0  0  0  0  0  0  0  0
   21.3448   -7.2711   43.0802 O   0  0  0  0  0  0  0  0  0  0  0  0
   23.0180   -5.8498   43.9896 C   0  0  1  0  0  0  0  0  0  0  0  0
   23.9396   -5.7863   45.0790 O   0  0  0  0  0  0  0  0  0  0  0  0
   23.5729   -6.5675   42.7609 C   0  0  1  0  0  0  0  0  0  0  0  0
   24.3240   -7.7280   43.0844 O   0  0  0  0  0  0  0  0  0  0  0  0
   22.2781   -6.9600   42.0527 C   0  0  2  0  0  0  0  0  0  0  0  0
   18.4664   -5.9873   38.7340 N   0  0  0  0  0  0  0  0  0  0  0  0
   18.6908   -7.1030   39.5033 C   0  0  1  0  0  0  0  0  0  0  0  0
   17.7915   -8.0796   39.3741 N   0  0  0  0  0  0  0  0  0  0  0  0
   19.7199   -7.2511   40.3326 N   0  0  0  0  0  0  0  0  0  0  0  0
   20.5463   -6.1646   40.3314 C   0  0  1  0  0  0  0  0  0  0  0  0
   20.4061   -5.0006   39.5965 C   0  0  1  0  0  0  0  0  0  0  0  0
   19.2908   -4.8624   38.7239 C   0  0  0  0  0  0  0  0  0  0  0  0
   18.9956   -3.9068   37.9951 O   0  0  0  0  0  0  0  0  0  0  0  0
   21.4408   -4.1180   39.8784 N   0  0  0  0  0  0  0  0  0  0  0  0
   22.1768   -4.7485   40.7518 C   0  0  0  0  0  0  0  0  0  0  0  0
   21.7078   -6.0024   41.0770 N   0  0  1  0  0  0  0  0  0  0  0  0
  2  1  1  0  0  0  0
  3  1  1  6  0  0  0
  3  4  1  0  0  0  0
  3  5  1  0  0  0  0
  5  6  1  1  0  0  0
  5  7  1  0  0  0  0
  7  8  1  1  0  0  0
  7  9  1  0  0  0  0
  9  4  1  1  0  0  0
  9 20  1  0  0  0  0
 10 11  1  0  0  0  0
 11 12  1  6  0  0  0
 11 13  1  0  0  0  0
 14 13  1  1  0  0  0
 15 14  1  0  0  0  0
 15 16  1  1  0  0  0
 16 10  1  0  0  0  0
 16 17  2  0  0  0  0
 18 15  1  0  0  0  0
 19 18  1  0  0  0  0
 20 14  1  0  0  0  0
 20 19  1  1  0  0  0
M  END
>  <CHROM.1>
59.52055206,-57.08117095,21.00852978,-6.14223461,41.60119134,0.91997612,0.38060849
2.00592572

>  <Name>
1nyi_lig

>  <RI>
0

>  <Rbt.Current_Directory>
/home/itssahil/PROJECTS/Mol_Feturizer/New_Systems/rnas/1nyi

>  <Rbt.Executable>
rbdock ($Id: //depot/dev/client3/rdock/2013.1/src/exe/rbdock.cxx#4 $)

>  <Rbt.Library>
libRbt.so (2013.1, Build901 2013/11/27)

>  <Rbt.Parameter_File>
/export/apps/rDock/src/rDock_2013.1_src/data/scripts/dock_solv.prm

>  <Rbt.Receptor>
prm/pocket_docking_7.prm

>  <SCORE>
-6.26009

>  <SCORE.INTER>
-4.56383

>  <SCORE.INTER.CONST>
1

>  <SCORE.INTER.POLAR>
-1.14754

>  <SCORE.INTER.ROT>
2

>  <SCORE.INTER.SOLV>
5.90507

>  <SCORE.INTER.VDW>
-6.11912

>  <SCORE.INTER.norm>
-0.228191

>  <SCORE.INTRA>
-1.69777

>  <SCORE.INTRA.DIHEDRAL>
-2.49524

>  <SCORE.INTRA.DIHEDRAL.0>
3.72394

>  <SCORE.INTRA.POLAR>
0

>  <SCORE.INTRA.POLAR.0>
0

>  <SCORE.INTRA.REPUL>
0.0100863

>  <SCORE.INTRA.REPUL.0>
0

>  <SCORE.INTRA.SOLV>
-0.632882

>  <SCORE.INTRA.SOLV.lig_0>
-49.4697

>  <SCORE.INTRA.VDW>
-0.184143

>  <SCORE.INTRA.VDW.0>
-0.896538

>  <SCORE.INTRA.norm>
-0.0848886

>  <SCORE.RESTR>
0.00151427

>  <SCORE.RESTR.CAVITY>
0.00151427

>  <SCORE.RESTR.norm>
7.57135e-05

>  <SCORE.SYSTEM>
0

>  <SCORE.SYSTEM.CONST>
0

>  <SCORE.SYSTEM.DIHEDRAL>
0

>  <SCORE.SYSTEM.SOLV>
0

>  <SCORE.SYSTEM.norm>
0

>  <SCORE.heavy>
20

>  <SCORE.norm>
-0.313004

>  <RMSD>
6.887

$$$$
1nyi_lig
 OpenBabel11021811403D
libRbt.so/2013.1/901 2013/11/27
 20 22  0  0  0  0  0  0  0  0999 V2000
   21.8153   -3.5378   43.4765 C   0  0  0  0  0  0  0  0  0  0  0  0
   22.7611   -2.9968   44.3989 O   0  0  0  0  0  0  0  0  0  0  0  0
   21.8368   -5.0501   43.5066 C   0  0  1  0  0  0  0  0  0  0  0  0
   20.8289   -5.5539   42.5887 O   0  0  0  0  0  0  0  0  0  0  0  0
   23.1638   -5.6256   43.0245 C   0  0  1  0  0  0  0  0  0  0  0  0
   24.0799   -5.8074   44.1053 O   0  0  0  0  0  0  0  0  0  0  0  0
   22.7289   -6.9331   42.3657 C   0  0  1  0  0  0  0  0  0  0  0  0
   22.4804   -7.9728   43.3000 O   0  0  0  0  0  0  0  0  0  0  0  0
   21.4230   -6.4972   41.7049 C   0  0  2  0  0  0  0  0  0  0  0  0
   19.2922   -6.4817   37.0199 N   0  0  0  0  0  0  0  0  0  0  0  0
   18.9284   -7.1853   38.1423 C   0  0  1  0  0  0  0  0  0  0  0  0
   17.8683   -7.9824   38.0014 N   0  0  0  0  0  0  0  0  0  0  0  0
   19.5581   -7.1154   39.3116 N   0  0  0  0  0  0  0  0  0  0  0  0
   20.6250   -6.2648   39.2751 C   0  0  1  0  0  0  0  0  0  0  0  0
   21.0685   -5.5156   38.1995 C   0  0  1  0  0  0  0  0  0  0  0  0
   20.3714   -5.6002   36.9621 C   0  0  0  0  0  0  0  0  0  0  0  0
   20.6116   -5.0122   35.8999 O   0  0  0  0  0  0  0  0  0  0  0  0
   22.1761   -4.7574   38.5567 N   0  0  0  0  0  0  0  0  0  0  0  0
   22.3851   -5.0574   39.8089 C   0  0  0  0  0  0  0  0  0  0  0  0
   21.4916   -5.9722   40.3215 N   0  0  1  0  0  0  0  0  0  0  0  0
  2  1  1  0  0  0  0
  3  1  1  6  0  0  0
  3  4  1  0  0  0  0
  3  5  1  0  0  0  0
  5  6  1  1  0  0  0
  5  7  1  0  0  0  0
  7  8  1  1  0  0  0
  7  9  1  0  0  0  0
  9  4  1  1  0  0  0
  9 20  1  0  0  0  0
 10 11  1  0  0  0  0
 11 12  1  6  0  0  0
 11 13  1  0  0  0  0
 14 13  1  1  0  0  0
 15 14  1  0  0  0  0
 15 16  1  1  0  0  0
 16 10  1  0  0  0  0
 16 17  2  0  0  0  0
 18 15  1  0  0  0  0
 19 18  1  0  0  0  0
 20 14  1  0  0  0  0
 20 19  1  1  0  0  0
M  END
>  <CHROM.1>
178.04883475,-99.91812736,21.30934040,-5.82657343,40.56945438,-0.71635270
-0.97014631,-0.99261463

>  <Name>
1nyi_lig

>  <RI>
0

>  <Rbt.Current_Directory>
/home/itssahil/PROJECTS/Mol_Feturizer/New_Systems/rnas/1nyi

>  <Rbt.Executable>
rbdock ($Id: //depot/dev/client3/rdock/2013.1/src/exe/rbdock.cxx#4 $)

>  <Rbt.Library>
libRbt.so (2013.1, Build901 2013/11/27)

>  <Rbt.Parameter_File>
/export/apps/rDock/src/rDock_2013.1_src/data/scripts/dock_solv.prm

>  <Rbt.Receptor>
prm/pocket_docking_8.prm

>  <SCORE>
-9.71031

>  <SCORE.INTER>
-7.75778

>  <SCORE.INTER.CONST>
1

>  <SCORE.INTER.POLAR>
-1.18632

>  <SCORE.INTER.ROT>
2

>  <SCORE.INTER.SOLV>
8.61221

>  <SCORE.INTER.VDW>
-9.02152

>  <SCORE.INTER.norm>
-0.387889

>  <SCORE.INTRA>
-1.9526

>  <SCORE.INTRA.DIHEDRAL>
-2.56255

>  <SCORE.INTRA.DIHEDRAL.0>
3.72394

>  <SCORE.INTRA.POLAR>
0

>  <SCORE.INTRA.POLAR.0>
0

>  <SCORE.INTRA.REPUL>
0

>  <SCORE.INTRA.REPUL.0>
0

>  <SCORE.INTRA.SOLV>
-0.633245

>  <SCORE.INTRA.SOLV.lig_0>
-49.4697

>  <SCORE.INTRA.VDW>
-0.354709

>  <SCORE.INTRA.VDW.0>
-0.896538

>  <SCORE.INTRA.norm>
-0.0976302

>  <SCORE.RESTR>
7.34385e-05

>  <SCORE.RESTR.CAVITY>
7.34385e-05

>  <SCORE.RESTR.norm>
3.67192e-06

>  <SCORE.SYSTEM>
0

>  <SCORE.SYSTEM.CONST>
0

>  <SCORE.SYSTEM.DIHEDRAL>
0

>  <SCORE.SYSTEM.SOLV>
0

>  <SCORE.SYSTEM.norm>
0

>  <SCORE.heavy>
20

>  <SCORE.norm>
-0.485516

>  <RMSD>
6.942

$$$$
1nyi_lig
 OpenBabel11021811403D
libRbt.so/2013.1/901 2013/11/27
 20 22  0  0  0  0  0  0  0  0999 V2000
   29.7807  -12.0389   42.3626 C   0  0  0  0  0  0  0  0  0  0  0  0
   29.0522  -12.1820   41.1432 O   0  0  0  0  0  0  0  0  0  0  0  0
   30.1299  -10.5890   42.6153 C   0  0  1  0  0  0  0  0  0  0  0  0
   28.9382   -9.7781   42.4295 O   0  0  0  0  0  0  0  0  0  0  0  0
   30.5845  -10.3384   44.0489 C   0  0  1  0  0  0  0  0  0  0  0  0
   32.0000  -10.4769   44.1817 O   0  0  0  0  0  0  0  0  0  0  0  0
   30.0830   -8.9185   44.3036 C   0  0  1  0  0  0  0  0  0  0  0  0
   30.9197   -7.9212   43.7371 O   0  0  0  0  0  0  0  0  0  0  0  0
   28.7420   -8.9561   43.5738 C   0  0  2  0  0  0  0  0  0  0  0  0
   23.7304   -8.1952   44.4647 N   0  0  0  0  0  0  0  0  0  0  0  0
   24.5797   -7.5203   43.6219 C   0  0  1  0  0  0  0  0  0  0  0  0
   24.0288   -6.5207   42.9317 N   0  0  0  0  0  0  0  0  0  0  0  0
   25.8707   -7.8017   43.4705 N   0  0  0  0  0  0  0  0  0  0  0  0
   26.2699   -8.8415   44.2596 C   0  0  1  0  0  0  0  0  0  0  0  0
   25.4943   -9.5803   45.1356 C   0  0  1  0  0  0  0  0  0  0  0  0
   24.1134   -9.2660   45.2720 C   0  0  0  0  0  0  0  0  0  0  0  0
   23.2668   -9.8080   45.9939 O   0  0  0  0  0  0  0  0  0  0  0  0
   26.2556  -10.5676   45.7478 N   0  0  0  0  0  0  0  0  0  0  0  0
   27.4516  -10.4104   45.2510 C   0  0  0  0  0  0  0  0  0  0  0  0
   27.5492   -9.3781   44.3438 N   0  0  1  0  0  0  0  0  0  0  0  0
  2  1  1  0  0  0  0
  3  1  1  1  0  0  0
  3  4  1  0  0  0  0
  3  5  1  0  0  0  0
  5  6  1  6  0  0  0
  5  7  1  0  0  0  0
  7  8  1  6  0  0  0
  7  9  1  0  0  0  0
  9  4  1  6  0  0  0
  9 20  1  0  0  0  0
 10 11  1  0  0  0  0
 11 12  1  1  0  0  0
 11 13  1  0  0  0  0
 14 13  1  6  0  0  0
 15 14  1  0  0  0  0
 15 16  1  6  0  0  0
 16 10  1  0  0  0  0
 16 17  2  0  0  0  0
 18 15  1  0  0  0  0
 19 18  1  0  0  0  0
 20 14  1  0  0  0  0
 20 19  1  6  0  0  0
M  END
>  <CHROM.1>
48.35487816,-96.36765483,27.50186956,-9.48159274,43.91930146,0.22730429,-0.28865677
2.91418145

>  <Name>
1nyi_lig

>  <RI>
0

>  <Rbt.Current_Directory>
/home/itssahil/PROJECTS/Mol_Feturizer/New_Systems/rnas/1nyi

>  <Rbt.Executable>
rbdock ($Id: //depot/dev/client3/rdock/2013.1/src/exe/rbdock.cxx#4 $)

>  <Rbt.Library>
libRbt.so (2013.1, Build901 2013/11/27)

>  <Rbt.Parameter_File>
/export/apps/rDock/src/rDock_2013.1_src/data/scripts/dock_solv.prm

>  <Rbt.Receptor>
prm/pocket_docking_8.prm

>  <SCORE>
-10.0709

>  <SCORE.INTER>
-8.33617

>  <SCORE.INTER.CONST>
1

>  <SCORE.INTER.POLAR>
-0.999516

>  <SCORE.INTER.ROT>
2

>  <SCORE.INTER.SOLV>
13.0899

>  <SCORE.INTER.VDW>
-11.5224

>  <SCORE.INTER.norm>
-0.416809

>  <SCORE.INTRA>
-1.7347

>  <SCORE.INTRA.DIHEDRAL>
-2.1207

>  <SCORE.INTRA.DIHEDRAL.0>
3.72394

>  <SCORE.INTRA.POLAR>
0

>  <SCORE.INTRA.POLAR.0>
0

>  <SCORE.INTRA.REPUL>
0

>  <SCORE.INTRA.REPUL.0>
0

>  <SCORE.INTRA.SOLV>
-0.798441

>  <SCORE.INTRA.SOLV.lig_0>
-49.4697

>  <SCORE.INTRA.VDW>
-0.275134

>  <SCORE.INTRA.VDW.0>
-0.896538

>  <SCORE.INTRA.norm>
-0.0867352

>  <SCORE.RESTR>
0

>  <SCORE.RESTR.CAVITY>
0

>  <SCORE.RESTR.norm>
0

>  <SCORE.SYSTEM>
0

>  <SCORE.SYSTEM.CONST>
0

>  <SCORE.SYSTEM.DIHEDRAL>
0

>  <SCORE.SYSTEM.SOLV>
0

>  <SCORE.SYSTEM.norm>
0

>  <SCORE.heavy>
20

>  <SCORE.norm>
-0.503544

>  <RMSD>
6.975

$$$$
1nyi_lig
 OpenBabel11021811403D
libRbt.so/2013.1/901 2013/11/27
 20 22  0  0  0  0  0  0  0  0999 V2000
   20.3208   -7.5259   44.8601 C   0  0  0  0  0  0  0  0  0  0  0  0
   19.7955   -7.0621   46.1038 O   0  0  0  0  0  0  0  0  0  0  0  0
   21.5287   -6.7139   44.4483 C   0  0  1  0  0  0  0  0  0  0  0  0
   22.0720   -7.2677   43.2193 O   0  0  0  0  0  0  0  0  0  0  0  0
   21.1785   -5.2640   44.1324 C   0  0  1  0  0  0  0  0  0  0  0  0
   21.2863   -4.4345   45.2902 O   0  0  0  0  0  0  0  0  0  0  0  0
   22.1862   -4.9192   43.0377 C   0  0  1  0  0  0  0  0  0  0  0  0
   23.4792   -4.6220   43.5431 O   0  0  0  0  0  0  0  0  0  0  0  0
   22.2160   -6.2308   42.2561 C   0  0  2  0  0  0  0  0  0  0  0  0
   21.2835   -5.4420   37.2564 N   0  0  0  0  0  0  0  0  0  0  0  0
   22.3801   -5.0915   38.0059 C   0  0  1  0  0  0  0  0  0  0  0  0
   23.3468   -4.4531   37.3450 N   0  0  0  0  0  0  0  0  0  0  0  0
   22.5163   -5.3444   39.3045 N   0  0  0  0  0  0  0  0  0  0  0  0
   21.4313   -5.9905   39.8228 C   0  0  1  0  0  0  0  0  0  0  0  0
   20.2860   -6.3839   39.1531 C   0  0  1  0  0  0  0  0  0  0  0  0
   20.1688   -6.1107   37.7618 C   0  0  0  0  0  0  0  0  0  0  0  0
   19.2336   -6.3833   36.9984 O   0  0  0  0  0  0  0  0  0  0  0  0
   19.4124   -7.0297   40.0185 N   0  0  0  0  0  0  0  0  0  0  0  0
   20.0236   -7.0112   41.1709 C   0  0  0  0  0  0  0  0  0  0  0  0
   21.2538   -6.3917   41.1415 N   0  0  1  0  0  0  0  0  0  0  0  0
  2  1  1  0  0  0  0
  3  1  1  6  0  0  0
  3  4  1  0  0  0  0
  3  5  1  0  0  0  0
  5  6  1  1  0  0  0
  5  7  1  0  0  0  0
  7  8  1  1  0  0  0
  7  9  1  0  0  0  0
  9  4  1  1  0  0  0
  9 20  1  0  0  0  0
 10 11  1  0  0  0  0
 11 12  1  1  0  0  0
 11 13  1  0  0  0  0
 14 13  1  6  0  0  0
 15 14  1  0  0  0  0
 15 16  1  6  0  0  0
 16 10  1  0  0  0  0
 16 17  2  0  0  0  0
 18 15  1  0  0  0  0
 19 18  1  0  0  0  0
 20 14  1  0  0  0  0
 20 19  1  6  0  0  0
M  END
>  <CHROM.1>
176.85941230,-150.28862621,21.26606285,-5.98635895,41.32421917,1.55942246
0.60639056,1.64058452

>  <Name>
1nyi_lig

>  <RI>
0

>  <Rbt.Current_Directory>
/home/itssahil/PROJECTS/Mol_Feturizer/New_Systems/rnas/1nyi

>  <Rbt.Executable>
rbdock ($Id: //depot/dev/client3/rdock/2013.1/src/exe/rbdock.cxx#4 $)

>  <Rbt.Library>
libRbt.so (2013.1, Build901 2013/11/27)

>  <Rbt.Parameter_File>
/export/apps/rDock/src/rDock_2013.1_src/data/scripts/dock_solv.prm

>  <Rbt.Receptor>
prm/pocket_docking_8.prm

>  <SCORE>
-7.61821

>  <SCORE.INTER>
-5.72425

>  <SCORE.INTER.CONST>
1

>  <SCORE.INTER.POLAR>
-1.16005

>  <SCORE.INTER.ROT>
2

>  <SCORE.INTER.SOLV>
8.98231

>  <SCORE.INTER.VDW>
-7.87677

>  <SCORE.INTER.norm>
-0.286212

>  <SCORE.INTRA>
-1.89396

>  <SCORE.INTRA.DIHEDRAL>
-2.38404

>  <SCORE.INTRA.DIHEDRAL.0>
3.72394

>  <SCORE.INTRA.POLAR>
0

>  <SCORE.INTRA.POLAR.0>
0

>  <SCORE.INTRA.REPUL>
0

>  <SCORE.INTRA.REPUL.0>
0

>  <SCORE.INTRA.SOLV>
-0.607268

>  <SCORE.INTRA.SOLV.lig_0>
-49.4697

>  <SCORE.INTRA.VDW>
-0.398304

>  <SCORE.INTRA.VDW.0>
-0.896538

>  <SCORE.INTRA.norm>
-0.0946978

>  <SCORE.RESTR>
0

>  <SCORE.RESTR.CAVITY>
0

>  <SCORE.RESTR.norm>
0

>  <SCORE.SYSTEM>
0

>  <SCORE.SYSTEM.CONST>
0

>  <SCORE.SYSTEM.DIHEDRAL>
0

>  <SCORE.SYSTEM.SOLV>
0

>  <SCORE.SYSTEM.norm>
0

>  <SCORE.heavy>
20

>  <SCORE.norm>
-0.38091

>  <RMSD>
7.031

$$$$
1nyi_lig
 OpenBabel11021811403D
libRbt.so/2013.1/901 2013/11/27
 20 22  0  0  0  0  0  0  0  0999 V2000
   20.2881   -7.5082   44.8605 C   0  0  0  0  0  0  0  0  0  0  0  0
   20.6417   -8.8634   45.1369 O   0  0  0  0  0  0  0  0  0  0  0  0
   21.5039   -6.7058   44.4529 C   0  0  1  0  0  0  0  0  0  0  0  0
   22.0496   -7.2666   43.2282 O   0  0  0  0  0  0  0  0  0  0  0  0
   21.1657   -5.2543   44.1316 C   0  0  1  0  0  0  0  0  0  0  0  0
   21.2735   -4.4226   45.2878 O   0  0  0  0  0  0  0  0  0  0  0  0
   22.1814   -4.9194   43.0413 C   0  0  1  0  0  0  0  0  0  0  0  0
   23.4739   -4.6303   43.5526 O   0  0  0  0  0  0  0  0  0  0  0  0
   22.2059   -6.2332   42.2631 C   0  0  2  0  0  0  0  0  0  0  0  0
   21.2968   -5.4323   37.2610 N   0  0  0  0  0  0  0  0  0  0  0  0
   22.3907   -5.0854   38.0161 C   0  0  1  0  0  0  0  0  0  0  0  0
   23.3615   -4.4474   37.3607 N   0  0  0  0  0  0  0  0  0  0  0  0
   22.5208   -5.3413   39.3147 N   0  0  0  0  0  0  0  0  0  0  0  0
   21.4323   -5.9865   39.8269 C   0  0  1  0  0  0  0  0  0  0  0  0
   20.2893   -6.3764   39.1514 C   0  0  1  0  0  0  0  0  0  0  0  0
   20.1788   -6.1001   37.7601 C   0  0  0  0  0  0  0  0  0  0  0  0
   19.2465   -6.3695   36.9921 O   0  0  0  0  0  0  0  0  0  0  0  0
   19.4108   -7.0225   40.0116 N   0  0  0  0  0  0  0  0  0  0  0  0
   20.0170   -7.0074   41.1667 C   0  0  0  0  0  0  0  0  0  0  0  0
   21.2484   -6.3901   41.1440 N   0  0  1  0  0  0  0  0  0  0  0  0
  2  1  1  0  0  0  0
  3  1  1  6  0  0  0
  3  4  1  0  0  0  0
  3  5  1  0  0  0  0
  5  6  1  1  0  0  0
  5  7  1  0  0  0  0
  7  8  1  1  0  0  0
  7  9  1  0  0  0  0
  9  4  1  1  0  0  0
  9 20  1  0  0  0  0
 10 11  1  0  0  0  0
 11 12  1  1  0  0  0
 11 13  1  0  0  0  0
 14 13  1  6  0  0  0
 15 14  1  0  0  0  0
 15 16  1  6  0  0  0
 16 10  1  0  0  0  0
 16 17  2  0  0  0  0
 18 15  1  0  0  0  0
 19 18  1  0  0  0  0
 20 14  1  0  0  0  0
 20 19  1  6  0  0  0
M  END
>  <CHROM.1>
62.23388668,-150.69566020,21.31063756,-6.08338811,41.27204985,1.51845377
0.74062344,1.72159807

>  <Name>
1nyi_lig

>  <RI>
0

>  <Rbt.Current_Directory>
/home/itssahil/PROJECTS/Mol_Feturizer/New_Systems/rnas/1nyi

>  <Rbt.Executable>
rbdock ($Id: //depot/dev/client3/rdock/2013.1/src/exe/rbdock.cxx#4 $)

>  <Rbt.Library>
libRbt.so (2013.1, Build901 2013/11/27)

>  <Rbt.Parameter_File>
/export/apps/rDock/src/rDock_2013.1_src/data/scripts/dock_solv.prm

>  <Rbt.Receptor>
prm/pocket_docking_8.prm

>  <SCORE>
-7.75887

>  <SCORE.INTER>
-5.75583

>  <SCORE.INTER.CONST>
1

>  <SCORE.INTER.POLAR>
-1.15914

>  <SCORE.INTER.ROT>
2

>  <SCORE.INTER.SOLV>
9.55341

>  <SCORE.INTER.VDW>
-8.09123

>  <SCORE.INTER.norm>
-0.287792

>  <SCORE.INTRA>
-2.00303

>  <SCORE.INTRA.DIHEDRAL>
-2.39648

>  <SCORE.INTRA.DIHEDRAL.0>
3.72394

>  <SCORE.INTRA.POLAR>
0

>  <SCORE.INTRA.POLAR.0>
0

>  <SCORE.INTRA.REPUL>
0

>  <SCORE.INTRA.REPUL.0>
0

>  <SCORE.INTRA.SOLV>
-0.799079

>  <SCORE.INTRA.SOLV.lig_0>
-49.4697

>  <SCORE.INTRA.VDW>
-0.405256

>  <SCORE.INTRA.VDW.0>
-0.896538

>  <SCORE.INTRA.norm>
-0.100152

>  <SCORE.RESTR>
0

>  <SCORE.RESTR.CAVITY>
0

>  <SCORE.RESTR.norm>
0

>  <SCORE.SYSTEM>
0

>  <SCORE.SYSTEM.CONST>
0

>  <SCORE.SYSTEM.DIHEDRAL>
0

>  <SCORE.SYSTEM.SOLV>
0

>  <SCORE.SYSTEM.norm>
0

>  <SCORE.heavy>
20

>  <SCORE.norm>
-0.387943

>  <RMSD>
7.078

$$$$
1nyi_lig
 OpenBabel11021811403D
libRbt.so/2013.1/901 2013/11/27
 20 22  0  0  0  0  0  0  0  0999 V2000
   20.0339   -7.6166   44.8970 C   0  0  0  0  0  0  0  0  0  0  0  0
   20.4615   -8.9458   45.1944 O   0  0  0  0  0  0  0  0  0  0  0  0
   21.2155   -6.7298   44.5724 C   0  0  1  0  0  0  0  0  0  0  0  0
   21.8695   -7.2351   43.3770 O   0  0  0  0  0  0  0  0  0  0  0  0
   20.8008   -5.2992   44.2468 C   0  0  1  0  0  0  0  0  0  0  0  0
   20.7836   -4.4793   45.4164 O   0  0  0  0  0  0  0  0  0  0  0  0
   21.8552   -4.8819   43.2237 C   0  0  1  0  0  0  0  0  0  0  0  0
   23.0926   -4.5155   43.8154 O   0  0  0  0  0  0  0  0  0  0  0  0
   22.0138   -6.1796   42.4344 C   0  0  2  0  0  0  0  0  0  0  0  0
   21.4251   -5.5062   37.3659 N   0  0  0  0  0  0  0  0  0  0  0  0
   22.4577   -5.1174   38.1843 C   0  0  1  0  0  0  0  0  0  0  0  0
   23.4558   -4.4703   37.5808 N   0  0  0  0  0  0  0  0  0  0  0  0
   22.5059   -5.3427   39.4941 N   0  0  0  0  0  0  0  0  0  0  0  0
   21.4003   -6.0028   39.9470 C   0  0  1  0  0  0  0  0  0  0  0  0
   20.3143   -6.4341   39.2058 C   0  0  1  0  0  0  0  0  0  0  0  0
   20.2913   -6.1899   37.8043 C   0  0  0  0  0  0  0  0  0  0  0  0
   19.4190   -6.4976   36.9821 O   0  0  0  0  0  0  0  0  0  0  0  0
   19.3947   -7.0827   40.0199 N   0  0  0  0  0  0  0  0  0  0  0  0
   19.9214   -7.0288   41.2122 C   0  0  0  0  0  0  0  0  0  0  0  0
   21.1374   -6.3828   41.2577 N   0  0  1  0  0  0  0  0  0  0  0  0
  2  1  1  0  0  0  0
  3  1  1  6  0  0  0
  3  4  1  0  0  0  0
  3  5  1  0  0  0  0
  5  6  1  1  0  0  0
  5  7  1  0  0  0  0
  7  8  1  1  0  0  0
  7  9  1  0  0  0  0
  9  4  1  1  0  0  0
  9 20  1  0  0  0  0
 10 11  1  0  0  0  0
 11 12  1  1  0  0  0
 11 13  1  0  0  0  0
 14 13  1  6  0  0  0
 15 14  1  0  0  0  0
 15 16  1  6  0  0  0
 16 10  1  0  0  0  0
 16 17  2  0  0  0  0
 18 15  1  0  0  0  0
 19 18  1  0  0  0  0
 20 14  1  0  0  0  0
 20 19  1  6  0  0  0
M  END
>  <CHROM.1>
62.88488479,-147.49441799,21.19030981,-6.11198496,41.38577121,1.60165579
0.78776610,1.65735432

>  <Name>
1nyi_lig

>  <RI>
0

>  <Rbt.Current_Directory>
/home/itssahil/PROJECTS/Mol_Feturizer/New_Systems/rnas/1nyi

>  <Rbt.Executable>
rbdock ($Id: //depot/dev/client3/rdock/2013.1/src/exe/rbdock.cxx#4 $)

>  <Rbt.Library>
libRbt.so (2013.1, Build901 2013/11/27)

>  <Rbt.Parameter_File>
/export/apps/rDock/src/rDock_2013.1_src/data/scripts/dock_solv.prm

>  <Rbt.Receptor>
prm/pocket_docking_7.prm

>  <SCORE>
-7.52791

>  <SCORE.INTER>
-5.51955

>  <SCORE.INTER.CONST>
1

>  <SCORE.INTER.POLAR>
-1.21743

>  <SCORE.INTER.ROT>
2

>  <SCORE.INTER.SOLV>
9.67573

>  <SCORE.INTER.VDW>
-7.78017

>  <SCORE.INTER.norm>
-0.275977

>  <SCORE.INTRA>
-2.00836

>  <SCORE.INTRA.DIHEDRAL>
-2.38356

>  <SCORE.INTRA.DIHEDRAL.0>
3.72394

>  <SCORE.INTRA.POLAR>
0

>  <SCORE.INTRA.POLAR.0>
0

>  <SCORE.INTRA.REPUL>
0

>  <SCORE.INTRA.REPUL.0>
0

>  <SCORE.INTRA.SOLV>
-0.82381

>  <SCORE.INTRA.SOLV.lig_0>
-49.4697

>  <SCORE.INTRA.VDW>
-0.404678

>  <SCORE.INTRA.VDW.0>
-0.896538

>  <SCORE.INTRA.norm>
-0.100418

>  <SCORE.RESTR>
0

>  <SCORE.RESTR.CAVITY>
0

>  <SCORE.RESTR.norm>
0

>  <SCORE.SYSTEM>
0

>  <SCORE.SYSTEM.CONST>
0

>  <SCORE.SYSTEM.DIHEDRAL>
0

>  <SCORE.SYSTEM.SOLV>
0

>  <SCORE.SYSTEM.norm>
0

>  <SCORE.heavy>
20

>  <SCORE.norm>
-0.376396

>  <RMSD>
7.160

$$$$
1nyi_lig
 OpenBabel11021811403D
libRbt.so/2013.1/901 2013/11/27
 20 22  0  0  0  0  0  0  0  0999 V2000
   23.7430   -3.7434   40.0703 C   0  0  0  0  0  0  0  0  0  0  0  0
   23.8670   -2.6576   40.9889 O   0  0  0  0  0  0  0  0  0  0  0  0
   23.9348   -3.2699   38.6465 C   0  0  1  0  0  0  0  0  0  0  0  0
   23.8411   -4.4126   37.7534 O   0  0  0  0  0  0  0  0  0  0  0  0
   22.8444   -2.3023   38.2003 C   0  0  1  0  0  0  0  0  0  0  0  0
   23.2042   -0.9465   38.4699 O   0  0  0  0  0  0  0  0  0  0  0  0
   22.7222   -2.6174   36.7109 C   0  0  1  0  0  0  0  0  0  0  0  0
   23.7427   -2.0163   35.9279 O   0  0  0  0  0  0  0  0  0  0  0  0
   22.8966   -4.1344   36.7265 C   0  0  2  0  0  0  0  0  0  0  0  0
   19.8958   -6.8088   39.9409 N   0  0  0  0  0  0  0  0  0  0  0  0
   21.0671   -6.1373   40.1949 C   0  0  1  0  0  0  0  0  0  0  0  0
   21.4923   -6.1828   41.4583 N   0  0  0  0  0  0  0  0  0  0  0  0
   21.7691   -5.4755   39.2796 N   0  0  0  0  0  0  0  0  0  0  0  0
   21.1987   -5.5427   38.0412 C   0  0  1  0  0  0  0  0  0  0  0  0
   20.0281   -6.1900   37.6871 C   0  0  1  0  0  0  0  0  0  0  0  0
   19.2898   -6.8825   38.6870 C   0  0  0  0  0  0  0  0  0  0  0  0
   18.2309   -7.5116   38.5667 O   0  0  0  0  0  0  0  0  0  0  0  0
   19.7657   -6.0181   36.3341 N   0  0  0  0  0  0  0  0  0  0  0  0
   20.7601   -5.2940   35.8997 C   0  0  0  0  0  0  0  0  0  0  0  0
   21.6803   -4.9672   36.8715 N   0  0  1  0  0  0  0  0  0  0  0  0
  2  1  1  0  0  0  0
  3  1  1  1  0  0  0
  3  4  1  0  0  0  0
  3  5  1  0  0  0  0
  5  6  1  6  0  0  0
  5  7  1  0  0  0  0
  7  8  1  6  0  0  0
  7  9  1  0  0  0  0
  9  4  1  1  0  0  0
  9 20  1  0  0  0  0
 10 11  1  0  0  0  0
 11 12  1  6  0  0  0
 11 13  1  0  0  0  0
 14 13  1  1  0  0  0
 15 14  1  0  0  0  0
 15 16  1  1  0  0  0
 16 10  1  0  0  0  0
 16 17  2  0  0  0  0
 18 15  1  0  0  0  0
 19 18  1  0  0  0  0
 20 14  1  0  0  0  0
 20 19  1  1  0  0  0
M  END
>  <CHROM.1>
178.27013435,24.66712934,21.83677129,-4.60751073,38.32801327,-0.28296597
0.79868149,1.83008730

>  <Name>
1nyi_lig

>  <RI>
0

>  <Rbt.Current_Directory>
/home/itssahil/PROJECTS/Mol_Feturizer/New_Systems/rnas/1nyi

>  <Rbt.Executable>
rbdock ($Id: //depot/dev/client3/rdock/2013.1/src/exe/rbdock.cxx#4 $)

>  <Rbt.Library>
libRbt.so (2013.1, Build901 2013/11/27)

>  <Rbt.Parameter_File>
/export/apps/rDock/src/rDock_2013.1_src/data/scripts/dock_solv.prm

>  <Rbt.Receptor>
prm/pocket_docking_8.prm

>  <SCORE>
-6.83205

>  <SCORE.INTER>
-6.1624

>  <SCORE.INTER.CONST>
1

>  <SCORE.INTER.POLAR>
-0.956869

>  <SCORE.INTER.ROT>
2

>  <SCORE.INTER.SOLV>
8.94856

>  <SCORE.INTER.VDW>
-8.83489

>  <SCORE.INTER.norm>
-0.30812

>  <SCORE.INTRA>
-0.669993

>  <SCORE.INTRA.DIHEDRAL>
-2.57467

>  <SCORE.INTRA.DIHEDRAL.0>
3.72394

>  <SCORE.INTRA.POLAR>
0

>  <SCORE.INTRA.POLAR.0>
0

>  <SCORE.INTRA.REPUL>
0

>  <SCORE.INTRA.REPUL.0>
0

>  <SCORE.INTRA.SOLV>
1.94166

>  <SCORE.INTRA.SOLV.lig_0>
-49.4697

>  <SCORE.INTRA.VDW>
-0.353487

>  <SCORE.INTRA.VDW.0>
-0.896538

>  <SCORE.INTRA.norm>
-0.0334997

>  <SCORE.RESTR>
0.000343723

>  <SCORE.RESTR.CAVITY>
0.000343723

>  <SCORE.RESTR.norm>
1.71861e-05

>  <SCORE.SYSTEM>
0

>  <SCORE.SYSTEM.CONST>
0

>  <SCORE.SYSTEM.DIHEDRAL>
0

>  <SCORE.SYSTEM.SOLV>
0

>  <SCORE.SYSTEM.norm>
0

>  <SCORE.heavy>
20

>  <SCORE.norm>
-0.341603

>  <RMSD>
7.171

$$$$
1nyi_lig
 OpenBabel11021811403D
libRbt.so/2013.1/901 2013/11/27
 20 22  0  0  0  0  0  0  0  0999 V2000
   22.3095   -5.4374   43.9357 C   0  0  0  0  0  0  0  0  0  0  0  0
   21.8296   -5.1245   45.2433 O   0  0  0  0  0  0  0  0  0  0  0  0
   21.1908   -5.9587   43.0610 C   0  0  1  0  0  0  0  0  0  0  0  0
   20.1922   -4.9149   42.9015 O   0  0  0  0  0  0  0  0  0  0  0  0
   21.6620   -6.3028   41.6525 C   0  0  1  0  0  0  0  0  0  0  0  0
   22.0788   -7.6657   41.5575 O   0  0  0  0  0  0  0  0  0  0  0  0
   20.4284   -5.9812   40.8113 C   0  0  1  0  0  0  0  0  0  0  0  0
   19.4400   -6.9993   40.8585 O   0  0  0  0  0  0  0  0  0  0  0  0
   19.9231   -4.7250   41.5175 C   0  0  2  0  0  0  0  0  0  0  0  0
   23.1599   -2.2772   38.3522 N   0  0  0  0  0  0  0  0  0  0  0  0
   22.9837   -3.6252   38.5492 C   0  0  1  0  0  0  0  0  0  0  0  0
   23.7638   -4.4194   37.8145 N   0  0  0  0  0  0  0  0  0  0  0  0
   22.1121   -4.1535   39.4035 N   0  0  0  0  0  0  0  0  0  0  0  0
   21.4075   -3.2002   40.0802 C   0  0  1  0  0  0  0  0  0  0  0  0
   21.5122   -1.8263   39.9527 C   0  0  1  0  0  0  0  0  0  0  0  0
   22.4450   -1.2860   39.0242 C   0  0  0  0  0  0  0  0  0  0  0  0
   22.6791   -0.0978   38.7691 O   0  0  0  0  0  0  0  0  0  0  0  0
   20.6156   -1.1880   40.7999 N   0  0  0  0  0  0  0  0  0  0  0  0
   20.0029   -2.1606   41.4170 C   0  0  0  0  0  0  0  0  0  0  0  0
   20.4293   -3.4162   41.0435 N   0  0  1  0  0  0  0  0  0  0  0  0
  2  1  1  0  0  0  0
  3  1  1  1  0  0  0
  3  4  1  0  0  0  0
  3  5  1  0  0  0  0
  5  6  1  1  0  0  0
  5  7  1  0  0  0  0
  7  8  1  1  0  0  0
  7  9  1  0  0  0  0
  9  4  1  1  0  0  0
  9 20  1  0  0  0  0
 10 11  1  0  0  0  0
 11 12  1  1  0  0  0
 11 13  1  0  0  0  0
 14 13  1  6  0  0  0
 15 14  1  0  0  0  0
 15 16  1  6  0  0  0
 16 10  1  0  0  0  0
 16 17  2  0  0  0  0
 18 15  1  0  0  0  0
 19 18  1  0  0  0  0
 20 14  1  0  0  0  0
 20 19  1  6  0  0  0
M  END
>  <CHROM.1>
62.84108355,117.43037054,21.49730751,-4.07841207,40.88765373,2.13916688,-1.14640436
2.93624550

>  <Name>
1nyi_lig

>  <RI>
0

>  <Rbt.Current_Directory>
/home/itssahil/PROJECTS/Mol_Feturizer/New_Systems/rnas/1nyi

>  <Rbt.Executable>
rbdock ($Id: //depot/dev/client3/rdock/2013.1/src/exe/rbdock.cxx#4 $)

>  <Rbt.Library>
libRbt.so (2013.1, Build901 2013/11/27)

>  <Rbt.Parameter_File>
/export/apps/rDock/src/rDock_2013.1_src/data/scripts/dock_solv.prm

>  <Rbt.Receptor>
prm/pocket_docking_7.prm

>  <SCORE>
-8.73948

>  <SCORE.INTER>
-7.1656

>  <SCORE.INTER.CONST>
1

>  <SCORE.INTER.POLAR>
-1.74983

>  <SCORE.INTER.ROT>
2

>  <SCORE.INTER.SOLV>
9.33176

>  <SCORE.INTER.VDW>
-6.98823

>  <SCORE.INTER.norm>
-0.35828

>  <SCORE.INTRA>
-1.57387

>  <SCORE.INTRA.DIHEDRAL>
-2.45307

>  <SCORE.INTRA.DIHEDRAL.0>
3.72394

>  <SCORE.INTRA.POLAR>
0

>  <SCORE.INTRA.POLAR.0>
0

>  <SCORE.INTRA.REPUL>
0

>  <SCORE.INTRA.REPUL.0>
0

>  <SCORE.INTRA.SOLV>
0.122848

>  <SCORE.INTRA.SOLV.lig_0>
-49.4697

>  <SCORE.INTRA.VDW>
-0.408766

>  <SCORE.INTRA.VDW.0>
-0.896538

>  <SCORE.INTRA.norm>
-0.0786937

>  <SCORE.RESTR>
0

>  <SCORE.RESTR.CAVITY>
0

>  <SCORE.RESTR.norm>
0

>  <SCORE.SYSTEM>
0

>  <SCORE.SYSTEM.CONST>
0

>  <SCORE.SYSTEM.DIHEDRAL>
0

>  <SCORE.SYSTEM.SOLV>
0

>  <SCORE.SYSTEM.norm>
0

>  <SCORE.heavy>
20

>  <SCORE.norm>
-0.436974

>  <RMSD>
7.330

$$$$
1nyi_lig
 OpenBabel11021811403D
libRbt.so/2013.1/901 2013/11/27
 20 22  0  0  0  0  0  0  0  0999 V2000
   19.3289   -6.6644   40.6406 C   0  0  0  0  0  0  0  0  0  0  0  0
   19.1531   -7.5894   39.5675 O   0  0  0  0  0  0  0  0  0  0  0  0
   20.3186   -7.1955   41.6538 C   0  0  1  0  0  0  0  0  0  0  0  0
   21.6521   -7.1519   41.0774 O   0  0  0  0  0  0  0  0  0  0  0  0
   20.3816   -6.3395   42.9139 C   0  0  1  0  0  0  0  0  0  0  0  0
   19.4562   -6.7934   43.9028 O   0  0  0  0  0  0  0  0  0  0  0  0
   21.8433   -6.4864   43.3317 C   0  0  1  0  0  0  0  0  0  0  0  0
   22.1114   -7.7078   44.0039 O   0  0  0  0  0  0  0  0  0  0  0  0
   22.5307   -6.4750   41.9682 C   0  0  2  0  0  0  0  0  0  0  0  0
   22.6598   -3.4026   37.8411 N   0  0  0  0  0  0  0  0  0  0  0  0
   22.1659   -4.6785   37.9647 C   0  0  1  0  0  0  0  0  0  0  0  0
   21.6425   -5.2013   36.8548 N   0  0  0  0  0  0  0  0  0  0  0  0
   22.1873   -5.3883   39.0891 N   0  0  0  0  0  0  0  0  0  0  0  0
   22.7684   -4.7080   40.1200 C   0  0  1  0  0  0  0  0  0  0  0  0
   23.2922   -3.4275   40.0948 C   0  0  1  0  0  0  0  0  0  0  0  0
   23.2481   -2.6848   38.8821 C   0  0  0  0  0  0  0  0  0  0  0  0
   23.6583   -1.5375   38.6651 O   0  0  0  0  0  0  0  0  0  0  0  0
   23.7818   -3.0760   41.3462 N   0  0  0  0  0  0  0  0  0  0  0  0
   23.5592   -4.1254   42.0887 C   0  0  0  0  0  0  0  0  0  0  0  0
   22.9527   -5.1656   41.4192 N   0  0  1  0  0  0  0  0  0  0  0  0
  2  1  1  0  0  0  0
  3  1  1  6  0  0  0
  3  4  1  0  0  0  0
  3  5  1  0  0  0  0
  5  6  1  1  0  0  0
  5  7  1  0  0  0  0
  7  8  1  6  0  0  0
  7  9  1  0  0  0  0
  9  4  1  6  0  0  0
  9 20  1  0  0  0  0
 10 11  1  0  0  0  0
 11 12  1  6  0  0  0
 11 13  1  0  0  0  0
 14 13  1  1  0  0  0
 15 14  1  0  0  0  0
 15 16  1  1  0  0  0
 16 10  1  0  0  0  0
 16 17  2  0  0  0  0
 18 15  1  0  0  0  0
 19 18  1  0  0  0  0
 20 14  1  0  0  0  0
 20 19  1  1  0  0  0
M  END
>  <CHROM.1>
71.44235395,-11.83729680,21.90025886,-5.33112786,40.69966698,2.17434107,0.78498774
1.88713319

>  <Name>
1nyi_lig

>  <RI>
0

>  <Rbt.Current_Directory>
/home/itssahil/PROJECTS/Mol_Feturizer/New_Systems/rnas/1nyi

>  <Rbt.Executable>
rbdock ($Id: //depot/dev/client3/rdock/2013.1/src/exe/rbdock.cxx#4 $)

>  <Rbt.Library>
libRbt.so (2013.1, Build901 2013/11/27)

>  <Rbt.Parameter_File>
/export/apps/rDock/src/rDock_2013.1_src/data/scripts/dock_solv.prm

>  <Rbt.Receptor>
prm/pocket_docking_8.prm

>  <SCORE>
-9.29576

>  <SCORE.INTER>
-7.88574

>  <SCORE.INTER.CONST>
1

>  <SCORE.INTER.POLAR>
-1.39264

>  <SCORE.INTER.ROT>
2

>  <SCORE.INTER.SOLV>
10.3707

>  <SCORE.INTER.VDW>
-9.00526

>  <SCORE.INTER.norm>
-0.394287

>  <SCORE.INTRA>
-1.41002

>  <SCORE.INTRA.DIHEDRAL>
-1.9808

>  <SCORE.INTRA.DIHEDRAL.0>
3.72394

>  <SCORE.INTRA.POLAR>
0

>  <SCORE.INTRA.POLAR.0>
0

>  <SCORE.INTRA.REPUL>
0

>  <SCORE.INTRA.REPUL.0>
0

>  <SCORE.INTRA.SOLV>
0.381286

>  <SCORE.INTRA.SOLV.lig_0>
-49.4697

>  <SCORE.INTRA.VDW>
-0.610259

>  <SCORE.INTRA.VDW.0>
-0.896538

>  <SCORE.INTRA.norm>
-0.0705009

>  <SCORE.RESTR>
0

>  <SCORE.RESTR.CAVITY>
0

>  <SCORE.RESTR.norm>
0

>  <SCORE.SYSTEM>
0

>  <SCORE.SYSTEM.CONST>
0

>  <SCORE.SYSTEM.DIHEDRAL>
0

>  <SCORE.SYSTEM.SOLV>
0

>  <SCORE.SYSTEM.norm>
0

>  <SCORE.heavy>
20

>  <SCORE.norm>
-0.464788

>  <RMSD>
7.358

$$$$
1nyi_lig
 OpenBabel11021811403D
libRbt.so/2013.1/901 2013/11/27
 20 22  0  0  0  0  0  0  0  0999 V2000
   23.6747   -7.8457   43.9156 C   0  0  0  0  0  0  0  0  0  0  0  0
   22.4735   -8.4966   44.3295 O   0  0  0  0  0  0  0  0  0  0  0  0
   23.4434   -7.0341   42.6602 C   0  0  1  0  0  0  0  0  0  0  0  0
   22.4722   -7.7226   41.8264 O   0  0  0  0  0  0  0  0  0  0  0  0
   22.8436   -5.6633   42.9525 C   0  0  1  0  0  0  0  0  0  0  0  0
   23.8588   -4.6766   43.1427 O   0  0  0  0  0  0  0  0  0  0  0  0
   21.9780   -5.4192   41.7180 C   0  0  1  0  0  0  0  0  0  0  0  0
   22.7238   -4.9851   40.5907 O   0  0  0  0  0  0  0  0  0  0  0  0
   21.4277   -6.8229   41.4753 C   0  0  2  0  0  0  0  0  0  0  0  0
   16.7349   -8.8582   40.9060 N   0  0  0  0  0  0  0  0  0  0  0  0
   17.7104   -8.6360   39.9645 C   0  0  1  0  0  0  0  0  0  0  0  0
   17.3997   -8.9995   38.7194 N   0  0  0  0  0  0  0  0  0  0  0  0
   18.8976   -8.0956   40.2238 N   0  0  0  0  0  0  0  0  0  0  0  0
   19.0425   -7.7721   41.5420 C   0  0  1  0  0  0  0  0  0  0  0  0
   18.1237   -7.9556   42.5602 C   0  0  1  0  0  0  0  0  0  0  0  0
   16.8645   -8.5454   42.2589 C   0  0  0  0  0  0  0  0  0  0  0  0
   15.9245   -8.7906   43.0257 O   0  0  0  0  0  0  0  0  0  0  0  0
   18.6427   -7.5152   43.7709 N   0  0  0  0  0  0  0  0  0  0  0  0
   19.8346   -7.0762   43.4730 C   0  0  0  0  0  0  0  0  0  0  0  0
   20.1544   -7.1888   42.1377 N   0  0  1  0  0  0  0  0  0  0  0  0
  2  1  1  0  0  0  0
  3  1  1  1  0  0  0
  3  4  1  0  0  0  0
  3  5  1  0  0  0  0
  5  6  1  6  0  0  0
  5  7  1  0  0  0  0
  7  8  1  6  0  0  0
  7  9  1  0  0  0  0
  9  4  1  1  0  0  0
  9 20  1  0  0  0  0
 10 11  1  0  0  0  0
 11 12  1  6  0  0  0
 11 13  1  0  0  0  0
 14 13  1  1  0  0  0
 15 14  1  0  0  0  0
 15 16  1  1  0  0  0
 16 10  1  0  0  0  0
 16 17  2  0  0  0  0
 18 15  1  0  0  0  0
 19 18  1  0  0  0  0
 20 14  1  0  0  0  0
 20 19  1  1  0  0  0
M  END
>  <CHROM.1>
-34.60412635,-106.29995032,20.26969831,-7.38909909,42.08243416,0.13566380
0.41466494,1.80259075

>  <Name>
1nyi_lig

>  <RI>
0

>  <Rbt.Current_Directory>
/home/itssahil/PROJECTS/Mol_Feturizer/New_Systems/rnas/1nyi

>  <Rbt.Executable>
rbdock ($Id: //depot/dev/client3/rdock/2013.1/src/exe/rbdock.cxx#4 $)

>  <Rbt.Library>
libRbt.so (2013.1, Build901 2013/11/27)

>  <Rbt.Parameter_File>
/export/apps/rDock/src/rDock_2013.1_src/data/scripts/dock_solv.prm

>  <Rbt.Receptor>
prm/pocket_docking_7.prm

>  <SCORE>
-10.1678

>  <SCORE.INTER>
-9.40616

>  <SCORE.INTER.CONST>
1

>  <SCORE.INTER.POLAR>
-1.79724

>  <SCORE.INTER.ROT>
2

>  <SCORE.INTER.SOLV>
8.52428

>  <SCORE.INTER.VDW>
-8.05473

>  <SCORE.INTER.norm>
-0.470308

>  <SCORE.INTRA>
-0.762011

>  <SCORE.INTRA.DIHEDRAL>
-0.543175

>  <SCORE.INTRA.DIHEDRAL.0>
3.72394

>  <SCORE.INTRA.POLAR>
0

>  <SCORE.INTRA.POLAR.0>
0

>  <SCORE.INTRA.REPUL>
0

>  <SCORE.INTRA.REPUL.0>
0

>  <SCORE.INTRA.SOLV>
0.00622043

>  <SCORE.INTRA.SOLV.lig_0>
-49.4697

>  <SCORE.INTRA.VDW>
-0.493534

>  <SCORE.INTRA.VDW.0>
-0.896538

>  <SCORE.INTRA.norm>
-0.0381005

>  <SCORE.RESTR>
0.000329728

>  <SCORE.RESTR.CAVITY>
0.000329728

>  <SCORE.RESTR.norm>
1.64864e-05

>  <SCORE.SYSTEM>
0

>  <SCORE.SYSTEM.CONST>
0

>  <SCORE.SYSTEM.DIHEDRAL>
0

>  <SCORE.SYSTEM.SOLV>
0

>  <SCORE.SYSTEM.norm>
0

>  <SCORE.heavy>
20

>  <SCORE.norm>
-0.508392

>  <RMSD>
7.369

$$$$
1nyi_lig
 OpenBabel11021811403D
libRbt.so/2013.1/901 2013/11/27
 20 22  0  0  0  0  0  0  0  0999 V2000
   19.3023   -6.7493   40.5975 C   0  0  0  0  0  0  0  0  0  0  0  0
   19.1576   -7.6915   39.5348 O   0  0  0  0  0  0  0  0  0  0  0  0
   20.2710   -7.2586   41.6417 C   0  0  1  0  0  0  0  0  0  0  0  0
   21.6194   -7.1984   41.1028 O   0  0  0  0  0  0  0  0  0  0  0  0
   20.2856   -6.3935   42.8971 C   0  0  1  0  0  0  0  0  0  0  0  0
   19.3396   -6.8549   43.8628 O   0  0  0  0  0  0  0  0  0  0  0  0
   21.7369   -6.5153   43.3569 C   0  0  1  0  0  0  0  0  0  0  0  0
   22.0043   -7.7281   44.0448 O   0  0  0  0  0  0  0  0  0  0  0  0
   22.4623   -6.5024   42.0131 C   0  0  2  0  0  0  0  0  0  0  0  0
   22.4047   -3.3389   37.9537 N   0  0  0  0  0  0  0  0  0  0  0  0
   21.8896   -4.6061   38.0805 C   0  0  1  0  0  0  0  0  0  0  0  0
   21.2854   -5.0913   36.9949 N   0  0  0  0  0  0  0  0  0  0  0  0
   21.9647   -5.3420   39.1858 N   0  0  0  0  0  0  0  0  0  0  0  0
   22.6252   -4.6988   40.1923 C   0  0  1  0  0  0  0  0  0  0  0  0
   23.1765   -3.4300   40.1619 C   0  0  1  0  0  0  0  0  0  0  0  0
   23.0740   -2.6587   38.9707 C   0  0  0  0  0  0  0  0  0  0  0  0
   23.4967   -1.5160   38.7531 O   0  0  0  0  0  0  0  0  0  0  0  0
   23.7518   -3.1185   41.3871 N   0  0  0  0  0  0  0  0  0  0  0  0
   23.5515   -4.1796   42.1192 C   0  0  0  0  0  0  0  0  0  0  0  0
   22.8798   -5.1903   41.4671 N   0  0  1  0  0  0  0  0  0  0  0  0
  2  1  1  0  0  0  0
  3  1  1  6  0  0  0
  3  4  1  0  0  0  0
  3  5  1  0  0  0  0
  5  6  1  1  0  0  0
  5  7  1  0  0  0  0
  7  8  1  6  0  0  0
  7  9  1  0  0  0  0
  9  4  1  6  0  0  0
  9 20  1  0  0  0  0
 10 11  1  0  0  0  0
 11 12  1  6  0  0  0
 11 13  1  0  0  0  0
 14 13  1  1  0  0  0
 15 14  1  0  0  0  0
 15 16  1  1  0  0  0
 16 10  1  0  0  0  0
 16 17  2  0  0  0  0
 18 15  1  0  0  0  0
 19 18  1  0  0  0  0
 20 14  1  0  0  0  0
 20 19  1  1  0  0  0
M  END
>  <CHROM.1>
72.18957044,-5.93467215,21.78136919,-5.34557972,40.74300658,2.14666708,0.78210407
1.94381633

>  <Name>
1nyi_lig

>  <RI>
0

>  <Rbt.Current_Directory>
/home/itssahil/PROJECTS/Mol_Feturizer/New_Systems/rnas/1nyi

>  <Rbt.Executable>
rbdock ($Id: //depot/dev/client3/rdock/2013.1/src/exe/rbdock.cxx#4 $)

>  <Rbt.Library>
libRbt.so (2013.1, Build901 2013/11/27)

>  <Rbt.Parameter_File>
/export/apps/rDock/src/rDock_2013.1_src/data/scripts/dock_solv.prm

>  <Rbt.Receptor>
prm/pocket_docking_7.prm

>  <SCORE>
-9.26033

>  <SCORE.INTER>
-7.98343

>  <SCORE.INTER.CONST>
1

>  <SCORE.INTER.POLAR>
-1.38064

>  <SCORE.INTER.ROT>
2

>  <SCORE.INTER.SOLV>
9.11397

>  <SCORE.INTER.VDW>
-8.69149

>  <SCORE.INTER.norm>
-0.399172

>  <SCORE.INTRA>
-1.2769

>  <SCORE.INTRA.DIHEDRAL>
-1.94367

>  <SCORE.INTRA.DIHEDRAL.0>
3.72394

>  <SCORE.INTRA.POLAR>
0

>  <SCORE.INTRA.POLAR.0>
0

>  <SCORE.INTRA.REPUL>
0

>  <SCORE.INTRA.REPUL.0>
0

>  <SCORE.INTRA.SOLV>
0.798699

>  <SCORE.INTRA.SOLV.lig_0>
-49.4697

>  <SCORE.INTRA.VDW>
-0.704408

>  <SCORE.INTRA.VDW.0>
-0.896538

>  <SCORE.INTRA.norm>
-0.0638448

>  <SCORE.RESTR>
0

>  <SCORE.RESTR.CAVITY>
0

>  <SCORE.RESTR.norm>
0

>  <SCORE.SYSTEM>
0

>  <SCORE.SYSTEM.CONST>
0

>  <SCORE.SYSTEM.DIHEDRAL>
0

>  <SCORE.SYSTEM.SOLV>
0

>  <SCORE.SYSTEM.norm>
0

>  <SCORE.heavy>
20

>  <SCORE.norm>
-0.463016

>  <RMSD>
7.416

$$$$
1nyi_lig
 OpenBabel11021811403D
libRbt.so/2013.1/901 2013/11/27
 20 22  0  0  0  0  0  0  0  0999 V2000
   23.4544   -7.6470   43.6541 C   0  0  0  0  0  0  0  0  0  0  0  0
   24.4502   -6.9231   44.3767 O   0  0  0  0  0  0  0  0  0  0  0  0
   23.0757   -6.9205   42.3825 C   0  0  1  0  0  0  0  0  0  0  0  0
   22.1264   -7.7331   41.6405 O   0  0  0  0  0  0  0  0  0  0  0  0
   22.3684   -5.5973   42.6536 C   0  0  1  0  0  0  0  0  0  0  0  0
   23.2963   -4.5147   42.7386 O   0  0  0  0  0  0  0  0  0  0  0  0
   21.4136   -5.4919   41.4662 C   0  0  1  0  0  0  0  0  0  0  0  0
   22.0489   -5.0461   40.2774 O   0  0  0  0  0  0  0  0  0  0  0  0
   20.9838   -6.9497   41.3175 C   0  0  2  0  0  0  0  0  0  0  0  0
   16.5228   -9.5111   41.1505 N   0  0  0  0  0  0  0  0  0  0  0  0
   17.4229   -9.2587   40.1439 C   0  0  1  0  0  0  0  0  0  0  0  0
   17.0966   -9.7471   38.9464 N   0  0  0  0  0  0  0  0  0  0  0  0
   18.5540   -8.5765   40.2991 N   0  0  0  0  0  0  0  0  0  0  0  0
   18.7236   -8.1399   41.5812 C   0  0  1  0  0  0  0  0  0  0  0  0
   17.8790   -8.3421   42.6585 C   0  0  1  0  0  0  0  0  0  0  0  0
   16.6799   -9.0840   42.4689 C   0  0  0  0  0  0  0  0  0  0  0  0
   15.8095   -9.3688   43.3012 O   0  0  0  0  0  0  0  0  0  0  0  0
   18.4021   -7.7578   43.8048 N   0  0  0  0  0  0  0  0  0  0  0  0
   19.5230   -7.2182   43.4120 C   0  0  0  0  0  0  0  0  0  0  0  0
   19.7908   -7.3976   42.0726 N   0  0  1  0  0  0  0  0  0  0  0  0
  2  1  1  0  0  0  0
  3  1  1  1  0  0  0
  3  4  1  0  0  0  0
  3  5  1  0  0  0  0
  5  6  1  6  0  0  0
  5  7  1  0  0  0  0
  7  8  1  6  0  0  0
  7  9  1  0  0  0  0
  9  4  1  1  0  0  0
  9 20  1  0  0  0  0
 10 11  1  0  0  0  0
 11 12  1  6  0  0  0
 11 13  1  0  0  0  0
 14 13  1  1  0  0  0
 15 14  1  0  0  0  0
 15 16  1  1  0  0  0
 16 10  1  0  0  0  0
 16 17  2  0  0  0  0
 18 15  1  0  0  0  0
 19 18  1  0  0  0  0
 20 14  1  0  0  0  0
 20 19  1  1  0  0  0
M  END
>  <CHROM.1>
176.39101155,-104.32035324,20.05317626,-7.52836161,42.03700415,0.11511024
0.47989722,1.71344658

>  <Name>
1nyi_lig

>  <RI>
0

>  <Rbt.Current_Directory>
/home/itssahil/PROJECTS/Mol_Feturizer/New_Systems/rnas/1nyi

>  <Rbt.Executable>
rbdock ($Id: //depot/dev/client3/rdock/2013.1/src/exe/rbdock.cxx#4 $)

>  <Rbt.Library>
libRbt.so (2013.1, Build901 2013/11/27)

>  <Rbt.Parameter_File>
/export/apps/rDock/src/rDock_2013.1_src/data/scripts/dock_solv.prm

>  <Rbt.Receptor>
prm/pocket_docking_8.prm

>  <SCORE>
-11.0075

>  <SCORE.INTER>
-9.03197

>  <SCORE.INTER.CONST>
1

>  <SCORE.INTER.POLAR>
-1.69759

>  <SCORE.INTER.ROT>
2

>  <SCORE.INTER.SOLV>
6.86489

>  <SCORE.INTER.VDW>
-7.5843

>  <SCORE.INTER.norm>
-0.451599

>  <SCORE.INTRA>
-1.97552

>  <SCORE.INTRA.DIHEDRAL>
-2.51824

>  <SCORE.INTRA.DIHEDRAL.0>
3.72394

>  <SCORE.INTRA.POLAR>
0

>  <SCORE.INTRA.POLAR.0>
0

>  <SCORE.INTRA.REPUL>
0

>  <SCORE.INTRA.REPUL.0>
0

>  <SCORE.INTRA.SOLV>
-0.652788

>  <SCORE.INTRA.SOLV.lig_0>
-49.4697

>  <SCORE.INTRA.VDW>
-0.390003

>  <SCORE.INTRA.VDW.0>
-0.896538

>  <SCORE.INTRA.norm>
-0.0987759

>  <SCORE.RESTR>
0

>  <SCORE.RESTR.CAVITY>
0

>  <SCORE.RESTR.norm>
0

>  <SCORE.SYSTEM>
0

>  <SCORE.SYSTEM.CONST>
0

>  <SCORE.SYSTEM.DIHEDRAL>
0

>  <SCORE.SYSTEM.SOLV>
0

>  <SCORE.SYSTEM.norm>
0

>  <SCORE.heavy>
20

>  <SCORE.norm>
-0.550375

>  <RMSD>
7.577

$$$$
1nyi_lig
 OpenBabel11021811403D
libRbt.so/2013.1/901 2013/11/27
 20 22  0  0  0  0  0  0  0  0999 V2000
   18.6435   -6.9267   40.6292 C   0  0  0  0  0  0  0  0  0  0  0  0
   17.5024   -7.4602   41.3008 O   0  0  0  0  0  0  0  0  0  0  0  0
   19.9194   -7.3110   41.3452 C   0  0  1  0  0  0  0  0  0  0  0  0
   21.0533   -6.7927   40.5982 O   0  0  0  0  0  0  0  0  0  0  0  0
   20.0188   -6.6925   42.7352 C   0  0  1  0  0  0  0  0  0  0  0  0
   19.4582   -7.5489   43.7314 O   0  0  0  0  0  0  0  0  0  0  0  0
   21.5236   -6.4808   42.8880 C   0  0  1  0  0  0  0  0  0  0  0  0
   22.2215   -7.6673   43.2353 O   0  0  0  0  0  0  0  0  0  0  0  0
   21.8947   -6.0485   41.4711 C   0  0  2  0  0  0  0  0  0  0  0  0
   23.4166   -2.3125   38.2750 N   0  0  0  0  0  0  0  0  0  0  0  0
   23.7130   -3.6537   38.2544 C   0  0  1  0  0  0  0  0  0  0  0  0
   24.5121   -4.0497   37.2626 N   0  0  0  0  0  0  0  0  0  0  0  0
   23.2635   -4.5377   39.1406 N   0  0  0  0  0  0  0  0  0  0  0  0
   22.4721   -3.9609   40.0915 C   0  0  1  0  0  0  0  0  0  0  0  0
   22.1172   -2.6276   40.1965 C   0  0  1  0  0  0  0  0  0  0  0  0
   22.6030   -1.7034   39.2300 C   0  0  0  0  0  0  0  0  0  0  0  0
   22.3960   -0.4855   39.1554 O   0  0  0  0  0  0  0  0  0  0  0  0
   21.2840   -2.4292   41.2899 N   0  0  0  0  0  0  0  0  0  0  0  0
   21.1567   -3.6141   41.8207 C   0  0  0  0  0  0  0  0  0  0  0  0
   21.8526   -4.6014   41.1581 N   0  0  1  0  0  0  0  0  0  0  0  0
  2  1  1  0  0  0  0
  3  1  1  6  0  0  0
  3  4  1  0  0  0  0
  3  5  1  0  0  0  0
  5  6  1  1  0  0  0
  5  7  1  0  0  0  0
  7  8  1  6  0  0  0
  7  9  1  0  0  0  0
  9  4  1  6  0  0  0
  9 20  1  0  0  0  0
 10 11  1  0  0  0  0
 11 12  1  1  0  0  0
 11 13  1  0  0  0  0
 14 13  1  6  0  0  0
 15 14  1  0  0  0  0
 15 16  1  6  0  0  0
 16 10  1  0  0  0  0
 16 17  2  0  0  0  0
 18 15  1  0  0  0  0
 19 18  1  0  0  0  0
 20 14  1  0  0  0  0
 20 19  1  6  0  0  0
M  END
>  <CHROM.1>
177.75121110,-75.63777220,21.50428145,-4.89813451,40.72572294,2.22091903
-0.61744151,2.93371086

>  <Name>
1nyi_lig

>  <RI>
0

>  <Rbt.Current_Directory>
/home/itssahil/PROJECTS/Mol_Feturizer/New_Systems/rnas/1nyi

>  <Rbt.Executable>
rbdock ($Id: //depot/dev/client3/rdock/2013.1/src/exe/rbdock.cxx#4 $)

>  <Rbt.Library>
libRbt.so (2013.1, Build901 2013/11/27)

>  <Rbt.Parameter_File>
/export/apps/rDock/src/rDock_2013.1_src/data/scripts/dock_solv.prm

>  <Rbt.Receptor>
prm/pocket_docking_8.prm

>  <SCORE>
-10.6808

>  <SCORE.INTER>
-8.93219

>  <SCORE.INTER.CONST>
1

>  <SCORE.INTER.POLAR>
-1.62424

>  <SCORE.INTER.ROT>
2

>  <SCORE.INTER.SOLV>
8.5321

>  <SCORE.INTER.VDW>
-8.31801

>  <SCORE.INTER.norm>
-0.446609

>  <SCORE.INTRA>
-1.74859

>  <SCORE.INTRA.DIHEDRAL>
-2.55387

>  <SCORE.INTRA.DIHEDRAL.0>
3.72394

>  <SCORE.INTRA.POLAR>
0

>  <SCORE.INTRA.POLAR.0>
0

>  <SCORE.INTRA.REPUL>
0

>  <SCORE.INTRA.REPUL.0>
0

>  <SCORE.INTRA.SOLV>
-0.531184

>  <SCORE.INTRA.SOLV.lig_0>
-49.4697

>  <SCORE.INTRA.VDW>
-0.206066

>  <SCORE.INTRA.VDW.0>
-0.896538

>  <SCORE.INTRA.norm>
-0.0874297

>  <SCORE.RESTR>
0

>  <SCORE.RESTR.CAVITY>
0

>  <SCORE.RESTR.norm>
0

>  <SCORE.SYSTEM>
0

>  <SCORE.SYSTEM.CONST>
0

>  <SCORE.SYSTEM.DIHEDRAL>
0

>  <SCORE.SYSTEM.SOLV>
0

>  <SCORE.SYSTEM.norm>
0

>  <SCORE.heavy>
20

>  <SCORE.norm>
-0.534039

>  <RMSD>
7.682

$$$$
1nyi_lig
 OpenBabel11021811403D
libRbt.so/2013.1/901 2013/11/27
 20 22  0  0  0  0  0  0  0  0999 V2000
   23.3880   -7.2598   43.6190 C   0  0  0  0  0  0  0  0  0  0  0  0
   24.3019   -8.3304   43.3811 O   0  0  0  0  0  0  0  0  0  0  0  0
   22.9237   -6.6473   42.3161 C   0  0  1  0  0  0  0  0  0  0  0  0
   22.0670   -7.5981   41.6275 O   0  0  0  0  0  0  0  0  0  0  0  0
   22.0747   -5.3986   42.5269 C   0  0  1  0  0  0  0  0  0  0  0  0
   22.8765   -4.2166   42.5458 O   0  0  0  0  0  0  0  0  0  0  0  0
   21.1077   -5.4621   41.3464 C   0  0  1  0  0  0  0  0  0  0  0  0
   21.6827   -5.0112   40.1292 O   0  0  0  0  0  0  0  0  0  0  0  0
   20.8423   -6.9644   41.2775 C   0  0  2  0  0  0  0  0  0  0  0  0
   16.5833   -9.8538   41.2405 N   0  0  0  0  0  0  0  0  0  0  0  0
   17.4296   -9.5326   40.2071 C   0  0  1  0  0  0  0  0  0  0  0  0
   17.1031  -10.0422   39.0185 N   0  0  0  0  0  0  0  0  0  0  0  0
   18.5105   -8.7677   40.3294 N   0  0  0  0  0  0  0  0  0  0  0  0
   18.6874   -8.3217   41.6074 C   0  0  1  0  0  0  0  0  0  0  0  0
   17.8950   -8.5887   42.7099 C   0  0  1  0  0  0  0  0  0  0  0  0
   16.7496   -9.4183   42.5550 C   0  0  0  0  0  0  0  0  0  0  0  0
   15.9298   -9.7692   43.4132 O   0  0  0  0  0  0  0  0  0  0  0  0
   18.4087   -7.9686   43.8416 N   0  0  0  0  0  0  0  0  0  0  0  0
   19.4730   -7.3456   43.4159 C   0  0  0  0  0  0  0  0  0  0  0  0
   19.7109   -7.5021   42.0680 N   0  0  1  0  0  0  0  0  0  0  0  0
  2  1  1  0  0  0  0
  3  1  1  1  0  0  0
  3  4  1  0  0  0  0
  3  5  1  0  0  0  0
  5  6  1  6  0  0  0
  5  7  1  0  0  0  0
  7  8  1  6  0  0  0
  7  9  1  0  0  0  0
  9  4  1  1  0  0  0
  9 20  1  0  0  0  0
 10 11  1  0  0  0  0
 11 12  1  6  0  0  0
 11 13  1  0  0  0  0
 14 13  1  1  0  0  0
 15 14  1  0  0  0  0
 15 16  1  1  0  0  0
 16 10  1  0  0  0  0
 16 17  2  0  0  0  0
 18 15  1  0  0  0  0
 19 18  1  0  0  0  0
 20 14  1  0  0  0  0
 20 19  1  1  0  0  0
M  END
>  <CHROM.1>
69.61936273,-108.31885227,19.95619866,-7.67285918,41.97006280,-0.04712557
0.53197000,1.89713073

>  <Name>
1nyi_lig

>  <RI>
0

>  <Rbt.Current_Directory>
/home/itssahil/PROJECTS/Mol_Feturizer/New_Systems/rnas/1nyi

>  <Rbt.Executable>
rbdock ($Id: //depot/dev/client3/rdock/2013.1/src/exe/rbdock.cxx#4 $)

>  <Rbt.Library>
libRbt.so (2013.1, Build901 2013/11/27)

>  <Rbt.Parameter_File>
/export/apps/rDock/src/rDock_2013.1_src/data/scripts/dock_solv.prm

>  <Rbt.Receptor>
prm/pocket_docking_8.prm

>  <SCORE>
-10.7368

>  <SCORE.INTER>
-8.78104

>  <SCORE.INTER.CONST>
1

>  <SCORE.INTER.POLAR>
-1.63388

>  <SCORE.INTER.ROT>
2

>  <SCORE.INTER.SOLV>
8.17723

>  <SCORE.INTER.VDW>
-8.06683

>  <SCORE.INTER.norm>
-0.439052

>  <SCORE.INTRA>
-1.95579

>  <SCORE.INTRA.DIHEDRAL>
-2.21284

>  <SCORE.INTRA.DIHEDRAL.0>
3.72394

>  <SCORE.INTRA.POLAR>
0

>  <SCORE.INTRA.POLAR.0>
0

>  <SCORE.INTRA.REPUL>
0

>  <SCORE.INTRA.REPUL.0>
0

>  <SCORE.INTRA.SOLV>
-0.909017

>  <SCORE.INTRA.SOLV.lig_0>
-49.4697

>  <SCORE.INTRA.VDW>
-0.394867

>  <SCORE.INTRA.VDW.0>
-0.896538

>  <SCORE.INTRA.norm>
-0.0977897

>  <SCORE.RESTR>
0

>  <SCORE.RESTR.CAVITY>
0

>  <SCORE.RESTR.norm>
0

>  <SCORE.SYSTEM>
0

>  <SCORE.SYSTEM.CONST>
0

>  <SCORE.SYSTEM.DIHEDRAL>
0

>  <SCORE.SYSTEM.SOLV>
0

>  <SCORE.SYSTEM.norm>
0

>  <SCORE.heavy>
20

>  <SCORE.norm>
-0.536842

>  <RMSD>
7.702

$$$$
1nyi_lig
 OpenBabel11021811403D
libRbt.so/2013.1/901 2013/11/27
 20 22  0  0  0  0  0  0  0  0999 V2000
   23.3140   -7.1811   43.6147 C   0  0  0  0  0  0  0  0  0  0  0  0
   24.2491   -8.2468   43.4481 O   0  0  0  0  0  0  0  0  0  0  0  0
   22.8855   -6.6251   42.2747 C   0  0  1  0  0  0  0  0  0  0  0  0
   22.0343   -7.5984   41.6112 O   0  0  0  0  0  0  0  0  0  0  0  0
   22.0453   -5.3599   42.4084 C   0  0  1  0  0  0  0  0  0  0  0  0
   22.8589   -4.1860   42.3912 O   0  0  0  0  0  0  0  0  0  0  0  0
   21.1043   -5.4687   41.2103 C   0  0  1  0  0  0  0  0  0  0  0  0
   21.7112   -5.0801   39.9871 O   0  0  0  0  0  0  0  0  0  0  0  0
   20.8246   -6.9700   41.2046 C   0  0  2  0  0  0  0  0  0  0  0  0
   16.5526   -9.8403   41.2117 N   0  0  0  0  0  0  0  0  0  0  0  0
   17.4272   -9.5789   40.1850 C   0  0  1  0  0  0  0  0  0  0  0  0
   17.1290  -10.1507   39.0174 N   0  0  0  0  0  0  0  0  0  0  0  0
   18.5087   -8.8126   40.2942 N   0  0  0  0  0  0  0  0  0  0  0  0
   18.6546   -8.2990   41.5504 C   0  0  1  0  0  0  0  0  0  0  0  0
   17.8324   -8.5028   42.6445 C   0  0  1  0  0  0  0  0  0  0  0  0
   16.6870   -9.3351   42.5046 C   0  0  0  0  0  0  0  0  0  0  0  0
   15.8433   -9.6359   43.3586 O   0  0  0  0  0  0  0  0  0  0  0  0
   18.3198   -7.8246   43.7542 N   0  0  0  0  0  0  0  0  0  0  0  0
   19.3981   -7.2297   43.3237 C   0  0  0  0  0  0  0  0  0  0  0  0
   19.6702   -7.4597   41.9929 N   0  0  1  0  0  0  0  0  0  0  0  0
  2  1  1  0  0  0  0
  3  1  1  1  0  0  0
  3  4  1  0  0  0  0
  3  5  1  0  0  0  0
  5  6  1  6  0  0  0
  5  7  1  0  0  0  0
  7  8  1  6  0  0  0
  7  9  1  0  0  0  0
  9  4  1  1  0  0  0
  9 20  1  0  0  0  0
 10 11  1  0  0  0  0
 11 12  1  6  0  0  0
 11 13  1  0  0  0  0
 14 13  1  1  0  0  0
 15 14  1  0  0  0  0
 15 16  1  1  0  0  0
 16 10  1  0  0  0  0
 16 17  2  0  0  0  0
 18 15  1  0  0  0  0
 19 18  1  0  0  0  0
 20 14  1  0  0  0  0
 20 19  1  1  0  0  0
M  END
>  <CHROM.1>
71.17274682,-107.73430658,19.92151791,-7.64199345,41.91090117,-0.01531405
0.53197542,1.82637445

>  <Name>
1nyi_lig

>  <RI>
0

>  <Rbt.Current_Directory>
/home/itssahil/PROJECTS/Mol_Feturizer/New_Systems/rnas/1nyi

>  <Rbt.Executable>
rbdock ($Id: //depot/dev/client3/rdock/2013.1/src/exe/rbdock.cxx#4 $)

>  <Rbt.Library>
libRbt.so (2013.1, Build901 2013/11/27)

>  <Rbt.Parameter_File>
/export/apps/rDock/src/rDock_2013.1_src/data/scripts/dock_solv.prm

>  <Rbt.Receptor>
prm/pocket_docking_8.prm

>  <SCORE>
-10.712

>  <SCORE.INTER>
-8.8105

>  <SCORE.INTER.CONST>
1

>  <SCORE.INTER.POLAR>
-1.63753

>  <SCORE.INTER.ROT>
2

>  <SCORE.INTER.SOLV>
8.07745

>  <SCORE.INTER.VDW>
-8.04104

>  <SCORE.INTER.norm>
-0.440525

>  <SCORE.INTRA>
-1.90147

>  <SCORE.INTRA.DIHEDRAL>
-2.10354

>  <SCORE.INTRA.DIHEDRAL.0>
3.72394

>  <SCORE.INTRA.POLAR>
0

>  <SCORE.INTRA.POLAR.0>
0

>  <SCORE.INTRA.REPUL>
0

>  <SCORE.INTRA.REPUL.0>
0

>  <SCORE.INTRA.SOLV>
-0.913438

>  <SCORE.INTRA.SOLV.lig_0>
-49.4697

>  <SCORE.INTRA.VDW>
-0.392977

>  <SCORE.INTRA.VDW.0>
-0.896538

>  <SCORE.INTRA.norm>
-0.0950733

>  <SCORE.RESTR>
0

>  <SCORE.RESTR.CAVITY>
0

>  <SCORE.RESTR.norm>
0

>  <SCORE.SYSTEM>
0

>  <SCORE.SYSTEM.CONST>
0

>  <SCORE.SYSTEM.DIHEDRAL>
0

>  <SCORE.SYSTEM.SOLV>
0

>  <SCORE.SYSTEM.norm>
0

>  <SCORE.heavy>
20

>  <SCORE.norm>
-0.535598

>  <RMSD>
7.716

$$$$
1nyi_lig
 OpenBabel11021811403D
libRbt.so/2013.1/901 2013/11/27
 20 22  0  0  0  0  0  0  0  0999 V2000
   18.8335   -4.3388   41.0488 C   0  0  0  0  0  0  0  0  0  0  0  0
   18.0058   -3.1912   40.8590 O   0  0  0  0  0  0  0  0  0  0  0  0
   19.2926   -4.8983   39.7205 C   0  0  1  0  0  0  0  0  0  0  0  0
   20.0903   -3.8942   39.0367 O   0  0  0  0  0  0  0  0  0  0  0  0
   20.2000   -6.1131   39.8800 C   0  0  1  0  0  0  0  0  0  0  0  0
   19.4512   -7.3295   39.8873 O   0  0  0  0  0  0  0  0  0  0  0  0
   21.1347   -5.9782   38.6796 C   0  0  1  0  0  0  0  0  0  0  0  0
   20.5508   -6.4243   37.4649 O   0  0  0  0  0  0  0  0  0  0  0  0
   21.3326   -4.4644   38.6428 C   0  0  2  0  0  0  0  0  0  0  0  0
   26.3727   -3.4273   38.7474 N   0  0  0  0  0  0  0  0  0  0  0  0
   25.6291   -4.0486   37.7736 C   0  0  1  0  0  0  0  0  0  0  0  0
   26.3092   -4.4422   36.6958 N   0  0  0  0  0  0  0  0  0  0  0  0
   24.3201   -4.2700   37.8524 N   0  0  0  0  0  0  0  0  0  0  0  0
   23.7878   -3.8159   39.0245 C   0  0  1  0  0  0  0  0  0  0  0  0
   24.4503   -3.1811   40.0603 C   0  0  1  0  0  0  0  0  0  0  0  0
   25.8491   -2.9467   39.9473 C   0  0  0  0  0  0  0  0  0  0  0  0
   26.6070   -2.3980   40.7574 O   0  0  0  0  0  0  0  0  0  0  0  0
   23.5641   -2.8546   41.0787 N   0  0  0  0  0  0  0  0  0  0  0  0
   22.4096   -3.2924   40.6576 C   0  0  0  0  0  0  0  0  0  0  0  0
   22.4581   -3.8967   39.4205 N   0  0  1  0  0  0  0  0  0  0  0  0
  2  1  1  0  0  0  0
  3  1  1  1  0  0  0
  3  4  1  0  0  0  0
  3  5  1  0  0  0  0
  5  6  1  6  0  0  0
  5  7  1  0  0  0  0
  7  8  1  6  0  0  0
  7  9  1  0  0  0  0
  9  4  1  1  0  0  0
  9 20  1  0  0  0  0
 10 11  1  0  0  0  0
 11 12  1  1  0  0  0
 11 13  1  0  0  0  0
 14 13  1  6  0  0  0
 15 14  1  0  0  0  0
 15 16  1  6  0  0  0
 16 10  1  0  0  0  0
 16 17  2  0  0  0  0
 18 15  1  0  0  0  0
 19 18  1  0  0  0  0
 20 14  1  0  0  0  0
 20 19  1  6  0  0  0
M  END
>  <CHROM.1>
61.96914182,-154.49122190,22.45890075,-4.27385615,39.37243791,3.05593793
-0.27863213,-2.30804740

>  <Name>
1nyi_lig

>  <RI>
0

>  <Rbt.Current_Directory>
/home/itssahil/PROJECTS/Mol_Feturizer/New_Systems/rnas/1nyi

>  <Rbt.Executable>
rbdock ($Id: //depot/dev/client3/rdock/2013.1/src/exe/rbdock.cxx#4 $)

>  <Rbt.Library>
libRbt.so (2013.1, Build901 2013/11/27)

>  <Rbt.Parameter_File>
/export/apps/rDock/src/rDock_2013.1_src/data/scripts/dock_solv.prm

>  <Rbt.Receptor>
prm/pocket_docking_8.prm

>  <SCORE>
-9.75346

>  <SCORE.INTER>
-7.77775

>  <SCORE.INTER.CONST>
1

>  <SCORE.INTER.POLAR>
-1.5249

>  <SCORE.INTER.ROT>
2

>  <SCORE.INTER.SOLV>
12.7405

>  <SCORE.INTER.VDW>
-9.28235

>  <SCORE.INTER.norm>
-0.388888

>  <SCORE.INTRA>
-1.97571

>  <SCORE.INTRA.DIHEDRAL>
-2.40427

>  <SCORE.INTRA.DIHEDRAL.0>
3.72394

>  <SCORE.INTRA.POLAR>
0

>  <SCORE.INTRA.POLAR.0>
0

>  <SCORE.INTRA.REPUL>
0

>  <SCORE.INTRA.REPUL.0>
0

>  <SCORE.INTRA.SOLV>
-0.773873

>  <SCORE.INTRA.SOLV.lig_0>
-49.4697

>  <SCORE.INTRA.VDW>
-0.386634

>  <SCORE.INTRA.VDW.0>
-0.896538

>  <SCORE.INTRA.norm>
-0.0987853

>  <SCORE.RESTR>
0

>  <SCORE.RESTR.CAVITY>
0

>  <SCORE.RESTR.norm>
0

>  <SCORE.SYSTEM>
0

>  <SCORE.SYSTEM.CONST>
0

>  <SCORE.SYSTEM.DIHEDRAL>
0

>  <SCORE.SYSTEM.SOLV>
0

>  <SCORE.SYSTEM.norm>
0

>  <SCORE.heavy>
20

>  <SCORE.norm>
-0.487673

>  <RMSD>
7.722

$$$$
1nyi_lig
 OpenBabel11021811403D
libRbt.so/2013.1/901 2013/11/27
 20 22  0  0  0  0  0  0  0  0999 V2000
   23.2186   -4.1549   38.2592 C   0  0  0  0  0  0  0  0  0  0  0  0
   24.4803   -4.7603   37.9770 O   0  0  0  0  0  0  0  0  0  0  0  0
   22.0917   -4.9313   37.6147 C   0  0  1  0  0  0  0  0  0  0  0  0
   21.9745   -6.2232   38.2700 O   0  0  0  0  0  0  0  0  0  0  0  0
   20.7383   -4.2515   37.7899 C   0  0  1  0  0  0  0  0  0  0  0  0
   20.4542   -3.3626   36.7085 O   0  0  0  0  0  0  0  0  0  0  0  0
   19.7857   -5.4428   37.8680 C   0  0  1  0  0  0  0  0  0  0  0  0
   19.4779   -5.9952   36.5969 O   0  0  0  0  0  0  0  0  0  0  0  0
   20.6271   -6.4261   38.6787 C   0  0  2  0  0  0  0  0  0  0  0  0
   18.3544   -8.4497   42.8294 N   0  0  0  0  0  0  0  0  0  0  0  0
   18.1756   -8.7523   41.5014 C   0  0  1  0  0  0  0  0  0  0  0  0
   17.2832   -9.7102   41.2460 N   0  0  0  0  0  0  0  0  0  0  0  0
   18.8198   -8.1586   40.5008 N   0  0  0  0  0  0  0  0  0  0  0  0
   19.6832   -7.1966   40.9392 C   0  0  1  0  0  0  0  0  0  0  0  0
   19.9320   -6.8211   42.2476 C   0  0  1  0  0  0  0  0  0  0  0  0
   19.2374   -7.4787   43.3009 C   0  0  0  0  0  0  0  0  0  0  0  0
   19.3253   -7.2868   44.5204 O   0  0  0  0  0  0  0  0  0  0  0  0
   20.8895   -5.8160   42.2931 N   0  0  0  0  0  0  0  0  0  0  0  0
   21.1923   -5.5989   41.0428 C   0  0  0  0  0  0  0  0  0  0  0  0
   20.4991   -6.3909   40.1539 N   0  0  1  0  0  0  0  0  0  0  0  0
  2  1  1  0  0  0  0
  3  1  1  1  0  0  0
  3  4  1  0  0  0  0
  3  5  1  0  0  0  0
  5  6  1  6  0  0  0
  5  7  1  0  0  0  0
  7  8  1  6  0  0  0
  7  9  1  0  0  0  0
  9  4  1  1  0  0  0
  9 20  1  0  0  0  0
 10 11  1  0  0  0  0
 11 12  1  6  0  0  0
 11 13  1  0  0  0  0
 14 13  1  1  0  0  0
 15 14  1  0  0  0  0
 15 16  1  1  0  0  0
 16 10  1  0  0  0  0
 16 17  2  0  0  0  0
 18 15  1  0  0  0  0
 19 18  1  0  0  0  0
 20 14  1  0  0  0  0
 20 19  1  1  0  0  0
M  END
>  <CHROM.1>
67.92743645,-141.40760228,20.35337527,-6.32512313,39.96318280,-0.98881616
0.58167143,1.81855915

>  <Name>
1nyi_lig

>  <RI>
0

>  <Rbt.Current_Directory>
/home/itssahil/PROJECTS/Mol_Feturizer/New_Systems/rnas/1nyi

>  <Rbt.Executable>
rbdock ($Id: //depot/dev/client3/rdock/2013.1/src/exe/rbdock.cxx#4 $)

>  <Rbt.Library>
libRbt.so (2013.1, Build901 2013/11/27)

>  <Rbt.Parameter_File>
/export/apps/rDock/src/rDock_2013.1_src/data/scripts/dock_solv.prm

>  <Rbt.Receptor>
prm/pocket_docking_8.prm

>  <SCORE>
-10.9582

>  <SCORE.INTER>
-8.98089

>  <SCORE.INTER.CONST>
1

>  <SCORE.INTER.POLAR>
-1.66486

>  <SCORE.INTER.ROT>
2

>  <SCORE.INTER.SOLV>
7.77434

>  <SCORE.INTER.VDW>
-7.96251

>  <SCORE.INTER.norm>
-0.449044

>  <SCORE.INTRA>
-1.97729

>  <SCORE.INTRA.DIHEDRAL>
-2.19229

>  <SCORE.INTRA.DIHEDRAL.0>
3.72394

>  <SCORE.INTRA.POLAR>
0

>  <SCORE.INTRA.POLAR.0>
0

>  <SCORE.INTRA.REPUL>
0

>  <SCORE.INTRA.REPUL.0>
0

>  <SCORE.INTRA.SOLV>
-0.888475

>  <SCORE.INTRA.SOLV.lig_0>
-49.4697

>  <SCORE.INTRA.VDW>
-0.436911

>  <SCORE.INTRA.VDW.0>
-0.896538

>  <SCORE.INTRA.norm>
-0.0988646

>  <SCORE.RESTR>
0

>  <SCORE.RESTR.CAVITY>
0

>  <SCORE.RESTR.norm>
0

>  <SCORE.SYSTEM>
0

>  <SCORE.SYSTEM.CONST>
0

>  <SCORE.SYSTEM.DIHEDRAL>
0

>  <SCORE.SYSTEM.SOLV>
0

>  <SCORE.SYSTEM.norm>
0

>  <SCORE.heavy>
20

>  <SCORE.norm>
-0.547909

>  <RMSD>
7.826

$$$$
1nyi_lig
 OpenBabel11021811403D
libRbt.so/2013.1/901 2013/11/27
 20 22  0  0  0  0  0  0  0  0999 V2000
   22.7502   -6.7915   43.7575 C   0  0  0  0  0  0  0  0  0  0  0  0
   22.4821   -8.1675   44.0271 O   0  0  0  0  0  0  0  0  0  0  0  0
   22.6610   -6.5050   42.2749 C   0  0  1  0  0  0  0  0  0  0  0  0
   21.8145   -7.5083   41.6512 O   0  0  0  0  0  0  0  0  0  0  0  0
   22.0031   -5.1621   41.9774 C   0  0  1  0  0  0  0  0  0  0  0  0
   22.9675   -4.1112   41.9018 O   0  0  0  0  0  0  0  0  0  0  0  0
   21.2931   -5.4362   40.6533 C   0  0  1  0  0  0  0  0  0  0  0  0
   22.1646   -5.3926   39.5334 O   0  0  0  0  0  0  0  0  0  0  0  0
   20.8045   -6.8646   40.8836 C   0  0  2  0  0  0  0  0  0  0  0  0
   16.1915   -9.1127   40.4895 N   0  0  0  0  0  0  0  0  0  0  0  0
   17.2631   -9.1622   39.6314 C   0  0  1  0  0  0  0  0  0  0  0  0
   17.0862   -9.8998   38.5342 N   0  0  0  0  0  0  0  0  0  0  0  0
   18.4179   -8.5338   39.8322 N   0  0  0  0  0  0  0  0  0  0  0  0
   18.4221   -7.8168   40.9937 C   0  0  1  0  0  0  0  0  0  0  0  0
   17.3987   -7.7052   41.9184 C   0  0  1  0  0  0  0  0  0  0  0  0
   16.1766   -8.3956   41.6856 C   0  0  0  0  0  0  0  0  0  0  0  0
   15.1589   -8.4207   42.3894 O   0  0  0  0  0  0  0  0  0  0  0  0
   17.7868   -6.8990   42.9807 N   0  0  0  0  0  0  0  0  0  0  0  0
   19.0054   -6.5381   42.6864 C   0  0  0  0  0  0  0  0  0  0  0  0
   19.4661   -7.0463   41.4916 N   0  0  1  0  0  0  0  0  0  0  0  0
  2  1  1  0  0  0  0
  3  1  1  1  0  0  0
  3  4  1  0  0  0  0
  3  5  1  0  0  0  0
  5  6  1  6  0  0  0
  5  7  1  0  0  0  0
  7  8  1  6  0  0  0
  7  9  1  0  0  0  0
  9  4  1  1  0  0  0
  9 20  1  0  0  0  0
 10 11  1  0  0  0  0
 11 12  1  6  0  0  0
 11 13  1  0  0  0  0
 14 13  1  1  0  0  0
 15 14  1  0  0  0  0
 15 16  1  1  0  0  0
 16 10  1  0  0  0  0
 16 17  2  0  0  0  0
 18 15  1  0  0  0  0
 19 18  1  0  0  0  0
 20 14  1  0  0  0  0
 20 19  1  1  0  0  0
M  END
>  <CHROM.1>
23.68021045,-110.18806307,19.62768814,-7.25375121,41.48553278,0.20788356
0.44151189,1.53609314

>  <Name>
1nyi_lig

>  <RI>
0

>  <Rbt.Current_Directory>
/home/itssahil/PROJECTS/Mol_Feturizer/New_Systems/rnas/1nyi

>  <Rbt.Executable>
rbdock ($Id: //depot/dev/client3/rdock/2013.1/src/exe/rbdock.cxx#4 $)

>  <Rbt.Library>
libRbt.so (2013.1, Build901 2013/11/27)

>  <Rbt.Parameter_File>
/export/apps/rDock/src/rDock_2013.1_src/data/scripts/dock_solv.prm

>  <Rbt.Receptor>
prm/pocket_docking_8.prm

>  <SCORE>
-10.2449

>  <SCORE.INTER>
-10.2805

>  <SCORE.INTER.CONST>
1

>  <SCORE.INTER.POLAR>
-2.1813

>  <SCORE.INTER.ROT>
2

>  <SCORE.INTER.SOLV>
6.9503

>  <SCORE.INTER.VDW>
-6.8328

>  <SCORE.INTER.norm>
-0.514027

>  <SCORE.INTRA>
0.0356348

>  <SCORE.INTRA.DIHEDRAL>
0.912448

>  <SCORE.INTRA.DIHEDRAL.0>
3.72394

>  <SCORE.INTRA.POLAR>
0

>  <SCORE.INTRA.POLAR.0>
0

>  <SCORE.INTRA.REPUL>
0

>  <SCORE.INTRA.REPUL.0>
0

>  <SCORE.INTRA.SOLV>
-0.599311

>  <SCORE.INTRA.SOLV.lig_0>
-49.4697

>  <SCORE.INTRA.VDW>
-0.120933

>  <SCORE.INTRA.VDW.0>
-0.896538

>  <SCORE.INTRA.norm>
0.00178174

>  <SCORE.RESTR>
0

>  <SCORE.RESTR.CAVITY>
0

>  <SCORE.RESTR.norm>
0

>  <SCORE.SYSTEM>
0

>  <SCORE.SYSTEM.CONST>
0

>  <SCORE.SYSTEM.DIHEDRAL>
0

>  <SCORE.SYSTEM.SOLV>
0

>  <SCORE.SYSTEM.norm>
0

>  <SCORE.heavy>
20

>  <SCORE.norm>
-0.512245

>  <RMSD>
7.862

$$$$
1nyi_lig
 OpenBabel11021811403D
libRbt.so/2013.1/901 2013/11/27
 20 22  0  0  0  0  0  0  0  0999 V2000
   27.8268   -4.2198   37.3095 C   0  0  0  0  0  0  0  0  0  0  0  0
   28.3782   -2.9450   36.9797 O   0  0  0  0  0  0  0  0  0  0  0  0
   26.5682   -4.0660   38.1344 C   0  0  1  0  0  0  0  0  0  0  0  0
   26.8674   -3.2564   39.3037 O   0  0  0  0  0  0  0  0  0  0  0  0
   25.4656   -3.3251   37.3862 C   0  0  1  0  0  0  0  0  0  0  0  0
   24.6236   -4.2266   36.6661 O   0  0  0  0  0  0  0  0  0  0  0  0
   24.7478   -2.5881   38.5149 C   0  0  1  0  0  0  0  0  0  0  0  0
   23.8583   -3.4184   39.2463 O   0  0  0  0  0  0  0  0  0  0  0  0
   25.9328   -2.1874   39.3909 C   0  0  2  0  0  0  0  0  0  0  0  0
   29.1531    1.4339   41.1241 N   0  0  0  0  0  0  0  0  0  0  0  0
   28.7397    0.2715   41.7283 C   0  0  1  0  0  0  0  0  0  0  0  0
   29.2444    0.0445   42.9419 N   0  0  0  0  0  0  0  0  0  0  0  0
   27.8936   -0.5993   41.1855 N   0  0  0  0  0  0  0  0  0  0  0  0
   27.4665   -0.2052   39.9504 C   0  0  1  0  0  0  0  0  0  0  0  0
   27.8234    0.9408   39.2618 C   0  0  1  0  0  0  0  0  0  0  0  0
   28.7383    1.8516   39.8598 C   0  0  0  0  0  0  0  0  0  0  0  0
   29.1749    2.9164   39.4048 O   0  0  0  0  0  0  0  0  0  0  0  0
   27.1921    0.9834   38.0253 N   0  0  0  0  0  0  0  0  0  0  0  0
   26.4754   -0.1060   37.9887 C   0  0  0  0  0  0  0  0  0  0  0  0
   26.5789   -0.8819   39.1223 N   0  0  1  0  0  0  0  0  0  0  0  0
  2  1  1  0  0  0  0
  3  1  1  6  0  0  0
  3  4  1  0  0  0  0
  3  5  1  0  0  0  0
  5  6  1  1  0  0  0
  5  7  1  0  0  0  0
  7  8  1  1  0  0  0
  7  9  1  0  0  0  0
  9  4  1  6  0  0  0
  9 20  1  0  0  0  0
 10 11  1  0  0  0  0
 11 12  1  1  0  0  0
 11 13  1  0  0  0  0
 14 13  1  6  0  0  0
 15 14  1  0  0  0  0
 15 16  1  6  0  0  0
 16 10  1  0  0  0  0
 16 17  2  0  0  0  0
 18 15  1  0  0  0  0
 19 18  1  0  0  0  0
 20 14  1  0  0  0  0
 20 19  1  6  0  0  0
M  END
>  <CHROM.1>
-55.02454196,-71.55010203,27.11765804,-1.22626490,39.14036711,-3.01359731
1.06525856,1.94865913

>  <Name>
1nyi_lig

>  <RI>
0

>  <Rbt.Current_Directory>
/home/itssahil/PROJECTS/Mol_Feturizer/New_Systems/rnas/1nyi

>  <Rbt.Executable>
rbdock ($Id: //depot/dev/client3/rdock/2013.1/src/exe/rbdock.cxx#4 $)

>  <Rbt.Library>
libRbt.so (2013.1, Build901 2013/11/27)

>  <Rbt.Parameter_File>
/export/apps/rDock/src/rDock_2013.1_src/data/scripts/dock_solv.prm

>  <Rbt.Receptor>
prm/pocket_docking_8.prm

>  <SCORE>
-14.0085

>  <SCORE.INTER>
-12.3393

>  <SCORE.INTER.CONST>
1

>  <SCORE.INTER.POLAR>
-1.52602

>  <SCORE.INTER.ROT>
2

>  <SCORE.INTER.SOLV>
9.11446

>  <SCORE.INTER.VDW>
-11.1109

>  <SCORE.INTER.norm>
-0.616966

>  <SCORE.INTRA>
-1.66919

>  <SCORE.INTRA.DIHEDRAL>
-2.46364

>  <SCORE.INTRA.DIHEDRAL.0>
3.72394

>  <SCORE.INTRA.POLAR>
0

>  <SCORE.INTRA.POLAR.0>
0

>  <SCORE.INTRA.REPUL>
0

>  <SCORE.INTRA.REPUL.0>
0

>  <SCORE.INTRA.SOLV>
0.0998818

>  <SCORE.INTRA.SOLV.lig_0>
-49.4697

>  <SCORE.INTRA.VDW>
-0.487305

>  <SCORE.INTRA.VDW.0>
-0.896538

>  <SCORE.INTRA.norm>
-0.0834593

>  <SCORE.RESTR>
0

>  <SCORE.RESTR.CAVITY>
0

>  <SCORE.RESTR.norm>
0

>  <SCORE.SYSTEM>
0

>  <SCORE.SYSTEM.CONST>
0

>  <SCORE.SYSTEM.DIHEDRAL>
0

>  <SCORE.SYSTEM.SOLV>
0

>  <SCORE.SYSTEM.norm>
0

>  <SCORE.heavy>
20

>  <SCORE.norm>
-0.700425

>  <RMSD>
8.000

$$$$
1nyi_lig
 OpenBabel11021811403D
libRbt.so/2013.1/901 2013/11/27
 20 22  0  0  0  0  0  0  0  0999 V2000
   27.5420   -4.2175   36.8572 C   0  0  0  0  0  0  0  0  0  0  0  0
   27.9270   -2.9010   36.4618 O   0  0  0  0  0  0  0  0  0  0  0  0
   26.4983   -4.1687   37.9512 C   0  0  1  0  0  0  0  0  0  0  0  0
   27.0231   -3.4025   39.0691 O   0  0  0  0  0  0  0  0  0  0  0  0
   25.2267   -3.4499   37.5143 C   0  0  1  0  0  0  0  0  0  0  0  0
   24.2791   -4.3575   36.9499 O   0  0  0  0  0  0  0  0  0  0  0  0
   24.7554   -2.8064   38.8168 C   0  0  1  0  0  0  0  0  0  0  0  0
   24.0881   -3.7158   39.6789 O   0  0  0  0  0  0  0  0  0  0  0  0
   26.0917   -2.3884   39.4265 C   0  0  2  0  0  0  0  0  0  0  0  0
   28.9265    1.6116   40.9927 N   0  0  0  0  0  0  0  0  0  0  0  0
   28.6245    0.4443   41.6512 C   0  0  1  0  0  0  0  0  0  0  0  0
   29.1392    0.3266   42.8760 N   0  0  0  0  0  0  0  0  0  0  0  0
   27.8724   -0.5305   41.1484 N   0  0  0  0  0  0  0  0  0  0  0  0
   27.4186   -0.2401   39.8943 C   0  0  1  0  0  0  0  0  0  0  0  0
   27.6667    0.9011   39.1521 C   0  0  1  0  0  0  0  0  0  0  0  0
   28.4829    1.9252   39.7083 C   0  0  0  0  0  0  0  0  0  0  0  0
   28.8164    3.0049   39.2036 O   0  0  0  0  0  0  0  0  0  0  0  0
   27.0444    0.8220   37.9129 N   0  0  0  0  0  0  0  0  0  0  0  0
   26.4384   -0.3332   37.9268 C   0  0  0  0  0  0  0  0  0  0  0  0
   26.6086   -1.0400   39.0971 N   0  0  1  0  0  0  0  0  0  0  0  0
  2  1  1  0  0  0  0
  3  1  1  6  0  0  0
  3  4  1  0  0  0  0
  3  5  1  0  0  0  0
  5  6  1  1  0  0  0
  5  7  1  0  0  0  0
  7  8  1  1  0  0  0
  7  9  1  0  0  0  0
  9  4  1  6  0  0  0
  9 20  1  0  0  0  0
 10 11  1  0  0  0  0
 11 12  1  1  0  0  0
 11 13  1  0  0  0  0
 14 13  1  6  0  0  0
 15 14  1  0  0  0  0
 15 16  1  6  0  0  0
 16 10  1  0  0  0  0
 16 17  2  0  0  0  0
 18 15  1  0  0  0  0
 19 18  1  0  0  0  0
 20 14  1  0  0  0  0
 20 19  1  6  0  0  0
M  END
>  <CHROM.1>
-56.63101558,-86.46725034,27.00211891,-1.27447423,39.07803235,-2.73673364
1.05734661,1.60527007

>  <Name>
1nyi_lig

>  <RI>
0

>  <Rbt.Current_Directory>
/home/itssahil/PROJECTS/Mol_Feturizer/New_Systems/rnas/1nyi

>  <Rbt.Executable>
rbdock ($Id: //depot/dev/client3/rdock/2013.1/src/exe/rbdock.cxx#4 $)

>  <Rbt.Library>
libRbt.so (2013.1, Build901 2013/11/27)

>  <Rbt.Parameter_File>
/export/apps/rDock/src/rDock_2013.1_src/data/scripts/dock_solv.prm

>  <Rbt.Receptor>
prm/pocket_docking_8.prm

>  <SCORE>
-14.1899

>  <SCORE.INTER>
-12.4138

>  <SCORE.INTER.CONST>
1

>  <SCORE.INTER.POLAR>
-1.51257

>  <SCORE.INTER.ROT>
2

>  <SCORE.INTER.SOLV>
8.76767

>  <SCORE.INTER.VDW>
-11.0899

>  <SCORE.INTER.norm>
-0.62069

>  <SCORE.INTRA>
-1.77614

>  <SCORE.INTRA.DIHEDRAL>
-2.54462

>  <SCORE.INTRA.DIHEDRAL.0>
3.72394

>  <SCORE.INTRA.POLAR>
0

>  <SCORE.INTRA.POLAR.0>
0

>  <SCORE.INTRA.REPUL>
0

>  <SCORE.INTRA.REPUL.0>
0

>  <SCORE.INTRA.SOLV>
0.0891604

>  <SCORE.INTRA.SOLV.lig_0>
-49.4697

>  <SCORE.INTRA.VDW>
-0.548407

>  <SCORE.INTRA.VDW.0>
-0.896538

>  <SCORE.INTRA.norm>
-0.0888069

>  <SCORE.RESTR>
0

>  <SCORE.RESTR.CAVITY>
0

>  <SCORE.RESTR.norm>
0

>  <SCORE.SYSTEM>
0

>  <SCORE.SYSTEM.CONST>
0

>  <SCORE.SYSTEM.DIHEDRAL>
0

>  <SCORE.SYSTEM.SOLV>
0

>  <SCORE.SYSTEM.norm>
0

>  <SCORE.heavy>
20

>  <SCORE.norm>
-0.709497

>  <RMSD>
8.029

$$$$
1nyi_lig
 OpenBabel11021811403D
libRbt.so/2013.1/901 2013/11/27
 20 22  0  0  0  0  0  0  0  0999 V2000
   18.0956   -8.5205   41.7906 C   0  0  0  0  0  0  0  0  0  0  0  0
   18.5237   -9.8790   41.8864 O   0  0  0  0  0  0  0  0  0  0  0  0
   19.0419   -7.6032   42.5330 C   0  0  1  0  0  0  0  0  0  0  0  0
   20.3517   -7.6706   41.9069 O   0  0  0  0  0  0  0  0  0  0  0  0
   18.6186   -6.1404   42.4564 C   0  0  1  0  0  0  0  0  0  0  0  0
   17.7648   -5.7840   43.5446 O   0  0  0  0  0  0  0  0  0  0  0  0
   19.9621   -5.4140   42.4705 C   0  0  1  0  0  0  0  0  0  0  0  0
   20.5250   -5.3073   43.7694 O   0  0  0  0  0  0  0  0  0  0  0  0
   20.8022   -6.3545   41.6093 C   0  0  2  0  0  0  0  0  0  0  0  0
   23.4256   -4.3732   37.6493 N   0  0  0  0  0  0  0  0  0  0  0  0
   23.7366   -4.3788   38.9873 C   0  0  1  0  0  0  0  0  0  0  0  0
   24.8858   -3.7846   39.3119 N   0  0  0  0  0  0  0  0  0  0  0  0
   22.9771   -4.9219   39.9344 N   0  0  0  0  0  0  0  0  0  0  0  0
   21.8351   -5.4733   39.4295 C   0  0  1  0  0  0  0  0  0  0  0  0
   21.4353   -5.5180   38.1055 C   0  0  1  0  0  0  0  0  0  0  0  0
   22.2704   -4.9387   37.1099 C   0  0  0  0  0  0  0  0  0  0  0  0
   22.0874   -4.8823   35.8872 O   0  0  0  0  0  0  0  0  0  0  0  0
   20.2194   -6.1785   37.9851 N   0  0  0  0  0  0  0  0  0  0  0  0
   19.9064   -6.5084   39.2079 C   0  0  0  0  0  0  0  0  0  0  0  0
   20.8312   -6.1111   40.1485 N   0  0  1  0  0  0  0  0  0  0  0  0
  2  1  1  0  0  0  0
  3  1  1  6  0  0  0
  3  4  1  0  0  0  0
  3  5  1  0  0  0  0
  5  6  1  1  0  0  0
  5  7  1  0  0  0  0
  7  8  1  1  0  0  0
  7  9  1  0  0  0  0
  9  4  1  6  0  0  0
  9 20  1  0  0  0  0
 10 11  1  0  0  0  0
 11 12  1  1  0  0  0
 11 13  1  0  0  0  0
 14 13  1  6  0  0  0
 15 14  1  0  0  0  0
 15 16  1  6  0  0  0
 16 10  1  0  0  0  0
 16 17  2  0  0  0  0
 18 15  1  0  0  0  0
 19 18  1  0  0  0  0
 20 14  1  0  0  0  0
 20 19  1  6  0  0  0
M  END
>  <CHROM.1>
63.01090167,-136.77578092,20.82080033,-6.02380709,40.33557414,2.50946549
0.72316054,1.34584037

>  <Name>
1nyi_lig

>  <RI>
0

>  <Rbt.Current_Directory>
/home/itssahil/PROJECTS/Mol_Feturizer/New_Systems/rnas/1nyi

>  <Rbt.Executable>
rbdock ($Id: //depot/dev/client3/rdock/2013.1/src/exe/rbdock.cxx#4 $)

>  <Rbt.Library>
libRbt.so (2013.1, Build901 2013/11/27)

>  <Rbt.Parameter_File>
/export/apps/rDock/src/rDock_2013.1_src/data/scripts/dock_solv.prm

>  <Rbt.Receptor>
prm/pocket_docking_8.prm

>  <SCORE>
-7.56362

>  <SCORE.INTER>
-5.49556

>  <SCORE.INTER.CONST>
1

>  <SCORE.INTER.POLAR>
-1.17163

>  <SCORE.INTER.ROT>
2

>  <SCORE.INTER.SOLV>
10.4152

>  <SCORE.INTER.VDW>
-8.16334

>  <SCORE.INTER.norm>
-0.274778

>  <SCORE.INTRA>
-2.08083

>  <SCORE.INTRA.DIHEDRAL>
-2.39672

>  <SCORE.INTRA.DIHEDRAL.0>
3.72394

>  <SCORE.INTRA.POLAR>
0

>  <SCORE.INTRA.POLAR.0>
0

>  <SCORE.INTRA.REPUL>
0

>  <SCORE.INTRA.REPUL.0>
0

>  <SCORE.INTRA.SOLV>
-0.870262

>  <SCORE.INTRA.SOLV.lig_0>
-49.4697

>  <SCORE.INTRA.VDW>
-0.447338

>  <SCORE.INTRA.VDW.0>
-0.896538

>  <SCORE.INTRA.norm>
-0.104042

>  <SCORE.RESTR>
0.0127728

>  <SCORE.RESTR.CAVITY>
0.0127728

>  <SCORE.RESTR.norm>
0.00063864

>  <SCORE.SYSTEM>
0

>  <SCORE.SYSTEM.CONST>
0

>  <SCORE.SYSTEM.DIHEDRAL>
0

>  <SCORE.SYSTEM.SOLV>
0

>  <SCORE.SYSTEM.norm>
0

>  <SCORE.heavy>
20

>  <SCORE.norm>
-0.378181

>  <RMSD>
8.281

$$$$
1nyi_lig
 OpenBabel11021811403D
libRbt.so/2013.1/901 2013/11/27
 20 22  0  0  0  0  0  0  0  0999 V2000
   17.7115   -7.6960   38.8376 C   0  0  0  0  0  0  0  0  0  0  0  0
   18.6281   -8.6311   38.2687 O   0  0  0  0  0  0  0  0  0  0  0  0
   17.8833   -7.6172   40.3384 C   0  0  1  0  0  0  0  0  0  0  0  0
   19.2731   -7.8853   40.6682 O   0  0  0  0  0  0  0  0  0  0  0  0
   17.5856   -6.2269   40.8887 C   0  0  1  0  0  0  0  0  0  0  0  0
   16.2121   -6.0919   41.2568 O   0  0  0  0  0  0  0  0  0  0  0  0
   18.5471   -6.1348   42.0718 C   0  0  1  0  0  0  0  0  0  0  0  0
   18.0814   -6.8213   43.2240 O   0  0  0  0  0  0  0  0  0  0  0  0
   19.7723   -6.8428   41.4975 C   0  0  2  0  0  0  0  0  0  0  0  0
   23.9967   -3.9315   41.9065 N   0  0  0  0  0  0  0  0  0  0  0  0
   23.2711   -4.5602   42.8890 C   0  0  1  0  0  0  0  0  0  0  0  0
   23.7245   -4.3942   44.1324 N   0  0  0  0  0  0  0  0  0  0  0  0
   22.1827   -5.2922   42.6693 N   0  0  0  0  0  0  0  0  0  0  0  0
   21.8532   -5.3457   41.3457 C   0  0  1  0  0  0  0  0  0  0  0  0
   22.5170   -4.7501   40.2878 C   0  0  1  0  0  0  0  0  0  0  0  0
   23.6850   -3.9804   40.5480 C   0  0  0  0  0  0  0  0  0  0  0  0
   24.4081   -3.3801   39.7429 O   0  0  0  0  0  0  0  0  0  0  0  0
   21.8864   -5.0477   39.0865 N   0  0  0  0  0  0  0  0  0  0  0  0
   20.8722   -5.7938   39.4281 C   0  0  0  0  0  0  0  0  0  0  0  0
   20.7743   -6.0179   40.7839 N   0  0  1  0  0  0  0  0  0  0  0  0
  2  1  1  0  0  0  0
  3  1  1  6  0  0  0
  3  4  1  0  0  0  0
  3  5  1  0  0  0  0
  5  6  1  1  0  0  0
  5  7  1  0  0  0  0
  7  8  1  1  0  0  0
  7  9  1  0  0  0  0
  9  4  1  6  0  0  0
  9 20  1  0  0  0  0
 10 11  1  0  0  0  0
 11 12  1  1  0  0  0
 11 13  1  0  0  0  0
 14 13  1  6  0  0  0
 15 14  1  0  0  0  0
 15 16  1  6  0  0  0
 16 10  1  0  0  0  0
 16 17  2  0  0  0  0
 18 15  1  0  0  0  0
 19 18  1  0  0  0  0
 20 14  1  0  0  0  0
 20 19  1  6  0  0  0
M  END
>  <CHROM.1>
30.70434465,-149.78056594,20.58543110,-5.85892894,40.97536970,-2.88387204
0.44916833,1.37638291

>  <Name>
1nyi_lig

>  <RI>
0

>  <Rbt.Current_Directory>
/home/itssahil/PROJECTS/Mol_Feturizer/New_Systems/rnas/1nyi

>  <Rbt.Executable>
rbdock ($Id: //depot/dev/client3/rdock/2013.1/src/exe/rbdock.cxx#4 $)

>  <Rbt.Library>
libRbt.so (2013.1, Build901 2013/11/27)

>  <Rbt.Parameter_File>
/export/apps/rDock/src/rDock_2013.1_src/data/scripts/dock_solv.prm

>  <Rbt.Receptor>
prm/pocket_docking_7.prm

>  <SCORE>
-8.56905

>  <SCORE.INTER>
-8.10258

>  <SCORE.INTER.CONST>
1

>  <SCORE.INTER.POLAR>
-1.40876

>  <SCORE.INTER.ROT>
2

>  <SCORE.INTER.SOLV>
4.82432

>  <SCORE.INTER.VDW>
-7.2473

>  <SCORE.INTER.norm>
-0.405129

>  <SCORE.INTRA>
-0.466471

>  <SCORE.INTRA.DIHEDRAL>
0.0874254

>  <SCORE.INTRA.DIHEDRAL.0>
3.72394

>  <SCORE.INTRA.POLAR>
0

>  <SCORE.INTRA.POLAR.0>
0

>  <SCORE.INTRA.REPUL>
0

>  <SCORE.INTRA.REPUL.0>
0

>  <SCORE.INTRA.SOLV>
-0.563108

>  <SCORE.INTRA.SOLV.lig_0>
-49.4697

>  <SCORE.INTRA.VDW>
-0.22863

>  <SCORE.INTRA.VDW.0>
-0.896538

>  <SCORE.INTRA.norm>
-0.0233236

>  <SCORE.RESTR>
0

>  <SCORE.RESTR.CAVITY>
0

>  <SCORE.RESTR.norm>
0

>  <SCORE.SYSTEM>
0

>  <SCORE.SYSTEM.CONST>
0

>  <SCORE.SYSTEM.DIHEDRAL>
0

>  <SCORE.SYSTEM.SOLV>
0

>  <SCORE.SYSTEM.norm>
0

>  <SCORE.heavy>
20

>  <SCORE.norm>
-0.428452

>  <RMSD>
8.373

$$$$
1nyi_lig
 OpenBabel11021811403D
libRbt.so/2013.1/901 2013/11/27
 20 22  0  0  0  0  0  0  0  0999 V2000
   17.6254   -9.3010   38.2040 C   0  0  0  0  0  0  0  0  0  0  0  0
   17.8522  -10.6596   38.5792 O   0  0  0  0  0  0  0  0  0  0  0  0
   17.3885   -8.4372   39.4230 C   0  0  1  0  0  0  0  0  0  0  0  0
   18.6412   -8.2866   40.1443 O   0  0  0  0  0  0  0  0  0  0  0  0
   16.9442   -7.0243   39.0611 C   0  0  1  0  0  0  0  0  0  0  0  0
   15.5213   -6.9261   38.9833 O   0  0  0  0  0  0  0  0  0  0  0  0
   17.5531   -6.1948   40.1896 C   0  0  1  0  0  0  0  0  0  0  0  0
   16.8010   -6.2518   41.3924 O   0  0  0  0  0  0  0  0  0  0  0  0
   18.8925   -6.9052   40.3731 C   0  0  2  0  0  0  0  0  0  0  0  0
   23.5254   -4.6650   40.4497 N   0  0  0  0  0  0  0  0  0  0  0  0
   22.6704   -4.9383   41.4897 C   0  0  1  0  0  0  0  0  0  0  0  0
   23.1001   -4.5706   42.6977 N   0  0  0  0  0  0  0  0  0  0  0  0
   21.4838   -5.5235   41.3546 N   0  0  0  0  0  0  0  0  0  0  0  0
   21.1978   -5.8200   40.0533 C   0  0  1  0  0  0  0  0  0  0  0  0
   21.9892   -5.5860   38.9426 C   0  0  1  0  0  0  0  0  0  0  0  0
   23.2590   -4.9677   39.1147 C   0  0  0  0  0  0  0  0  0  0  0  0
   24.1005   -4.6817   38.2535 O   0  0  0  0  0  0  0  0  0  0  0  0
   21.3615   -6.0436   37.7912 N   0  0  0  0  0  0  0  0  0  0  0  0
   20.2255   -6.5284   38.2112 C   0  0  0  0  0  0  0  0  0  0  0  0
   20.0430   -6.4258   39.5728 N   0  0  1  0  0  0  0  0  0  0  0  0
  2  1  1  0  0  0  0
  3  1  1  6  0  0  0
  3  4  1  0  0  0  0
  3  5  1  0  0  0  0
  5  6  1  1  0  0  0
  5  7  1  0  0  0  0
  7  8  1  1  0  0  0
  7  9  1  0  0  0  0
  9  4  1  6  0  0  0
  9 20  1  0  0  0  0
 10 11  1  0  0  0  0
 11 12  1  6  0  0  0
 11 13  1  0  0  0  0
 14 13  1  1  0  0  0
 15 14  1  0  0  0  0
 15 16  1  1  0  0  0
 16 10  1  0  0  0  0
 16 17  2  0  0  0  0
 18 15  1  0  0  0  0
 19 18  1  0  0  0  0
 20 14  1  0  0  0  0
 20 19  1  1  0  0  0
M  END
>  <CHROM.1>
71.23077166,-123.10503294,19.94708188,-6.53058819,39.70407349,-2.77202332
0.35743086,0.98982609

>  <Name>
1nyi_lig

>  <RI>
0

>  <Rbt.Current_Directory>
/home/itssahil/PROJECTS/Mol_Feturizer/New_Systems/rnas/1nyi

>  <Rbt.Executable>
rbdock ($Id: //depot/dev/client3/rdock/2013.1/src/exe/rbdock.cxx#4 $)

>  <Rbt.Library>
libRbt.so (2013.1, Build901 2013/11/27)

>  <Rbt.Parameter_File>
/export/apps/rDock/src/rDock_2013.1_src/data/scripts/dock_solv.prm

>  <Rbt.Receptor>
prm/pocket_docking_8.prm

>  <SCORE>
-9.98209

>  <SCORE.INTER>
-8.06711

>  <SCORE.INTER.CONST>
1

>  <SCORE.INTER.POLAR>
-1.22541

>  <SCORE.INTER.ROT>
2

>  <SCORE.INTER.SOLV>
7.79261

>  <SCORE.INTER.VDW>
-8.82426

>  <SCORE.INTER.norm>
-0.403356

>  <SCORE.INTRA>
-1.91498

>  <SCORE.INTRA.DIHEDRAL>
-2.03227

>  <SCORE.INTRA.DIHEDRAL.0>
3.72394

>  <SCORE.INTRA.POLAR>
0

>  <SCORE.INTRA.POLAR.0>
0

>  <SCORE.INTRA.REPUL>
0

>  <SCORE.INTRA.REPUL.0>
0

>  <SCORE.INTRA.SOLV>
-0.923491

>  <SCORE.INTRA.SOLV.lig_0>
-49.4697

>  <SCORE.INTRA.VDW>
-0.437098

>  <SCORE.INTRA.VDW.0>
-0.896538

>  <SCORE.INTRA.norm>
-0.0957489

>  <SCORE.RESTR>
0

>  <SCORE.RESTR.CAVITY>
0

>  <SCORE.RESTR.norm>
0

>  <SCORE.SYSTEM>
0

>  <SCORE.SYSTEM.CONST>
0

>  <SCORE.SYSTEM.DIHEDRAL>
0

>  <SCORE.SYSTEM.SOLV>
0

>  <SCORE.SYSTEM.norm>
0

>  <SCORE.heavy>
20

>  <SCORE.norm>
-0.499105

>  <RMSD>
9.466

$$$$
1nyi_lig
 OpenBabel11021811403D
libRbt.so/2013.1/901 2013/11/27
 20 22  0  0  0  0  0  0  0  0999 V2000
   24.5835    7.5269   31.6072 C   0  0  0  0  0  0  0  0  0  0  0  0
   25.1911    7.0937   30.3901 O   0  0  0  0  0  0  0  0  0  0  0  0
   23.1324    7.1037   31.6661 C   0  0  1  0  0  0  0  0  0  0  0  0
   22.4028    7.7731   30.6023 O   0  0  0  0  0  0  0  0  0  0  0  0
   22.9486    5.6101   31.4210 C   0  0  1  0  0  0  0  0  0  0  0  0
   22.9887    4.8697   32.6418 O   0  0  0  0  0  0  0  0  0  0  0  0
   21.5917    5.5619   30.7215 C   0  0  1  0  0  0  0  0  0  0  0  0
   20.4971    5.6710   31.6190 O   0  0  0  0  0  0  0  0  0  0  0  0
   21.6796    6.8098   29.8456 C   0  0  2  0  0  0  0  0  0  0  0  0
   20.8848    5.1379   25.0433 N   0  0  0  0  0  0  0  0  0  0  0  0
   20.0608    5.0668   26.1402 C   0  0  1  0  0  0  0  0  0  0  0  0
   18.8812    4.4789   25.9348 N   0  0  0  0  0  0  0  0  0  0  0  0
   20.3714    5.5328   27.3465 N   0  0  0  0  0  0  0  0  0  0  0  0
   21.6173    6.0894   27.3815 C   0  0  1  0  0  0  0  0  0  0  0  0
   22.5166    6.2078   26.3365 C   0  0  1  0  0  0  0  0  0  0  0  0
   22.1565    5.7104   25.0531 C   0  0  0  0  0  0  0  0  0  0  0  0
   22.8170    5.7263   24.0067 O   0  0  0  0  0  0  0  0  0  0  0  0
   23.6745    6.8475   26.7595 N   0  0  0  0  0  0  0  0  0  0  0  0
   23.4666    7.0935   28.0237 C   0  0  0  0  0  0  0  0  0  0  0  0
   22.2430    6.6588   28.4841 N   0  0  1  0  0  0  0  0  0  0  0  0
  2  1  1  0  0  0  0
  3  1  1  6  0  0  0
  3  4  1  0  0  0  0
  3  5  1  0  0  0  0
  5  6  1  1  0  0  0
  5  7  1  0  0  0  0
  7  8  1  1  0  0  0
  7  9  1  0  0  0  0
  9  4  1  1  0  0  0
  9 20  1  0  0  0  0
 10 11  1  0  0  0  0
 11 12  1  1  0  0  0
 11 13  1  0  0  0  0
 14 13  1  6  0  0  0
 15 14  1  0  0  0  0
 15 16  1  6  0  0  0
 16 10  1  0  0  0  0
 16 17  2  0  0  0  0
 18 15  1  0  0  0  0
 19 18  1  0  0  0  0
 20 14  1  0  0  0  0
 20 19  1  6  0  0  0
M  END
>  <CHROM.1>
-64.08879226,-162.26793797,22.21292838,6.13670931,28.60947795,-1.24693339
-0.44675961,-1.58902038

>  <Name>
1nyi_lig

>  <RI>
0

>  <Rbt.Current_Directory>
/home/itssahil/PROJECTS/Mol_Feturizer/New_Systems/rnas/1nyi

>  <Rbt.Executable>
rbdock ($Id: //depot/dev/client3/rdock/2013.1/src/exe/rbdock.cxx#4 $)

>  <Rbt.Library>
libRbt.so (2013.1, Build901 2013/11/27)

>  <Rbt.Parameter_File>
/export/apps/rDock/src/rDock_2013.1_src/data/scripts/dock_solv.prm

>  <Rbt.Receptor>
prm/blind_docking_60.prm

>  <SCORE>
-1.38859

>  <SCORE.INTER>
-6.69418

>  <SCORE.INTER.CONST>
1

>  <SCORE.INTER.POLAR>
-1.09336

>  <SCORE.INTER.ROT>
2

>  <SCORE.INTER.SOLV>
10.4067

>  <SCORE.INTER.VDW>
-9.2205

>  <SCORE.INTER.norm>
-0.334709

>  <SCORE.INTRA>
-1.31249

>  <SCORE.INTRA.DIHEDRAL>
-2.38134

>  <SCORE.INTRA.DIHEDRAL.0>
3.72394

>  <SCORE.INTRA.POLAR>
0

>  <SCORE.INTRA.POLAR.0>
0

>  <SCORE.INTRA.REPUL>
0

>  <SCORE.INTRA.REPUL.0>
0

>  <SCORE.INTRA.SOLV>
0.24991

>  <SCORE.INTRA.SOLV.lig_0>
-49.4697

>  <SCORE.INTRA.VDW>
-0.246775

>  <SCORE.INTRA.VDW.0>
-0.896538

>  <SCORE.INTRA.norm>
-0.0656244

>  <SCORE.RESTR>
6.61808

>  <SCORE.RESTR.CAVITY>
6.61808

>  <SCORE.RESTR.norm>
0.330904

>  <SCORE.SYSTEM>
0

>  <SCORE.SYSTEM.CONST>
0

>  <SCORE.SYSTEM.DIHEDRAL>
0

>  <SCORE.SYSTEM.SOLV>
0

>  <SCORE.SYSTEM.norm>
0

>  <SCORE.heavy>
20

>  <SCORE.norm>
-0.0694297

>  <RMSD>
19.159

$$$$
1nyi_lig
 OpenBabel11021811403D
libRbt.so/2013.1/901 2013/11/27
 20 22  0  0  0  0  0  0  0  0999 V2000
   19.5690    5.3641   27.8222 C   0  0  0  0  0  0  0  0  0  0  0  0
   20.0824    5.5063   29.1467 O   0  0  0  0  0  0  0  0  0  0  0  0
   20.3955    6.1582   26.8351 C   0  0  1  0  0  0  0  0  0  0  0  0
   20.9121    7.3432   27.4991 O   0  0  0  0  0  0  0  0  0  0  0  0
   21.6175    5.3899   26.3443 C   0  0  1  0  0  0  0  0  0  0  0  0
   21.3257    4.6392   25.1646 O   0  0  0  0  0  0  0  0  0  0  0  0
   22.6340    6.5078   26.1212 C   0  0  1  0  0  0  0  0  0  0  0  0
   22.4354    7.2074   24.9020 O   0  0  0  0  0  0  0  0  0  0  0  0
   22.3196    7.4178   27.3066 C   0  0  2  0  0  0  0  0  0  0  0  0
   22.0179    7.1157   32.4356 N   0  0  0  0  0  0  0  0  0  0  0  0
   21.0394    7.4171   31.5196 C   0  0  1  0  0  0  0  0  0  0  0  0
   19.8333    7.6691   32.0302 N   0  0  0  0  0  0  0  0  0  0  0  0
   21.2303    7.4709   30.2045 N   0  0  0  0  0  0  0  0  0  0  0  0
   22.5222    7.1997   29.8573 C   0  0  1  0  0  0  0  0  0  0  0  0
   23.5733    6.8869   30.7012 C   0  0  1  0  0  0  0  0  0  0  0  0
   23.3410    6.8257   32.1035 C   0  0  0  0  0  0  0  0  0  0  0  0
   24.1443    6.5629   33.0075 O   0  0  0  0  0  0  0  0  0  0  0  0
   24.7334    6.6599   29.9720 N   0  0  0  0  0  0  0  0  0  0  0  0
   24.3774    6.8416   28.7301 C   0  0  0  0  0  0  0  0  0  0  0  0
   23.0512    7.1796   28.5723 N   0  0  1  0  0  0  0  0  0  0  0  0
  2  1  1  0  0  0  0
  3  1  1  1  0  0  0
  3  4  1  0  0  0  0
  3  5  1  0  0  0  0
  5  6  1  6  0  0  0
  5  7  1  0  0  0  0
  7  8  1  6  0  0  0
  7  9  1  0  0  0  0
  9  4  1  1  0  0  0
  9 20  1  0  0  0  0
 10 11  1  0  0  0  0
 11 12  1  1  0  0  0
 11 13  1  0  0  0  0
 14 13  1  6  0  0  0
 15 14  1  0  0  0  0
 15 16  1  6  0  0  0
 16 10  1  0  0  0  0
 16 17  2  0  0  0  0
 18 15  1  0  0  0  0
 19 18  1  0  0  0  0
 20 14  1  0  0  0  0
 20 19  1  6  0  0  0
M  END
>  <CHROM.1>
-32.11332851,-15.01449033,22.03985434,6.65114980,28.96933805,1.76818692,-0.10997291
-1.71507463

>  <Name>
1nyi_lig

>  <RI>
0

>  <Rbt.Current_Directory>
/home/itssahil/PROJECTS/Mol_Feturizer/New_Systems/rnas/1nyi

>  <Rbt.Executable>
rbdock ($Id: //depot/dev/client3/rdock/2013.1/src/exe/rbdock.cxx#4 $)

>  <Rbt.Library>
libRbt.so (2013.1, Build901 2013/11/27)

>  <Rbt.Parameter_File>
/export/apps/rDock/src/rDock_2013.1_src/data/scripts/dock_solv.prm

>  <Rbt.Receptor>
prm/blind_docking_60.prm

>  <SCORE>
7.83128

>  <SCORE.INTER>
0.812547

>  <SCORE.INTER.CONST>
1

>  <SCORE.INTER.POLAR>
-0.551944

>  <SCORE.INTER.ROT>
2

>  <SCORE.INTER.SOLV>
8.76835

>  <SCORE.INTER.VDW>
-5.4746

>  <SCORE.INTER.norm>
0.0406274

>  <SCORE.INTRA>
0.777934

>  <SCORE.INTRA.DIHEDRAL>
-0.0892581

>  <SCORE.INTRA.DIHEDRAL.0>
3.72394

>  <SCORE.INTRA.POLAR>
0

>  <SCORE.INTRA.POLAR.0>
0

>  <SCORE.INTRA.REPUL>
0

>  <SCORE.INTRA.REPUL.0>
0

>  <SCORE.INTRA.SOLV>
2.24641

>  <SCORE.INTRA.SOLV.lig_0>
-49.4697

>  <SCORE.INTRA.VDW>
-0.300644

>  <SCORE.INTRA.VDW.0>
-0.896538

>  <SCORE.INTRA.norm>
0.0388967

>  <SCORE.RESTR>
6.2408

>  <SCORE.RESTR.CAVITY>
6.2408

>  <SCORE.RESTR.norm>
0.31204

>  <SCORE.SYSTEM>
0

>  <SCORE.SYSTEM.CONST>
0

>  <SCORE.SYSTEM.DIHEDRAL>
0

>  <SCORE.SYSTEM.SOLV>
0

>  <SCORE.SYSTEM.norm>
0

>  <SCORE.heavy>
20

>  <SCORE.norm>
0.391564

>  <RMSD>
19.311

$$$$
1nyi_lig
 OpenBabel11021811403D
libRbt.so/2013.1/901 2013/11/27
 20 22  0  0  0  0  0  0  0  0999 V2000
   20.1129    4.4994   26.8879 C   0  0  0  0  0  0  0  0  0  0  0  0
   19.0311    4.7658   27.7804 O   0  0  0  0  0  0  0  0  0  0  0  0
   20.5168    5.7513   26.1410 C   0  0  1  0  0  0  0  0  0  0  0  0
   20.6306    6.8484   27.0874 O   0  0  0  0  0  0  0  0  0  0  0  0
   21.8869    5.6241   25.4845 C   0  0  1  0  0  0  0  0  0  0  0  0
   21.7847    5.1228   24.1509 O   0  0  0  0  0  0  0  0  0  0  0  0
   22.4160    7.0548   25.5606 C   0  0  1  0  0  0  0  0  0  0  0  0
   21.8803    7.9019   24.5551 O   0  0  0  0  0  0  0  0  0  0  0  0
   21.8978    7.4763   26.9339 C   0  0  2  0  0  0  0  0  0  0  0  0
   22.1096    6.5356   31.9895 N   0  0  0  0  0  0  0  0  0  0  0  0
   21.0167    6.7609   31.1883 C   0  0  1  0  0  0  0  0  0  0  0  0
   19.8356    6.7328   31.8075 N   0  0  0  0  0  0  0  0  0  0  0  0
   21.0777    6.9993   29.8813 N   0  0  0  0  0  0  0  0  0  0  0  0
   22.3608    7.0052   29.4155 C   0  0  1  0  0  0  0  0  0  0  0  0
   23.5205    6.7900   30.1389 C   0  0  1  0  0  0  0  0  0  0  0  0
   23.4278    6.5269   31.5340 C   0  0  0  0  0  0  0  0  0  0  0  0
   24.3413    6.3094   32.3402 O   0  0  0  0  0  0  0  0  0  0  0  0
   24.6327    6.8596   29.3098 N   0  0  0  0  0  0  0  0  0  0  0  0
   24.1419    7.1167   28.1287 C   0  0  0  0  0  0  0  0  0  0  0  0
   22.7689    7.2283   28.1058 N   0  0  1  0  0  0  0  0  0  0  0  0
  2  1  1  0  0  0  0
  3  1  1  1  0  0  0
  3  4  1  0  0  0  0
  3  5  1  0  0  0  0
  5  6  1  6  0  0  0
  5  7  1  0  0  0  0
  7  8  1  6  0  0  0
  7  9  1  0  0  0  0
  9  4  1  1  0  0  0
  9 20  1  0  0  0  0
 10 11  1  0  0  0  0
 11 12  1  1  0  0  0
 11 13  1  0  0  0  0
 14 13  1  6  0  0  0
 15 14  1  0  0  0  0
 15 16  1  6  0  0  0
 16 10  1  0  0  0  0
 16 17  2  0  0  0  0
 18 15  1  0  0  0  0
 19 18  1  0  0  0  0
 20 14  1  0  0  0  0
 20 19  1  6  0  0  0
M  END
>  <CHROM.1>
46.86622248,-28.81311395,21.94435842,6.48082275,28.36931964,1.80786973,-0.33049555
-1.58245125

>  <Name>
1nyi_lig

>  <RI>
0

>  <Rbt.Current_Directory>
/home/itssahil/PROJECTS/Mol_Feturizer/New_Systems/rnas/1nyi

>  <Rbt.Executable>
rbdock ($Id: //depot/dev/client3/rdock/2013.1/src/exe/rbdock.cxx#4 $)

>  <Rbt.Library>
libRbt.so (2013.1, Build901 2013/11/27)

>  <Rbt.Parameter_File>
/export/apps/rDock/src/rDock_2013.1_src/data/scripts/dock_solv.prm

>  <Rbt.Receptor>
prm/blind_docking_60.prm

>  <SCORE>
5.59865

>  <SCORE.INTER>
0.81537

>  <SCORE.INTER.CONST>
1

>  <SCORE.INTER.POLAR>
-0.27202

>  <SCORE.INTER.ROT>
2

>  <SCORE.INTER.SOLV>
8.55525

>  <SCORE.INTER.VDW>
-6.33477

>  <SCORE.INTER.norm>
0.0407685

>  <SCORE.INTRA>
-0.985718

>  <SCORE.INTRA.DIHEDRAL>
-1.83257

>  <SCORE.INTRA.DIHEDRAL.0>
3.72394

>  <SCORE.INTRA.POLAR>
0

>  <SCORE.INTRA.POLAR.0>
0

>  <SCORE.INTRA.REPUL>
0.0536209

>  <SCORE.INTRA.REPUL.0>
0

>  <SCORE.INTRA.SOLV>
0.166341

>  <SCORE.INTRA.SOLV.lig_0>
-49.4697

>  <SCORE.INTRA.VDW>
-0.420708

>  <SCORE.INTRA.VDW.0>
-0.896538

>  <SCORE.INTRA.norm>
-0.0492859

>  <SCORE.RESTR>
5.769

>  <SCORE.RESTR.CAVITY>
5.769

>  <SCORE.RESTR.norm>
0.28845

>  <SCORE.SYSTEM>
0

>  <SCORE.SYSTEM.CONST>
0

>  <SCORE.SYSTEM.DIHEDRAL>
0

>  <SCORE.SYSTEM.SOLV>
0

>  <SCORE.SYSTEM.norm>
0

>  <SCORE.heavy>
20

>  <SCORE.norm>
0.279933

>  <RMSD>
19.681

$$$$
1nyi_lig
 OpenBabel11021811403D
libRbt.so/2013.1/901 2013/11/27
 20 22  0  0  0  0  0  0  0  0999 V2000
   21.7307    7.8696   31.2697 C   0  0  0  0  0  0  0  0  0  0  0  0
   22.4496    8.4008   32.3828 O   0  0  0  0  0  0  0  0  0  0  0  0
   22.3958    6.6156   30.7468 C   0  0  1  0  0  0  0  0  0  0  0  0
   21.5813    6.0608   29.6786 O   0  0  0  0  0  0  0  0  0  0  0  0
   23.7614    6.8926   30.1281 C   0  0  1  0  0  0  0  0  0  0  0  0
   24.8070    6.7831   31.0951 O   0  0  0  0  0  0  0  0  0  0  0  0
   23.8364    5.8388   29.0252 C   0  0  1  0  0  0  0  0  0  0  0  0
   24.1835    4.5496   29.5080 O   0  0  0  0  0  0  0  0  0  0  0  0
   22.3918    5.8431   28.5299 C   0  0  2  0  0  0  0  0  0  0  0  0
   21.8628    6.4859   23.4510 N   0  0  0  0  0  0  0  0  0  0  0  0
   22.2779    5.3802   24.1526 C   0  0  1  0  0  0  0  0  0  0  0  0
   22.5907    4.3153   23.4129 N   0  0  0  0  0  0  0  0  0  0  0  0
   22.3818    5.3246   25.4773 N   0  0  0  0  0  0  0  0  0  0  0  0
   22.0358    6.5026   26.0738 C   0  0  1  0  0  0  0  0  0  0  0  0
   21.6076    7.6650   25.4571 C   0  0  1  0  0  0  0  0  0  0  0  0
   21.4950    7.6958   24.0392 C   0  0  0  0  0  0  0  0  0  0  0  0
   21.1315    8.6309   23.3146 O   0  0  0  0  0  0  0  0  0  0  0  0
   21.3336    8.6458   26.4016 N   0  0  0  0  0  0  0  0  0  0  0  0
   21.6006    8.0788   27.5458 C   0  0  0  0  0  0  0  0  0  0  0  0
   22.0403    6.7778   27.4360 N   0  0  1  0  0  0  0  0  0  0  0  0
  2  1  1  0  0  0  0
  3  1  1  6  0  0  0
  3  4  1  0  0  0  0
  3  5  1  0  0  0  0
  5  6  1  1  0  0  0
  5  7  1  0  0  0  0
  7  8  1  1  0  0  0
  7  9  1  0  0  0  0
  9  4  1  1  0  0  0
  9 20  1  0  0  0  0
 10 11  1  0  0  0  0
 11 12  1  6  0  0  0
 11 13  1  0  0  0  0
 14 13  1  1  0  0  0
 15 14  1  0  0  0  0
 15 16  1  1  0  0  0
 16 10  1  0  0  0  0
 16 17  2  0  0  0  0
 18 15  1  0  0  0  0
 19 18  1  0  0  0  0
 20 14  1  0  0  0  0
 20 19  1  1  0  0  0
M  END
>  <CHROM.1>
176.07872962,-143.79726936,22.39113139,6.72503766,27.53572568,1.21587830
-1.02984600,1.22670460

>  <Name>
1nyi_lig

>  <RI>
0

>  <Rbt.Current_Directory>
/home/itssahil/PROJECTS/Mol_Feturizer/New_Systems/rnas/1nyi

>  <Rbt.Executable>
rbdock ($Id: //depot/dev/client3/rdock/2013.1/src/exe/rbdock.cxx#4 $)

>  <Rbt.Library>
libRbt.so (2013.1, Build901 2013/11/27)

>  <Rbt.Parameter_File>
/export/apps/rDock/src/rDock_2013.1_src/data/scripts/dock_solv.prm

>  <Rbt.Receptor>
prm/blind_docking_60.prm

>  <SCORE>
-1.29018

>  <SCORE.INTER>
-1.67862

>  <SCORE.INTER.CONST>
1

>  <SCORE.INTER.POLAR>
0

>  <SCORE.INTER.ROT>
2

>  <SCORE.INTER.SOLV>
13.9

>  <SCORE.INTER.VDW>
-10.6858

>  <SCORE.INTER.norm>
-0.0839312

>  <SCORE.INTRA>
-1.92376

>  <SCORE.INTRA.DIHEDRAL>
-2.3675

>  <SCORE.INTRA.DIHEDRAL.0>
3.72394

>  <SCORE.INTRA.POLAR>
0

>  <SCORE.INTRA.POLAR.0>
0

>  <SCORE.INTRA.REPUL>
0

>  <SCORE.INTRA.REPUL.0>
0

>  <SCORE.INTRA.SOLV>
-0.64428

>  <SCORE.INTRA.SOLV.lig_0>
-49.4697

>  <SCORE.INTRA.VDW>
-0.417868

>  <SCORE.INTRA.VDW.0>
-0.896538

>  <SCORE.INTRA.norm>
-0.0961879

>  <SCORE.RESTR>
2.3122

>  <SCORE.RESTR.CAVITY>
2.3122

>  <SCORE.RESTR.norm>
0.11561

>  <SCORE.SYSTEM>
0

>  <SCORE.SYSTEM.CONST>
0

>  <SCORE.SYSTEM.DIHEDRAL>
0

>  <SCORE.SYSTEM.SOLV>
0

>  <SCORE.SYSTEM.norm>
0

>  <SCORE.heavy>
20

>  <SCORE.norm>
-0.0645092

>  <RMSD>
20.262

$$$$
1nyi_lig
 OpenBabel11021811403D
libRbt.so/2013.1/901 2013/11/27
 20 22  0  0  0  0  0  0  0  0999 V2000
   20.1150    4.7228   23.8753 C   0  0  0  0  0  0  0  0  0  0  0  0
   20.4970    3.6670   22.9937 O   0  0  0  0  0  0  0  0  0  0  0  0
   21.1793    5.7967   23.9238 C   0  0  1  0  0  0  0  0  0  0  0  0
   20.7517    6.8429   24.8375 O   0  0  0  0  0  0  0  0  0  0  0  0
   22.5053    5.2814   24.4722 C   0  0  1  0  0  0  0  0  0  0  0  0
   23.3507    4.7952   23.4286 O   0  0  0  0  0  0  0  0  0  0  0  0
   23.0608    6.5128   25.1848 C   0  0  1  0  0  0  0  0  0  0  0  0
   23.6544    7.4498   24.2987 O   0  0  0  0  0  0  0  0  0  0  0  0
   21.7825    7.0940   25.7851 C   0  0  2  0  0  0  0  0  0  0  0  0
   23.3527    6.0776   30.5800 N   0  0  0  0  0  0  0  0  0  0  0  0
   24.0835    6.4808   29.4889 C   0  0  1  0  0  0  0  0  0  0  0  0
   25.3920    6.6321   29.6987 N   0  0  0  0  0  0  0  0  0  0  0  0
   23.5710    6.7140   28.2840 N   0  0  0  0  0  0  0  0  0  0  0  0
   22.2237    6.4984   28.2438 C   0  0  1  0  0  0  0  0  0  0  0  0
   21.4041    6.0941   29.2828 C   0  0  1  0  0  0  0  0  0  0  0  0
   21.9750    5.8609   30.5649 C   0  0  0  0  0  0  0  0  0  0  0  0
   21.4113    5.5015   31.6064 O   0  0  0  0  0  0  0  0  0  0  0  0
   20.0857    6.0004   28.8560 N   0  0  0  0  0  0  0  0  0  0  0  0
   20.1278    6.3338   27.5954 C   0  0  0  0  0  0  0  0  0  0  0  0
   21.3907    6.6445   27.1410 N   0  0  1  0  0  0  0  0  0  0  0  0
  2  1  1  0  0  0  0
  3  1  1  1  0  0  0
  3  4  1  0  0  0  0
  3  5  1  0  0  0  0
  5  6  1  6  0  0  0
  5  7  1  0  0  0  0
  7  8  1  6  0  0  0
  7  9  1  0  0  0  0
  9  4  1  6  0  0  0
  9 20  1  0  0  0  0
 10 11  1  0  0  0  0
 11 12  1  6  0  0  0
 11 13  1  0  0  0  0
 14 13  1  1  0  0  0
 15 14  1  0  0  0  0
 15 16  1  1  0  0  0
 16 10  1  0  0  0  0
 16 17  2  0  0  0  0
 18 15  1  0  0  0  0
 19 18  1  0  0  0  0
 20 14  1  0  0  0  0
 20 19  1  1  0  0  0
M  END
>  <CHROM.1>
-179.63662970,166.90509845,22.08501014,6.03222920,26.93524788,1.73918529
-0.27304574,-1.64847659

>  <Name>
1nyi_lig

>  <RI>
0

>  <Rbt.Current_Directory>
/home/itssahil/PROJECTS/Mol_Feturizer/New_Systems/rnas/1nyi

>  <Rbt.Executable>
rbdock ($Id: //depot/dev/client3/rdock/2013.1/src/exe/rbdock.cxx#4 $)

>  <Rbt.Library>
libRbt.so (2013.1, Build901 2013/11/27)

>  <Rbt.Parameter_File>
/export/apps/rDock/src/rDock_2013.1_src/data/scripts/dock_solv.prm

>  <Rbt.Receptor>
prm/blind_docking_60.prm

>  <SCORE>
1.87519

>  <SCORE.INTER>
-2.20958

>  <SCORE.INTER.CONST>
1

>  <SCORE.INTER.POLAR>
-0.937513

>  <SCORE.INTER.ROT>
2

>  <SCORE.INTER.SOLV>
15.1488

>  <SCORE.INTER.VDW>
-8.33093

>  <SCORE.INTER.norm>
-0.110479

>  <SCORE.INTRA>
-1.57908

>  <SCORE.INTRA.DIHEDRAL>
-2.5612

>  <SCORE.INTRA.DIHEDRAL.0>
3.72394

>  <SCORE.INTRA.POLAR>
0

>  <SCORE.INTRA.POLAR.0>
0

>  <SCORE.INTRA.REPUL>
0

>  <SCORE.INTRA.REPUL.0>
0

>  <SCORE.INTRA.SOLV>
-0.174537

>  <SCORE.INTRA.SOLV.lig_0>
-49.4697

>  <SCORE.INTRA.VDW>
-0.211213

>  <SCORE.INTRA.VDW.0>
-0.896538

>  <SCORE.INTRA.norm>
-0.0789541

>  <SCORE.RESTR>
5.66385

>  <SCORE.RESTR.CAVITY>
5.66385

>  <SCORE.RESTR.norm>
0.283192

>  <SCORE.SYSTEM>
0

>  <SCORE.SYSTEM.CONST>
0

>  <SCORE.SYSTEM.DIHEDRAL>
0

>  <SCORE.SYSTEM.SOLV>
0

>  <SCORE.SYSTEM.norm>
0

>  <SCORE.heavy>
20

>  <SCORE.norm>
0.0937594

>  <RMSD>
20.439

$$$$
1nyi_lig
 OpenBabel11021811403D
libRbt.so/2013.1/901 2013/11/27
 20 22  0  0  0  0  0  0  0  0999 V2000
   20.1168    4.7148   23.8809 C   0  0  0  0  0  0  0  0  0  0  0  0
   20.5030    3.6561   23.0046 O   0  0  0  0  0  0  0  0  0  0  0  0
   21.1778    5.7921   23.9256 C   0  0  1  0  0  0  0  0  0  0  0  0
   20.7486    6.8385   24.8382 O   0  0  0  0  0  0  0  0  0  0  0  0
   22.5064    5.2819   24.4726 C   0  0  1  0  0  0  0  0  0  0  0  0
   23.3515    4.7965   23.4284 O   0  0  0  0  0  0  0  0  0  0  0  0
   23.0593    6.5162   25.1821 C   0  0  1  0  0  0  0  0  0  0  0  0
   23.6484    7.4536   24.2933 O   0  0  0  0  0  0  0  0  0  0  0  0
   21.7803    7.0945   25.7836 C   0  0  2  0  0  0  0  0  0  0  0  0
   23.3637    6.0834   30.5752 N   0  0  0  0  0  0  0  0  0  0  0  0
   24.0914    6.4858   29.4818 C   0  0  1  0  0  0  0  0  0  0  0  0
   25.4004    6.6377   29.6879 N   0  0  0  0  0  0  0  0  0  0  0  0
   23.5756    6.7176   28.2781 N   0  0  0  0  0  0  0  0  0  0  0  0
   22.2283    6.5015   28.2417 C   0  0  1  0  0  0  0  0  0  0  0  0
   21.4116    6.0979   29.2833 C   0  0  1  0  0  0  0  0  0  0  0  0
   21.9861    5.8662   30.5641 C   0  0  0  0  0  0  0  0  0  0  0  0
   21.4252    5.5076   31.6074 O   0  0  0  0  0  0  0  0  0  0  0  0
   20.0921    6.0034   28.8601 N   0  0  0  0  0  0  0  0  0  0  0  0
   20.1307    6.3356   27.5991 C   0  0  0  0  0  0  0  0  0  0  0  0
   21.3923    6.6462   27.1410 N   0  0  1  0  0  0  0  0  0  0  0  0
  2  1  1  0  0  0  0
  3  1  1  1  0  0  0
  3  4  1  0  0  0  0
  3  5  1  0  0  0  0
  5  6  1  6  0  0  0
  5  7  1  0  0  0  0
  7  8  1  6  0  0  0
  7  9  1  0  0  0  0
  9  4  1  6  0  0  0
  9 20  1  0  0  0  0
 10 11  1  0  0  0  0
 11 12  1  6  0  0  0
 11 13  1  0  0  0  0
 14 13  1  1  0  0  0
 15 14  1  0  0  0  0
 15 16  1  1  0  0  0
 16 10  1  0  0  0  0
 16 17  2  0  0  0  0
 18 15  1  0  0  0  0
 19 18  1  0  0  0  0
 20 14  1  0  0  0  0
 20 19  1  1  0  0  0
M  END
>  <CHROM.1>
-179.40790760,166.73101244,22.08870285,6.03343646,26.93469944,1.74059572
-0.27421148,-1.64923716

>  <Name>
1nyi_lig

>  <RI>
0

>  <Rbt.Current_Directory>
/home/itssahil/PROJECTS/Mol_Feturizer/New_Systems/rnas/1nyi

>  <Rbt.Executable>
rbdock ($Id: //depot/dev/client3/rdock/2013.1/src/exe/rbdock.cxx#4 $)

>  <Rbt.Library>
libRbt.so (2013.1, Build901 2013/11/27)

>  <Rbt.Parameter_File>
/export/apps/rDock/src/rDock_2013.1_src/data/scripts/dock_solv.prm

>  <Rbt.Receptor>
prm/blind_docking_60.prm

>  <SCORE>
1.92125

>  <SCORE.INTER>
-2.15693

>  <SCORE.INTER.CONST>
1

>  <SCORE.INTER.POLAR>
-0.933409

>  <SCORE.INTER.ROT>
2

>  <SCORE.INTER.SOLV>
15.1937

>  <SCORE.INTER.VDW>
-8.3245

>  <SCORE.INTER.norm>
-0.107846

>  <SCORE.INTRA>
-1.57553

>  <SCORE.INTRA.DIHEDRAL>
-2.56076

>  <SCORE.INTRA.DIHEDRAL.0>
3.72394

>  <SCORE.INTRA.POLAR>
0

>  <SCORE.INTRA.POLAR.0>
0

>  <SCORE.INTRA.REPUL>
0

>  <SCORE.INTRA.REPUL.0>
0

>  <SCORE.INTRA.SOLV>
-0.171512

>  <SCORE.INTRA.SOLV.lig_0>
-49.4697

>  <SCORE.INTRA.VDW>
-0.209395

>  <SCORE.INTRA.VDW.0>
-0.896538

>  <SCORE.INTRA.norm>
-0.0787767

>  <SCORE.RESTR>
5.65371

>  <SCORE.RESTR.CAVITY>
5.65371

>  <SCORE.RESTR.norm>
0.282686

>  <SCORE.SYSTEM>
0

>  <SCORE.SYSTEM.CONST>
0

>  <SCORE.SYSTEM.DIHEDRAL>
0

>  <SCORE.SYSTEM.SOLV>
0

>  <SCORE.SYSTEM.norm>
0

>  <SCORE.heavy>
20

>  <SCORE.norm>
0.0960627

>  <RMSD>
20.440

$$$$
1nyi_lig
 OpenBabel11021811403D
libRbt.so/2013.1/901 2013/11/27
 20 22  0  0  0  0  0  0  0  0999 V2000
   20.1233    4.7107   23.8746 C   0  0  0  0  0  0  0  0  0  0  0  0
   20.5091    3.6588   22.9899 O   0  0  0  0  0  0  0  0  0  0  0  0
   21.1812    5.7909   23.9217 C   0  0  1  0  0  0  0  0  0  0  0  0
   20.7469    6.8362   24.8333 O   0  0  0  0  0  0  0  0  0  0  0  0
   22.5099    5.2845   24.4718 C   0  0  1  0  0  0  0  0  0  0  0  0
   23.3588    4.8015   23.4295 O   0  0  0  0  0  0  0  0  0  0  0  0
   23.0577    6.5204   25.1825 C   0  0  1  0  0  0  0  0  0  0  0  0
   23.6462    7.4594   24.2951 O   0  0  0  0  0  0  0  0  0  0  0  0
   21.7757    7.0950   25.7811 C   0  0  2  0  0  0  0  0  0  0  0  0
   23.3500    6.0923   30.5775 N   0  0  0  0  0  0  0  0  0  0  0  0
   24.0791    6.4973   29.4859 C   0  0  1  0  0  0  0  0  0  0  0  0
   25.3869    6.6548   29.6956 N   0  0  0  0  0  0  0  0  0  0  0  0
   23.5657    6.7266   28.2807 N   0  0  0  0  0  0  0  0  0  0  0  0
   22.2194    6.5048   28.2406 C   0  0  1  0  0  0  0  0  0  0  0  0
   21.4015    6.0982   29.2801 C   0  0  1  0  0  0  0  0  0  0  0  0
   21.9734    5.8694   30.5626 C   0  0  0  0  0  0  0  0  0  0  0  0
   21.4111    5.5088   31.6045 O   0  0  0  0  0  0  0  0  0  0  0  0
   20.0836    5.9980   28.8533 N   0  0  0  0  0  0  0  0  0  0  0  0
   20.1242    6.3299   27.5923 C   0  0  0  0  0  0  0  0  0  0  0  0
   21.3858    6.6456   27.1376 N   0  0  1  0  0  0  0  0  0  0  0  0
  2  1  1  0  0  0  0
  3  1  1  1  0  0  0
  3  4  1  0  0  0  0
  3  5  1  0  0  0  0
  5  6  1  6  0  0  0
  5  7  1  0  0  0  0
  7  8  1  6  0  0  0
  7  9  1  0  0  0  0
  9  4  1  6  0  0  0
  9 20  1  0  0  0  0
 10 11  1  0  0  0  0
 11 12  1  6  0  0  0
 11 13  1  0  0  0  0
 14 13  1  1  0  0  0
 15 14  1  0  0  0  0
 15 16  1  1  0  0  0
 16 10  1  0  0  0  0
 16 17  2  0  0  0  0
 18 15  1  0  0  0  0
 19 18  1  0  0  0  0
 20 14  1  0  0  0  0
 20 19  1  1  0  0  0
M  END
>  <CHROM.1>
-179.92718147,166.81714165,22.08388084,6.03621480,26.93266881,1.73824371
-0.27761349,-1.65013949

>  <Name>
1nyi_lig

>  <RI>
0

>  <Rbt.Current_Directory>
/home/itssahil/PROJECTS/Mol_Feturizer/New_Systems/rnas/1nyi

>  <Rbt.Executable>
rbdock ($Id: //depot/dev/client3/rdock/2013.1/src/exe/rbdock.cxx#4 $)

>  <Rbt.Library>
libRbt.so (2013.1, Build901 2013/11/27)

>  <Rbt.Parameter_File>
/export/apps/rDock/src/rDock_2013.1_src/data/scripts/dock_solv.prm

>  <Rbt.Receptor>
prm/blind_docking_60.prm

>  <SCORE>
1.97276

>  <SCORE.INTER>
-2.09321

>  <SCORE.INTER.CONST>
1

>  <SCORE.INTER.POLAR>
-0.926819

>  <SCORE.INTER.ROT>
2

>  <SCORE.INTER.SOLV>
15.159

>  <SCORE.INTER.VDW>
-8.2924

>  <SCORE.INTER.norm>
-0.104661

>  <SCORE.INTRA>
-1.58186

>  <SCORE.INTRA.DIHEDRAL>
-2.56222

>  <SCORE.INTRA.DIHEDRAL.0>
3.72394

>  <SCORE.INTRA.POLAR>
0

>  <SCORE.INTRA.POLAR.0>
0

>  <SCORE.INTRA.REPUL>
0

>  <SCORE.INTRA.REPUL.0>
0

>  <SCORE.INTRA.SOLV>
-0.175047

>  <SCORE.INTRA.SOLV.lig_0>
-49.4697

>  <SCORE.INTRA.VDW>
-0.213226

>  <SCORE.INTRA.VDW.0>
-0.896538

>  <SCORE.INTRA.norm>
-0.0790931

>  <SCORE.RESTR>
5.64783

>  <SCORE.RESTR.CAVITY>
5.64783

>  <SCORE.RESTR.norm>
0.282392

>  <SCORE.SYSTEM>
0

>  <SCORE.SYSTEM.CONST>
0

>  <SCORE.SYSTEM.DIHEDRAL>
0

>  <SCORE.SYSTEM.SOLV>
0

>  <SCORE.SYSTEM.norm>
0

>  <SCORE.heavy>
20

>  <SCORE.norm>
0.0986379

>  <RMSD>
20.444

$$$$
1nyi_lig
 OpenBabel11021811403D
libRbt.so/2013.1/901 2013/11/27
 20 22  0  0  0  0  0  0  0  0999 V2000
   22.3314    9.1410   23.8807 C   0  0  0  0  0  0  0  0  0  0  0  0
   21.5039    9.3032   25.0327 O   0  0  0  0  0  0  0  0  0  0  0  0
   22.6469    7.6805   23.6447 C   0  0  1  0  0  0  0  0  0  0  0  0
   23.3226    7.1491   24.8165 O   0  0  0  0  0  0  0  0  0  0  0  0
   21.3924    6.8326   23.4672 C   0  0  1  0  0  0  0  0  0  0  0  0
   21.0071    6.7472   22.0944 O   0  0  0  0  0  0  0  0  0  0  0  0
   21.8194    5.4941   24.0663 C   0  0  1  0  0  0  0  0  0  0  0  0
   22.6147    4.7164   23.1841 O   0  0  0  0  0  0  0  0  0  0  0  0
   22.6587    5.9683   25.2507 C   0  0  2  0  0  0  0  0  0  0  0  0
   23.1898    6.8314   30.2967 N   0  0  0  0  0  0  0  0  0  0  0  0
   24.1543    6.6404   29.3373 C   0  0  1  0  0  0  0  0  0  0  0  0
   25.4141    6.6843   29.7732 N   0  0  0  0  0  0  0  0  0  0  0  0
   23.9024    6.4197   28.0502 N   0  0  0  0  0  0  0  0  0  0  0  0
   22.5644    6.3938   27.7814 C   0  0  1  0  0  0  0  0  0  0  0  0
   21.5224    6.5743   28.6739 C   0  0  1  0  0  0  0  0  0  0  0  0
   21.8184    6.8191   30.0438 C   0  0  0  0  0  0  0  0  0  0  0  0
   21.0322    7.0059   30.9812 O   0  0  0  0  0  0  0  0  0  0  0  0
   20.3000    6.4935   28.0194 N   0  0  0  0  0  0  0  0  0  0  0  0
   20.6129    6.2637   26.7739 C   0  0  0  0  0  0  0  0  0  0  0  0
   21.9687    6.1811   26.5440 N   0  0  1  0  0  0  0  0  0  0  0  0
  2  1  1  0  0  0  0
  3  1  1  1  0  0  0
  3  4  1  0  0  0  0
  3  5  1  0  0  0  0
  5  6  1  6  0  0  0
  5  7  1  0  0  0  0
  7  8  1  6  0  0  0
  7  9  1  0  0  0  0
  9  4  1  6  0  0  0
  9 20  1  0  0  0  0
 10 11  1  0  0  0  0
 11 12  1  1  0  0  0
 11 13  1  0  0  0  0
 14 13  1  6  0  0  0
 15 14  1  0  0  0  0
 15 16  1  6  0  0  0
 16 10  1  0  0  0  0
 16 17  2  0  0  0  0
 18 15  1  0  0  0  0
 19 18  1  0  0  0  0
 20 14  1  0  0  0  0
 20 19  1  6  0  0  0
M  END
>  <CHROM.1>
-58.99936423,-68.42940723,22.27555996,6.78072202,26.52619392,-1.70009936
-0.16647604,1.57510710

>  <Name>
1nyi_lig

>  <RI>
0

>  <Rbt.Current_Directory>
/home/itssahil/PROJECTS/Mol_Feturizer/New_Systems/rnas/1nyi

>  <Rbt.Executable>
rbdock ($Id: //depot/dev/client3/rdock/2013.1/src/exe/rbdock.cxx#4 $)

>  <Rbt.Library>
libRbt.so (2013.1, Build901 2013/11/27)

>  <Rbt.Parameter_File>
/export/apps/rDock/src/rDock_2013.1_src/data/scripts/dock_solv.prm

>  <Rbt.Receptor>
prm/blind_docking_60.prm

>  <SCORE>
-5.63185

>  <SCORE.INTER>
-6.56338

>  <SCORE.INTER.CONST>
1

>  <SCORE.INTER.POLAR>
-0.959992

>  <SCORE.INTER.ROT>
2

>  <SCORE.INTER.SOLV>
15.1818

>  <SCORE.INTER.VDW>
-11.1695

>  <SCORE.INTER.norm>
-0.328169

>  <SCORE.INTRA>
-1.67218

>  <SCORE.INTRA.DIHEDRAL>
-2.54051

>  <SCORE.INTRA.DIHEDRAL.0>
3.72394

>  <SCORE.INTRA.POLAR>
0

>  <SCORE.INTRA.POLAR.0>
0

>  <SCORE.INTRA.REPUL>
0

>  <SCORE.INTRA.REPUL.0>
0

>  <SCORE.INTRA.SOLV>
0.101167

>  <SCORE.INTRA.SOLV.lig_0>
-49.4697

>  <SCORE.INTRA.VDW>
-0.452506

>  <SCORE.INTRA.VDW.0>
-0.896538

>  <SCORE.INTRA.norm>
-0.0836088

>  <SCORE.RESTR>
2.60371

>  <SCORE.RESTR.CAVITY>
2.60371

>  <SCORE.RESTR.norm>
0.130186

>  <SCORE.SYSTEM>
0

>  <SCORE.SYSTEM.CONST>
0

>  <SCORE.SYSTEM.DIHEDRAL>
0

>  <SCORE.SYSTEM.SOLV>
0

>  <SCORE.SYSTEM.norm>
0

>  <SCORE.heavy>
20

>  <SCORE.norm>
-0.281592

>  <RMSD>
21.029

$$$$
1nyi_lig
 OpenBabel11021811403D
libRbt.so/2013.1/901 2013/11/27
 20 22  0  0  0  0  0  0  0  0999 V2000
   22.3163    9.1772   23.8973 C   0  0  0  0  0  0  0  0  0  0  0  0
   21.4952    9.3301   25.0551 O   0  0  0  0  0  0  0  0  0  0  0  0
   22.6376    7.7194   23.6527 C   0  0  1  0  0  0  0  0  0  0  0  0
   23.3161    7.1840   24.8211 O   0  0  0  0  0  0  0  0  0  0  0  0
   21.3863    6.8674   23.4711 C   0  0  1  0  0  0  0  0  0  0  0  0
   21.0006    6.7885   22.0980 O   0  0  0  0  0  0  0  0  0  0  0  0
   21.8191    5.5273   24.0622 C   0  0  1  0  0  0  0  0  0  0  0  0
   22.6170    4.7578   23.1751 O   0  0  0  0  0  0  0  0  0  0  0  0
   22.6572    5.9980   25.2488 C   0  0  2  0  0  0  0  0  0  0  0  0
   23.1878    6.8274   30.3005 N   0  0  0  0  0  0  0  0  0  0  0  0
   24.1524    6.6449   29.3396 C   0  0  1  0  0  0  0  0  0  0  0  0
   25.4123    6.6883   29.7755 N   0  0  0  0  0  0  0  0  0  0  0  0
   23.9007    6.4326   28.0511 N   0  0  0  0  0  0  0  0  0  0  0  0
   22.5626    6.4059   27.7825 C   0  0  1  0  0  0  0  0  0  0  0  0
   21.5205    6.5783   28.6764 C   0  0  1  0  0  0  0  0  0  0  0  0
   21.8163    6.8142   30.0479 C   0  0  0  0  0  0  0  0  0  0  0  0
   21.0300    6.9930   30.9867 O   0  0  0  0  0  0  0  0  0  0  0  0
   20.2981    6.4995   28.0216 N   0  0  0  0  0  0  0  0  0  0  0  0
   20.6111    6.2790   26.7745 C   0  0  0  0  0  0  0  0  0  0  0  0
   21.9670    6.2006   26.5437 N   0  0  1  0  0  0  0  0  0  0  0  0
  2  1  1  0  0  0  0
  3  1  1  1  0  0  0
  3  4  1  0  0  0  0
  3  5  1  0  0  0  0
  5  6  1  6  0  0  0
  5  7  1  0  0  0  0
  7  8  1  6  0  0  0
  7  9  1  0  0  0  0
  9  4  1  6  0  0  0
  9 20  1  0  0  0  0
 10 11  1  0  0  0  0
 11 12  1  1  0  0  0
 11 13  1  0  0  0  0
 14 13  1  6  0  0  0
 15 14  1  0  0  0  0
 15 16  1  6  0  0  0
 16 10  1  0  0  0  0
 16 17  2  0  0  0  0
 18 15  1  0  0  0  0
 19 18  1  0  0  0  0
 20 14  1  0  0  0  0
 20 19  1  6  0  0  0
M  END
>  <CHROM.1>
-58.66852157,-68.56485376,22.27188461,6.79976104,26.52975198,-1.70074894
-0.16688597,1.58106587

>  <Name>
1nyi_lig

>  <RI>
0

>  <Rbt.Current_Directory>
/home/itssahil/PROJECTS/Mol_Feturizer/New_Systems/rnas/1nyi

>  <Rbt.Executable>
rbdock ($Id: //depot/dev/client3/rdock/2013.1/src/exe/rbdock.cxx#4 $)

>  <Rbt.Library>
libRbt.so (2013.1, Build901 2013/11/27)

>  <Rbt.Parameter_File>
/export/apps/rDock/src/rDock_2013.1_src/data/scripts/dock_solv.prm

>  <Rbt.Receptor>
prm/blind_docking_60.prm

>  <SCORE>
-5.79639

>  <SCORE.INTER>
-6.75924

>  <SCORE.INTER.CONST>
1

>  <SCORE.INTER.POLAR>
-0.958945

>  <SCORE.INTER.ROT>
2

>  <SCORE.INTER.SOLV>
15.1227

>  <SCORE.INTER.VDW>
-11.2839

>  <SCORE.INTER.norm>
-0.337962

>  <SCORE.INTRA>
-1.67371

>  <SCORE.INTRA.DIHEDRAL>
-2.53795

>  <SCORE.INTRA.DIHEDRAL.0>
3.72394

>  <SCORE.INTRA.POLAR>
0

>  <SCORE.INTRA.POLAR.0>
0

>  <SCORE.INTRA.REPUL>
0

>  <SCORE.INTRA.REPUL.0>
0

>  <SCORE.INTRA.SOLV>
0.101447

>  <SCORE.INTRA.SOLV.lig_0>
-49.4697

>  <SCORE.INTRA.VDW>
-0.455456

>  <SCORE.INTRA.VDW.0>
-0.896538

>  <SCORE.INTRA.norm>
-0.0836855

>  <SCORE.RESTR>
2.63656

>  <SCORE.RESTR.CAVITY>
2.63656

>  <SCORE.RESTR.norm>
0.131828

>  <SCORE.SYSTEM>
0

>  <SCORE.SYSTEM.CONST>
0

>  <SCORE.SYSTEM.DIHEDRAL>
0

>  <SCORE.SYSTEM.SOLV>
0

>  <SCORE.SYSTEM.norm>
0

>  <SCORE.heavy>
20

>  <SCORE.norm>
-0.289819

>  <RMSD>
21.035

$$$$
1nyi_lig
 OpenBabel11021811403D
libRbt.so/2013.1/901 2013/11/27
 20 22  0  0  0  0  0  0  0  0999 V2000
   21.4812    8.7716   23.4975 C   0  0  0  0  0  0  0  0  0  0  0  0
   22.3624    9.8947   23.4879 O   0  0  0  0  0  0  0  0  0  0  0  0
   22.2598    7.4748   23.4790 C   0  0  1  0  0  0  0  0  0  0  0  0
   23.0668    7.3926   24.6850 O   0  0  0  0  0  0  0  0  0  0  0  0
   21.3540    6.2486   23.5000 C   0  0  1  0  0  0  0  0  0  0  0  0
   21.0247    5.8175   22.1786 O   0  0  0  0  0  0  0  0  0  0  0  0
   22.1938    5.2395   24.2804 C   0  0  1  0  0  0  0  0  0  0  0  0
   23.2046    4.6276   23.4934 O   0  0  0  0  0  0  0  0  0  0  0  0
   22.8253    6.1491   25.3322 C   0  0  2  0  0  0  0  0  0  0  0  0
   23.2053    6.7887   30.4249 N   0  0  0  0  0  0  0  0  0  0  0  0
   24.1960    6.5987   29.4924 C   0  0  1  0  0  0  0  0  0  0  0  0
   25.4400    6.5760   29.9732 N   0  0  0  0  0  0  0  0  0  0  0  0
   23.9828    6.4396   28.1893 N   0  0  0  0  0  0  0  0  0  0  0  0
   22.6554    6.4766   27.8735 C   0  0  1  0  0  0  0  0  0  0  0  0
   21.5893    6.6618   28.7360 C   0  0  1  0  0  0  0  0  0  0  0  0
   21.8444    6.8400   30.1243 C   0  0  0  0  0  0  0  0  0  0  0  0
   21.0324    7.0198   31.0408 O   0  0  0  0  0  0  0  0  0  0  0  0
   20.3892    6.6549   28.0368 N   0  0  0  0  0  0  0  0  0  0  0  0
   20.7381    6.4630   26.7945 C   0  0  0  0  0  0  0  0  0  0  0  0
   22.0973    6.3369   26.6084 N   0  0  1  0  0  0  0  0  0  0  0  0
  2  1  1  0  0  0  0
  3  1  1  1  0  0  0
  3  4  1  0  0  0  0
  3  5  1  0  0  0  0
  5  6  1  6  0  0  0
  5  7  1  0  0  0  0
  7  8  1  6  0  0  0
  7  9  1  0  0  0  0
  9  4  1  6  0  0  0
  9 20  1  0  0  0  0
 10 11  1  0  0  0  0
 11 12  1  1  0  0  0
 11 13  1  0  0  0  0
 14 13  1  6  0  0  0
 15 14  1  0  0  0  0
 15 16  1  6  0  0  0
 16 10  1  0  0  0  0
 16 17  2  0  0  0  0
 18 15  1  0  0  0  0
 19 18  1  0  0  0  0
 20 14  1  0  0  0  0
 20 19  1  6  0  0  0
M  END
>  <CHROM.1>
62.48665168,-93.03529494,22.34086623,6.73872702,26.49114395,1.70971235,0.45329215
-1.60226540

>  <Name>
1nyi_lig

>  <RI>
0

>  <Rbt.Current_Directory>
/home/itssahil/PROJECTS/Mol_Feturizer/New_Systems/rnas/1nyi

>  <Rbt.Executable>
rbdock ($Id: //depot/dev/client3/rdock/2013.1/src/exe/rbdock.cxx#4 $)

>  <Rbt.Library>
libRbt.so (2013.1, Build901 2013/11/27)

>  <Rbt.Parameter_File>
/export/apps/rDock/src/rDock_2013.1_src/data/scripts/dock_solv.prm

>  <Rbt.Receptor>
prm/blind_docking_60.prm

>  <SCORE>
-7.65696

>  <SCORE.INTER>
-7.74346

>  <SCORE.INTER.CONST>
1

>  <SCORE.INTER.POLAR>
-1.03923

>  <SCORE.INTER.ROT>
2

>  <SCORE.INTER.SOLV>
14.7706

>  <SCORE.INTER.VDW>
-11.5551

>  <SCORE.INTER.norm>
-0.387173

>  <SCORE.INTRA>
-2.00829

>  <SCORE.INTRA.DIHEDRAL>
-2.56217

>  <SCORE.INTRA.DIHEDRAL.0>
3.72394

>  <SCORE.INTRA.POLAR>
0

>  <SCORE.INTRA.POLAR.0>
0

>  <SCORE.INTRA.REPUL>
0

>  <SCORE.INTRA.REPUL.0>
0

>  <SCORE.INTRA.SOLV>
-0.839406

>  <SCORE.INTRA.SOLV.lig_0>
-49.4697

>  <SCORE.INTRA.VDW>
-0.307498

>  <SCORE.INTRA.VDW.0>
-0.896538

>  <SCORE.INTRA.norm>
-0.100414

>  <SCORE.RESTR>
2.09478

>  <SCORE.RESTR.CAVITY>
2.09478

>  <SCORE.RESTR.norm>
0.104739

>  <SCORE.SYSTEM>
0

>  <SCORE.SYSTEM.CONST>
0

>  <SCORE.SYSTEM.DIHEDRAL>
0

>  <SCORE.SYSTEM.SOLV>
0

>  <SCORE.SYSTEM.norm>
0

>  <SCORE.heavy>
20

>  <SCORE.norm>
-0.382848

>  <RMSD>
21.038

$$$$
1nyi_lig
 OpenBabel11021811403D
libRbt.so/2013.1/901 2013/11/27
 20 22  0  0  0  0  0  0  0  0999 V2000
   21.9002    9.0672   23.7674 C   0  0  0  0  0  0  0  0  0  0  0  0
   22.8984   10.0309   23.4314 O   0  0  0  0  0  0  0  0  0  0  0  0
   22.4308    7.6605   23.6007 C   0  0  1  0  0  0  0  0  0  0  0  0
   23.1914    7.3003   24.7855 O   0  0  0  0  0  0  0  0  0  0  0  0
   21.3173    6.6249   23.4901 C   0  0  1  0  0  0  0  0  0  0  0  0
   20.9350    6.4094   22.1308 O   0  0  0  0  0  0  0  0  0  0  0  0
   21.9483    5.4000   24.1489 C   0  0  1  0  0  0  0  0  0  0  0  0
   22.8429    4.7050   23.2932 O   0  0  0  0  0  0  0  0  0  0  0  0
   22.7186    6.0578   25.2918 C   0  0  2  0  0  0  0  0  0  0  0  0
   23.2080    6.7371   30.3699 N   0  0  0  0  0  0  0  0  0  0  0  0
   24.1800    6.5690   29.4138 C   0  0  1  0  0  0  0  0  0  0  0  0
   25.4357    6.5832   29.8633 N   0  0  0  0  0  0  0  0  0  0  0  0
   23.9387    6.3965   28.1174 N   0  0  0  0  0  0  0  0  0  0  0  0
   22.6033    6.3953   27.8349 C   0  0  1  0  0  0  0  0  0  0  0  0
   21.5544    6.5562   28.7229 C   0  0  1  0  0  0  0  0  0  0  0  0
   21.8391    6.7494   30.1035 C   0  0  0  0  0  0  0  0  0  0  0  0
   21.0456    6.9121   31.0391 O   0  0  0  0  0  0  0  0  0  0  0  0
   20.3379    6.5123   28.0542 N   0  0  0  0  0  0  0  0  0  0  0  0
   20.6607    6.3229   26.8044 C   0  0  0  0  0  0  0  0  0  0  0  0
   22.0178    6.2330   26.5849 N   0  0  1  0  0  0  0  0  0  0  0  0
  2  1  1  0  0  0  0
  3  1  1  1  0  0  0
  3  4  1  0  0  0  0
  3  5  1  0  0  0  0
  5  6  1  6  0  0  0
  5  7  1  0  0  0  0
  7  8  1  6  0  0  0
  7  9  1  0  0  0  0
  9  4  1  6  0  0  0
  9 20  1  0  0  0  0
 10 11  1  0  0  0  0
 11 12  1  1  0  0  0
 11 13  1  0  0  0  0
 14 13  1  6  0  0  0
 15 14  1  0  0  0  0
 15 16  1  6  0  0  0
 16 10  1  0  0  0  0
 16 17  2  0  0  0  0
 18 15  1  0  0  0  0
 19 18  1  0  0  0  0
 20 14  1  0  0  0  0
 20 19  1  6  0  0  0
M  END
>  <CHROM.1>
82.04570947,-79.12235495,22.34668480,6.77961796,26.47159905,-1.68883499,0.45017766
1.69835281

>  <Name>
1nyi_lig

>  <RI>
0

>  <Rbt.Current_Directory>
/home/itssahil/PROJECTS/Mol_Feturizer/New_Systems/rnas/1nyi

>  <Rbt.Executable>
rbdock ($Id: //depot/dev/client3/rdock/2013.1/src/exe/rbdock.cxx#4 $)

>  <Rbt.Library>
libRbt.so (2013.1, Build901 2013/11/27)

>  <Rbt.Parameter_File>
/export/apps/rDock/src/rDock_2013.1_src/data/scripts/dock_solv.prm

>  <Rbt.Receptor>
prm/blind_docking_60.prm

>  <SCORE>
-7.13232

>  <SCORE.INTER>
-7.94916

>  <SCORE.INTER.CONST>
1

>  <SCORE.INTER.POLAR>
-1.03923

>  <SCORE.INTER.ROT>
2

>  <SCORE.INTER.SOLV>
15.2674

>  <SCORE.INTER.VDW>
-11.8578

>  <SCORE.INTER.norm>
-0.397458

>  <SCORE.INTRA>
-1.14375

>  <SCORE.INTRA.DIHEDRAL>
-1.00246

>  <SCORE.INTRA.DIHEDRAL.0>
3.72394

>  <SCORE.INTRA.POLAR>
0

>  <SCORE.INTRA.POLAR.0>
0

>  <SCORE.INTRA.REPUL>
0

>  <SCORE.INTRA.REPUL.0>
0

>  <SCORE.INTRA.SOLV>
-0.845877

>  <SCORE.INTRA.SOLV.lig_0>
-49.4697

>  <SCORE.INTRA.VDW>
-0.219582

>  <SCORE.INTRA.VDW.0>
-0.896538

>  <SCORE.INTRA.norm>
-0.0571876

>  <SCORE.RESTR>
1.9606

>  <SCORE.RESTR.CAVITY>
1.9606

>  <SCORE.RESTR.norm>
0.09803

>  <SCORE.SYSTEM>
0

>  <SCORE.SYSTEM.CONST>
0

>  <SCORE.SYSTEM.DIHEDRAL>
0

>  <SCORE.SYSTEM.SOLV>
0

>  <SCORE.SYSTEM.norm>
0

>  <SCORE.heavy>
20

>  <SCORE.norm>
-0.356616

>  <RMSD>
21.061

$$$$
1nyi_lig
 OpenBabel11021811403D
libRbt.so/2013.1/901 2013/11/27
 20 22  0  0  0  0  0  0  0  0999 V2000
   21.8982    9.0675   23.7627 C   0  0  0  0  0  0  0  0  0  0  0  0
   22.8825   10.0330   23.3928 O   0  0  0  0  0  0  0  0  0  0  0  0
   22.4325    7.6620   23.5976 C   0  0  1  0  0  0  0  0  0  0  0  0
   23.1929    7.3047   24.7835 O   0  0  0  0  0  0  0  0  0  0  0  0
   21.3218    6.6235   23.4869 C   0  0  1  0  0  0  0  0  0  0  0  0
   20.9413    6.4058   22.1274 O   0  0  0  0  0  0  0  0  0  0  0  0
   21.9554    5.4007   24.1473 C   0  0  1  0  0  0  0  0  0  0  0  0
   22.8525    4.7073   23.2930 O   0  0  0  0  0  0  0  0  0  0  0  0
   22.7229    6.0614   25.2903 C   0  0  2  0  0  0  0  0  0  0  0  0
   23.2060    6.7358   30.3698 N   0  0  0  0  0  0  0  0  0  0  0  0
   24.1791    6.5679   29.4148 C   0  0  1  0  0  0  0  0  0  0  0  0
   25.4342    6.5808   29.8660 N   0  0  0  0  0  0  0  0  0  0  0  0
   23.9395    6.3967   28.1179 N   0  0  0  0  0  0  0  0  0  0  0  0
   22.6044    6.3967   27.8336 C   0  0  1  0  0  0  0  0  0  0  0  0
   21.5544    6.5575   28.7204 C   0  0  1  0  0  0  0  0  0  0  0  0
   21.8374    6.7493   30.1015 C   0  0  0  0  0  0  0  0  0  0  0  0
   21.0427    6.9117   31.0362 O   0  0  0  0  0  0  0  0  0  0  0  0
   20.3388    6.5151   28.0499 N   0  0  0  0  0  0  0  0  0  0  0  0
   20.6632    6.3266   26.8005 C   0  0  0  0  0  0  0  0  0  0  0  0
   22.0205    6.2359   26.5827 N   0  0  1  0  0  0  0  0  0  0  0  0
  2  1  1  0  0  0  0
  3  1  1  1  0  0  0
  3  4  1  0  0  0  0
  3  5  1  0  0  0  0
  5  6  1  6  0  0  0
  5  7  1  0  0  0  0
  7  8  1  6  0  0  0
  7  9  1  0  0  0  0
  9  4  1  6  0  0  0
  9 20  1  0  0  0  0
 10 11  1  0  0  0  0
 11 12  1  1  0  0  0
 11 13  1  0  0  0  0
 14 13  1  6  0  0  0
 15 14  1  0  0  0  0
 15 16  1  6  0  0  0
 16 10  1  0  0  0  0
 16 17  2  0  0  0  0
 18 15  1  0  0  0  0
 19 18  1  0  0  0  0
 20 14  1  0  0  0  0
 20 19  1  6  0  0  0
M  END
>  <CHROM.1>
83.58882621,-79.33644232,22.34742389,6.78047019,26.46767453,-1.68748689,0.44025468
1.69787683

>  <Name>
1nyi_lig

>  <RI>
0

>  <Rbt.Current_Directory>
/home/itssahil/PROJECTS/Mol_Feturizer/New_Systems/rnas/1nyi

>  <Rbt.Executable>
rbdock ($Id: //depot/dev/client3/rdock/2013.1/src/exe/rbdock.cxx#4 $)

>  <Rbt.Library>
libRbt.so (2013.1, Build901 2013/11/27)

>  <Rbt.Parameter_File>
/export/apps/rDock/src/rDock_2013.1_src/data/scripts/dock_solv.prm

>  <Rbt.Receptor>
prm/blind_docking_60.prm

>  <SCORE>
-7.12842

>  <SCORE.INTER>
-8.03842

>  <SCORE.INTER.CONST>
1

>  <SCORE.INTER.POLAR>
-1.03923

>  <SCORE.INTER.ROT>
2

>  <SCORE.INTER.SOLV>
15.2363

>  <SCORE.INTER.VDW>
-11.9069

>  <SCORE.INTER.norm>
-0.401921

>  <SCORE.INTRA>
-1.0492

>  <SCORE.INTRA.DIHEDRAL>
-0.80564

>  <SCORE.INTRA.DIHEDRAL.0>
3.72394

>  <SCORE.INTRA.POLAR>
0

>  <SCORE.INTRA.POLAR.0>
0

>  <SCORE.INTRA.REPUL>
0

>  <SCORE.INTRA.REPUL.0>
0

>  <SCORE.INTRA.SOLV>
-0.851525

>  <SCORE.INTRA.SOLV.lig_0>
-49.4697

>  <SCORE.INTRA.VDW>
-0.220615

>  <SCORE.INTRA.VDW.0>
-0.896538

>  <SCORE.INTRA.norm>
-0.0524599

>  <SCORE.RESTR>
1.95919

>  <SCORE.RESTR.CAVITY>
1.95919

>  <SCORE.RESTR.norm>
0.0979596

>  <SCORE.SYSTEM>
0

>  <SCORE.SYSTEM.CONST>
0

>  <SCORE.SYSTEM.DIHEDRAL>
0

>  <SCORE.SYSTEM.SOLV>
0

>  <SCORE.SYSTEM.norm>
0

>  <SCORE.heavy>
20

>  <SCORE.norm>
-0.356421

>  <RMSD>
21.064

$$$$
1nyi_lig
 OpenBabel11021811403D
libRbt.so/2013.1/901 2013/11/27
 20 22  0  0  0  0  0  0  0  0999 V2000
   21.9016    9.0662   23.7517 C   0  0  0  0  0  0  0  0  0  0  0  0
   22.8861   10.0307   23.3795 O   0  0  0  0  0  0  0  0  0  0  0  0
   22.4355    7.6602   23.5896 C   0  0  1  0  0  0  0  0  0  0  0  0
   23.1932    7.3041   24.7776 O   0  0  0  0  0  0  0  0  0  0  0  0
   21.3245    6.6222   23.4778 C   0  0  1  0  0  0  0  0  0  0  0  0
   20.9468    6.4029   22.1178 O   0  0  0  0  0  0  0  0  0  0  0  0
   21.9560    5.4000   24.1412 C   0  0  1  0  0  0  0  0  0  0  0  0
   22.8546    4.7049   23.2897 O   0  0  0  0  0  0  0  0  0  0  0  0
   22.7214    6.0617   25.2850 C   0  0  2  0  0  0  0  0  0  0  0  0
   23.1937    6.7343   30.3657 N   0  0  0  0  0  0  0  0  0  0  0  0
   24.1688    6.5635   29.4132 C   0  0  1  0  0  0  0  0  0  0  0  0
   25.4228    6.5726   29.8675 N   0  0  0  0  0  0  0  0  0  0  0  0
   23.9319    6.3932   28.1156 N   0  0  0  0  0  0  0  0  0  0  0  0
   22.5975    6.3972   27.8280 C   0  0  1  0  0  0  0  0  0  0  0  0
   21.5458    6.5611   28.7122 C   0  0  1  0  0  0  0  0  0  0  0  0
   21.8259    6.7519   30.0940 C   0  0  0  0  0  0  0  0  0  0  0  0
   21.0294    6.9167   31.0267 O   0  0  0  0  0  0  0  0  0  0  0  0
   20.3317    6.5224   28.0387 N   0  0  0  0  0  0  0  0  0  0  0  0
   20.6587    6.3330   26.7900 C   0  0  0  0  0  0  0  0  0  0  0  0
   22.0163    6.2383   26.5757 N   0  0  1  0  0  0  0  0  0  0  0  0
  2  1  1  0  0  0  0
  3  1  1  1  0  0  0
  3  4  1  0  0  0  0
  3  5  1  0  0  0  0
  5  6  1  6  0  0  0
  5  7  1  0  0  0  0
  7  8  1  6  0  0  0
  7  9  1  0  0  0  0
  9  4  1  6  0  0  0
  9 20  1  0  0  0  0
 10 11  1  0  0  0  0
 11 12  1  1  0  0  0
 11 13  1  0  0  0  0
 14 13  1  6  0  0  0
 15 14  1  0  0  0  0
 15 16  1  6  0  0  0
 16 10  1  0  0  0  0
 16 17  2  0  0  0  0
 18 15  1  0  0  0  0
 19 18  1  0  0  0  0
 20 14  1  0  0  0  0
 20 19  1  6  0  0  0
M  END
>  <CHROM.1>
83.73754223,-79.49813603,22.34368953,6.78030736,26.46073181,-1.68467625,0.43262688
1.69582246

>  <Name>
1nyi_lig

>  <RI>
0

>  <Rbt.Current_Directory>
/home/itssahil/PROJECTS/Mol_Feturizer/New_Systems/rnas/1nyi

>  <Rbt.Executable>
rbdock ($Id: //depot/dev/client3/rdock/2013.1/src/exe/rbdock.cxx#4 $)

>  <Rbt.Library>
libRbt.so (2013.1, Build901 2013/11/27)

>  <Rbt.Parameter_File>
/export/apps/rDock/src/rDock_2013.1_src/data/scripts/dock_solv.prm

>  <Rbt.Receptor>
prm/blind_docking_60.prm

>  <SCORE>
-7.21986

>  <SCORE.INTER>
-8.15774

>  <SCORE.INTER.CONST>
1

>  <SCORE.INTER.POLAR>
-1.03923

>  <SCORE.INTER.ROT>
2

>  <SCORE.INTER.SOLV>
15.1866

>  <SCORE.INTER.VDW>
-11.9699

>  <SCORE.INTER.norm>
-0.407887

>  <SCORE.INTRA>
-1.04117

>  <SCORE.INTRA.DIHEDRAL>
-0.786654

>  <SCORE.INTRA.DIHEDRAL.0>
3.72394

>  <SCORE.INTRA.POLAR>
0

>  <SCORE.INTRA.POLAR.0>
0

>  <SCORE.INTRA.REPUL>
0

>  <SCORE.INTRA.REPUL.0>
0

>  <SCORE.INTRA.SOLV>
-0.852719

>  <SCORE.INTRA.SOLV.lig_0>
-49.4697

>  <SCORE.INTRA.VDW>
-0.221481

>  <SCORE.INTRA.VDW.0>
-0.896538

>  <SCORE.INTRA.norm>
-0.0520584

>  <SCORE.RESTR>
1.97905

>  <SCORE.RESTR.CAVITY>
1.97905

>  <SCORE.RESTR.norm>
0.0989526

>  <SCORE.SYSTEM>
0

>  <SCORE.SYSTEM.CONST>
0

>  <SCORE.SYSTEM.DIHEDRAL>
0

>  <SCORE.SYSTEM.SOLV>
0

>  <SCORE.SYSTEM.norm>
0

>  <SCORE.heavy>
20

>  <SCORE.norm>
-0.360993

>  <RMSD>
21.070

$$$$
1nyi_lig
 OpenBabel11021811403D
libRbt.so/2013.1/901 2013/11/27
 20 22  0  0  0  0  0  0  0  0999 V2000
   21.8988    9.0619   23.7265 C   0  0  0  0  0  0  0  0  0  0  0  0
   22.8908   10.0345   23.3979 O   0  0  0  0  0  0  0  0  0  0  0  0
   22.4468    7.6601   23.5755 C   0  0  1  0  0  0  0  0  0  0  0  0
   23.2064    7.3204   24.7671 O   0  0  0  0  0  0  0  0  0  0  0  0
   21.3463    6.6103   23.4700 C   0  0  1  0  0  0  0  0  0  0  0  0
   20.9727    6.3772   22.1112 O   0  0  0  0  0  0  0  0  0  0  0  0
   21.9890    5.3994   24.1432 C   0  0  1  0  0  0  0  0  0  0  0  0
   22.8956    4.7070   23.2981 O   0  0  0  0  0  0  0  0  0  0  0  0
   22.7462    6.0771   25.2831 C   0  0  2  0  0  0  0  0  0  0  0  0
   23.2048    6.7554   30.3643 N   0  0  0  0  0  0  0  0  0  0  0  0
   24.1824    6.5820   29.4148 C   0  0  1  0  0  0  0  0  0  0  0  0
   25.4351    6.5899   29.8727 N   0  0  0  0  0  0  0  0  0  0  0  0
   23.9490    6.4104   28.1168 N   0  0  0  0  0  0  0  0  0  0  0  0
   22.6155    6.4159   27.8253 C   0  0  1  0  0  0  0  0  0  0  0  0
   21.5614    6.5824   28.7062 C   0  0  1  0  0  0  0  0  0  0  0  0
   21.8378    6.7745   30.0886 C   0  0  0  0  0  0  0  0  0  0  0  0
   21.0389    6.9415   31.0188 O   0  0  0  0  0  0  0  0  0  0  0  0
   20.3493    6.5445   28.0293 N   0  0  0  0  0  0  0  0  0  0  0  0
   20.6796    6.3531   26.7818 C   0  0  0  0  0  0  0  0  0  0  0  0
   22.0377    6.2562   26.5715 N   0  0  1  0  0  0  0  0  0  0  0  0
  2  1  1  0  0  0  0
  3  1  1  1  0  0  0
  3  4  1  0  0  0  0
  3  5  1  0  0  0  0
  5  6  1  6  0  0  0
  5  7  1  0  0  0  0
  7  8  1  6  0  0  0
  7  9  1  0  0  0  0
  9  4  1  6  0  0  0
  9 20  1  0  0  0  0
 10 11  1  0  0  0  0
 11 12  1  1  0  0  0
 11 13  1  0  0  0  0
 14 13  1  6  0  0  0
 15 14  1  0  0  0  0
 15 16  1  6  0  0  0
 16 10  1  0  0  0  0
 16 17  2  0  0  0  0
 18 15  1  0  0  0  0
 19 18  1  0  0  0  0
 20 14  1  0  0  0  0
 20 19  1  6  0  0  0
M  END
>  <CHROM.1>
81.48913736,-80.24233626,22.36080126,6.79087018,26.45716738,-1.68339090,0.41483333
1.68895739

>  <Name>
1nyi_lig

>  <RI>
0

>  <Rbt.Current_Directory>
/home/itssahil/PROJECTS/Mol_Feturizer/New_Systems/rnas/1nyi

>  <Rbt.Executable>
rbdock ($Id: //depot/dev/client3/rdock/2013.1/src/exe/rbdock.cxx#4 $)

>  <Rbt.Library>
libRbt.so (2013.1, Build901 2013/11/27)

>  <Rbt.Parameter_File>
/export/apps/rDock/src/rDock_2013.1_src/data/scripts/dock_solv.prm

>  <Rbt.Receptor>
prm/blind_docking_60.prm

>  <SCORE>
-7.08704

>  <SCORE.INTER>
-7.83637

>  <SCORE.INTER.CONST>
1

>  <SCORE.INTER.POLAR>
-1.03923

>  <SCORE.INTER.ROT>
2

>  <SCORE.INTER.SOLV>
15.3043

>  <SCORE.INTER.VDW>
-11.7949

>  <SCORE.INTER.norm>
-0.391818

>  <SCORE.INTRA>
-1.1876

>  <SCORE.INTRA.DIHEDRAL>
-1.0743

>  <SCORE.INTRA.DIHEDRAL.0>
3.72394

>  <SCORE.INTRA.POLAR>
0

>  <SCORE.INTRA.POLAR.0>
0

>  <SCORE.INTRA.REPUL>
0

>  <SCORE.INTRA.REPUL.0>
0

>  <SCORE.INTRA.SOLV>
-0.849361

>  <SCORE.INTRA.SOLV.lig_0>
-49.4697

>  <SCORE.INTRA.VDW>
-0.225766

>  <SCORE.INTRA.VDW.0>
-0.896538

>  <SCORE.INTRA.norm>
-0.0593799

>  <SCORE.RESTR>
1.93693

>  <SCORE.RESTR.CAVITY>
1.93693

>  <SCORE.RESTR.norm>
0.0968464

>  <SCORE.SYSTEM>
0

>  <SCORE.SYSTEM.CONST>
0

>  <SCORE.SYSTEM.DIHEDRAL>
0

>  <SCORE.SYSTEM.SOLV>
0

>  <SCORE.SYSTEM.norm>
0

>  <SCORE.heavy>
20

>  <SCORE.norm>
-0.354352

>  <RMSD>
21.076

$$$$
1nyi_lig
 OpenBabel11021811403D
libRbt.so/2013.1/901 2013/11/27
 20 22  0  0  0  0  0  0  0  0999 V2000
   21.9009    9.0646   23.7273 C   0  0  0  0  0  0  0  0  0  0  0  0
   22.8973   10.0359   23.4081 O   0  0  0  0  0  0  0  0  0  0  0  0
   22.4468    7.6620   23.5753 C   0  0  1  0  0  0  0  0  0  0  0  0
   23.2073    7.3209   24.7659 O   0  0  0  0  0  0  0  0  0  0  0  0
   21.3446    6.6138   23.4709 C   0  0  1  0  0  0  0  0  0  0  0  0
   20.9690    6.3815   22.1125 O   0  0  0  0  0  0  0  0  0  0  0  0
   21.9864    5.4018   24.1432 C   0  0  1  0  0  0  0  0  0  0  0  0
   22.8909    4.7083   23.2968 O   0  0  0  0  0  0  0  0  0  0  0  0
   22.7459    6.0782   25.2823 C   0  0  2  0  0  0  0  0  0  0  0  0
   23.2118    6.7606   30.3623 N   0  0  0  0  0  0  0  0  0  0  0  0
   24.1880    6.5869   29.4114 C   0  0  1  0  0  0  0  0  0  0  0  0
   25.4414    6.5956   29.8675 N   0  0  0  0  0  0  0  0  0  0  0  0
   23.9528    6.4142   28.1139 N   0  0  0  0  0  0  0  0  0  0  0  0
   22.6189    6.4190   27.8244 C   0  0  1  0  0  0  0  0  0  0  0  0
   21.5661    6.5858   28.7067 C   0  0  1  0  0  0  0  0  0  0  0  0
   21.8444    6.7791   30.0885 C   0  0  0  0  0  0  0  0  0  0  0  0
   21.0467    6.9465   31.0198 O   0  0  0  0  0  0  0  0  0  0  0  0
   20.3529    6.5470   28.0316 N   0  0  0  0  0  0  0  0  0  0  0  0
   20.6814    6.3547   26.7838 C   0  0  0  0  0  0  0  0  0  0  0  0
   22.0393    6.2581   26.5715 N   0  0  1  0  0  0  0  0  0  0  0  0
  2  1  1  0  0  0  0
  3  1  1  1  0  0  0
  3  4  1  0  0  0  0
  3  5  1  0  0  0  0
  5  6  1  6  0  0  0
  5  7  1  0  0  0  0
  7  8  1  6  0  0  0
  7  9  1  0  0  0  0
  9  4  1  6  0  0  0
  9 20  1  0  0  0  0
 10 11  1  0  0  0  0
 11 12  1  1  0  0  0
 11 13  1  0  0  0  0
 14 13  1  6  0  0  0
 15 14  1  0  0  0  0
 15 16  1  6  0  0  0
 16 10  1  0  0  0  0
 16 17  2  0  0  0  0
 18 15  1  0  0  0  0
 19 18  1  0  0  0  0
 20 14  1  0  0  0  0
 20 19  1  6  0  0  0
M  END
>  <CHROM.1>
81.01911963,-80.12504700,22.36321045,6.79387526,26.45731460,-1.68487067,0.42002394
1.68939485

>  <Name>
1nyi_lig

>  <RI>
0

>  <Rbt.Current_Directory>
/home/itssahil/PROJECTS/Mol_Feturizer/New_Systems/rnas/1nyi

>  <Rbt.Executable>
rbdock ($Id: //depot/dev/client3/rdock/2013.1/src/exe/rbdock.cxx#4 $)

>  <Rbt.Library>
libRbt.so (2013.1, Build901 2013/11/27)

>  <Rbt.Parameter_File>
/export/apps/rDock/src/rDock_2013.1_src/data/scripts/dock_solv.prm

>  <Rbt.Receptor>
prm/blind_docking_60.prm

>  <SCORE>
-7.05723

>  <SCORE.INTER>
-7.77263

>  <SCORE.INTER.CONST>
1

>  <SCORE.INTER.POLAR>
-1.03923

>  <SCORE.INTER.ROT>
2

>  <SCORE.INTER.SOLV>
15.3446

>  <SCORE.INTER.VDW>
-11.7659

>  <SCORE.INTER.norm>
-0.388632

>  <SCORE.INTRA>
-1.21484

>  <SCORE.INTRA.DIHEDRAL>
-1.13208

>  <SCORE.INTRA.DIHEDRAL.0>
3.72394

>  <SCORE.INTRA.POLAR>
0

>  <SCORE.INTRA.POLAR.0>
0

>  <SCORE.INTRA.REPUL>
0

>  <SCORE.INTRA.REPUL.0>
0

>  <SCORE.INTRA.SOLV>
-0.847371

>  <SCORE.INTRA.SOLV.lig_0>
-49.4697

>  <SCORE.INTRA.VDW>
-0.22512

>  <SCORE.INTRA.VDW.0>
-0.896538

>  <SCORE.INTRA.norm>
-0.0607422

>  <SCORE.RESTR>
1.93024

>  <SCORE.RESTR.CAVITY>
1.93024

>  <SCORE.RESTR.norm>
0.096512

>  <SCORE.SYSTEM>
0

>  <SCORE.SYSTEM.CONST>
0

>  <SCORE.SYSTEM.DIHEDRAL>
0

>  <SCORE.SYSTEM.SOLV>
0

>  <SCORE.SYSTEM.norm>
0

>  <SCORE.heavy>
20

>  <SCORE.norm>
-0.352862

>  <RMSD>
21.078

$$$$
1nyi_lig
 OpenBabel11021811403D
libRbt.so/2013.1/901 2013/11/27
 20 22  0  0  0  0  0  0  0  0999 V2000
   21.8991    9.0648   23.7271 C   0  0  0  0  0  0  0  0  0  0  0  0
   22.8894   10.0373   23.3934 O   0  0  0  0  0  0  0  0  0  0  0  0
   22.4470    7.6630   23.5752 C   0  0  1  0  0  0  0  0  0  0  0  0
   23.2078    7.3230   24.7659 O   0  0  0  0  0  0  0  0  0  0  0  0
   21.3463    6.6132   23.4706 C   0  0  1  0  0  0  0  0  0  0  0  0
   20.9713    6.3805   22.1121 O   0  0  0  0  0  0  0  0  0  0  0  0
   21.9897    5.4021   24.1429 C   0  0  1  0  0  0  0  0  0  0  0  0
   22.8955    4.7099   23.2966 O   0  0  0  0  0  0  0  0  0  0  0  0
   22.7482    6.0796   25.2821 C   0  0  2  0  0  0  0  0  0  0  0  0
   23.2122    6.7592   30.3627 N   0  0  0  0  0  0  0  0  0  0  0  0
   24.1887    6.5864   29.4120 C   0  0  1  0  0  0  0  0  0  0  0  0
   25.4420    6.5954   29.8685 N   0  0  0  0  0  0  0  0  0  0  0  0
   23.9540    6.4144   28.1143 N   0  0  0  0  0  0  0  0  0  0  0  0
   22.6201    6.4188   27.8244 C   0  0  1  0  0  0  0  0  0  0  0  0
   21.5670    6.5846   28.7065 C   0  0  1  0  0  0  0  0  0  0  0  0
   21.8449    6.7772   30.0885 C   0  0  0  0  0  0  0  0  0  0  0  0
   21.0468    6.9438   31.0197 O   0  0  0  0  0  0  0  0  0  0  0  0
   20.3541    6.5457   28.0310 N   0  0  0  0  0  0  0  0  0  0  0  0
   20.6831    6.3543   26.7832 C   0  0  0  0  0  0  0  0  0  0  0  0
   22.0410    6.2584   26.5713 N   0  0  1  0  0  0  0  0  0  0  0  0
  2  1  1  0  0  0  0
  3  1  1  1  0  0  0
  3  4  1  0  0  0  0
  3  5  1  0  0  0  0
  5  6  1  6  0  0  0
  5  7  1  0  0  0  0
  7  8  1  6  0  0  0
  7  9  1  0  0  0  0
  9  4  1  6  0  0  0
  9 20  1  0  0  0  0
 10 11  1  0  0  0  0
 11 12  1  1  0  0  0
 11 13  1  0  0  0  0
 14 13  1  6  0  0  0
 15 14  1  0  0  0  0
 15 16  1  6  0  0  0
 16 10  1  0  0  0  0
 16 17  2  0  0  0  0
 18 15  1  0  0  0  0
 19 18  1  0  0  0  0
 20 14  1  0  0  0  0
 20 19  1  6  0  0  0
M  END
>  <CHROM.1>
81.68055627,-80.19174629,22.36393270,6.79376431,26.45641603,-1.68461112,0.41660538
1.68962885

>  <Name>
1nyi_lig

>  <RI>
0

>  <Rbt.Current_Directory>
/home/itssahil/PROJECTS/Mol_Feturizer/New_Systems/rnas/1nyi

>  <Rbt.Executable>
rbdock ($Id: //depot/dev/client3/rdock/2013.1/src/exe/rbdock.cxx#4 $)

>  <Rbt.Library>
libRbt.so (2013.1, Build901 2013/11/27)

>  <Rbt.Parameter_File>
/export/apps/rDock/src/rDock_2013.1_src/data/scripts/dock_solv.prm

>  <Rbt.Receptor>
prm/blind_docking_60.prm

>  <SCORE>
-7.03771

>  <SCORE.INTER>
-7.78832

>  <SCORE.INTER.CONST>
1

>  <SCORE.INTER.POLAR>
-1.03923

>  <SCORE.INTER.ROT>
2

>  <SCORE.INTER.SOLV>
15.3378

>  <SCORE.INTER.VDW>
-11.774

>  <SCORE.INTER.norm>
-0.389416

>  <SCORE.INTRA>
-1.17553

>  <SCORE.INTRA.DIHEDRAL>
-1.05039

>  <SCORE.INTRA.DIHEDRAL.0>
3.72394

>  <SCORE.INTRA.POLAR>
0

>  <SCORE.INTRA.POLAR.0>
0

>  <SCORE.INTRA.REPUL>
0

>  <SCORE.INTRA.REPUL.0>
0

>  <SCORE.INTRA.SOLV>
-0.849715

>  <SCORE.INTRA.SOLV.lig_0>
-49.4697

>  <SCORE.INTRA.VDW>
-0.225479

>  <SCORE.INTRA.VDW.0>
-0.896538

>  <SCORE.INTRA.norm>
-0.0587765

>  <SCORE.RESTR>
1.92614

>  <SCORE.RESTR.CAVITY>
1.92614

>  <SCORE.RESTR.norm>
0.096307

>  <SCORE.SYSTEM>
0

>  <SCORE.SYSTEM.CONST>
0

>  <SCORE.SYSTEM.DIHEDRAL>
0

>  <SCORE.SYSTEM.SOLV>
0

>  <SCORE.SYSTEM.norm>
0

>  <SCORE.heavy>
20

>  <SCORE.norm>
-0.351886

>  <RMSD>
21.078

$$$$
1nyi_lig
 OpenBabel11021811403D
libRbt.so/2013.1/901 2013/11/27
 20 22  0  0  0  0  0  0  0  0999 V2000
   21.8997    9.0475   23.6701 C   0  0  0  0  0  0  0  0  0  0  0  0
   22.9176   10.0061   23.3818 O   0  0  0  0  0  0  0  0  0  0  0  0
   22.4399    7.6386   23.5636 C   0  0  1  0  0  0  0  0  0  0  0  0
   23.2053    7.3356   24.7613 O   0  0  0  0  0  0  0  0  0  0  0  0
   21.3335    6.5915   23.5006 C   0  0  1  0  0  0  0  0  0  0  0  0
   20.9502    6.3143   22.1529 O   0  0  0  0  0  0  0  0  0  0  0  0
   21.9745    5.4008   24.2107 C   0  0  1  0  0  0  0  0  0  0  0  0
   22.8723    4.6754   23.3841 O   0  0  0  0  0  0  0  0  0  0  0  0
   22.7422    6.1131   25.3222 C   0  0  2  0  0  0  0  0  0  0  0  0
   23.2330    6.8496   30.3923 N   0  0  0  0  0  0  0  0  0  0  0  0
   24.2018    6.6235   29.4450 C   0  0  1  0  0  0  0  0  0  0  0  0
   25.4544    6.5888   29.9021 N   0  0  0  0  0  0  0  0  0  0  0  0
   23.9604    6.4415   28.1499 N   0  0  0  0  0  0  0  0  0  0  0  0
   22.6278    6.4953   27.8590 C   0  0  1  0  0  0  0  0  0  0  0  0
   21.5822    6.7166   28.7379 C   0  0  1  0  0  0  0  0  0  0  0  0
   21.8675    6.9186   30.1170 C   0  0  0  0  0  0  0  0  0  0  0  0
   21.0768    7.1311   31.0450 O   0  0  0  0  0  0  0  0  0  0  0  0
   20.3687    6.7164   28.0622 N   0  0  0  0  0  0  0  0  0  0  0  0
   20.6898    6.4932   26.8176 C   0  0  0  0  0  0  0  0  0  0  0  0
   22.0428    6.3396   26.6081 N   0  0  1  0  0  0  0  0  0  0  0  0
  2  1  1  0  0  0  0
  3  1  1  1  0  0  0
  3  4  1  0  0  0  0
  3  5  1  0  0  0  0
  5  6  1  6  0  0  0
  5  7  1  0  0  0  0
  7  8  1  6  0  0  0
  7  9  1  0  0  0  0
  9  4  1  6  0  0  0
  9 20  1  0  0  0  0
 10 11  1  0  0  0  0
 11 12  1  1  0  0  0
 11 13  1  0  0  0  0
 14 13  1  6  0  0  0
 15 14  1  0  0  0  0
 15 16  1  6  0  0  0
 16 10  1  0  0  0  0
 16 17  2  0  0  0  0
 18 15  1  0  0  0  0
 19 18  1  0  0  0  0
 20 14  1  0  0  0  0
 20 19  1  6  0  0  0
M  END
>  <CHROM.1>
77.93987896,-82.51422260,22.36846191,6.83852714,26.48305098,-1.68487943,0.28878109
1.65644668

>  <Name>
1nyi_lig

>  <RI>
0

>  <Rbt.Current_Directory>
/home/itssahil/PROJECTS/Mol_Feturizer/New_Systems/rnas/1nyi

>  <Rbt.Executable>
rbdock ($Id: //depot/dev/client3/rdock/2013.1/src/exe/rbdock.cxx#4 $)

>  <Rbt.Library>
libRbt.so (2013.1, Build901 2013/11/27)

>  <Rbt.Parameter_File>
/export/apps/rDock/src/rDock_2013.1_src/data/scripts/dock_solv.prm

>  <Rbt.Receptor>
prm/blind_docking_60.prm

>  <SCORE>
-7.44965

>  <SCORE.INTER>
-8.06249

>  <SCORE.INTER.CONST>
1

>  <SCORE.INTER.POLAR>
-1.03923

>  <SCORE.INTER.ROT>
2

>  <SCORE.INTER.SOLV>
15.1989

>  <SCORE.INTER.VDW>
-11.9105

>  <SCORE.INTER.norm>
-0.403125

>  <SCORE.INTRA>
-1.41122

>  <SCORE.INTRA.DIHEDRAL>
-1.49702

>  <SCORE.INTRA.DIHEDRAL.0>
3.72394

>  <SCORE.INTRA.POLAR>
0

>  <SCORE.INTRA.POLAR.0>
0

>  <SCORE.INTRA.REPUL>
0

>  <SCORE.INTRA.REPUL.0>
0

>  <SCORE.INTRA.SOLV>
-0.848551

>  <SCORE.INTRA.SOLV.lig_0>
-49.4697

>  <SCORE.INTRA.VDW>
-0.238437

>  <SCORE.INTRA.VDW.0>
-0.896538

>  <SCORE.INTRA.norm>
-0.070561

>  <SCORE.RESTR>
2.02407

>  <SCORE.RESTR.CAVITY>
2.02407

>  <SCORE.RESTR.norm>
0.101203

>  <SCORE.SYSTEM>
0

>  <SCORE.SYSTEM.CONST>
0

>  <SCORE.SYSTEM.DIHEDRAL>
0

>  <SCORE.SYSTEM.SOLV>
0

>  <SCORE.SYSTEM.norm>
0

>  <SCORE.heavy>
20

>  <SCORE.norm>
-0.372482

>  <RMSD>
21.086

$$$$
1nyi_lig
 OpenBabel11021811403D
libRbt.so/2013.1/901 2013/11/27
 20 22  0  0  0  0  0  0  0  0999 V2000
   21.8983    9.0614   23.6973 C   0  0  0  0  0  0  0  0  0  0  0  0
   22.9053   10.0279   23.3971 O   0  0  0  0  0  0  0  0  0  0  0  0
   22.4436    7.6564   23.5678 C   0  0  1  0  0  0  0  0  0  0  0  0
   23.2111    7.3371   24.7599 O   0  0  0  0  0  0  0  0  0  0  0  0
   21.3410    6.6063   23.4889 C   0  0  1  0  0  0  0  0  0  0  0  0
   20.9576    6.3493   22.1372 O   0  0  0  0  0  0  0  0  0  0  0  0
   21.9869    5.4069   24.1794 C   0  0  1  0  0  0  0  0  0  0  0  0
   22.8867    4.6981   23.3406 O   0  0  0  0  0  0  0  0  0  0  0  0
   22.7529    6.1040   25.3015 C   0  0  2  0  0  0  0  0  0  0  0  0
   23.2472    6.8245   30.3736 N   0  0  0  0  0  0  0  0  0  0  0  0
   24.2172    6.6259   29.4212 C   0  0  1  0  0  0  0  0  0  0  0  0
   25.4721    6.6178   29.8732 N   0  0  0  0  0  0  0  0  0  0  0  0
   23.9748    6.4454   28.1261 N   0  0  0  0  0  0  0  0  0  0  0  0
   22.6401    6.4698   27.8408 C   0  0  1  0  0  0  0  0  0  0  0  0
   21.5932    6.6621   28.7250 C   0  0  1  0  0  0  0  0  0  0  0  0
   21.8794    6.8632   30.1041 C   0  0  0  0  0  0  0  0  0  0  0  0
   21.0878    7.0524   31.0364 O   0  0  0  0  0  0  0  0  0  0  0  0
   20.3773    6.6374   28.0542 N   0  0  0  0  0  0  0  0  0  0  0  0
   20.6984    6.4284   26.8071 C   0  0  0  0  0  0  0  0  0  0  0  0
   22.0537    6.3073   26.5914 N   0  0  1  0  0  0  0  0  0  0  0  0
  2  1  1  0  0  0  0
  3  1  1  1  0  0  0
  3  4  1  0  0  0  0
  3  5  1  0  0  0  0
  5  6  1  6  0  0  0
  5  7  1  0  0  0  0
  7  8  1  6  0  0  0
  7  9  1  0  0  0  0
  9  4  1  6  0  0  0
  9 20  1  0  0  0  0
 10 11  1  0  0  0  0
 11 12  1  1  0  0  0
 11 13  1  0  0  0  0
 14 13  1  6  0  0  0
 15 14  1  0  0  0  0
 15 16  1  6  0  0  0
 16 10  1  0  0  0  0
 16 17  2  0  0  0  0
 18 15  1  0  0  0  0
 19 18  1  0  0  0  0
 20 14  1  0  0  0  0
 20 19  1  6  0  0  0
M  END
>  <CHROM.1>
79.11585440,-81.23020105,22.37749337,6.82638149,26.47019867,-1.68896568,0.36839567
1.67387130

>  <Name>
1nyi_lig

>  <RI>
0

>  <Rbt.Current_Directory>
/home/itssahil/PROJECTS/Mol_Feturizer/New_Systems/rnas/1nyi

>  <Rbt.Executable>
rbdock ($Id: //depot/dev/client3/rdock/2013.1/src/exe/rbdock.cxx#4 $)

>  <Rbt.Library>
libRbt.so (2013.1, Build901 2013/11/27)

>  <Rbt.Parameter_File>
/export/apps/rDock/src/rDock_2013.1_src/data/scripts/dock_solv.prm

>  <Rbt.Receptor>
prm/blind_docking_60.prm

>  <SCORE>
-7.07746

>  <SCORE.INTER>
-7.68117

>  <SCORE.INTER.CONST>
1

>  <SCORE.INTER.POLAR>
-1.03923

>  <SCORE.INTER.ROT>
2

>  <SCORE.INTER.SOLV>
15.3957

>  <SCORE.INTER.VDW>
-11.7219

>  <SCORE.INTER.norm>
-0.384058

>  <SCORE.INTRA>
-1.33516

>  <SCORE.INTRA.DIHEDRAL>
-1.36137

>  <SCORE.INTRA.DIHEDRAL.0>
3.72394

>  <SCORE.INTRA.POLAR>
0

>  <SCORE.INTRA.POLAR.0>
0

>  <SCORE.INTRA.REPUL>
0

>  <SCORE.INTRA.REPUL.0>
0

>  <SCORE.INTRA.SOLV>
-0.846482

>  <SCORE.INTRA.SOLV.lig_0>
-49.4697

>  <SCORE.INTRA.VDW>
-0.231232

>  <SCORE.INTRA.VDW.0>
-0.896538

>  <SCORE.INTRA.norm>
-0.0667579

>  <SCORE.RESTR>
1.93886

>  <SCORE.RESTR.CAVITY>
1.93886

>  <SCORE.RESTR.norm>
0.0969432

>  <SCORE.SYSTEM>
0

>  <SCORE.SYSTEM.CONST>
0

>  <SCORE.SYSTEM.DIHEDRAL>
0

>  <SCORE.SYSTEM.SOLV>
0

>  <SCORE.SYSTEM.norm>
0

>  <SCORE.heavy>
20

>  <SCORE.norm>
-0.353873

>  <RMSD>
21.087

$$$$
1nyi_lig
 OpenBabel11021811403D
libRbt.so/2013.1/901 2013/11/27
 20 22  0  0  0  0  0  0  0  0999 V2000
   22.2678    9.2029   23.9372 C   0  0  0  0  0  0  0  0  0  0  0  0
   21.8449    9.8386   22.7310 O   0  0  0  0  0  0  0  0  0  0  0  0
   22.6229    7.7538   23.6874 C   0  0  1  0  0  0  0  0  0  0  0  0
   23.3113    7.2294   24.8550 O   0  0  0  0  0  0  0  0  0  0  0  0
   21.3918    6.8741   23.5000 C   0  0  1  0  0  0  0  0  0  0  0  0
   21.0105    6.7918   22.1259 O   0  0  0  0  0  0  0  0  0  0  0  0
   21.8541    5.5419   24.0867 C   0  0  1  0  0  0  0  0  0  0  0  0
   22.6711    4.7945   23.1981 O   0  0  0  0  0  0  0  0  0  0  0  0
   22.6790    6.0269   25.2768 C   0  0  2  0  0  0  0  0  0  0  0  0
   23.1830    6.7107   30.3529 N   0  0  0  0  0  0  0  0  0  0  0  0
   24.1520    6.5350   29.3951 C   0  0  1  0  0  0  0  0  0  0  0  0
   25.4087    6.5419   29.8421 N   0  0  0  0  0  0  0  0  0  0  0  0
   23.9070    6.3621   28.0994 N   0  0  0  0  0  0  0  0  0  0  0  0
   22.5710    6.3689   27.8196 C   0  0  1  0  0  0  0  0  0  0  0  0
   21.5249    6.5378   28.7095 C   0  0  1  0  0  0  0  0  0  0  0  0
   21.8137    6.7313   30.0892 C   0  0  0  0  0  0  0  0  0  0  0  0
   21.0231    6.9004   31.0262 O   0  0  0  0  0  0  0  0  0  0  0  0
   20.3068    6.5007   28.0432 N   0  0  0  0  0  0  0  0  0  0  0  0
   20.6260    6.3073   26.7932 C   0  0  0  0  0  0  0  0  0  0  0  0
   21.9820    6.2085   26.5711 N   0  0  1  0  0  0  0  0  0  0  0  0
  2  1  1  0  0  0  0
  3  1  1  1  0  0  0
  3  4  1  0  0  0  0
  3  5  1  0  0  0  0
  5  6  1  6  0  0  0
  5  7  1  0  0  0  0
  7  8  1  6  0  0  0
  7  9  1  0  0  0  0
  9  4  1  6  0  0  0
  9 20  1  0  0  0  0
 10 11  1  0  0  0  0
 11 12  1  1  0  0  0
 11 13  1  0  0  0  0
 14 13  1  6  0  0  0
 15 14  1  0  0  0  0
 15 16  1  6  0  0  0
 16 10  1  0  0  0  0
 16 17  2  0  0  0  0
 18 15  1  0  0  0  0
 19 18  1  0  0  0  0
 20 14  1  0  0  0  0
 20 19  1  6  0  0  0
M  END
>  <CHROM.1>
167.91682849,-71.35183071,22.29681324,6.80650730,26.43125290,-1.68836180
-0.04416132,1.67697856

>  <Name>
1nyi_lig

>  <RI>
0

>  <Rbt.Current_Directory>
/home/itssahil/PROJECTS/Mol_Feturizer/New_Systems/rnas/1nyi

>  <Rbt.Executable>
rbdock ($Id: //depot/dev/client3/rdock/2013.1/src/exe/rbdock.cxx#4 $)

>  <Rbt.Library>
libRbt.so (2013.1, Build901 2013/11/27)

>  <Rbt.Parameter_File>
/export/apps/rDock/src/rDock_2013.1_src/data/scripts/dock_solv.prm

>  <Rbt.Receptor>
prm/blind_docking_60.prm

>  <SCORE>
-7.04828

>  <SCORE.INTER>
-7.35903

>  <SCORE.INTER.CONST>
1

>  <SCORE.INTER.POLAR>
-1.03382

>  <SCORE.INTER.ROT>
2

>  <SCORE.INTER.SOLV>
14.5132

>  <SCORE.INTER.VDW>
-11.231

>  <SCORE.INTER.norm>
-0.367951

>  <SCORE.INTRA>
-1.53746

>  <SCORE.INTRA.DIHEDRAL>
-2.06014

>  <SCORE.INTRA.DIHEDRAL.0>
3.72394

>  <SCORE.INTRA.POLAR>
0

>  <SCORE.INTRA.POLAR.0>
0

>  <SCORE.INTRA.REPUL>
0

>  <SCORE.INTRA.REPUL.0>
0

>  <SCORE.INTRA.SOLV>
-0.561034

>  <SCORE.INTRA.SOLV.lig_0>
-49.4697

>  <SCORE.INTRA.VDW>
-0.22687

>  <SCORE.INTRA.VDW.0>
-0.896538

>  <SCORE.INTRA.norm>
-0.0768728

>  <SCORE.RESTR>
1.8482

>  <SCORE.RESTR.CAVITY>
1.8482

>  <SCORE.RESTR.norm>
0.0924101

>  <SCORE.SYSTEM>
0

>  <SCORE.SYSTEM.CONST>
0

>  <SCORE.SYSTEM.DIHEDRAL>
0

>  <SCORE.SYSTEM.SOLV>
0

>  <SCORE.SYSTEM.norm>
0

>  <SCORE.heavy>
20

>  <SCORE.norm>
-0.352414

>  <RMSD>
21.103

$$$$
1nyi_lig
 OpenBabel11021811403D
libRbt.so/2013.1/901 2013/11/27
 20 22  0  0  0  0  0  0  0  0999 V2000
   22.2651    9.2317   23.9418 C   0  0  0  0  0  0  0  0  0  0  0  0
   21.9665    9.9075   22.7202 O   0  0  0  0  0  0  0  0  0  0  0  0
   22.6193    7.7838   23.6846 C   0  0  1  0  0  0  0  0  0  0  0  0
   23.3107    7.2541   24.8480 O   0  0  0  0  0  0  0  0  0  0  0  0
   21.3876    6.9051   23.4965 C   0  0  1  0  0  0  0  0  0  0  0  0
   21.0027    6.8290   22.1231 O   0  0  0  0  0  0  0  0  0  0  0  0
   21.8513    5.5702   24.0759 C   0  0  1  0  0  0  0  0  0  0  0  0
   22.6658    4.8267   23.1818 O   0  0  0  0  0  0  0  0  0  0  0  0
   22.6794    6.0498   25.2660 C   0  0  2  0  0  0  0  0  0  0  0  0
   23.1967    6.7803   30.3343 N   0  0  0  0  0  0  0  0  0  0  0  0
   24.1639    6.6184   29.3723 C   0  0  1  0  0  0  0  0  0  0  0  0
   25.4226    6.6553   29.8120 N   0  0  0  0  0  0  0  0  0  0  0  0
   23.9156    6.4312   28.0792 N   0  0  0  0  0  0  0  0  0  0  0  0
   22.5782    6.4075   27.8070 C   0  0  1  0  0  0  0  0  0  0  0  0
   21.5337    6.5604   28.7016 C   0  0  1  0  0  0  0  0  0  0  0  0
   21.8258    6.7697   30.0782 C   0  0  0  0  0  0  0  0  0  0  0  0
   21.0370    6.9286   31.0185 O   0  0  0  0  0  0  0  0  0  0  0  0
   20.3130    6.4925   28.0425 N   0  0  0  0  0  0  0  0  0  0  0  0
   20.6293    6.2971   26.7920 C   0  0  0  0  0  0  0  0  0  0  0  0
   21.9859    6.2257   26.5630 N   0  0  1  0  0  0  0  0  0  0  0  0
  2  1  1  0  0  0  0
  3  1  1  1  0  0  0
  3  4  1  0  0  0  0
  3  5  1  0  0  0  0
  5  6  1  6  0  0  0
  5  7  1  0  0  0  0
  7  8  1  6  0  0  0
  7  9  1  0  0  0  0
  9  4  1  6  0  0  0
  9 20  1  0  0  0  0
 10 11  1  0  0  0  0
 11 12  1  1  0  0  0
 11 13  1  0  0  0  0
 14 13  1  6  0  0  0
 15 14  1  0  0  0  0
 15 16  1  6  0  0  0
 16 10  1  0  0  0  0
 16 17  2  0  0  0  0
 18 15  1  0  0  0  0
 19 18  1  0  0  0  0
 20 14  1  0  0  0  0
 20 19  1  6  0  0  0
M  END
>  <CHROM.1>
162.18223812,-69.94554374,22.30743020,6.84482861,26.42125217,-1.68699494
0.13612434,1.69461101

>  <Name>
1nyi_lig

>  <RI>
0

>  <Rbt.Current_Directory>
/home/itssahil/PROJECTS/Mol_Feturizer/New_Systems/rnas/1nyi

>  <Rbt.Executable>
rbdock ($Id: //depot/dev/client3/rdock/2013.1/src/exe/rbdock.cxx#4 $)

>  <Rbt.Library>
libRbt.so (2013.1, Build901 2013/11/27)

>  <Rbt.Parameter_File>
/export/apps/rDock/src/rDock_2013.1_src/data/scripts/dock_solv.prm

>  <Rbt.Receptor>
prm/blind_docking_60.prm

>  <SCORE>
-6.56007

>  <SCORE.INTER>
-7.11841

>  <SCORE.INTER.CONST>
1

>  <SCORE.INTER.POLAR>
-0.989842

>  <SCORE.INTER.ROT>
2

>  <SCORE.INTER.SOLV>
14.7643

>  <SCORE.INTER.VDW>
-11.3009

>  <SCORE.INTER.norm>
-0.35592

>  <SCORE.INTRA>
-1.27391

>  <SCORE.INTRA.DIHEDRAL>
-1.50646

>  <SCORE.INTRA.DIHEDRAL.0>
3.72394

>  <SCORE.INTRA.POLAR>
0

>  <SCORE.INTRA.POLAR.0>
0

>  <SCORE.INTRA.REPUL>
0

>  <SCORE.INTRA.REPUL.0>
0

>  <SCORE.INTRA.SOLV>
-0.580725

>  <SCORE.INTRA.SOLV.lig_0>
-49.4697

>  <SCORE.INTRA.VDW>
-0.230323

>  <SCORE.INTRA.VDW.0>
-0.896538

>  <SCORE.INTRA.norm>
-0.0636957

>  <SCORE.RESTR>
1.83225

>  <SCORE.RESTR.CAVITY>
1.83225

>  <SCORE.RESTR.norm>
0.0916124

>  <SCORE.SYSTEM>
0

>  <SCORE.SYSTEM.CONST>
0

>  <SCORE.SYSTEM.DIHEDRAL>
0

>  <SCORE.SYSTEM.SOLV>
0

>  <SCORE.SYSTEM.norm>
0

>  <SCORE.heavy>
20

>  <SCORE.norm>
-0.328004

>  <RMSD>
21.132

$$$$
1nyi_lig
 OpenBabel11021811403D
libRbt.so/2013.1/901 2013/11/27
 20 22  0  0  0  0  0  0  0  0999 V2000
   22.2545    9.2229   23.9245 C   0  0  0  0  0  0  0  0  0  0  0  0
   21.8928    9.8741   22.7067 O   0  0  0  0  0  0  0  0  0  0  0  0
   22.6176    7.7758   23.6752 C   0  0  1  0  0  0  0  0  0  0  0  0
   23.3108    7.2562   24.8421 O   0  0  0  0  0  0  0  0  0  0  0  0
   21.3913    6.8889   23.4904 C   0  0  1  0  0  0  0  0  0  0  0  0
   21.0083    6.8034   22.1170 O   0  0  0  0  0  0  0  0  0  0  0  0
   21.8622    5.5598   24.0773 C   0  0  1  0  0  0  0  0  0  0  0  0
   22.6820    4.8164   23.1879 O   0  0  0  0  0  0  0  0  0  0  0  0
   22.6861    6.0504   25.2657 C   0  0  2  0  0  0  0  0  0  0  0  0
   23.1939    6.7835   30.3346 N   0  0  0  0  0  0  0  0  0  0  0  0
   24.1629    6.6187   29.3748 C   0  0  1  0  0  0  0  0  0  0  0  0
   25.4207    6.6529   29.8173 N   0  0  0  0  0  0  0  0  0  0  0  0
   23.9169    6.4310   28.0814 N   0  0  0  0  0  0  0  0  0  0  0  0
   22.5801    6.4103   27.8062 C   0  0  1  0  0  0  0  0  0  0  0  0
   21.5340    6.5663   28.6984 C   0  0  1  0  0  0  0  0  0  0  0  0
   21.8236    6.7760   30.0755 C   0  0  0  0  0  0  0  0  0  0  0  0
   21.0331    6.9375   31.0139 O   0  0  0  0  0  0  0  0  0  0  0  0
   20.3146    6.5008   28.0367 N   0  0  0  0  0  0  0  0  0  0  0  0
   20.6332    6.3037   26.7870 C   0  0  0  0  0  0  0  0  0  0  0  0
   21.9902    6.2289   26.5610 N   0  0  1  0  0  0  0  0  0  0  0  0
  2  1  1  0  0  0  0
  3  1  1  1  0  0  0
  3  4  1  0  0  0  0
  3  5  1  0  0  0  0
  5  6  1  6  0  0  0
  5  7  1  0  0  0  0
  7  8  1  6  0  0  0
  7  9  1  0  0  0  0
  9  4  1  6  0  0  0
  9 20  1  0  0  0  0
 10 11  1  0  0  0  0
 11 12  1  1  0  0  0
 11 13  1  0  0  0  0
 14 13  1  6  0  0  0
 15 14  1  0  0  0  0
 15 16  1  6  0  0  0
 16 10  1  0  0  0  0
 16 17  2  0  0  0  0
 18 15  1  0  0  0  0
 19 18  1  0  0  0  0
 20 14  1  0  0  0  0
 20 19  1  6  0  0  0
M  END
>  <CHROM.1>
164.89474397,-70.48494080,22.30492593,6.84113665,26.41792816,-1.68802637
0.06457511,1.68344596

>  <Name>
1nyi_lig

>  <RI>
0

>  <Rbt.Current_Directory>
/home/itssahil/PROJECTS/Mol_Feturizer/New_Systems/rnas/1nyi

>  <Rbt.Executable>
rbdock ($Id: //depot/dev/client3/rdock/2013.1/src/exe/rbdock.cxx#4 $)

>  <Rbt.Library>
libRbt.so (2013.1, Build901 2013/11/27)

>  <Rbt.Parameter_File>
/export/apps/rDock/src/rDock_2013.1_src/data/scripts/dock_solv.prm

>  <Rbt.Receptor>
prm/blind_docking_60.prm

>  <SCORE>
-6.80275

>  <SCORE.INTER>
-7.22956

>  <SCORE.INTER.CONST>
1

>  <SCORE.INTER.POLAR>
-0.992213

>  <SCORE.INTER.ROT>
2

>  <SCORE.INTER.SOLV>
14.7218

>  <SCORE.INTER.VDW>
-11.3529

>  <SCORE.INTER.norm>
-0.361478

>  <SCORE.INTRA>
-1.4095

>  <SCORE.INTRA.DIHEDRAL>
-1.78884

>  <SCORE.INTRA.DIHEDRAL.0>
3.72394

>  <SCORE.INTRA.POLAR>
0

>  <SCORE.INTRA.POLAR.0>
0

>  <SCORE.INTRA.REPUL>
0

>  <SCORE.INTRA.REPUL.0>
0

>  <SCORE.INTRA.SOLV>
-0.571777

>  <SCORE.INTRA.SOLV.lig_0>
-49.4697

>  <SCORE.INTRA.VDW>
-0.229197

>  <SCORE.INTRA.VDW.0>
-0.896538

>  <SCORE.INTRA.norm>
-0.0704752

>  <SCORE.RESTR>
1.83631

>  <SCORE.RESTR.CAVITY>
1.83631

>  <SCORE.RESTR.norm>
0.0918154

>  <SCORE.SYSTEM>
0

>  <SCORE.SYSTEM.CONST>
0

>  <SCORE.SYSTEM.DIHEDRAL>
0

>  <SCORE.SYSTEM.SOLV>
0

>  <SCORE.SYSTEM.norm>
0

>  <SCORE.heavy>
20

>  <SCORE.norm>
-0.340138

>  <RMSD>
21.133

$$$$
1nyi_lig
 OpenBabel11021811403D
libRbt.so/2013.1/901 2013/11/27
 20 22  0  0  0  0  0  0  0  0999 V2000
   22.2862    9.2227   23.9246 C   0  0  0  0  0  0  0  0  0  0  0  0
   22.2021    9.9507   22.6995 O   0  0  0  0  0  0  0  0  0  0  0  0
   22.6240    7.7709   23.6673 C   0  0  1  0  0  0  0  0  0  0  0  0
   23.3078    7.2328   24.8313 O   0  0  0  0  0  0  0  0  0  0  0  0
   21.3825    6.9065   23.4773 C   0  0  1  0  0  0  0  0  0  0  0  0
   20.9985    6.8354   22.1034 O   0  0  0  0  0  0  0  0  0  0  0  0
   21.8300    5.5662   24.0568 C   0  0  1  0  0  0  0  0  0  0  0  0
   22.6370    4.8136   23.1635 O   0  0  0  0  0  0  0  0  0  0  0  0
   22.6621    6.0357   25.2481 C   0  0  2  0  0  0  0  0  0  0  0  0
   23.1813    6.7909   30.3126 N   0  0  0  0  0  0  0  0  0  0  0  0
   24.1481    6.6229   29.3513 C   0  0  1  0  0  0  0  0  0  0  0  0
   25.4069    6.6601   29.7906 N   0  0  0  0  0  0  0  0  0  0  0  0
   23.8992    6.4294   28.0592 N   0  0  0  0  0  0  0  0  0  0  0  0
   22.5618    6.4063   27.7873 C   0  0  1  0  0  0  0  0  0  0  0  0
   21.5176    6.5652   28.6813 C   0  0  1  0  0  0  0  0  0  0  0  0
   21.8103    6.7810   30.0568 C   0  0  0  0  0  0  0  0  0  0  0  0
   21.0218    6.9458   30.9964 O   0  0  0  0  0  0  0  0  0  0  0  0
   20.2967    6.4957   28.0227 N   0  0  0  0  0  0  0  0  0  0  0  0
   20.6126    6.2936   26.7732 C   0  0  0  0  0  0  0  0  0  0  0  0
   21.9690    6.2191   26.5443 N   0  0  1  0  0  0  0  0  0  0  0  0
  2  1  1  0  0  0  0
  3  1  1  1  0  0  0
  3  4  1  0  0  0  0
  3  5  1  0  0  0  0
  5  6  1  6  0  0  0
  5  7  1  0  0  0  0
  7  8  1  6  0  0  0
  7  9  1  0  0  0  0
  9  4  1  6  0  0  0
  9 20  1  0  0  0  0
 10 11  1  0  0  0  0
 11 12  1  1  0  0  0
 11 13  1  0  0  0  0
 14 13  1  6  0  0  0
 15 14  1  0  0  0  0
 15 16  1  6  0  0  0
 16 10  1  0  0  0  0
 16 17  2  0  0  0  0
 18 15  1  0  0  0  0
 19 18  1  0  0  0  0
 20 14  1  0  0  0  0
 20 19  1  6  0  0  0
M  END
>  <CHROM.1>
153.11968451,-69.28234099,22.30942874,6.84606086,26.40170631,-1.68079049
0.28805547,1.70882735

>  <Name>
1nyi_lig

>  <RI>
0

>  <Rbt.Current_Directory>
/home/itssahil/PROJECTS/Mol_Feturizer/New_Systems/rnas/1nyi

>  <Rbt.Executable>
rbdock ($Id: //depot/dev/client3/rdock/2013.1/src/exe/rbdock.cxx#4 $)

>  <Rbt.Library>
libRbt.so (2013.1, Build901 2013/11/27)

>  <Rbt.Parameter_File>
/export/apps/rDock/src/rDock_2013.1_src/data/scripts/dock_solv.prm

>  <Rbt.Receptor>
prm/blind_docking_60.prm

>  <SCORE>
-6.10836

>  <SCORE.INTER>
-7.26622

>  <SCORE.INTER.CONST>
1

>  <SCORE.INTER.POLAR>
-0.973389

>  <SCORE.INTER.ROT>
2

>  <SCORE.INTER.SOLV>
14.8181

>  <SCORE.INTER.VDW>
-11.4722

>  <SCORE.INTER.norm>
-0.363311

>  <SCORE.INTRA>
-0.723987

>  <SCORE.INTRA.DIHEDRAL>
-0.373848

>  <SCORE.INTRA.DIHEDRAL.0>
3.72394

>  <SCORE.INTRA.POLAR>
0

>  <SCORE.INTRA.POLAR.0>
0

>  <SCORE.INTRA.REPUL>
0

>  <SCORE.INTRA.REPUL.0>
0

>  <SCORE.INTRA.SOLV>
-0.617044

>  <SCORE.INTRA.SOLV.lig_0>
-49.4697

>  <SCORE.INTRA.VDW>
-0.228541

>  <SCORE.INTRA.VDW.0>
-0.896538

>  <SCORE.INTRA.norm>
-0.0361993

>  <SCORE.RESTR>
1.88185

>  <SCORE.RESTR.CAVITY>
1.88185

>  <SCORE.RESTR.norm>
0.0940925

>  <SCORE.SYSTEM>
0

>  <SCORE.SYSTEM.CONST>
0

>  <SCORE.SYSTEM.DIHEDRAL>
0

>  <SCORE.SYSTEM.SOLV>
0

>  <SCORE.SYSTEM.norm>
0

>  <SCORE.heavy>
20

>  <SCORE.norm>
-0.305418

>  <RMSD>
21.148

$$$$
1nyi_lig
 OpenBabel11021811403D
libRbt.so/2013.1/901 2013/11/27
 20 22  0  0  0  0  0  0  0  0999 V2000
   24.3425    5.6356   29.4556 C   0  0  0  0  0  0  0  0  0  0  0  0
   24.3620    4.9996   30.7336 O   0  0  0  0  0  0  0  0  0  0  0  0
   23.3466    6.7740   29.4349 C   0  0  1  0  0  0  0  0  0  0  0  0
   23.4053    7.4278   28.1383 O   0  0  0  0  0  0  0  0  0  0  0  0
   21.9079    6.2953   29.5949 C   0  0  1  0  0  0  0  0  0  0  0  0
   21.5154    6.2642   30.9679 O   0  0  0  0  0  0  0  0  0  0  0  0
   21.1336    7.3139   28.7610 C   0  0  1  0  0  0  0  0  0  0  0  0
   20.9253    8.5451   29.4365 O   0  0  0  0  0  0  0  0  0  0  0  0
   22.0949    7.5124   27.5911 C   0  0  2  0  0  0  0  0  0  0  0  0
   22.1743    7.1557   22.4574 N   0  0  0  0  0  0  0  0  0  0  0  0
   22.3457    8.2582   23.2588 C   0  0  1  0  0  0  0  0  0  0  0  0
   22.5648    9.4063   22.6162 N   0  0  0  0  0  0  0  0  0  0  0  0
   22.3017    8.2369   24.5878 N   0  0  0  0  0  0  0  0  0  0  0  0
   22.0557    6.9868   25.0778 C   0  0  1  0  0  0  0  0  0  0  0  0
   21.8702    5.8208   24.3562 C   0  0  1  0  0  0  0  0  0  0  0  0
   21.9322    5.8681   22.9356 C   0  0  0  0  0  0  0  0  0  0  0  0
   21.7961    4.9416   22.1264 O   0  0  0  0  0  0  0  0  0  0  0  0
   21.6600    4.7464   25.2109 N   0  0  0  0  0  0  0  0  0  0  0  0
   21.7128    5.2668   26.4061 C   0  0  0  0  0  0  0  0  0  0  0  0
   21.9425    6.6251   26.4149 N   0  0  1  0  0  0  0  0  0  0  0  0
  2  1  1  0  0  0  0
  3  1  1  6  0  0  0
  3  4  1  0  0  0  0
  3  5  1  0  0  0  0
  5  6  1  1  0  0  0
  5  7  1  0  0  0  0
  7  8  1  1  0  0  0
  7  9  1  0  0  0  0
  9  4  1  1  0  0  0
  9 20  1  0  0  0  0
 10 11  1  0  0  0  0
 11 12  1  6  0  0  0
 11 13  1  0  0  0  0
 14 13  1  1  0  0  0
 15 14  1  0  0  0  0
 15 16  1  1  0  0  0
 16 10  1  0  0  0  0
 16 17  2  0  0  0  0
 18 15  1  0  0  0  0
 19 18  1  0  0  0  0
 20 14  1  0  0  0  0
 20 19  1  1  0  0  0
M  END
>  <CHROM.1>
177.43762095,-97.07834491,22.28060202,6.69313359,26.55771611,-1.10501285
1.37426008,-1.95933265

>  <Name>
1nyi_lig

>  <RI>
0

>  <Rbt.Current_Directory>
/home/itssahil/PROJECTS/Mol_Feturizer/New_Systems/rnas/1nyi

>  <Rbt.Executable>
rbdock ($Id: //depot/dev/client3/rdock/2013.1/src/exe/rbdock.cxx#4 $)

>  <Rbt.Library>
libRbt.so (2013.1, Build901 2013/11/27)

>  <Rbt.Parameter_File>
/export/apps/rDock/src/rDock_2013.1_src/data/scripts/dock_solv.prm

>  <Rbt.Receptor>
prm/blind_docking_60.prm

>  <SCORE>
-3.20211

>  <SCORE.INTER>
-4.55158

>  <SCORE.INTER.CONST>
1

>  <SCORE.INTER.POLAR>
-0.177553

>  <SCORE.INTER.ROT>
2

>  <SCORE.INTER.SOLV>
12.0482

>  <SCORE.INTER.VDW>
-11.3919

>  <SCORE.INTER.norm>
-0.227579

>  <SCORE.INTRA>
-1.93249

>  <SCORE.INTRA.DIHEDRAL>
-2.55961

>  <SCORE.INTRA.DIHEDRAL.0>
3.72394

>  <SCORE.INTRA.POLAR>
0

>  <SCORE.INTRA.POLAR.0>
0

>  <SCORE.INTRA.REPUL>
0

>  <SCORE.INTRA.REPUL.0>
0

>  <SCORE.INTRA.SOLV>
-0.626089

>  <SCORE.INTRA.SOLV.lig_0>
-49.4697

>  <SCORE.INTRA.VDW>
-0.339638

>  <SCORE.INTRA.VDW.0>
-0.896538

>  <SCORE.INTRA.norm>
-0.0966245

>  <SCORE.RESTR>
3.28196

>  <SCORE.RESTR.CAVITY>
3.28196

>  <SCORE.RESTR.norm>
0.164098

>  <SCORE.SYSTEM>
0

>  <SCORE.SYSTEM.CONST>
0

>  <SCORE.SYSTEM.DIHEDRAL>
0

>  <SCORE.SYSTEM.SOLV>
0

>  <SCORE.SYSTEM.norm>
0

>  <SCORE.heavy>
20

>  <SCORE.norm>
-0.160106

>  <RMSD>
21.245

$$$$
1nyi_lig
 OpenBabel11021811403D
libRbt.so/2013.1/901 2013/11/27
 20 22  0  0  0  0  0  0  0  0999 V2000
   24.3295    5.6836   29.4574 C   0  0  0  0  0  0  0  0  0  0  0  0
   24.3109    4.9975   30.7091 O   0  0  0  0  0  0  0  0  0  0  0  0
   23.3064    6.7976   29.4377 C   0  0  1  0  0  0  0  0  0  0  0  0
   23.3531    7.4575   28.1436 O   0  0  0  0  0  0  0  0  0  0  0  0
   21.8793    6.2836   29.5916 C   0  0  1  0  0  0  0  0  0  0  0  0
   21.4835    6.2380   30.9633 O   0  0  0  0  0  0  0  0  0  0  0  0
   21.0830    7.2863   28.7589 C   0  0  1  0  0  0  0  0  0  0  0  0
   20.8429    8.5096   29.4382 O   0  0  0  0  0  0  0  0  0  0  0  0
   22.0427    7.5123   27.5928 C   0  0  2  0  0  0  0  0  0  0  0  0
   22.2110    7.1638   22.4606 N   0  0  0  0  0  0  0  0  0  0  0  0
   22.3625    8.2661   23.2663 C   0  0  1  0  0  0  0  0  0  0  0  0
   22.5859    9.4164   22.6292 N   0  0  0  0  0  0  0  0  0  0  0  0
   22.2961    8.2425   24.5944 N   0  0  0  0  0  0  0  0  0  0  0  0
   22.0491    6.9903   25.0784 C   0  0  1  0  0  0  0  0  0  0  0  0
   21.8826    5.8243   24.3521 C   0  0  1  0  0  0  0  0  0  0  0  0
   21.9683    5.8742   22.9328 C   0  0  0  0  0  0  0  0  0  0  0  0
   21.8512    4.9481   22.1202 O   0  0  0  0  0  0  0  0  0  0  0  0
   21.6641    4.7474   25.2016 N   0  0  0  0  0  0  0  0  0  0  0  0
   21.6936    5.2663   26.3982 C   0  0  0  0  0  0  0  0  0  0  0  0
   21.9154    6.6260   26.4128 N   0  0  1  0  0  0  0  0  0  0  0  0
  2  1  1  0  0  0  0
  3  1  1  6  0  0  0
  3  4  1  0  0  0  0
  3  5  1  0  0  0  0
  5  6  1  1  0  0  0
  5  7  1  0  0  0  0
  7  8  1  1  0  0  0
  7  9  1  0  0  0  0
  9  4  1  1  0  0  0
  9 20  1  0  0  0  0
 10 11  1  0  0  0  0
 11 12  1  6  0  0  0
 11 13  1  0  0  0  0
 14 13  1  1  0  0  0
 15 14  1  0  0  0  0
 15 16  1  1  0  0  0
 16 10  1  0  0  0  0
 16 17  2  0  0  0  0
 18 15  1  0  0  0  0
 19 18  1  0  0  0  0
 20 14  1  0  0  0  0
 20 19  1  1  0  0  0
M  END
>  <CHROM.1>
-179.47679206,-95.74816038,22.26585568,6.69542224,26.55640333,-1.17023659
1.37370274,-1.89429591

>  <Name>
1nyi_lig

>  <RI>
0

>  <Rbt.Current_Directory>
/home/itssahil/PROJECTS/Mol_Feturizer/New_Systems/rnas/1nyi

>  <Rbt.Executable>
rbdock ($Id: //depot/dev/client3/rdock/2013.1/src/exe/rbdock.cxx#4 $)

>  <Rbt.Library>
libRbt.so (2013.1, Build901 2013/11/27)

>  <Rbt.Parameter_File>
/export/apps/rDock/src/rDock_2013.1_src/data/scripts/dock_solv.prm

>  <Rbt.Receptor>
prm/blind_docking_60.prm

>  <SCORE>
-3.40465

>  <SCORE.INTER>
-4.82753

>  <SCORE.INTER.CONST>
1

>  <SCORE.INTER.POLAR>
-0.183329

>  <SCORE.INTER.ROT>
2

>  <SCORE.INTER.SOLV>
12.0324

>  <SCORE.INTER.VDW>
-11.5514

>  <SCORE.INTER.norm>
-0.241377

>  <SCORE.INTRA>
-1.90477

>  <SCORE.INTRA.DIHEDRAL>
-2.58158

>  <SCORE.INTRA.DIHEDRAL.0>
3.72394

>  <SCORE.INTRA.POLAR>
0

>  <SCORE.INTRA.POLAR.0>
0

>  <SCORE.INTRA.REPUL>
0

>  <SCORE.INTRA.REPUL.0>
0

>  <SCORE.INTRA.SOLV>
-0.605389

>  <SCORE.INTRA.SOLV.lig_0>
-49.4697

>  <SCORE.INTRA.VDW>
-0.311285

>  <SCORE.INTRA.VDW.0>
-0.896538

>  <SCORE.INTRA.norm>
-0.0952386

>  <SCORE.RESTR>
3.32765

>  <SCORE.RESTR.CAVITY>
3.32765

>  <SCORE.RESTR.norm>
0.166383

>  <SCORE.SYSTEM>
0

>  <SCORE.SYSTEM.CONST>
0

>  <SCORE.SYSTEM.DIHEDRAL>
0

>  <SCORE.SYSTEM.SOLV>
0

>  <SCORE.SYSTEM.norm>
0

>  <SCORE.heavy>
20

>  <SCORE.norm>
-0.170232

>  <RMSD>
21.252

$$$$
1nyi_lig
 OpenBabel11021811403D
libRbt.so/2013.1/901 2013/11/27
 20 22  0  0  0  0  0  0  0  0999 V2000
   24.1820    5.7634   29.5633 C   0  0  0  0  0  0  0  0  0  0  0  0
   25.4708    6.3136   29.8358 O   0  0  0  0  0  0  0  0  0  0  0  0
   23.1331    6.8516   29.5011 C   0  0  1  0  0  0  0  0  0  0  0  0
   23.2071    7.5038   28.2045 O   0  0  0  0  0  0  0  0  0  0  0  0
   21.7147    6.3034   29.6110 C   0  0  1  0  0  0  0  0  0  0  0  0
   21.2743    6.2571   30.9690 O   0  0  0  0  0  0  0  0  0  0  0  0
   20.9225    7.2805   28.7448 C   0  0  1  0  0  0  0  0  0  0  0  0
   20.6298    8.5020   29.4066 O   0  0  0  0  0  0  0  0  0  0  0  0
   21.9150    7.5225   27.6097 C   0  0  2  0  0  0  0  0  0  0  0  0
   22.2194    7.1522   22.4853 N   0  0  0  0  0  0  0  0  0  0  0  0
   22.3103    8.2638   23.2874 C   0  0  1  0  0  0  0  0  0  0  0  0
   22.5059    9.4181   22.6483 N   0  0  0  0  0  0  0  0  0  0  0  0
   22.2130    8.2451   24.6136 N   0  0  0  0  0  0  0  0  0  0  0  0
   22.0013    6.9873   25.0996 C   0  0  1  0  0  0  0  0  0  0  0  0
   21.8958    5.8118   24.3771 C   0  0  1  0  0  0  0  0  0  0  0  0
   22.0137    5.8570   22.9599 C   0  0  0  0  0  0  0  0  0  0  0  0
   21.9508    4.9227   22.1507 O   0  0  0  0  0  0  0  0  0  0  0  0
   21.6973    4.7323   25.2281 N   0  0  0  0  0  0  0  0  0  0  0  0
   21.6787    5.2585   26.4217 C   0  0  0  0  0  0  0  0  0  0  0  0
   21.8492    6.6255   26.4328 N   0  0  1  0  0  0  0  0  0  0  0  0
  2  1  1  0  0  0  0
  3  1  1  6  0  0  0
  3  4  1  0  0  0  0
  3  5  1  0  0  0  0
  5  6  1  1  0  0  0
  5  7  1  0  0  0  0
  7  8  1  1  0  0  0
  7  9  1  0  0  0  0
  9  4  1  1  0  0  0
  9 20  1  0  0  0  0
 10 11  1  0  0  0  0
 11 12  1  6  0  0  0
 11 13  1  0  0  0  0
 14 13  1  1  0  0  0
 15 14  1  0  0  0  0
 15 16  1  1  0  0  0
 16 10  1  0  0  0  0
 16 17  2  0  0  0  0
 18 15  1  0  0  0  0
 19 18  1  0  0  0  0
 20 14  1  0  0  0  0
 20 19  1  1  0  0  0
M  END
>  <CHROM.1>
79.29357578,-96.66280454,22.25665512,6.77665896,26.53059266,-1.31805513,1.26815596
-1.79475236

>  <Name>
1nyi_lig

>  <RI>
0

>  <Rbt.Current_Directory>
/home/itssahil/PROJECTS/Mol_Feturizer/New_Systems/rnas/1nyi

>  <Rbt.Executable>
rbdock ($Id: //depot/dev/client3/rdock/2013.1/src/exe/rbdock.cxx#4 $)

>  <Rbt.Library>
libRbt.so (2013.1, Build901 2013/11/27)

>  <Rbt.Parameter_File>
/export/apps/rDock/src/rDock_2013.1_src/data/scripts/dock_solv.prm

>  <Rbt.Receptor>
prm/blind_docking_60.prm

>  <SCORE>
-8.25783

>  <SCORE.INTER>
-10.4249

>  <SCORE.INTER.CONST>
1

>  <SCORE.INTER.POLAR>
-1.24823

>  <SCORE.INTER.ROT>
2

>  <SCORE.INTER.SOLV>
12.443

>  <SCORE.INTER.VDW>
-11.8701

>  <SCORE.INTER.norm>
-0.521243

>  <SCORE.INTRA>
-1.45429

>  <SCORE.INTRA.DIHEDRAL>
-1.33951

>  <SCORE.INTRA.DIHEDRAL.0>
3.72394

>  <SCORE.INTRA.POLAR>
0

>  <SCORE.INTRA.POLAR.0>
0

>  <SCORE.INTRA.REPUL>
0

>  <SCORE.INTRA.REPUL.0>
0

>  <SCORE.INTRA.SOLV>
-0.911441

>  <SCORE.INTRA.SOLV.lig_0>
-49.4697

>  <SCORE.INTRA.VDW>
-0.328816

>  <SCORE.INTRA.VDW.0>
-0.896538

>  <SCORE.INTRA.norm>
-0.0727146

>  <SCORE.RESTR>
3.62132

>  <SCORE.RESTR.CAVITY>
3.62132

>  <SCORE.RESTR.norm>
0.181066

>  <SCORE.SYSTEM>
0

>  <SCORE.SYSTEM.CONST>
0

>  <SCORE.SYSTEM.DIHEDRAL>
0

>  <SCORE.SYSTEM.SOLV>
0

>  <SCORE.SYSTEM.norm>
0

>  <SCORE.heavy>
20

>  <SCORE.norm>
-0.412892

>  <RMSD>
21.297

$$$$
1nyi_lig
 OpenBabel11021811403D
libRbt.so/2013.1/901 2013/11/27
 20 22  0  0  0  0  0  0  0  0999 V2000
   16.5426    9.2391   31.3814 C   0  0  0  0  0  0  0  0  0  0  0  0
   16.4972   10.3021   30.4297 O   0  0  0  0  0  0  0  0  0  0  0  0
   17.9705    8.9193   31.7651 C   0  0  1  0  0  0  0  0  0  0  0  0
   18.7545    8.7392   30.5546 O   0  0  0  0  0  0  0  0  0  0  0  0
   18.6394   10.0567   32.5289 C   0  0  1  0  0  0  0  0  0  0  0  0
   18.4586    9.9186   33.9391 O   0  0  0  0  0  0  0  0  0  0  0  0
   20.0953    9.9324   32.0844 C   0  0  1  0  0  0  0  0  0  0  0  0
   20.7997    8.9030   32.7625 O   0  0  0  0  0  0  0  0  0  0  0  0
   19.9125    9.5634   30.6139 C   0  0  2  0  0  0  0  0  0  0  0  0
   20.1241   10.8924   25.6462 N   0  0  0  0  0  0  0  0  0  0  0  0
   20.2833    9.6578   26.2273 C   0  0  1  0  0  0  0  0  0  0  0  0
   20.5290    8.6540   25.3841 N   0  0  0  0  0  0  0  0  0  0  0  0
   20.2109    9.4264   27.5349 N   0  0  0  0  0  0  0  0  0  0  0  0
   19.9670   10.5637   28.2493 C   0  0  1  0  0  0  0  0  0  0  0  0
   19.7925   11.8456   27.7584 C   0  0  1  0  0  0  0  0  0  0  0  0
   19.8645   12.0654   26.3545 C   0  0  0  0  0  0  0  0  0  0  0  0
   19.7342   13.1273   25.7325 O   0  0  0  0  0  0  0  0  0  0  0  0
   19.5471   12.7360   28.7957 N   0  0  0  0  0  0  0  0  0  0  0  0
   19.5834   11.9994   29.8717 C   0  0  0  0  0  0  0  0  0  0  0  0
   19.8403   10.6677   29.6294 N   0  0  1  0  0  0  0  0  0  0  0  0
  2  1  1  0  0  0  0
  3  1  1  6  0  0  0
  3  4  1  0  0  0  0
  3  5  1  0  0  0  0
  5  6  1  1  0  0  0
  5  7  1  0  0  0  0
  7  8  1  1  0  0  0
  7  9  1  0  0  0  0
  9  4  1  1  0  0  0
  9 20  1  0  0  0  0
 10 11  1  0  0  0  0
 11 12  1  1  0  0  0
 11 13  1  0  0  0  0
 14 13  1  6  0  0  0
 15 14  1  0  0  0  0
 15 16  1  6  0  0  0
 16 10  1  0  0  0  0
 16 17  2  0  0  0  0
 18 15  1  0  0  0  0
 19 18  1  0  0  0  0
 20 14  1  0  0  0  0
 20 19  1  6  0  0  0
M  END
>  <CHROM.1>
-50.56727697,-72.08845846,19.33145317,10.34962636,29.41756735,2.13647243
-1.14179351,2.34985454

>  <Name>
1nyi_lig

>  <RI>
0

>  <Rbt.Current_Directory>
/home/itssahil/PROJECTS/Mol_Feturizer/New_Systems/rnas/1nyi

>  <Rbt.Executable>
rbdock ($Id: //depot/dev/client3/rdock/2013.1/src/exe/rbdock.cxx#4 $)

>  <Rbt.Library>
libRbt.so (2013.1, Build901 2013/11/27)

>  <Rbt.Parameter_File>
/export/apps/rDock/src/rDock_2013.1_src/data/scripts/dock_solv.prm

>  <Rbt.Receptor>
prm/blind_docking_100.prm

>  <SCORE>
-1.25715

>  <SCORE.INTER>
-4.44508

>  <SCORE.INTER.CONST>
1

>  <SCORE.INTER.POLAR>
-0.546645

>  <SCORE.INTER.ROT>
2

>  <SCORE.INTER.SOLV>
9.48364

>  <SCORE.INTER.VDW>
-9.23578

>  <SCORE.INTER.norm>
-0.222254

>  <SCORE.INTRA>
-1.56812

>  <SCORE.INTRA.DIHEDRAL>
-2.23694

>  <SCORE.INTRA.DIHEDRAL.0>
3.72394

>  <SCORE.INTRA.POLAR>
0

>  <SCORE.INTRA.POLAR.0>
0

>  <SCORE.INTRA.REPUL>
0

>  <SCORE.INTRA.REPUL.0>
0

>  <SCORE.INTRA.SOLV>
0.0948003

>  <SCORE.INTRA.SOLV.lig_0>
-49.4697

>  <SCORE.INTRA.VDW>
-0.497047

>  <SCORE.INTRA.VDW.0>
-0.896538

>  <SCORE.INTRA.norm>
-0.078406

>  <SCORE.RESTR>
4.75605

>  <SCORE.RESTR.CAVITY>
4.75605

>  <SCORE.RESTR.norm>
0.237802

>  <SCORE.SYSTEM>
0

>  <SCORE.SYSTEM.CONST>
0

>  <SCORE.SYSTEM.DIHEDRAL>
0

>  <SCORE.SYSTEM.SOLV>
0

>  <SCORE.SYSTEM.norm>
0

>  <SCORE.heavy>
20

>  <SCORE.norm>
-0.0628573

>  <RMSD>
21.963

$$$$
1nyi_lig
 OpenBabel11021811403D
libRbt.so/2013.1/901 2013/11/27
 20 22  0  0  0  0  0  0  0  0999 V2000
   22.3462   12.8140   25.8192 C   0  0  0  0  0  0  0  0  0  0  0  0
   22.0019   14.1974   25.7455 O   0  0  0  0  0  0  0  0  0  0  0  0
   21.1501   11.9429   25.5050 C   0  0  1  0  0  0  0  0  0  0  0  0
   21.0381   10.9114   26.5227 O   0  0  0  0  0  0  0  0  0  0  0  0
   19.8365   12.7156   25.5491 C   0  0  1  0  0  0  0  0  0  0  0  0
   19.5041   13.2579   24.2701 O   0  0  0  0  0  0  0  0  0  0  0  0
   18.8530   11.6537   26.0367 C   0  0  1  0  0  0  0  0  0  0  0  0
   18.4352   10.7667   25.0100 O   0  0  0  0  0  0  0  0  0  0  0  0
   19.7180   10.9112   27.0529 C   0  0  2  0  0  0  0  0  0  0  0  0
   19.4737    9.5949   32.0224 N   0  0  0  0  0  0  0  0  0  0  0  0
   19.4272    8.7976   30.9047 C   0  0  1  0  0  0  0  0  0  0  0  0
   19.3000    7.4903   31.1371 N   0  0  0  0  0  0  0  0  0  0  0  0
   19.4963    9.2481   29.6553 N   0  0  0  0  0  0  0  0  0  0  0  0
   19.6109   10.6072   29.6006 C   0  0  1  0  0  0  0  0  0  0  0  0
   19.6661   11.4913   30.6636 C   0  0  1  0  0  0  0  0  0  0  0  0
   19.6005   10.9834   31.9910 C   0  0  0  0  0  0  0  0  0  0  0  0
   19.6364   11.6084   33.0585 O   0  0  0  0  0  0  0  0  0  0  0  0
   19.8004   12.7960   30.2066 N   0  0  0  0  0  0  0  0  0  0  0  0
   19.8166   12.6849   28.9068 C   0  0  0  0  0  0  0  0  0  0  0  0
   19.6991   11.3888   28.4548 N   0  0  1  0  0  0  0  0  0  0  0  0
  2  1  1  0  0  0  0
  3  1  1  1  0  0  0
  3  4  1  0  0  0  0
  3  5  1  0  0  0  0
  5  6  1  6  0  0  0
  5  7  1  0  0  0  0
  7  8  1  6  0  0  0
  7  9  1  0  0  0  0
  9  4  1  6  0  0  0
  9 20  1  0  0  0  0
 10 11  1  0  0  0  0
 11 12  1  6  0  0  0
 11 13  1  0  0  0  0
 14 13  1  1  0  0  0
 15 14  1  0  0  0  0
 15 16  1  1  0  0  0
 16 10  1  0  0  0  0
 16 17  2  0  0  0  0
 18 15  1  0  0  0  0
 19 18  1  0  0  0  0
 20 14  1  0  0  0  0
 20 19  1  1  0  0  0
M  END
>  <CHROM.1>
-131.86309580,-101.42241025,19.93428675,11.32907416,28.33984007,-1.20630523
1.17032438,1.62514204

>  <Name>
1nyi_lig

>  <RI>
0

>  <Rbt.Current_Directory>
/home/itssahil/PROJECTS/Mol_Feturizer/New_Systems/rnas/1nyi

>  <Rbt.Executable>
rbdock ($Id: //depot/dev/client3/rdock/2013.1/src/exe/rbdock.cxx#4 $)

>  <Rbt.Library>
libRbt.so (2013.1, Build901 2013/11/27)

>  <Rbt.Parameter_File>
/export/apps/rDock/src/rDock_2013.1_src/data/scripts/dock_solv.prm

>  <Rbt.Receptor>
prm/blind_docking_100.prm

>  <SCORE>
2.38997

>  <SCORE.INTER>
-3.41869

>  <SCORE.INTER.CONST>
1

>  <SCORE.INTER.POLAR>
0

>  <SCORE.INTER.ROT>
2

>  <SCORE.INTER.SOLV>
13.4021

>  <SCORE.INTER.VDW>
-11.6798

>  <SCORE.INTER.norm>
-0.170934

>  <SCORE.INTRA>
1.38333

>  <SCORE.INTRA.DIHEDRAL>
2.18849

>  <SCORE.INTRA.DIHEDRAL.0>
3.72394

>  <SCORE.INTRA.POLAR>
0

>  <SCORE.INTRA.POLAR.0>
0

>  <SCORE.INTRA.REPUL>
0

>  <SCORE.INTRA.REPUL.0>
0

>  <SCORE.INTRA.SOLV>
-0.350319

>  <SCORE.INTRA.SOLV.lig_0>
-49.4697

>  <SCORE.INTRA.VDW>
0.464247

>  <SCORE.INTRA.VDW.0>
-0.896538

>  <SCORE.INTRA.norm>
0.0691666

>  <SCORE.RESTR>
4.42532

>  <SCORE.RESTR.CAVITY>
4.42532

>  <SCORE.RESTR.norm>
0.221266

>  <SCORE.SYSTEM>
0

>  <SCORE.SYSTEM.CONST>
0

>  <SCORE.SYSTEM.DIHEDRAL>
0

>  <SCORE.SYSTEM.SOLV>
0

>  <SCORE.SYSTEM.norm>
0

>  <SCORE.heavy>
20

>  <SCORE.norm>
0.119498

>  <RMSD>
22.896

$$$$
1nyi_lig
 OpenBabel11021811403D
libRbt.so/2013.1/901 2013/11/27
 20 22  0  0  0  0  0  0  0  0999 V2000
   22.3294   12.7976   25.8004 C   0  0  0  0  0  0  0  0  0  0  0  0
   22.0102   14.1878   25.7415 O   0  0  0  0  0  0  0  0  0  0  0  0
   21.1151   11.9516   25.4873 C   0  0  1  0  0  0  0  0  0  0  0  0
   20.9895   10.9153   26.4985 O   0  0  0  0  0  0  0  0  0  0  0  0
   19.8167   12.7487   25.5446 C   0  0  1  0  0  0  0  0  0  0  0  0
   19.4872   13.3062   24.2715 O   0  0  0  0  0  0  0  0  0  0  0  0
   18.8161   11.7022   26.0308 C   0  0  1  0  0  0  0  0  0  0  0  0
   18.3755   10.8305   25.0005 O   0  0  0  0  0  0  0  0  0  0  0  0
   19.6728   10.9363   27.0366 C   0  0  2  0  0  0  0  0  0  0  0  0
   19.4623    9.5877   31.9990 N   0  0  0  0  0  0  0  0  0  0  0  0
   19.3983    8.7986   30.8763 C   0  0  1  0  0  0  0  0  0  0  0  0
   19.2613    7.4910   31.1009 N   0  0  0  0  0  0  0  0  0  0  0  0
   19.4599    9.2572   29.6295 N   0  0  0  0  0  0  0  0  0  0  0  0
   19.5865   10.6155   29.5830 C   0  0  1  0  0  0  0  0  0  0  0  0
   19.6595   11.4917   30.6515 C   0  0  1  0  0  0  0  0  0  0  0  0
   19.6015   10.9752   31.9760 C   0  0  0  0  0  0  0  0  0  0  0  0
   19.6529   11.5924   33.0474 O   0  0  0  0  0  0  0  0  0  0  0  0
   19.8015   12.7982   30.2023 N   0  0  0  0  0  0  0  0  0  0  0  0
   19.8047   12.6961   28.9017 C   0  0  0  0  0  0  0  0  0  0  0  0
   19.6711   11.4043   28.4419 N   0  0  1  0  0  0  0  0  0  0  0  0
  2  1  1  0  0  0  0
  3  1  1  1  0  0  0
  3  4  1  0  0  0  0
  3  5  1  0  0  0  0
  5  6  1  6  0  0  0
  5  7  1  0  0  0  0
  7  8  1  6  0  0  0
  7  9  1  0  0  0  0
  9  4  1  6  0  0  0
  9 20  1  0  0  0  0
 10 11  1  0  0  0  0
 11 12  1  6  0  0  0
 11 13  1  0  0  0  0
 14 13  1  1  0  0  0
 15 14  1  0  0  0  0
 15 16  1  1  0  0  0
 16 10  1  0  0  0  0
 16 17  2  0  0  0  0
 18 15  1  0  0  0  0
 19 18  1  0  0  0  0
 20 14  1  0  0  0  0
 20 19  1  1  0  0  0
M  END
>  <CHROM.1>
-131.72048118,-100.82534920,19.91243439,11.34040220,28.32544795,-1.22271431
1.15812428,1.64623214

>  <Name>
1nyi_lig

>  <RI>
0

>  <Rbt.Current_Directory>
/home/itssahil/PROJECTS/Mol_Feturizer/New_Systems/rnas/1nyi

>  <Rbt.Executable>
rbdock ($Id: //depot/dev/client3/rdock/2013.1/src/exe/rbdock.cxx#4 $)

>  <Rbt.Library>
libRbt.so (2013.1, Build901 2013/11/27)

>  <Rbt.Parameter_File>
/export/apps/rDock/src/rDock_2013.1_src/data/scripts/dock_solv.prm

>  <Rbt.Receptor>
prm/blind_docking_100.prm

>  <SCORE>
2.14726

>  <SCORE.INTER>
-3.75212

>  <SCORE.INTER.CONST>
1

>  <SCORE.INTER.POLAR>
0

>  <SCORE.INTER.ROT>
2

>  <SCORE.INTER.SOLV>
13.2908

>  <SCORE.INTER.VDW>
-11.865

>  <SCORE.INTER.norm>
-0.187606

>  <SCORE.INTRA>
1.39526

>  <SCORE.INTRA.DIHEDRAL>
2.19805

>  <SCORE.INTRA.DIHEDRAL.0>
3.72394

>  <SCORE.INTRA.POLAR>
0

>  <SCORE.INTRA.POLAR.0>
0

>  <SCORE.INTRA.REPUL>
0

>  <SCORE.INTRA.REPUL.0>
0

>  <SCORE.INTRA.SOLV>
-0.348487

>  <SCORE.INTRA.SOLV.lig_0>
-49.4697

>  <SCORE.INTRA.VDW>
0.470474

>  <SCORE.INTRA.VDW.0>
-0.896538

>  <SCORE.INTRA.norm>
0.0697628

>  <SCORE.RESTR>
4.50413

>  <SCORE.RESTR.CAVITY>
4.50413

>  <SCORE.RESTR.norm>
0.225206

>  <SCORE.SYSTEM>
0

>  <SCORE.SYSTEM.CONST>
0

>  <SCORE.SYSTEM.DIHEDRAL>
0

>  <SCORE.SYSTEM.SOLV>
0

>  <SCORE.SYSTEM.norm>
0

>  <SCORE.heavy>
20

>  <SCORE.norm>
0.107363

>  <RMSD>
22.920

$$$$
1nyi_lig
 OpenBabel11021811403D
libRbt.so/2013.1/901 2013/11/27
 20 22  0  0  0  0  0  0  0  0999 V2000
   26.1228   -6.3838   17.9815 C   0  0  0  0  0  0  0  0  0  0  0  0
   26.7978   -5.1531   17.7213 O   0  0  0  0  0  0  0  0  0  0  0  0
   24.7155   -6.1331   18.4762 C   0  0  1  0  0  0  0  0  0  0  0  0
   24.4040   -7.0964   19.5190 O   0  0  0  0  0  0  0  0  0  0  0  0
   24.5575   -4.7592   19.1181 C   0  0  1  0  0  0  0  0  0  0  0  0
   24.1637   -3.7753   18.1603 O   0  0  0  0  0  0  0  0  0  0  0  0
   23.5036   -5.0231   20.1915 C   0  0  1  0  0  0  0  0  0  0  0  0
   22.1813   -5.0668   19.6764 O   0  0  0  0  0  0  0  0  0  0  0  0
   23.9272   -6.4100   20.6702 C   0  0  2  0  0  0  0  0  0  0  0  0
   28.7538   -5.5158   22.2173 N   0  0  0  0  0  0  0  0  0  0  0  0
   28.1832   -5.3248   20.9823 C   0  0  1  0  0  0  0  0  0  0  0  0
   28.9957   -4.8363   20.0440 N   0  0  0  0  0  0  0  0  0  0  0  0
   26.9145   -5.5956   20.6893 N   0  0  0  0  0  0  0  0  0  0  0  0
   26.2321   -6.0991   21.7589 C   0  0  1  0  0  0  0  0  0  0  0  0
   26.7158   -6.3265   23.0353 C   0  0  1  0  0  0  0  0  0  0  0  0
   28.0741   -6.0190   23.3263 C   0  0  0  0  0  0  0  0  0  0  0  0
   28.6820   -6.1488   24.3964 O   0  0  0  0  0  0  0  0  0  0  0  0
   25.7137   -6.8314   23.8539 N   0  0  0  0  0  0  0  0  0  0  0  0
   24.6676   -6.9069   23.0781 C   0  0  0  0  0  0  0  0  0  0  0  0
   24.8981   -6.4879   21.7861 N   0  0  1  0  0  0  0  0  0  0  0  0
  2  1  1  0  0  0  0
  3  1  1  1  0  0  0
  3  4  1  0  0  0  0
  3  5  1  0  0  0  0
  5  6  1  6  0  0  0
  5  7  1  0  0  0  0
  7  8  1  6  0  0  0
  7  9  1  0  0  0  0
  9  4  1  6  0  0  0
  9 20  1  0  0  0  0
 10 11  1  0  0  0  0
 11 12  1  6  0  0  0
 11 13  1  0  0  0  0
 14 13  1  1  0  0  0
 15 14  1  0  0  0  0
 15 16  1  1  0  0  0
 16 10  1  0  0  0  0
 16 17  2  0  0  0  0
 18 15  1  0  0  0  0
 19 18  1  0  0  0  0
 20 14  1  0  0  0  0
 20 19  1  1  0  0  0
M  END
>  <CHROM.1>
-141.11198204,55.57859877,25.88364184,-5.78260746,20.78873485,-2.26943312
0.11931096,1.85063942

>  <Name>
1nyi_lig

>  <RI>
0

>  <Rbt.Current_Directory>
/home/itssahil/PROJECTS/Mol_Feturizer/New_Systems/rnas/1nyi

>  <Rbt.Executable>
rbdock ($Id: //depot/dev/client3/rdock/2013.1/src/exe/rbdock.cxx#4 $)

>  <Rbt.Library>
libRbt.so (2013.1, Build901 2013/11/27)

>  <Rbt.Parameter_File>
/export/apps/rDock/src/rDock_2013.1_src/data/scripts/dock_solv.prm

>  <Rbt.Receptor>
prm/blind_docking_100.prm

>  <SCORE>
8.98962

>  <SCORE.INTER>
-3.26153

>  <SCORE.INTER.CONST>
1

>  <SCORE.INTER.POLAR>
-1.26539

>  <SCORE.INTER.ROT>
2

>  <SCORE.INTER.SOLV>
16.969

>  <SCORE.INTER.VDW>
-8.54607

>  <SCORE.INTER.norm>
-0.163076

>  <SCORE.INTRA>
1.58997

>  <SCORE.INTRA.DIHEDRAL>
1.28175

>  <SCORE.INTRA.DIHEDRAL.0>
3.72394

>  <SCORE.INTRA.POLAR>
0

>  <SCORE.INTRA.POLAR.0>
0

>  <SCORE.INTRA.REPUL>
0

>  <SCORE.INTRA.REPUL.0>
0

>  <SCORE.INTRA.SOLV>
3.28293

>  <SCORE.INTRA.SOLV.lig_0>
-49.4697

>  <SCORE.INTRA.VDW>
-0.692377

>  <SCORE.INTRA.VDW.0>
-0.896538

>  <SCORE.INTRA.norm>
0.0794983

>  <SCORE.RESTR>
10.6612

>  <SCORE.RESTR.CAVITY>
10.6612

>  <SCORE.RESTR.norm>
0.533059

>  <SCORE.SYSTEM>
0

>  <SCORE.SYSTEM.CONST>
0

>  <SCORE.SYSTEM.DIHEDRAL>
0

>  <SCORE.SYSTEM.SOLV>
0

>  <SCORE.SYSTEM.norm>
0

>  <SCORE.heavy>
20

>  <SCORE.norm>
0.449481

>  <RMSD>
23.358

$$$$
1nyi_lig
 OpenBabel11021811403D
libRbt.so/2013.1/901 2013/11/27
 20 22  0  0  0  0  0  0  0  0999 V2000
   20.0955   12.2982   30.0918 C   0  0  0  0  0  0  0  0  0  0  0  0
   19.8718   13.5762   29.4964 O   0  0  0  0  0  0  0  0  0  0  0  0
   19.0377   11.3081   29.6572 C   0  0  1  0  0  0  0  0  0  0  0  0
   18.6418   11.6105   28.2919 O   0  0  0  0  0  0  0  0  0  0  0  0
   19.5541    9.8738   29.6328 C   0  0  1  0  0  0  0  0  0  0  0  0
   19.3431    9.2193   30.8848 O   0  0  0  0  0  0  0  0  0  0  0  0
   18.7573    9.2627   28.4820 C   0  0  1  0  0  0  0  0  0  0  0  0
   17.4326    8.9063   28.8480 O   0  0  0  0  0  0  0  0  0  0  0  0
   18.7345   10.4322   27.5002 C   0  0  2  0  0  0  0  0  0  0  0  0
   21.0787   13.3488   23.9665 N   0  0  0  0  0  0  0  0  0  0  0  0
   19.9604   13.6171   24.7178 C   0  0  1  0  0  0  0  0  0  0  0  0
   19.3965   14.8066   24.5029 N   0  0  0  0  0  0  0  0  0  0  0  0
   19.4336   12.7817   25.6085 N   0  0  0  0  0  0  0  0  0  0  0  0
   20.1269   11.6088   25.6915 C   0  0  1  0  0  0  0  0  0  0  0  0
   21.2581   11.2470   24.9814 C   0  0  1  0  0  0  0  0  0  0  0  0
   21.8084   12.1626   24.0417 C   0  0  0  0  0  0  0  0  0  0  0  0
   22.8052   12.0229   23.3217 O   0  0  0  0  0  0  0  0  0  0  0  0
   21.6837    9.9787   25.3550 N   0  0  0  0  0  0  0  0  0  0  0  0
   20.8211    9.5991   26.2571 C   0  0  0  0  0  0  0  0  0  0  0  0
   19.8373   10.5282   26.5161 N   0  0  1  0  0  0  0  0  0  0  0  0
  2  1  1  0  0  0  0
  3  1  1  6  0  0  0
  3  4  1  0  0  0  0
  3  5  1  0  0  0  0
  5  6  1  1  0  0  0
  5  7  1  0  0  0  0
  7  8  1  1  0  0  0
  7  9  1  0  0  0  0
  9  4  1  1  0  0  0
  9 20  1  0  0  0  0
 10 11  1  0  0  0  0
 11 12  1  6  0  0  0
 11 13  1  0  0  0  0
 14 13  1  1  0  0  0
 15 14  1  0  0  0  0
 15 16  1  1  0  0  0
 16 10  1  0  0  0  0
 16 17  2  0  0  0  0
 18 15  1  0  0  0  0
 19 18  1  0  0  0  0
 20 14  1  0  0  0  0
 20 19  1  1  0  0  0
M  END
>  <CHROM.1>
33.57494103,-45.85485391,19.96674362,11.40073959,26.94940741,2.50262165,-1.11937902
2.87846130

>  <Name>
1nyi_lig

>  <RI>
0

>  <Rbt.Current_Directory>
/home/itssahil/PROJECTS/Mol_Feturizer/New_Systems/rnas/1nyi

>  <Rbt.Executable>
rbdock ($Id: //depot/dev/client3/rdock/2013.1/src/exe/rbdock.cxx#4 $)

>  <Rbt.Library>
libRbt.so (2013.1, Build901 2013/11/27)

>  <Rbt.Parameter_File>
/export/apps/rDock/src/rDock_2013.1_src/data/scripts/dock_solv.prm

>  <Rbt.Receptor>
prm/blind_docking_100.prm

>  <SCORE>
5.69495

>  <SCORE.INTER>
2.11801

>  <SCORE.INTER.CONST>
1

>  <SCORE.INTER.POLAR>
0

>  <SCORE.INTER.ROT>
2

>  <SCORE.INTER.SOLV>
10.4026

>  <SCORE.INTER.VDW>
-6.98885

>  <SCORE.INTER.norm>
0.1059

>  <SCORE.INTRA>
-0.218682

>  <SCORE.INTRA.DIHEDRAL>
-0.335784

>  <SCORE.INTRA.DIHEDRAL.0>
3.72394

>  <SCORE.INTRA.POLAR>
0

>  <SCORE.INTRA.POLAR.0>
0

>  <SCORE.INTRA.REPUL>
0.0382453

>  <SCORE.INTRA.REPUL.0>
0

>  <SCORE.INTRA.SOLV>
-0.203107

>  <SCORE.INTRA.SOLV.lig_0>
-49.4697

>  <SCORE.INTRA.VDW>
-0.140463

>  <SCORE.INTRA.VDW.0>
-0.896538

>  <SCORE.INTRA.norm>
-0.0109341

>  <SCORE.RESTR>
3.79562

>  <SCORE.RESTR.CAVITY>
3.79562

>  <SCORE.RESTR.norm>
0.189781

>  <SCORE.SYSTEM>
0

>  <SCORE.SYSTEM.CONST>
0

>  <SCORE.SYSTEM.DIHEDRAL>
0

>  <SCORE.SYSTEM.SOLV>
0

>  <SCORE.SYSTEM.norm>
0

>  <SCORE.heavy>
20

>  <SCORE.norm>
0.284747

>  <RMSD>
24.265

$$$$
1nyi_lig
 OpenBabel11021811403D
libRbt.so/2013.1/901 2013/11/27
 20 22  0  0  0  0  0  0  0  0999 V2000
   24.7800   -7.0681   22.2558 C   0  0  0  0  0  0  0  0  0  0  0  0
   24.5118   -6.4060   23.4918 O   0  0  0  0  0  0  0  0  0  0  0  0
   26.1495   -6.6973   21.7313 C   0  0  1  0  0  0  0  0  0  0  0  0
   26.1490   -6.8214   20.2833 O   0  0  0  0  0  0  0  0  0  0  0  0
   26.5147   -5.2463   22.0245 C   0  0  1  0  0  0  0  0  0  0  0  0
   27.1972   -5.1195   23.2728 O   0  0  0  0  0  0  0  0  0  0  0  0
   27.3755   -4.8793   20.8175 C   0  0  1  0  0  0  0  0  0  0  0  0
   28.7078   -5.3597   20.9156 O   0  0  0  0  0  0  0  0  0  0  0  0
   26.6322   -5.6150   19.7047 C   0  0  2  0  0  0  0  0  0  0  0  0
   25.3133   -2.9367   15.5123 N   0  0  0  0  0  0  0  0  0  0  0  0
   26.5298   -3.4721   15.8594 C   0  0  1  0  0  0  0  0  0  0  0  0
   27.5163   -3.2704   14.9846 N   0  0  0  0  0  0  0  0  0  0  0  0
   26.7618   -4.1498   16.9800 N   0  0  0  0  0  0  0  0  0  0  0  0
   25.6490   -4.2506   17.7639 C   0  0  1  0  0  0  0  0  0  0  0  0
   24.3863   -3.7485   17.5027 C   0  0  1  0  0  0  0  0  0  0  0  0
   24.1612   -3.0357   16.2920 C   0  0  0  0  0  0  0  0  0  0  0  0
   23.1128   -2.5196   15.8845 O   0  0  0  0  0  0  0  0  0  0  0  0
   23.5111   -4.0690   18.5324 N   0  0  0  0  0  0  0  0  0  0  0  0
   24.2408   -4.7369   19.3830 C   0  0  0  0  0  0  0  0  0  0  0  0
   25.5546   -4.8865   18.9961 N   0  0  1  0  0  0  0  0  0  0  0  0
  2  1  1  0  0  0  0
  3  1  1  6  0  0  0
  3  4  1  0  0  0  0
  3  5  1  0  0  0  0
  5  6  1  1  0  0  0
  5  7  1  0  0  0  0
  7  8  1  1  0  0  0
  7  9  1  0  0  0  0
  9  4  1  1  0  0  0
  9 20  1  0  0  0  0
 10 11  1  0  0  0  0
 11 12  1  1  0  0  0
 11 13  1  0  0  0  0
 14 13  1  6  0  0  0
 15 14  1  0  0  0  0
 15 16  1  6  0  0  0
 16 10  1  0  0  0  0
 16 17  2  0  0  0  0
 18 15  1  0  0  0  0
 19 18  1  0  0  0  0
 20 14  1  0  0  0  0
 20 19  1  6  0  0  0
M  END
>  <CHROM.1>
-152.87164438,-137.92318805,25.74497924,-4.74212722,19.18271737,1.42263315
-0.05244059,1.99140099

>  <Name>
1nyi_lig

>  <RI>
0

>  <Rbt.Current_Directory>
/home/itssahil/PROJECTS/Mol_Feturizer/New_Systems/rnas/1nyi

>  <Rbt.Executable>
rbdock ($Id: //depot/dev/client3/rdock/2013.1/src/exe/rbdock.cxx#4 $)

>  <Rbt.Library>
libRbt.so (2013.1, Build901 2013/11/27)

>  <Rbt.Parameter_File>
/export/apps/rDock/src/rDock_2013.1_src/data/scripts/dock_solv.prm

>  <Rbt.Receptor>
prm/blind_docking_100.prm

>  <SCORE>
24.9162

>  <SCORE.INTER>
20.0937

>  <SCORE.INTER.CONST>
1

>  <SCORE.INTER.POLAR>
-1.07449

>  <SCORE.INTER.ROT>
2

>  <SCORE.INTER.SOLV>
16.9115

>  <SCORE.INTER.VDW>
6.40693

>  <SCORE.INTER.norm>
1.00469

>  <SCORE.INTRA>
-0.369402

>  <SCORE.INTRA.DIHEDRAL>
-0.184618

>  <SCORE.INTRA.DIHEDRAL.0>
3.72394

>  <SCORE.INTRA.POLAR>
0

>  <SCORE.INTRA.POLAR.0>
0

>  <SCORE.INTRA.REPUL>
0

>  <SCORE.INTRA.REPUL.0>
0

>  <SCORE.INTRA.SOLV>
-0.484393

>  <SCORE.INTRA.SOLV.lig_0>
-49.4697

>  <SCORE.INTRA.VDW>
-0.0348963

>  <SCORE.INTRA.VDW.0>
-0.896538

>  <SCORE.INTRA.norm>
-0.0184701

>  <SCORE.RESTR>
5.19185

>  <SCORE.RESTR.CAVITY>
5.19185

>  <SCORE.RESTR.norm>
0.259593

>  <SCORE.SYSTEM>
0

>  <SCORE.SYSTEM.CONST>
0

>  <SCORE.SYSTEM.DIHEDRAL>
0

>  <SCORE.SYSTEM.SOLV>
0

>  <SCORE.SYSTEM.norm>
0

>  <SCORE.heavy>
20

>  <SCORE.norm>
1.24581

>  <RMSD>
24.986

$$$$
1nyi_lig
 OpenBabel11021811403D
libRbt.so/2013.1/901 2013/11/27
 20 22  0  0  0  0  0  0  0  0999 V2000
   22.4036    5.2965   19.9497 C   0  0  0  0  0  0  0  0  0  0  0  0
   23.6481    4.6335   20.1721 O   0  0  0  0  0  0  0  0  0  0  0  0
   22.6242    6.6834   19.3875 C   0  0  1  0  0  0  0  0  0  0  0  0
   21.6204    7.5796   19.9366 O   0  0  0  0  0  0  0  0  0  0  0  0
   23.9720    7.2705   19.7914 C   0  0  1  0  0  0  0  0  0  0  0  0
   24.9873    6.9578   18.8366 O   0  0  0  0  0  0  0  0  0  0  0  0
   23.6598    8.7626   19.8848 C   0  0  1  0  0  0  0  0  0  0  0  0
   23.6243    9.4054   18.6194 O   0  0  0  0  0  0  0  0  0  0  0  0
   22.2597    8.7220   20.4932 C   0  0  2  0  0  0  0  0  0  0  0  0
   22.1244    5.9171   24.8063 N   0  0  0  0  0  0  0  0  0  0  0  0
   22.2120    5.5046   23.4989 C   0  0  1  0  0  0  0  0  0  0  0  0
   22.2707    4.1846   23.3163 N   0  0  0  0  0  0  0  0  0  0  0  0
   22.2364    6.3235   22.4512 N   0  0  0  0  0  0  0  0  0  0  0  0
   22.1549    7.6358   22.8178 C   0  0  1  0  0  0  0  0  0  0  0  0
   22.0642    8.1481   24.1000 C   0  0  1  0  0  0  0  0  0  0  0  0
   22.0503    7.2516   25.2047 C   0  0  0  0  0  0  0  0  0  0  0  0
   21.9778    7.5160   26.4115 O   0  0  0  0  0  0  0  0  0  0  0  0
   22.0168    9.5359   24.0686 N   0  0  0  0  0  0  0  0  0  0  0  0
   22.0706    9.8343   22.7998 C   0  0  0  0  0  0  0  0  0  0  0  0
   22.1486    8.7371   21.9701 N   0  0  1  0  0  0  0  0  0  0  0  0
  2  1  1  0  0  0  0
  3  1  1  1  0  0  0
  3  4  1  0  0  0  0
  3  5  1  0  0  0  0
  5  6  1  6  0  0  0
  5  7  1  0  0  0  0
  7  8  1  6  0  0  0
  7  9  1  0  0  0  0
  9  4  1  1  0  0  0
  9 20  1  0  0  0  0
 10 11  1  0  0  0  0
 11 12  1  6  0  0  0
 11 13  1  0  0  0  0
 14 13  1  1  0  0  0
 15 14  1  0  0  0  0
 15 16  1  1  0  0  0
 16 10  1  0  0  0  0
 16 17  2  0  0  0  0
 18 15  1  0  0  0  0
 19 18  1  0  0  0  0
 20 14  1  0  0  0  0
 20 19  1  1  0  0  0
M  END
>  <CHROM.1>
-143.88748189,34.44819797,22.62776166,7.28679537,21.87474687,-0.24756164
-1.29934604,2.91921242

>  <Name>
1nyi_lig

>  <RI>
0

>  <Rbt.Current_Directory>
/home/itssahil/PROJECTS/Mol_Feturizer/New_Systems/rnas/1nyi

>  <Rbt.Executable>
rbdock ($Id: //depot/dev/client3/rdock/2013.1/src/exe/rbdock.cxx#4 $)

>  <Rbt.Library>
libRbt.so (2013.1, Build901 2013/11/27)

>  <Rbt.Parameter_File>
/export/apps/rDock/src/rDock_2013.1_src/data/scripts/dock_solv.prm

>  <Rbt.Receptor>
prm/blind_docking_60.prm

>  <SCORE>
0.39225

>  <SCORE.INTER>
-4.2095

>  <SCORE.INTER.CONST>
1

>  <SCORE.INTER.POLAR>
0

>  <SCORE.INTER.ROT>
2

>  <SCORE.INTER.SOLV>
11.7981

>  <SCORE.INTER.VDW>
-11.6724

>  <SCORE.INTER.norm>
-0.210475

>  <SCORE.INTRA>
2.1112

>  <SCORE.INTRA.DIHEDRAL>
0.872015

>  <SCORE.INTRA.DIHEDRAL.0>
3.72394

>  <SCORE.INTRA.POLAR>
0

>  <SCORE.INTRA.POLAR.0>
0

>  <SCORE.INTRA.REPUL>
0

>  <SCORE.INTRA.REPUL.0>
0

>  <SCORE.INTRA.SOLV>
3.16286

>  <SCORE.INTRA.SOLV.lig_0>
-49.4697

>  <SCORE.INTRA.VDW>
0.0937623

>  <SCORE.INTRA.VDW.0>
-0.896538

>  <SCORE.INTRA.norm>
0.10556

>  <SCORE.RESTR>
2.49055

>  <SCORE.RESTR.CAVITY>
2.49055

>  <SCORE.RESTR.norm>
0.124527

>  <SCORE.SYSTEM>
0

>  <SCORE.SYSTEM.CONST>
0

>  <SCORE.SYSTEM.DIHEDRAL>
0

>  <SCORE.SYSTEM.SOLV>
0

>  <SCORE.SYSTEM.norm>
0

>  <SCORE.heavy>
20

>  <SCORE.norm>
0.0196125

>  <RMSD>
25.131

$$$$
1nyi_lig
 OpenBabel11021811403D
libRbt.so/2013.1/901 2013/11/27
 20 22  0  0  0  0  0  0  0  0999 V2000
   24.7526   -6.8951   22.3110 C   0  0  0  0  0  0  0  0  0  0  0  0
   24.7741   -5.9434   23.3749 O   0  0  0  0  0  0  0  0  0  0  0  0
   26.0603   -6.8839   21.5508 C   0  0  1  0  0  0  0  0  0  0  0  0
   25.7865   -7.0952   20.1392 O   0  0  0  0  0  0  0  0  0  0  0  0
   26.7766   -5.5409   21.6394 C   0  0  1  0  0  0  0  0  0  0  0  0
   27.6726   -5.4969   22.7509 O   0  0  0  0  0  0  0  0  0  0  0  0
   27.4784   -5.4588   20.2853 C   0  0  1  0  0  0  0  0  0  0  0  0
   28.6712   -6.2265   20.2277 O   0  0  0  0  0  0  0  0  0  0  0  0
   26.4147   -6.0715   19.3769 C   0  0  2  0  0  0  0  0  0  0  0  0
   25.1413   -3.2329   15.2769 N   0  0  0  0  0  0  0  0  0  0  0  0
   26.2689   -3.9845   15.5024 C   0  0  1  0  0  0  0  0  0  0  0  0
   27.1678   -3.9804   14.5170 N   0  0  0  0  0  0  0  0  0  0  0  0
   26.4987   -4.6830   16.6105 N   0  0  0  0  0  0  0  0  0  0  0  0
   25.4847   -4.5650   17.5167 C   0  0  1  0  0  0  0  0  0  0  0  0
   24.3159   -3.8366   17.3826 C   0  0  1  0  0  0  0  0  0  0  0  0
   24.0889   -3.1058   16.1832 C   0  0  0  0  0  0  0  0  0  0  0  0
   23.1148   -2.4054   15.8795 O   0  0  0  0  0  0  0  0  0  0  0  0
   23.5213   -3.9769   18.5132 N   0  0  0  0  0  0  0  0  0  0  0  0
   24.2074   -4.7620   19.2972 C   0  0  0  0  0  0  0  0  0  0  0  0
   25.4168   -5.1600   18.7708 N   0  0  1  0  0  0  0  0  0  0  0  0
  2  1  1  0  0  0  0
  3  1  1  1  0  0  0
  3  4  1  0  0  0  0
  3  5  1  0  0  0  0
  5  6  1  1  0  0  0
  5  7  1  0  0  0  0
  7  8  1  1  0  0  0
  7  9  1  0  0  0  0
  9  4  1  1  0  0  0
  9 20  1  0  0  0  0
 10 11  1  0  0  0  0
 11 12  1  1  0  0  0
 11 13  1  0  0  0  0
 14 13  1  6  0  0  0
 15 14  1  0  0  0  0
 15 16  1  6  0  0  0
 16 10  1  0  0  0  0
 16 17  2  0  0  0  0
 18 15  1  0  0  0  0
 19 18  1  0  0  0  0
 20 14  1  0  0  0  0
 20 19  1  6  0  0  0
M  END
>  <CHROM.1>
-143.22818548,-142.93744792,25.69258471,-4.98958071,18.92746487,1.36903667
-0.29197744,1.93267985

>  <Name>
1nyi_lig

>  <RI>
0

>  <Rbt.Current_Directory>
/home/itssahil/PROJECTS/Mol_Feturizer/New_Systems/rnas/1nyi

>  <Rbt.Executable>
rbdock ($Id: //depot/dev/client3/rdock/2013.1/src/exe/rbdock.cxx#4 $)

>  <Rbt.Library>
libRbt.so (2013.1, Build901 2013/11/27)

>  <Rbt.Parameter_File>
/export/apps/rDock/src/rDock_2013.1_src/data/scripts/dock_solv.prm

>  <Rbt.Receptor>
prm/blind_docking_100.prm

>  <SCORE>
9.79735

>  <SCORE.INTER>
2.02685

>  <SCORE.INTER.CONST>
1

>  <SCORE.INTER.POLAR>
-1.1165

>  <SCORE.INTER.ROT>
2

>  <SCORE.INTER.SOLV>
11.8718

>  <SCORE.INTER.VDW>
-3.81769

>  <SCORE.INTER.norm>
0.101343

>  <SCORE.INTRA>
0.560559

>  <SCORE.INTRA.DIHEDRAL>
1.12524

>  <SCORE.INTRA.DIHEDRAL.0>
3.72394

>  <SCORE.INTRA.POLAR>
0

>  <SCORE.INTRA.POLAR.0>
0

>  <SCORE.INTRA.REPUL>
0

>  <SCORE.INTRA.REPUL.0>
0

>  <SCORE.INTRA.SOLV>
-0.408517

>  <SCORE.INTRA.SOLV.lig_0>
-49.4697

>  <SCORE.INTRA.VDW>
0.202198

>  <SCORE.INTRA.VDW.0>
-0.896538

>  <SCORE.INTRA.norm>
0.028028

>  <SCORE.RESTR>
7.20993

>  <SCORE.RESTR.CAVITY>
7.20993

>  <SCORE.RESTR.norm>
0.360497

>  <SCORE.SYSTEM>
0

>  <SCORE.SYSTEM.CONST>
0

>  <SCORE.SYSTEM.DIHEDRAL>
0

>  <SCORE.SYSTEM.SOLV>
0

>  <SCORE.SYSTEM.norm>
0

>  <SCORE.heavy>
20

>  <SCORE.norm>
0.489867

>  <RMSD>
25.225

$$$$
1nyi_lig
 OpenBabel11021811403D
libRbt.so/2013.1/901 2013/11/27
 20 22  0  0  0  0  0  0  0  0999 V2000
   23.4760    9.6140   19.8391 C   0  0  0  0  0  0  0  0  0  0  0  0
   24.3840    8.6060   20.2832 O   0  0  0  0  0  0  0  0  0  0  0  0
   22.7979   10.2845   21.0133 C   0  0  1  0  0  0  0  0  0  0  0  0
   21.5904    9.5466   21.3443 O   0  0  0  0  0  0  0  0  0  0  0  0
   23.6563   10.2649   22.2733 C   0  0  1  0  0  0  0  0  0  0  0  0
   24.4808   11.4277   22.3640 O   0  0  0  0  0  0  0  0  0  0  0  0
   22.6061   10.1728   23.3784 C   0  0  1  0  0  0  0  0  0  0  0  0
   21.9933   11.4196   23.6711 O   0  0  0  0  0  0  0  0  0  0  0  0
   21.5948    9.2293   22.7310 C   0  0  2  0  0  0  0  0  0  0  0  0
   22.9037    4.7084   20.6484 N   0  0  0  0  0  0  0  0  0  0  0  0
   22.8263    5.9492   20.0640 C   0  0  1  0  0  0  0  0  0  0  0  0
   23.1347    5.9930   18.7670 N   0  0  0  0  0  0  0  0  0  0  0  0
   22.4703    7.0607   20.7016 N   0  0  0  0  0  0  0  0  0  0  0  0
   22.1771    6.8328   22.0152 C   0  0  1  0  0  0  0  0  0  0  0  0
   22.2250    5.6268   22.6919 C   0  0  1  0  0  0  0  0  0  0  0  0
   22.6188    4.4537   21.9897 C   0  0  0  0  0  0  0  0  0  0  0  0
   22.7235    3.2973   22.4178 O   0  0  0  0  0  0  0  0  0  0  0  0
   21.8715    5.8004   24.0238 N   0  0  0  0  0  0  0  0  0  0  0  0
   21.6145    7.0751   24.1283 C   0  0  0  0  0  0  0  0  0  0  0  0
   21.7687    7.7750   22.9517 N   0  0  1  0  0  0  0  0  0  0  0  0
  2  1  1  0  0  0  0
  3  1  1  6  0  0  0
  3  4  1  0  0  0  0
  3  5  1  0  0  0  0
  5  6  1  1  0  0  0
  5  7  1  0  0  0  0
  7  8  1  6  0  0  0
  7  9  1  0  0  0  0
  9  4  1  6  0  0  0
  9 20  1  0  0  0  0
 10 11  1  0  0  0  0
 11 12  1  6  0  0  0
 11 13  1  0  0  0  0
 14 13  1  1  0  0  0
 15 14  1  0  0  0  0
 15 16  1  1  0  0  0
 16 10  1  0  0  0  0
 16 17  2  0  0  0  0
 18 15  1  0  0  0  0
 19 18  1  0  0  0  0
 20 14  1  0  0  0  0
 20 19  1  1  0  0  0
M  END
>  <CHROM.1>
-88.93365121,13.86945628,22.66188228,7.80521149,21.86543679,-1.38992535,-1.17517478
-2.86359446

>  <Name>
1nyi_lig

>  <RI>
0

>  <Rbt.Current_Directory>
/home/itssahil/PROJECTS/Mol_Feturizer/New_Systems/rnas/1nyi

>  <Rbt.Executable>
rbdock ($Id: //depot/dev/client3/rdock/2013.1/src/exe/rbdock.cxx#4 $)

>  <Rbt.Library>
libRbt.so (2013.1, Build901 2013/11/27)

>  <Rbt.Parameter_File>
/export/apps/rDock/src/rDock_2013.1_src/data/scripts/dock_solv.prm

>  <Rbt.Receptor>
prm/blind_docking_60.prm

>  <SCORE>
3.13222

>  <SCORE.INTER>
-2.57532

>  <SCORE.INTER.CONST>
1

>  <SCORE.INTER.POLAR>
0

>  <SCORE.INTER.ROT>
2

>  <SCORE.INTER.SOLV>
12.3237

>  <SCORE.INTER.VDW>
-10.7581

>  <SCORE.INTER.norm>
-0.128766

>  <SCORE.INTRA>
1.83659

>  <SCORE.INTRA.DIHEDRAL>
-0.101094

>  <SCORE.INTRA.DIHEDRAL.0>
3.72394

>  <SCORE.INTRA.POLAR>
0

>  <SCORE.INTRA.POLAR.0>
0

>  <SCORE.INTRA.REPUL>
0

>  <SCORE.INTRA.REPUL.0>
0

>  <SCORE.INTRA.SOLV>
3.56541

>  <SCORE.INTRA.SOLV.lig_0>
-49.4697

>  <SCORE.INTRA.VDW>
0.104429

>  <SCORE.INTRA.VDW.0>
-0.896538

>  <SCORE.INTRA.norm>
0.0918293

>  <SCORE.RESTR>
3.87096

>  <SCORE.RESTR.CAVITY>
3.87096

>  <SCORE.RESTR.norm>
0.193548

>  <SCORE.SYSTEM>
0

>  <SCORE.SYSTEM.CONST>
0

>  <SCORE.SYSTEM.DIHEDRAL>
0

>  <SCORE.SYSTEM.SOLV>
0

>  <SCORE.SYSTEM.norm>
0

>  <SCORE.heavy>
20

>  <SCORE.norm>
0.156611

>  <RMSD>
25.246

$$$$
1nyi_lig
 OpenBabel11021811403D
libRbt.so/2013.1/901 2013/11/27
 20 22  0  0  0  0  0  0  0  0999 V2000
   25.1362   -6.5518   21.9880 C   0  0  0  0  0  0  0  0  0  0  0  0
   25.1567   -5.7415   23.1632 O   0  0  0  0  0  0  0  0  0  0  0  0
   26.5024   -6.5971   21.3402 C   0  0  1  0  0  0  0  0  0  0  0  0
   26.3508   -6.9831   19.9473 O   0  0  0  0  0  0  0  0  0  0  0  0
   27.1865   -5.2346   21.3224 C   0  0  1  0  0  0  0  0  0  0  0  0
   27.9857   -5.0341   22.4892 O   0  0  0  0  0  0  0  0  0  0  0  0
   27.9974   -5.2968   20.0297 C   0  0  1  0  0  0  0  0  0  0  0  0
   29.2034   -6.0340   20.1625 O   0  0  0  0  0  0  0  0  0  0  0  0
   27.0235   -6.0419   19.1195 C   0  0  2  0  0  0  0  0  0  0  0  0
   25.9467   -3.9402   14.5464 N   0  0  0  0  0  0  0  0  0  0  0  0
   27.0513   -4.6558   14.9402 C   0  0  1  0  0  0  0  0  0  0  0  0
   27.9836   -4.8342   14.0031 N   0  0  0  0  0  0  0  0  0  0  0  0
   27.2294   -5.1548   16.1600 N   0  0  0  0  0  0  0  0  0  0  0  0
   26.1872   -4.8685   16.9938 C   0  0  1  0  0  0  0  0  0  0  0  0
   25.0379   -4.1593   16.6926 C   0  0  1  0  0  0  0  0  0  0  0  0
   24.8664   -3.6445   15.3773 C   0  0  0  0  0  0  0  0  0  0  0  0
   23.9169   -2.9948   14.9212 O   0  0  0  0  0  0  0  0  0  0  0  0
   24.2023   -4.0914   17.7999 N   0  0  0  0  0  0  0  0  0  0  0  0
   24.8458   -4.7376   18.7327 C   0  0  0  0  0  0  0  0  0  0  0  0
   26.0647   -5.2363   18.3284 N   0  0  1  0  0  0  0  0  0  0  0  0
  2  1  1  0  0  0  0
  3  1  1  6  0  0  0
  3  4  1  0  0  0  0
  3  5  1  0  0  0  0
  5  6  1  1  0  0  0
  5  7  1  0  0  0  0
  7  8  1  1  0  0  0
  7  9  1  0  0  0  0
  9  4  1  1  0  0  0
  9 20  1  0  0  0  0
 10 11  1  0  0  0  0
 11 12  1  1  0  0  0
 11 13  1  0  0  0  0
 14 13  1  6  0  0  0
 15 14  1  0  0  0  0
 15 16  1  6  0  0  0
 16 10  1  0  0  0  0
 16 17  2  0  0  0  0
 18 15  1  0  0  0  0
 19 18  1  0  0  0  0
 20 14  1  0  0  0  0
 20 19  1  6  0  0  0
M  END
>  <CHROM.1>
-159.09688920,-138.37515306,26.30150145,-5.10713049,18.48038013,1.43186733
-0.27182010,1.80339588

>  <Name>
1nyi_lig

>  <RI>
0

>  <Rbt.Current_Directory>
/home/itssahil/PROJECTS/Mol_Feturizer/New_Systems/rnas/1nyi

>  <Rbt.Executable>
rbdock ($Id: //depot/dev/client3/rdock/2013.1/src/exe/rbdock.cxx#4 $)

>  <Rbt.Library>
libRbt.so (2013.1, Build901 2013/11/27)

>  <Rbt.Parameter_File>
/export/apps/rDock/src/rDock_2013.1_src/data/scripts/dock_solv.prm

>  <Rbt.Receptor>
prm/blind_docking_80.prm

>  <SCORE>
-10.1897

>  <SCORE.INTER>
-10.0135

>  <SCORE.INTER.CONST>
1

>  <SCORE.INTER.POLAR>
-1.2503

>  <SCORE.INTER.ROT>
2

>  <SCORE.INTER.SOLV>
8.76858

>  <SCORE.INTER.VDW>
-10.3642

>  <SCORE.INTER.norm>
-0.500675

>  <SCORE.INTRA>
-0.91898

>  <SCORE.INTRA.DIHEDRAL>
-0.993786

>  <SCORE.INTRA.DIHEDRAL.0>
3.72394

>  <SCORE.INTRA.POLAR>
0

>  <SCORE.INTRA.POLAR.0>
0

>  <SCORE.INTRA.REPUL>
0

>  <SCORE.INTRA.REPUL.0>
0

>  <SCORE.INTRA.SOLV>
-0.529258

>  <SCORE.INTRA.SOLV.lig_0>
-49.4697

>  <SCORE.INTRA.VDW>
-0.157458

>  <SCORE.INTRA.VDW.0>
-0.896538

>  <SCORE.INTRA.norm>
-0.045949

>  <SCORE.RESTR>
0.742743

>  <SCORE.RESTR.CAVITY>
0.742743

>  <SCORE.RESTR.norm>
0.0371372

>  <SCORE.SYSTEM>
0

>  <SCORE.SYSTEM.CONST>
0

>  <SCORE.SYSTEM.DIHEDRAL>
0

>  <SCORE.SYSTEM.SOLV>
0

>  <SCORE.SYSTEM.norm>
0

>  <SCORE.heavy>
20

>  <SCORE.norm>
-0.509486

>  <RMSD>
25.646

$$$$
1nyi_lig
 OpenBabel11021811403D
libRbt.so/2013.1/901 2013/11/27
 20 22  0  0  0  0  0  0  0  0999 V2000
   25.1208   -6.5450   21.9783 C   0  0  0  0  0  0  0  0  0  0  0  0
   25.1334   -5.7433   23.1594 O   0  0  0  0  0  0  0  0  0  0  0  0
   26.4895   -6.5794   21.3351 C   0  0  1  0  0  0  0  0  0  0  0  0
   26.3453   -6.9629   19.9407 O   0  0  0  0  0  0  0  0  0  0  0  0
   27.1644   -5.2123   21.3231 C   0  0  1  0  0  0  0  0  0  0  0  0
   27.9583   -5.0093   22.4931 O   0  0  0  0  0  0  0  0  0  0  0  0
   27.9800   -5.2657   20.0329 C   0  0  1  0  0  0  0  0  0  0  0  0
   29.1906   -5.9950   20.1680 O   0  0  0  0  0  0  0  0  0  0  0  0
   27.0143   -6.0150   19.1175 C   0  0  2  0  0  0  0  0  0  0  0  0
   25.9332   -3.9191   14.5429 N   0  0  0  0  0  0  0  0  0  0  0  0
   27.0405   -4.6296   14.9380 C   0  0  1  0  0  0  0  0  0  0  0  0
   27.9746   -4.8039   14.0020 N   0  0  0  0  0  0  0  0  0  0  0  0
   27.2195   -5.1275   16.1582 N   0  0  0  0  0  0  0  0  0  0  0  0
   26.1751   -4.8458   16.9907 C   0  0  1  0  0  0  0  0  0  0  0  0
   25.0229   -4.1419   16.6881 C   0  0  1  0  0  0  0  0  0  0  0  0
   24.8505   -3.6281   15.3726 C   0  0  0  0  0  0  0  0  0  0  0  0
   23.8986   -2.9828   14.9153 O   0  0  0  0  0  0  0  0  0  0  0  0
   24.1858   -4.0775   17.7945 N   0  0  0  0  0  0  0  0  0  0  0  0
   24.8312   -4.7207   18.7282 C   0  0  0  0  0  0  0  0  0  0  0  0
   26.0528   -5.2139   18.3253 N   0  0  1  0  0  0  0  0  0  0  0  0
  2  1  1  0  0  0  0
  3  1  1  6  0  0  0
  3  4  1  0  0  0  0
  3  5  1  0  0  0  0
  5  6  1  1  0  0  0
  5  7  1  0  0  0  0
  7  8  1  1  0  0  0
  7  9  1  0  0  0  0
  9  4  1  1  0  0  0
  9 20  1  0  0  0  0
 10 11  1  0  0  0  0
 11 12  1  1  0  0  0
 11 13  1  0  0  0  0
 14 13  1  6  0  0  0
 15 14  1  0  0  0  0
 15 16  1  6  0  0  0
 16 10  1  0  0  0  0
 16 17  2  0  0  0  0
 18 15  1  0  0  0  0
 19 18  1  0  0  0  0
 20 14  1  0  0  0  0
 20 19  1  6  0  0  0
M  END
>  <CHROM.1>
-159.39638709,-138.13402074,26.28673236,-5.08654903,18.47773243,1.43291433
-0.26610634,1.80478096

>  <Name>
1nyi_lig

>  <RI>
0

>  <Rbt.Current_Directory>
/home/itssahil/PROJECTS/Mol_Feturizer/New_Systems/rnas/1nyi

>  <Rbt.Executable>
rbdock ($Id: //depot/dev/client3/rdock/2013.1/src/exe/rbdock.cxx#4 $)

>  <Rbt.Library>
libRbt.so (2013.1, Build901 2013/11/27)

>  <Rbt.Parameter_File>
/export/apps/rDock/src/rDock_2013.1_src/data/scripts/dock_solv.prm

>  <Rbt.Receptor>
prm/blind_docking_80.prm

>  <SCORE>
-10.1011

>  <SCORE.INTER>
-9.88877

>  <SCORE.INTER.CONST>
1

>  <SCORE.INTER.POLAR>
-1.26602

>  <SCORE.INTER.ROT>
2

>  <SCORE.INTER.SOLV>
8.90904

>  <SCORE.INTER.VDW>
-10.2755

>  <SCORE.INTER.norm>
-0.494439

>  <SCORE.INTRA>
-0.945096

>  <SCORE.INTRA.DIHEDRAL>
-1.03083

>  <SCORE.INTRA.DIHEDRAL.0>
3.72394

>  <SCORE.INTRA.POLAR>
0

>  <SCORE.INTRA.POLAR.0>
0

>  <SCORE.INTRA.REPUL>
0

>  <SCORE.INTRA.REPUL.0>
0

>  <SCORE.INTRA.SOLV>
-0.531666

>  <SCORE.INTRA.SOLV.lig_0>
-49.4697

>  <SCORE.INTRA.VDW>
-0.163849

>  <SCORE.INTRA.VDW.0>
-0.896538

>  <SCORE.INTRA.norm>
-0.0472548

>  <SCORE.RESTR>
0.732816

>  <SCORE.RESTR.CAVITY>
0.732816

>  <SCORE.RESTR.norm>
0.0366408

>  <SCORE.SYSTEM>
0

>  <SCORE.SYSTEM.CONST>
0

>  <SCORE.SYSTEM.DIHEDRAL>
0

>  <SCORE.SYSTEM.SOLV>
0

>  <SCORE.SYSTEM.norm>
0

>  <SCORE.heavy>
20

>  <SCORE.norm>
-0.505053

>  <RMSD>
25.648

$$$$
1nyi_lig
 OpenBabel11021811403D
libRbt.so/2013.1/901 2013/11/27
 20 22  0  0  0  0  0  0  0  0999 V2000
   25.1455   -6.5535   21.9668 C   0  0  0  0  0  0  0  0  0  0  0  0
   25.1508   -5.7480   23.1454 O   0  0  0  0  0  0  0  0  0  0  0  0
   26.5132   -6.5731   21.3208 C   0  0  1  0  0  0  0  0  0  0  0  0
   26.3696   -6.9528   19.9253 O   0  0  0  0  0  0  0  0  0  0  0  0
   27.1756   -5.1999   21.3125 C   0  0  1  0  0  0  0  0  0  0  0  0
   27.9700   -4.9940   22.4816 O   0  0  0  0  0  0  0  0  0  0  0  0
   27.9891   -5.2411   20.0205 C   0  0  1  0  0  0  0  0  0  0  0  0
   29.2064   -5.9599   20.1505 O   0  0  0  0  0  0  0  0  0  0  0  0
   27.0283   -5.9958   19.1043 C   0  0  2  0  0  0  0  0  0  0  0  0
   25.9058   -3.9164   14.5321 N   0  0  0  0  0  0  0  0  0  0  0  0
   27.0187   -4.6217   14.9210 C   0  0  1  0  0  0  0  0  0  0  0  0
   27.9466   -4.7949   13.9786 N   0  0  0  0  0  0  0  0  0  0  0  0
   27.2085   -5.1156   16.1411 N   0  0  0  0  0  0  0  0  0  0  0  0
   26.1692   -4.8356   16.9805 C   0  0  1  0  0  0  0  0  0  0  0  0
   25.0120   -4.1369   16.6844 C   0  0  1  0  0  0  0  0  0  0  0  0
   24.8281   -3.6274   15.3688 C   0  0  0  0  0  0  0  0  0  0  0  0
   23.8704   -2.9869   14.9168 O   0  0  0  0  0  0  0  0  0  0  0  0
   24.1828   -4.0727   17.7968 N   0  0  0  0  0  0  0  0  0  0  0  0
   24.8374   -4.7109   18.7274 C   0  0  0  0  0  0  0  0  0  0  0  0
   26.0580   -5.2006   18.3169 N   0  0  1  0  0  0  0  0  0  0  0  0
  2  1  1  0  0  0  0
  3  1  1  6  0  0  0
  3  4  1  0  0  0  0
  3  5  1  0  0  0  0
  5  6  1  1  0  0  0
  5  7  1  0  0  0  0
  7  8  1  1  0  0  0
  7  9  1  0  0  0  0
  9  4  1  1  0  0  0
  9 20  1  0  0  0  0
 10 11  1  0  0  0  0
 11 12  1  1  0  0  0
 11 13  1  0  0  0  0
 14 13  1  6  0  0  0
 15 14  1  0  0  0  0
 15 16  1  6  0  0  0
 16 10  1  0  0  0  0
 16 17  2  0  0  0  0
 18 15  1  0  0  0  0
 19 18  1  0  0  0  0
 20 14  1  0  0  0  0
 20 19  1  6  0  0  0
M  END
>  <CHROM.1>
-158.96260415,-137.57009938,26.28734489,-5.07747658,18.46709222,1.42677392
-0.26260671,1.80294623

>  <Name>
1nyi_lig

>  <RI>
0

>  <Rbt.Current_Directory>
/home/itssahil/PROJECTS/Mol_Feturizer/New_Systems/rnas/1nyi

>  <Rbt.Executable>
rbdock ($Id: //depot/dev/client3/rdock/2013.1/src/exe/rbdock.cxx#4 $)

>  <Rbt.Library>
libRbt.so (2013.1, Build901 2013/11/27)

>  <Rbt.Parameter_File>
/export/apps/rDock/src/rDock_2013.1_src/data/scripts/dock_solv.prm

>  <Rbt.Receptor>
prm/blind_docking_80.prm

>  <SCORE>
-10.207

>  <SCORE.INTER>
-10.0372

>  <SCORE.INTER.CONST>
1

>  <SCORE.INTER.POLAR>
-1.28585

>  <SCORE.INTER.ROT>
2

>  <SCORE.INTER.SOLV>
8.94889

>  <SCORE.INTER.VDW>
-10.3216

>  <SCORE.INTER.norm>
-0.501859

>  <SCORE.INTRA>
-0.911976

>  <SCORE.INTRA.DIHEDRAL>
-0.979263

>  <SCORE.INTRA.DIHEDRAL.0>
3.72394

>  <SCORE.INTRA.POLAR>
0

>  <SCORE.INTRA.POLAR.0>
0

>  <SCORE.INTRA.REPUL>
0

>  <SCORE.INTRA.REPUL.0>
0

>  <SCORE.INTRA.SOLV>
-0.528886

>  <SCORE.INTRA.SOLV.lig_0>
-49.4697

>  <SCORE.INTRA.VDW>
-0.157902

>  <SCORE.INTRA.VDW.0>
-0.896538

>  <SCORE.INTRA.norm>
-0.0455988

>  <SCORE.RESTR>
0.742203

>  <SCORE.RESTR.CAVITY>
0.742203

>  <SCORE.RESTR.norm>
0.0371101

>  <SCORE.SYSTEM>
0

>  <SCORE.SYSTEM.CONST>
0

>  <SCORE.SYSTEM.DIHEDRAL>
0

>  <SCORE.SYSTEM.SOLV>
0

>  <SCORE.SYSTEM.norm>
0

>  <SCORE.heavy>
20

>  <SCORE.norm>
-0.510348

>  <RMSD>
25.658

$$$$
1nyi_lig
 OpenBabel11021811403D
libRbt.so/2013.1/901 2013/11/27
 20 22  0  0  0  0  0  0  0  0999 V2000
   25.1337   -6.5906   21.9541 C   0  0  0  0  0  0  0  0  0  0  0  0
   25.1342   -5.7810   23.1299 O   0  0  0  0  0  0  0  0  0  0  0  0
   26.5012   -6.6038   21.3077 C   0  0  1  0  0  0  0  0  0  0  0  0
   26.3577   -6.9719   19.9091 O   0  0  0  0  0  0  0  0  0  0  0  0
   27.1626   -5.2300   21.3107 C   0  0  1  0  0  0  0  0  0  0  0  0
   27.9571   -5.0333   22.4814 O   0  0  0  0  0  0  0  0  0  0  0  0
   27.9759   -5.2599   20.0183 C   0  0  1  0  0  0  0  0  0  0  0  0
   29.1939   -5.9788   20.1421 O   0  0  0  0  0  0  0  0  0  0  0  0
   27.0156   -6.0077   19.0960 C   0  0  2  0  0  0  0  0  0  0  0  0
   25.8912   -3.8902   14.5417 N   0  0  0  0  0  0  0  0  0  0  0  0
   27.0048   -4.5977   14.9246 C   0  0  1  0  0  0  0  0  0  0  0  0
   27.9330   -4.7619   13.9809 N   0  0  0  0  0  0  0  0  0  0  0  0
   27.1951   -5.1018   16.1405 N   0  0  0  0  0  0  0  0  0  0  0  0
   26.1554   -4.8301   16.9822 C   0  0  1  0  0  0  0  0  0  0  0  0
   24.9976   -4.1301   16.6920 C   0  0  1  0  0  0  0  0  0  0  0  0
   24.8133   -3.6094   15.3809 C   0  0  0  0  0  0  0  0  0  0  0  0
   23.8550   -2.9660   14.9343 O   0  0  0  0  0  0  0  0  0  0  0  0
   24.1682   -4.0762   17.8048 N   0  0  0  0  0  0  0  0  0  0  0  0
   24.8235   -4.7217   18.7300 C   0  0  0  0  0  0  0  0  0  0  0  0
   26.0445   -5.2067   18.3154 N   0  0  1  0  0  0  0  0  0  0  0  0
  2  1  1  0  0  0  0
  3  1  1  6  0  0  0
  3  4  1  0  0  0  0
  3  5  1  0  0  0  0
  5  6  1  1  0  0  0
  5  7  1  0  0  0  0
  7  8  1  1  0  0  0
  7  9  1  0  0  0  0
  9  4  1  1  0  0  0
  9 20  1  0  0  0  0
 10 11  1  0  0  0  0
 11 12  1  1  0  0  0
 11 13  1  0  0  0  0
 14 13  1  6  0  0  0
 15 14  1  0  0  0  0
 15 16  1  6  0  0  0
 16 10  1  0  0  0  0
 16 17  2  0  0  0  0
 18 15  1  0  0  0  0
 19 18  1  0  0  0  0
 20 14  1  0  0  0  0
 20 19  1  6  0  0  0
M  END
>  <CHROM.1>
-158.22185191,-137.59423256,26.27371908,-5.08359126,18.46612262,1.42638341
-0.26233588,1.81095354

>  <Name>
1nyi_lig

>  <RI>
0

>  <Rbt.Current_Directory>
/home/itssahil/PROJECTS/Mol_Feturizer/New_Systems/rnas/1nyi

>  <Rbt.Executable>
rbdock ($Id: //depot/dev/client3/rdock/2013.1/src/exe/rbdock.cxx#4 $)

>  <Rbt.Library>
libRbt.so (2013.1, Build901 2013/11/27)

>  <Rbt.Parameter_File>
/export/apps/rDock/src/rDock_2013.1_src/data/scripts/dock_solv.prm

>  <Rbt.Receptor>
prm/blind_docking_80.prm

>  <SCORE>
-10.191

>  <SCORE.INTER>
-10.0771

>  <SCORE.INTER.CONST>
1

>  <SCORE.INTER.POLAR>
-1.28051

>  <SCORE.INTER.ROT>
2

>  <SCORE.INTER.SOLV>
8.92058

>  <SCORE.INTER.VDW>
-10.3566

>  <SCORE.INTER.norm>
-0.503856

>  <SCORE.INTRA>
-0.849377

>  <SCORE.INTRA.DIHEDRAL>
-0.88744

>  <SCORE.INTRA.DIHEDRAL.0>
3.72394

>  <SCORE.INTRA.POLAR>
0

>  <SCORE.INTRA.POLAR.0>
0

>  <SCORE.INTRA.REPUL>
0

>  <SCORE.INTRA.REPUL.0>
0

>  <SCORE.INTRA.SOLV>
-0.523394

>  <SCORE.INTRA.SOLV.lig_0>
-49.4697

>  <SCORE.INTRA.VDW>
-0.143961

>  <SCORE.INTRA.VDW.0>
-0.896538

>  <SCORE.INTRA.norm>
-0.0424689

>  <SCORE.RESTR>
0.735442

>  <SCORE.RESTR.CAVITY>
0.735442

>  <SCORE.RESTR.norm>
0.0367721

>  <SCORE.SYSTEM>
0

>  <SCORE.SYSTEM.CONST>
0

>  <SCORE.SYSTEM.DIHEDRAL>
0

>  <SCORE.SYSTEM.SOLV>
0

>  <SCORE.SYSTEM.norm>
0

>  <SCORE.heavy>
20

>  <SCORE.norm>
-0.509552

>  <RMSD>
25.661

$$$$
1nyi_lig
 OpenBabel11021811403D
libRbt.so/2013.1/901 2013/11/27
 20 22  0  0  0  0  0  0  0  0999 V2000
   25.1493   -6.5142   21.9940 C   0  0  0  0  0  0  0  0  0  0  0  0
   24.5185   -7.7938   21.9433 O   0  0  0  0  0  0  0  0  0  0  0  0
   26.5095   -6.5568   21.3336 C   0  0  1  0  0  0  0  0  0  0  0  0
   26.3455   -6.9405   19.9415 O   0  0  0  0  0  0  0  0  0  0  0  0
   27.1919   -5.1935   21.3120 C   0  0  1  0  0  0  0  0  0  0  0  0
   28.0016   -4.9942   22.4717 O   0  0  0  0  0  0  0  0  0  0  0  0
   27.9909   -5.2525   20.0117 C   0  0  1  0  0  0  0  0  0  0  0  0
   29.1989   -5.9886   20.1321 O   0  0  0  0  0  0  0  0  0  0  0  0
   27.0095   -5.9971   19.1092 C   0  0  2  0  0  0  0  0  0  0  0  0
   25.8919   -3.8824   14.5520 N   0  0  0  0  0  0  0  0  0  0  0  0
   27.0012   -4.5967   14.9346 C   0  0  1  0  0  0  0  0  0  0  0  0
   27.9265   -4.7696   13.9896 N   0  0  0  0  0  0  0  0  0  0  0  0
   27.1901   -5.0994   16.1513 N   0  0  0  0  0  0  0  0  0  0  0  0
   26.1538   -4.8185   16.9942 C   0  0  1  0  0  0  0  0  0  0  0  0
   25.0004   -4.1111   16.7044 C   0  0  1  0  0  0  0  0  0  0  0  0
   24.8174   -3.5922   15.3923 C   0  0  0  0  0  0  0  0  0  0  0  0
   23.8628   -2.9432   14.9459 O   0  0  0  0  0  0  0  0  0  0  0  0
   24.1734   -4.0489   17.8185 N   0  0  0  0  0  0  0  0  0  0  0  0
   24.8257   -4.6968   18.7440 C   0  0  0  0  0  0  0  0  0  0  0  0
   26.0427   -5.1911   18.3284 N   0  0  1  0  0  0  0  0  0  0  0  0
  2  1  1  0  0  0  0
  3  1  1  6  0  0  0
  3  4  1  0  0  0  0
  3  5  1  0  0  0  0
  5  6  1  1  0  0  0
  5  7  1  0  0  0  0
  7  8  1  1  0  0  0
  7  9  1  0  0  0  0
  9  4  1  1  0  0  0
  9 20  1  0  0  0  0
 10 11  1  0  0  0  0
 11 12  1  1  0  0  0
 11 13  1  0  0  0  0
 14 13  1  6  0  0  0
 15 14  1  0  0  0  0
 15 16  1  6  0  0  0
 16 10  1  0  0  0  0
 16 17  2  0  0  0  0
 18 15  1  0  0  0  0
 19 18  1  0  0  0  0
 20 14  1  0  0  0  0
 20 19  1  6  0  0  0
M  END
>  <CHROM.1>
60.43134279,-138.51729049,26.24398751,-5.17913675,18.40913833,1.43463580
-0.10641303,1.89903611

>  <Name>
1nyi_lig

>  <RI>
0

>  <Rbt.Current_Directory>
/home/itssahil/PROJECTS/Mol_Feturizer/New_Systems/rnas/1nyi

>  <Rbt.Executable>
rbdock ($Id: //depot/dev/client3/rdock/2013.1/src/exe/rbdock.cxx#4 $)

>  <Rbt.Library>
libRbt.so (2013.1, Build901 2013/11/27)

>  <Rbt.Parameter_File>
/export/apps/rDock/src/rDock_2013.1_src/data/scripts/dock_solv.prm

>  <Rbt.Receptor>
prm/blind_docking_80.prm

>  <SCORE>
-6.12287

>  <SCORE.INTER>
-4.77365

>  <SCORE.INTER.CONST>
1

>  <SCORE.INTER.POLAR>
-0.208723

>  <SCORE.INTER.ROT>
2

>  <SCORE.INTER.SOLV>
9.26239

>  <SCORE.INTER.VDW>
-10.5075

>  <SCORE.INTER.norm>
-0.238682

>  <SCORE.INTRA>
-2.07537

>  <SCORE.INTRA.DIHEDRAL>
-2.42673

>  <SCORE.INTRA.DIHEDRAL.0>
3.72394

>  <SCORE.INTRA.POLAR>
0

>  <SCORE.INTRA.POLAR.0>
0

>  <SCORE.INTRA.REPUL>
0

>  <SCORE.INTRA.REPUL.0>
0

>  <SCORE.INTRA.SOLV>
-0.849634

>  <SCORE.INTRA.SOLV.lig_0>
-49.4697

>  <SCORE.INTRA.VDW>
-0.437192

>  <SCORE.INTRA.VDW.0>
-0.896538

>  <SCORE.INTRA.norm>
-0.103769

>  <SCORE.RESTR>
0.726149

>  <SCORE.RESTR.CAVITY>
0.726149

>  <SCORE.RESTR.norm>
0.0363075

>  <SCORE.SYSTEM>
0

>  <SCORE.SYSTEM.CONST>
0

>  <SCORE.SYSTEM.DIHEDRAL>
0

>  <SCORE.SYSTEM.SOLV>
0

>  <SCORE.SYSTEM.norm>
0

>  <SCORE.heavy>
20

>  <SCORE.norm>
-0.306144

>  <RMSD>
25.720

$$$$
1nyi_lig
 OpenBabel11021811403D
libRbt.so/2013.1/901 2013/11/27
 20 22  0  0  0  0  0  0  0  0999 V2000
   23.7064   -2.2013   16.5278 C   0  0  0  0  0  0  0  0  0  0  0  0
   23.3281   -2.8028   17.7660 O   0  0  0  0  0  0  0  0  0  0  0  0
   24.9079   -2.9018   15.9327 C   0  0  1  0  0  0  0  0  0  0  0  0
   25.7497   -3.3917   17.0114 O   0  0  0  0  0  0  0  0  0  0  0  0
   24.5231   -4.1294   15.1146 C   0  0  1  0  0  0  0  0  0  0  0  0
   24.3084   -3.7984   13.7418 O   0  0  0  0  0  0  0  0  0  0  0  0
   25.7164   -5.0555   15.3405 C   0  0  1  0  0  0  0  0  0  0  0  0
   26.8394   -4.7243   14.5374 O   0  0  0  0  0  0  0  0  0  0  0  0
   26.0201   -4.7737   16.8103 C   0  0  2  0  0  0  0  0  0  0  0  0
   25.5507   -5.8951   21.8114 N   0  0  0  0  0  0  0  0  0  0  0  0
   26.3866   -4.9977   21.1925 C   0  0  1  0  0  0  0  0  0  0  0  0
   27.1969   -4.3152   22.0029 N   0  0  0  0  0  0  0  0  0  0  0  0
   26.4273   -4.7887   19.8798 N   0  0  0  0  0  0  0  0  0  0  0  0
   25.5438   -5.5783   19.2021 C   0  0  1  0  0  0  0  0  0  0  0  0
   24.6653   -6.5065   19.7325 C   0  0  1  0  0  0  0  0  0  0  0  0
   24.6338   -6.7044   21.1410 C   0  0  0  0  0  0  0  0  0  0  0  0
   23.9234   -7.4782   21.7954 O   0  0  0  0  0  0  0  0  0  0  0  0
   23.9162   -7.1005   18.7249 N   0  0  0  0  0  0  0  0  0  0  0  0
   24.3473   -6.5421   17.6274 C   0  0  0  0  0  0  0  0  0  0  0  0
   25.3420   -5.6102   17.8274 N   0  0  1  0  0  0  0  0  0  0  0  0
  2  1  1  0  0  0  0
  3  1  1  1  0  0  0
  3  4  1  0  0  0  0
  3  5  1  0  0  0  0
  5  6  1  6  0  0  0
  5  7  1  0  0  0  0
  7  8  1  6  0  0  0
  7  9  1  0  0  0  0
  9  4  1  1  0  0  0
  9 20  1  0  0  0  0
 10 11  1  0  0  0  0
 11 12  1  6  0  0  0
 11 13  1  0  0  0  0
 14 13  1  1  0  0  0
 15 14  1  0  0  0  0
 15 16  1  1  0  0  0
 16 10  1  0  0  0  0
 16 17  2  0  0  0  0
 18 15  1  0  0  0  0
 19 18  1  0  0  0  0
 20 14  1  0  0  0  0
 20 19  1  1  0  0  0
M  END
>  <CHROM.1>
-32.20139122,-61.70113137,25.13777313,-4.93658092,18.13576507,-1.68411581
1.08075660,2.03863844

>  <Name>
1nyi_lig

>  <RI>
0

>  <Rbt.Current_Directory>
/home/itssahil/PROJECTS/Mol_Feturizer/New_Systems/rnas/1nyi

>  <Rbt.Executable>
rbdock ($Id: //depot/dev/client3/rdock/2013.1/src/exe/rbdock.cxx#4 $)

>  <Rbt.Library>
libRbt.so (2013.1, Build901 2013/11/27)

>  <Rbt.Parameter_File>
/export/apps/rDock/src/rDock_2013.1_src/data/scripts/dock_solv.prm

>  <Rbt.Receptor>
prm/blind_docking_100.prm

>  <SCORE>
2.05776

>  <SCORE.INTER>
-5.10432

>  <SCORE.INTER.CONST>
1

>  <SCORE.INTER.POLAR>
-1.44682

>  <SCORE.INTER.ROT>
2

>  <SCORE.INTER.SOLV>
17.367

>  <SCORE.INTER.VDW>
-9.30248

>  <SCORE.INTER.norm>
-0.255216

>  <SCORE.INTRA>
-0.395423

>  <SCORE.INTRA.DIHEDRAL>
-0.180704

>  <SCORE.INTRA.DIHEDRAL.0>
3.72394

>  <SCORE.INTRA.POLAR>
0

>  <SCORE.INTRA.POLAR.0>
0

>  <SCORE.INTRA.REPUL>
0.00269836

>  <SCORE.INTRA.REPUL.0>
0

>  <SCORE.INTRA.SOLV>
0.0927011

>  <SCORE.INTRA.SOLV.lig_0>
-49.4697

>  <SCORE.INTRA.VDW>
-0.364914

>  <SCORE.INTRA.VDW.0>
-0.896538

>  <SCORE.INTRA.norm>
-0.0197712

>  <SCORE.RESTR>
7.5575

>  <SCORE.RESTR.CAVITY>
7.5575

>  <SCORE.RESTR.norm>
0.377875

>  <SCORE.SYSTEM>
0

>  <SCORE.SYSTEM.CONST>
0

>  <SCORE.SYSTEM.DIHEDRAL>
0

>  <SCORE.SYSTEM.SOLV>
0

>  <SCORE.SYSTEM.norm>
0

>  <SCORE.heavy>
20

>  <SCORE.norm>
0.102888

>  <RMSD>
25.730

$$$$
1nyi_lig
 OpenBabel11021811403D
libRbt.so/2013.1/901 2013/11/27
 20 22  0  0  0  0  0  0  0  0999 V2000
   27.0204   -5.4027   22.4027 C   0  0  0  0  0  0  0  0  0  0  0  0
   26.8187   -6.0501   23.6589 O   0  0  0  0  0  0  0  0  0  0  0  0
   25.7085   -5.2244   21.6710 C   0  0  1  0  0  0  0  0  0  0  0  0
   25.8978   -4.2716   20.5899 O   0  0  0  0  0  0  0  0  0  0  0  0
   25.2271   -6.5120   21.0116 C   0  0  1  0  0  0  0  0  0  0  0  0
   24.3873   -7.2667   21.8864 O   0  0  0  0  0  0  0  0  0  0  0  0
   24.5049   -5.9896   19.7713 C   0  0  1  0  0  0  0  0  0  0  0  0
   23.2005   -5.5029   20.0489 O   0  0  0  0  0  0  0  0  0  0  0  0
   25.4228   -4.8358   19.3734 C   0  0  2  0  0  0  0  0  0  0  0  0
   27.0564   -4.7769   14.4932 N   0  0  0  0  0  0  0  0  0  0  0  0
   25.8332   -4.4234   15.0088 C   0  0  1  0  0  0  0  0  0  0  0  0
   24.9345   -4.0030   14.1174 N   0  0  0  0  0  0  0  0  0  0  0  0
   25.5148   -4.4814   16.2988 N   0  0  0  0  0  0  0  0  0  0  0  0
   26.5444   -4.9447   17.0659 C   0  0  1  0  0  0  0  0  0  0  0  0
   27.8060   -5.3238   16.6424 C   0  0  1  0  0  0  0  0  0  0  0  0
   28.1254   -5.2428   15.2583 C   0  0  0  0  0  0  0  0  0  0  0  0
   29.1885   -5.5310   14.6940 O   0  0  0  0  0  0  0  0  0  0  0  0
   28.5830   -5.7244   17.7217 N   0  0  0  0  0  0  0  0  0  0  0  0
   27.7973   -5.5920   18.7546 C   0  0  0  0  0  0  0  0  0  0  0  0
   26.5373   -5.1301   18.4432 N   0  0  1  0  0  0  0  0  0  0  0  0
  2  1  1  0  0  0  0
  3  1  1  6  0  0  0
  3  4  1  0  0  0  0
  3  5  1  0  0  0  0
  5  6  1  1  0  0  0
  5  7  1  0  0  0  0
  7  8  1  1  0  0  0
  7  9  1  0  0  0  0
  9  4  1  1  0  0  0
  9 20  1  0  0  0  0
 10 11  1  0  0  0  0
 11 12  1  6  0  0  0
 11 13  1  0  0  0  0
 14 13  1  1  0  0  0
 15 14  1  0  0  0  0
 15 16  1  1  0  0  0
 16 10  1  0  0  0  0
 16 17  2  0  0  0  0
 18 15  1  0  0  0  0
 19 18  1  0  0  0  0
 20 14  1  0  0  0  0
 20 19  1  1  0  0  0
M  END
>  <CHROM.1>
165.24735348,-140.41200467,26.28911492,-5.32635618,18.52484734,-1.80169352
0.09904147,-1.39483802

>  <Name>
1nyi_lig

>  <RI>
0

>  <Rbt.Current_Directory>
/home/itssahil/PROJECTS/Mol_Feturizer/New_Systems/rnas/1nyi

>  <Rbt.Executable>
rbdock ($Id: //depot/dev/client3/rdock/2013.1/src/exe/rbdock.cxx#4 $)

>  <Rbt.Library>
libRbt.so (2013.1, Build901 2013/11/27)

>  <Rbt.Parameter_File>
/export/apps/rDock/src/rDock_2013.1_src/data/scripts/dock_solv.prm

>  <Rbt.Receptor>
prm/blind_docking_80.prm

>  <SCORE>
-11.6873

>  <SCORE.INTER>
-12.5227

>  <SCORE.INTER.CONST>
1

>  <SCORE.INTER.POLAR>
-1.61414

>  <SCORE.INTER.ROT>
2

>  <SCORE.INTER.SOLV>
9.73253

>  <SCORE.INTER.VDW>
-11.1455

>  <SCORE.INTER.norm>
-0.626137

>  <SCORE.INTRA>
-1.66927

>  <SCORE.INTRA.DIHEDRAL>
-1.6936

>  <SCORE.INTRA.DIHEDRAL.0>
3.72394

>  <SCORE.INTRA.POLAR>
0

>  <SCORE.INTRA.POLAR.0>
0

>  <SCORE.INTRA.REPUL>
0

>  <SCORE.INTRA.REPUL.0>
0

>  <SCORE.INTRA.SOLV>
-0.714612

>  <SCORE.INTRA.SOLV.lig_0>
-49.4697

>  <SCORE.INTRA.VDW>
-0.465163

>  <SCORE.INTRA.VDW.0>
-0.896538

>  <SCORE.INTRA.norm>
-0.0834634

>  <SCORE.RESTR>
2.50467

>  <SCORE.RESTR.CAVITY>
2.50467

>  <SCORE.RESTR.norm>
0.125233

>  <SCORE.SYSTEM>
0

>  <SCORE.SYSTEM.CONST>
0

>  <SCORE.SYSTEM.DIHEDRAL>
0

>  <SCORE.SYSTEM.SOLV>
0

>  <SCORE.SYSTEM.norm>
0

>  <SCORE.heavy>
20

>  <SCORE.norm>
-0.584367

>  <RMSD>
25.771

$$$$
1nyi_lig
 OpenBabel11021811403D
libRbt.so/2013.1/901 2013/11/27
 20 22  0  0  0  0  0  0  0  0999 V2000
   27.0651   -5.4990   22.4220 C   0  0  0  0  0  0  0  0  0  0  0  0
   27.7018   -4.2213   22.4428 O   0  0  0  0  0  0  0  0  0  0  0  0
   25.7322   -5.4259   21.7105 C   0  0  1  0  0  0  0  0  0  0  0  0
   25.8252   -4.4534   20.6345 O   0  0  0  0  0  0  0  0  0  0  0  0
   25.3503   -6.7448   21.0477 C   0  0  1  0  0  0  0  0  0  0  0  0
   24.5894   -7.5730   21.9283 O   0  0  0  0  0  0  0  0  0  0  0  0
   24.5687   -6.2762   19.8221 C   0  0  1  0  0  0  0  0  0  0  0  0
   23.2324   -5.9021   20.1220 O   0  0  0  0  0  0  0  0  0  0  0  0
   25.3810   -5.0470   19.4204 C   0  0  2  0  0  0  0  0  0  0  0  0
   26.9708   -4.6905   14.5384 N   0  0  0  0  0  0  0  0  0  0  0  0
   25.7345   -4.4256   15.0756 C   0  0  1  0  0  0  0  0  0  0  0  0
   24.8076   -4.0160   14.2083 N   0  0  0  0  0  0  0  0  0  0  0  0
   25.4298   -4.5562   16.3636 N   0  0  0  0  0  0  0  0  0  0  0  0
   26.4887   -4.9961   17.1041 C   0  0  1  0  0  0  0  0  0  0  0  0
   27.7653   -5.2884   16.6576 C   0  0  1  0  0  0  0  0  0  0  0  0
   28.0690   -5.1309   15.2766 C   0  0  0  0  0  0  0  0  0  0  0  0
   29.1415   -5.3370   14.6944 O   0  0  0  0  0  0  0  0  0  0  0  0
   28.5711   -5.6928   17.7141 N   0  0  0  0  0  0  0  0  0  0  0  0
   27.7875   -5.6474   18.7562 C   0  0  0  0  0  0  0  0  0  0  0  0
   26.5023   -5.2407   18.4722 N   0  0  1  0  0  0  0  0  0  0  0  0
  2  1  1  0  0  0  0
  3  1  1  6  0  0  0
  3  4  1  0  0  0  0
  3  5  1  0  0  0  0
  5  6  1  1  0  0  0
  5  7  1  0  0  0  0
  7  8  1  1  0  0  0
  7  9  1  0  0  0  0
  9  4  1  1  0  0  0
  9 20  1  0  0  0  0
 10 11  1  0  0  0  0
 11 12  1  6  0  0  0
 11 13  1  0  0  0  0
 14 13  1  1  0  0  0
 15 14  1  0  0  0  0
 15 16  1  1  0  0  0
 16 10  1  0  0  0  0
 16 17  2  0  0  0  0
 18 15  1  0  0  0  0
 19 18  1  0  0  0  0
 20 14  1  0  0  0  0
 20 19  1  1  0  0  0
M  END
>  <CHROM.1>
34.05487266,-137.69325446,26.32684474,-5.31253916,18.49123419,-1.79121814
-0.08855593,-1.43624235

>  <Name>
1nyi_lig

>  <RI>
0

>  <Rbt.Current_Directory>
/home/itssahil/PROJECTS/Mol_Feturizer/New_Systems/rnas/1nyi

>  <Rbt.Executable>
rbdock ($Id: //depot/dev/client3/rdock/2013.1/src/exe/rbdock.cxx#4 $)

>  <Rbt.Library>
libRbt.so (2013.1, Build901 2013/11/27)

>  <Rbt.Parameter_File>
/export/apps/rDock/src/rDock_2013.1_src/data/scripts/dock_solv.prm

>  <Rbt.Receptor>
prm/blind_docking_80.prm

>  <SCORE>
-11.9973

>  <SCORE.INTER>
-13.7512

>  <SCORE.INTER.CONST>
1

>  <SCORE.INTER.POLAR>
-1.71431

>  <SCORE.INTER.ROT>
2

>  <SCORE.INTER.SOLV>
10.1288

>  <SCORE.INTER.VDW>
-11.7627

>  <SCORE.INTER.norm>
-0.687558

>  <SCORE.INTRA>
-0.811356

>  <SCORE.INTRA.DIHEDRAL>
-0.381009

>  <SCORE.INTRA.DIHEDRAL.0>
3.72394

>  <SCORE.INTRA.POLAR>
0

>  <SCORE.INTRA.POLAR.0>
0

>  <SCORE.INTRA.REPUL>
0

>  <SCORE.INTRA.REPUL.0>
0

>  <SCORE.INTRA.SOLV>
-0.660231

>  <SCORE.INTRA.SOLV.lig_0>
-49.4697

>  <SCORE.INTRA.VDW>
-0.290736

>  <SCORE.INTRA.VDW.0>
-0.896538

>  <SCORE.INTRA.norm>
-0.0405678

>  <SCORE.RESTR>
2.56521

>  <SCORE.RESTR.CAVITY>
2.56521

>  <SCORE.RESTR.norm>
0.12826

>  <SCORE.SYSTEM>
0

>  <SCORE.SYSTEM.CONST>
0

>  <SCORE.SYSTEM.DIHEDRAL>
0

>  <SCORE.SYSTEM.SOLV>
0

>  <SCORE.SYSTEM.norm>
0

>  <SCORE.heavy>
20

>  <SCORE.norm>
-0.599865

>  <RMSD>
25.779

$$$$
1nyi_lig
 OpenBabel11021811403D
libRbt.so/2013.1/901 2013/11/27
 20 22  0  0  0  0  0  0  0  0999 V2000
   27.0353   -5.5183   22.4053 C   0  0  0  0  0  0  0  0  0  0  0  0
   27.6671   -4.2390   22.4536 O   0  0  0  0  0  0  0  0  0  0  0  0
   25.7078   -5.4374   21.6847 C   0  0  1  0  0  0  0  0  0  0  0  0
   25.8119   -4.4606   20.6137 O   0  0  0  0  0  0  0  0  0  0  0  0
   25.3258   -6.7520   21.0136 C   0  0  1  0  0  0  0  0  0  0  0  0
   24.5558   -7.5812   21.8851 O   0  0  0  0  0  0  0  0  0  0  0  0
   24.5546   -6.2753   19.7845 C   0  0  1  0  0  0  0  0  0  0  0  0
   23.2176   -5.8977   20.0765 O   0  0  0  0  0  0  0  0  0  0  0  0
   25.3741   -5.0473   19.3939 C   0  0  2  0  0  0  0  0  0  0  0  0
   27.0094   -4.6461   14.5304 N   0  0  0  0  0  0  0  0  0  0  0  0
   25.7714   -4.3749   15.0605 C   0  0  1  0  0  0  0  0  0  0  0  0
   24.8564   -3.9444   14.1907 N   0  0  0  0  0  0  0  0  0  0  0  0
   25.4543   -4.5184   16.3441 N   0  0  0  0  0  0  0  0  0  0  0  0
   26.5021   -4.9790   17.0879 C   0  0  1  0  0  0  0  0  0  0  0  0
   27.7794   -5.2792   16.6484 C   0  0  1  0  0  0  0  0  0  0  0  0
   28.0966   -5.1074   15.2722 C   0  0  0  0  0  0  0  0  0  0  0  0
   29.1718   -5.3176   14.6965 O   0  0  0  0  0  0  0  0  0  0  0  0
   28.5717   -5.7055   17.7065 N   0  0  0  0  0  0  0  0  0  0  0  0
   27.7798   -5.6649   18.7424 C   0  0  0  0  0  0  0  0  0  0  0  0
   26.5014   -5.2410   18.4527 N   0  0  1  0  0  0  0  0  0  0  0  0
  2  1  1  0  0  0  0
  3  1  1  6  0  0  0
  3  4  1  0  0  0  0
  3  5  1  0  0  0  0
  5  6  1  1  0  0  0
  5  7  1  0  0  0  0
  7  8  1  1  0  0  0
  7  9  1  0  0  0  0
  9  4  1  1  0  0  0
  9 20  1  0  0  0  0
 10 11  1  0  0  0  0
 11 12  1  6  0  0  0
 11 13  1  0  0  0  0
 14 13  1  1  0  0  0
 15 14  1  0  0  0  0
 15 16  1  1  0  0  0
 16 10  1  0  0  0  0
 16 17  2  0  0  0  0
 18 15  1  0  0  0  0
 19 18  1  0  0  0  0
 20 14  1  0  0  0  0
 20 19  1  1  0  0  0
M  END
>  <CHROM.1>
34.92133851,-137.06121971,26.32768231,-5.30414768,18.47282982,-1.80002318
-0.08201473,-1.42806342

>  <Name>
1nyi_lig

>  <RI>
0

>  <Rbt.Current_Directory>
/home/itssahil/PROJECTS/Mol_Feturizer/New_Systems/rnas/1nyi

>  <Rbt.Executable>
rbdock ($Id: //depot/dev/client3/rdock/2013.1/src/exe/rbdock.cxx#4 $)

>  <Rbt.Library>
libRbt.so (2013.1, Build901 2013/11/27)

>  <Rbt.Parameter_File>
/export/apps/rDock/src/rDock_2013.1_src/data/scripts/dock_solv.prm

>  <Rbt.Receptor>
prm/blind_docking_80.prm

>  <SCORE>
-11.785

>  <SCORE.INTER>
-13.4038

>  <SCORE.INTER.CONST>
1

>  <SCORE.INTER.POLAR>
-1.69127

>  <SCORE.INTER.ROT>
2

>  <SCORE.INTER.SOLV>
10.1907

>  <SCORE.INTER.VDW>
-11.6285

>  <SCORE.INTER.norm>
-0.670188

>  <SCORE.INTRA>
-0.885062

>  <SCORE.INTRA.DIHEDRAL>
-0.497927

>  <SCORE.INTRA.DIHEDRAL.0>
3.72394

>  <SCORE.INTRA.POLAR>
0

>  <SCORE.INTRA.POLAR.0>
0

>  <SCORE.INTRA.REPUL>
0

>  <SCORE.INTRA.REPUL.0>
0

>  <SCORE.INTRA.SOLV>
-0.671344

>  <SCORE.INTRA.SOLV.lig_0>
-49.4697

>  <SCORE.INTRA.VDW>
-0.300426

>  <SCORE.INTRA.VDW.0>
-0.896538

>  <SCORE.INTRA.norm>
-0.0442531

>  <SCORE.RESTR>
2.50378

>  <SCORE.RESTR.CAVITY>
2.50378

>  <SCORE.RESTR.norm>
0.125189

>  <SCORE.SYSTEM>
0

>  <SCORE.SYSTEM.CONST>
0

>  <SCORE.SYSTEM.DIHEDRAL>
0

>  <SCORE.SYSTEM.SOLV>
0

>  <SCORE.SYSTEM.norm>
0

>  <SCORE.heavy>
20

>  <SCORE.norm>
-0.589252

>  <RMSD>
25.800

$$$$
1nyi_lig
 OpenBabel11021811403D
libRbt.so/2013.1/901 2013/11/27
 20 22  0  0  0  0  0  0  0  0999 V2000
   27.0349   -5.4064   22.3757 C   0  0  0  0  0  0  0  0  0  0  0  0
   26.8335   -6.0896   23.6129 O   0  0  0  0  0  0  0  0  0  0  0  0
   25.7249   -5.2213   21.6423 C   0  0  1  0  0  0  0  0  0  0  0  0
   25.9201   -4.2685   20.5624 O   0  0  0  0  0  0  0  0  0  0  0  0
   25.2384   -6.5060   20.9811 C   0  0  1  0  0  0  0  0  0  0  0  0
   24.3938   -7.2576   21.8540 O   0  0  0  0  0  0  0  0  0  0  0  0
   24.5204   -5.9792   19.7403 C   0  0  1  0  0  0  0  0  0  0  0  0
   23.2178   -5.4866   20.0164 O   0  0  0  0  0  0  0  0  0  0  0  0
   25.4442   -4.8293   19.3447 C   0  0  2  0  0  0  0  0  0  0  0  0
   27.0844   -4.7751   14.4667 N   0  0  0  0  0  0  0  0  0  0  0  0
   25.8621   -4.4165   14.9809 C   0  0  1  0  0  0  0  0  0  0  0  0
   24.9663   -3.9917   14.0885 N   0  0  0  0  0  0  0  0  0  0  0  0
   25.5417   -4.4738   16.2704 N   0  0  0  0  0  0  0  0  0  0  0  0
   26.5683   -4.9419   17.0386 C   0  0  1  0  0  0  0  0  0  0  0  0
   27.8288   -5.3263   16.6165 C   0  0  1  0  0  0  0  0  0  0  0  0
   28.1503   -5.2460   15.2329 C   0  0  0  0  0  0  0  0  0  0  0  0
   29.2129   -5.5385   14.6698 O   0  0  0  0  0  0  0  0  0  0  0  0
   28.6027   -5.7308   17.6966 N   0  0  0  0  0  0  0  0  0  0  0  0
   27.8162   -5.5955   18.7286 C   0  0  0  0  0  0  0  0  0  0  0  0
   26.5586   -5.1280   18.4158 N   0  0  1  0  0  0  0  0  0  0  0  0
  2  1  1  0  0  0  0
  3  1  1  6  0  0  0
  3  4  1  0  0  0  0
  3  5  1  0  0  0  0
  5  6  1  1  0  0  0
  5  7  1  0  0  0  0
  7  8  1  1  0  0  0
  7  9  1  0  0  0  0
  9  4  1  1  0  0  0
  9 20  1  0  0  0  0
 10 11  1  0  0  0  0
 11 12  1  6  0  0  0
 11 13  1  0  0  0  0
 14 13  1  1  0  0  0
 15 14  1  0  0  0  0
 15 16  1  1  0  0  0
 16 10  1  0  0  0  0
 16 17  2  0  0  0  0
 18 15  1  0  0  0  0
 19 18  1  0  0  0  0
 20 14  1  0  0  0  0
 20 19  1  1  0  0  0
M  END
>  <CHROM.1>
166.97487202,-140.44231462,26.30955451,-5.32554884,18.49581722,-1.80395857
0.10503473,-1.39219841

>  <Name>
1nyi_lig

>  <RI>
0

>  <Rbt.Current_Directory>
/home/itssahil/PROJECTS/Mol_Feturizer/New_Systems/rnas/1nyi

>  <Rbt.Executable>
rbdock ($Id: //depot/dev/client3/rdock/2013.1/src/exe/rbdock.cxx#4 $)

>  <Rbt.Library>
libRbt.so (2013.1, Build901 2013/11/27)

>  <Rbt.Parameter_File>
/export/apps/rDock/src/rDock_2013.1_src/data/scripts/dock_solv.prm

>  <Rbt.Receptor>
prm/blind_docking_80.prm

>  <SCORE>
-11.6776

>  <SCORE.INTER>
-12.4475

>  <SCORE.INTER.CONST>
1

>  <SCORE.INTER.POLAR>
-1.64057

>  <SCORE.INTER.ROT>
2

>  <SCORE.INTER.SOLV>
9.65528

>  <SCORE.INTER.VDW>
-10.9815

>  <SCORE.INTER.norm>
-0.622375

>  <SCORE.INTRA>
-1.74011

>  <SCORE.INTRA.DIHEDRAL>
-1.8497

>  <SCORE.INTRA.DIHEDRAL.0>
3.72394

>  <SCORE.INTRA.POLAR>
0

>  <SCORE.INTRA.POLAR.0>
0

>  <SCORE.INTRA.REPUL>
0

>  <SCORE.INTRA.REPUL.0>
0

>  <SCORE.INTRA.SOLV>
-0.705892

>  <SCORE.INTRA.SOLV.lig_0>
-49.4697

>  <SCORE.INTRA.VDW>
-0.462316

>  <SCORE.INTRA.VDW.0>
-0.896538

>  <SCORE.INTRA.norm>
-0.0870056

>  <SCORE.RESTR>
2.51

>  <SCORE.RESTR.CAVITY>
2.51

>  <SCORE.RESTR.norm>
0.1255

>  <SCORE.SYSTEM>
0

>  <SCORE.SYSTEM.CONST>
0

>  <SCORE.SYSTEM.DIHEDRAL>
0

>  <SCORE.SYSTEM.SOLV>
0

>  <SCORE.SYSTEM.norm>
0

>  <SCORE.heavy>
20

>  <SCORE.norm>
-0.583881

>  <RMSD>
25.800

$$$$
1nyi_lig
 OpenBabel11021811403D
libRbt.so/2013.1/901 2013/11/27
 20 22  0  0  0  0  0  0  0  0999 V2000
   27.0344   -5.4038   22.3752 C   0  0  0  0  0  0  0  0  0  0  0  0
   26.8358   -6.0809   23.6162 O   0  0  0  0  0  0  0  0  0  0  0  0
   25.7241   -5.2308   21.6394 C   0  0  1  0  0  0  0  0  0  0  0  0
   25.9144   -4.2820   20.5551 O   0  0  0  0  0  0  0  0  0  0  0  0
   25.2468   -6.5219   20.9839 C   0  0  1  0  0  0  0  0  0  0  0  0
   24.4061   -7.2748   21.8595 O   0  0  0  0  0  0  0  0  0  0  0  0
   24.5269   -6.0058   19.7396 C   0  0  1  0  0  0  0  0  0  0  0  0
   23.2208   -5.5205   20.0118 O   0  0  0  0  0  0  0  0  0  0  0  0
   25.4436   -4.8518   19.3396 C   0  0  2  0  0  0  0  0  0  0  0  0
   27.0879   -4.8144   14.4627 N   0  0  0  0  0  0  0  0  0  0  0  0
   25.8624   -4.4620   14.9737 C   0  0  1  0  0  0  0  0  0  0  0  0
   24.9644   -4.0492   14.0780 N   0  0  0  0  0  0  0  0  0  0  0  0
   25.5414   -4.5140   16.2632 N   0  0  0  0  0  0  0  0  0  0  0  0
   26.5707   -4.9698   17.0352 C   0  0  1  0  0  0  0  0  0  0  0  0
   27.8345   -5.3472   16.6165 C   0  0  1  0  0  0  0  0  0  0  0  0
   28.1566   -5.2728   15.2327 C   0  0  0  0  0  0  0  0  0  0  0  0
   29.2219   -5.5606   14.6723 O   0  0  0  0  0  0  0  0  0  0  0  0
   28.6103   -5.7395   17.6997 N   0  0  0  0  0  0  0  0  0  0  0  0
   27.8219   -5.6040   18.7302 C   0  0  0  0  0  0  0  0  0  0  0  0
   26.5611   -5.1477   18.4135 N   0  0  1  0  0  0  0  0  0  0  0  0
  2  1  1  0  0  0  0
  3  1  1  6  0  0  0
  3  4  1  0  0  0  0
  3  5  1  0  0  0  0
  5  6  1  1  0  0  0
  5  7  1  0  0  0  0
  7  8  1  1  0  0  0
  7  9  1  0  0  0  0
  9  4  1  1  0  0  0
  9 20  1  0  0  0  0
 10 11  1  0  0  0  0
 11 12  1  6  0  0  0
 11 13  1  0  0  0  0
 14 13  1  1  0  0  0
 15 14  1  0  0  0  0
 15 16  1  1  0  0  0
 16 10  1  0  0  0  0
 16 17  2  0  0  0  0
 18 15  1  0  0  0  0
 19 18  1  0  0  0  0
 20 14  1  0  0  0  0
 20 19  1  1  0  0  0
M  END
>  <CHROM.1>
166.91004769,-140.52730775,26.31285533,-5.34748305,18.49402457,-1.80378775
0.09767778,-1.39777924

>  <Name>
1nyi_lig

>  <RI>
0

>  <Rbt.Current_Directory>
/home/itssahil/PROJECTS/Mol_Feturizer/New_Systems/rnas/1nyi

>  <Rbt.Executable>
rbdock ($Id: //depot/dev/client3/rdock/2013.1/src/exe/rbdock.cxx#4 $)

>  <Rbt.Library>
libRbt.so (2013.1, Build901 2013/11/27)

>  <Rbt.Parameter_File>
/export/apps/rDock/src/rDock_2013.1_src/data/scripts/dock_solv.prm

>  <Rbt.Receptor>
prm/blind_docking_80.prm

>  <SCORE>
-11.958

>  <SCORE.INTER>
-12.8016

>  <SCORE.INTER.CONST>
1

>  <SCORE.INTER.POLAR>
-1.60273

>  <SCORE.INTER.ROT>
2

>  <SCORE.INTER.SOLV>
9.58595

>  <SCORE.INTER.VDW>
-11.3206

>  <SCORE.INTER.norm>
-0.64008

>  <SCORE.INTRA>
-1.73711

>  <SCORE.INTRA.DIHEDRAL>
-1.84398

>  <SCORE.INTRA.DIHEDRAL.0>
3.72394

>  <SCORE.INTRA.POLAR>
0

>  <SCORE.INTRA.POLAR.0>
0

>  <SCORE.INTRA.REPUL>
0

>  <SCORE.INTRA.REPUL.0>
0

>  <SCORE.INTRA.SOLV>
-0.706062

>  <SCORE.INTRA.SOLV.lig_0>
-49.4697

>  <SCORE.INTRA.VDW>
-0.462087

>  <SCORE.INTRA.VDW.0>
-0.896538

>  <SCORE.INTRA.norm>
-0.0868553

>  <SCORE.RESTR>
2.58066

>  <SCORE.RESTR.CAVITY>
2.58066

>  <SCORE.RESTR.norm>
0.129033

>  <SCORE.SYSTEM>
0

>  <SCORE.SYSTEM.CONST>
0

>  <SCORE.SYSTEM.DIHEDRAL>
0

>  <SCORE.SYSTEM.SOLV>
0

>  <SCORE.SYSTEM.norm>
0

>  <SCORE.heavy>
20

>  <SCORE.norm>
-0.597902

>  <RMSD>
25.802

$$$$
1nyi_lig
 OpenBabel11021811403D
libRbt.so/2013.1/901 2013/11/27
 20 22  0  0  0  0  0  0  0  0999 V2000
   22.0317    6.1714   23.8261 C   0  0  0  0  0  0  0  0  0  0  0  0
   22.4560    5.6539   25.0872 O   0  0  0  0  0  0  0  0  0  0  0  0
   21.8119    5.0538   22.8308 C   0  0  1  0  0  0  0  0  0  0  0  0
   21.1695    5.5976   21.6460 O   0  0  0  0  0  0  0  0  0  0  0  0
   23.1191    4.4348   22.3486 C   0  0  1  0  0  0  0  0  0  0  0  0
   23.5120    3.3339   23.1694 O   0  0  0  0  0  0  0  0  0  0  0  0
   22.7783    4.0363   20.9141 C   0  0  1  0  0  0  0  0  0  0  0  0
   22.0370    2.8284   20.8317 O   0  0  0  0  0  0  0  0  0  0  0  0
   21.9075    5.2173   20.4908 C   0  0  2  0  0  0  0  0  0  0  0  0
   23.2344   10.1641   20.9988 N   0  0  0  0  0  0  0  0  0  0  0  0
   22.5202    9.3594   21.8530 C   0  0  1  0  0  0  0  0  0  0  0  0
   22.1085    9.9418   22.9802 N   0  0  0  0  0  0  0  0  0  0  0  0
   22.2291    8.0832   21.6181 N   0  0  0  0  0  0  0  0  0  0  0  0
   22.7146    7.6540   20.4167 C   0  0  1  0  0  0  0  0  0  0  0  0
   23.4411    8.3841   19.4925 C   0  0  1  0  0  0  0  0  0  0  0  0
   23.7484    9.7448   19.7719 C   0  0  0  0  0  0  0  0  0  0  0  0
   24.3822   10.5504   19.0784 O   0  0  0  0  0  0  0  0  0  0  0  0
   23.7709    7.5950   18.3981 N   0  0  0  0  0  0  0  0  0  0  0  0
   23.2459    6.4313   18.6665 C   0  0  0  0  0  0  0  0  0  0  0  0
   22.5796    6.3829   19.8714 N   0  0  1  0  0  0  0  0  0  0  0  0
  2  1  1  0  0  0  0
  3  1  1  1  0  0  0
  3  4  1  0  0  0  0
  3  5  1  0  0  0  0
  5  6  1  1  0  0  0
  5  7  1  0  0  0  0
  7  8  1  1  0  0  0
  7  9  1  0  0  0  0
  9  4  1  1  0  0  0
  9 20  1  0  0  0  0
 10 11  1  0  0  0  0
 11 12  1  6  0  0  0
 11 13  1  0  0  0  0
 14 13  1  1  0  0  0
 15 14  1  0  0  0  0
 15 16  1  1  0  0  0
 16 10  1  0  0  0  0
 16 17  2  0  0  0  0
 18 15  1  0  0  0  0
 19 18  1  0  0  0  0
 20 14  1  0  0  0  0
 20 19  1  1  0  0  0
M  END
>  <CHROM.1>
170.44053598,11.00251761,22.73483724,6.77921231,21.25179960,2.41840533,-1.34064608
-2.75083283

>  <Name>
1nyi_lig

>  <RI>
0

>  <Rbt.Current_Directory>
/home/itssahil/PROJECTS/Mol_Feturizer/New_Systems/rnas/1nyi

>  <Rbt.Executable>
rbdock ($Id: //depot/dev/client3/rdock/2013.1/src/exe/rbdock.cxx#4 $)

>  <Rbt.Library>
libRbt.so (2013.1, Build901 2013/11/27)

>  <Rbt.Parameter_File>
/export/apps/rDock/src/rDock_2013.1_src/data/scripts/dock_solv.prm

>  <Rbt.Receptor>
prm/blind_docking_60.prm

>  <SCORE>
0.467309

>  <SCORE.INTER>
-2.06651

>  <SCORE.INTER.CONST>
1

>  <SCORE.INTER.POLAR>
0

>  <SCORE.INTER.ROT>
2

>  <SCORE.INTER.SOLV>
11.7661

>  <SCORE.INTER.VDW>
-10.233

>  <SCORE.INTER.norm>
-0.103326

>  <SCORE.INTRA>
-1.04378

>  <SCORE.INTRA.DIHEDRAL>
-2.23189

>  <SCORE.INTRA.DIHEDRAL.0>
3.72394

>  <SCORE.INTRA.POLAR>
0

>  <SCORE.INTRA.POLAR.0>
0

>  <SCORE.INTRA.REPUL>
0

>  <SCORE.INTRA.REPUL.0>
0

>  <SCORE.INTRA.SOLV>
1.42058

>  <SCORE.INTRA.SOLV.lig_0>
-49.4697

>  <SCORE.INTRA.VDW>
-0.638126

>  <SCORE.INTRA.VDW.0>
-0.896538

>  <SCORE.INTRA.norm>
-0.052189

>  <SCORE.RESTR>
3.5776

>  <SCORE.RESTR.CAVITY>
3.5776

>  <SCORE.RESTR.norm>
0.17888

>  <SCORE.SYSTEM>
0

>  <SCORE.SYSTEM.CONST>
0

>  <SCORE.SYSTEM.DIHEDRAL>
0

>  <SCORE.SYSTEM.SOLV>
0

>  <SCORE.SYSTEM.norm>
0

>  <SCORE.heavy>
20

>  <SCORE.norm>
0.0233655

>  <RMSD>
25.814

$$$$
1nyi_lig
 OpenBabel11021811403D
libRbt.so/2013.1/901 2013/11/27
 20 22  0  0  0  0  0  0  0  0999 V2000
   22.1785    6.1270   23.8496 C   0  0  0  0  0  0  0  0  0  0  0  0
   20.9709    6.5537   24.4801 O   0  0  0  0  0  0  0  0  0  0  0  0
   21.9053    5.0228   22.8524 C   0  0  1  0  0  0  0  0  0  0  0  0
   21.2307    5.5886   21.6961 O   0  0  0  0  0  0  0  0  0  0  0  0
   23.1843    4.3875   22.3186 C   0  0  1  0  0  0  0  0  0  0  0  0
   23.5876    3.2723   23.1149 O   0  0  0  0  0  0  0  0  0  0  0  0
   22.7867    4.0087   20.8934 C   0  0  1  0  0  0  0  0  0  0  0  0
   22.0231    2.8137   20.8262 O   0  0  0  0  0  0  0  0  0  0  0  0
   21.9212    5.2077   20.5121 C   0  0  2  0  0  0  0  0  0  0  0  0
   23.2624   10.1546   20.9796 N   0  0  0  0  0  0  0  0  0  0  0  0
   22.5540    9.3565   21.8446 C   0  0  1  0  0  0  0  0  0  0  0  0
   22.1531    9.9462   22.9719 N   0  0  0  0  0  0  0  0  0  0  0  0
   22.2583    8.0795   21.6197 N   0  0  0  0  0  0  0  0  0  0  0  0
   22.7325    7.6423   20.4167 C   0  0  1  0  0  0  0  0  0  0  0  0
   23.4524    8.3654   19.4821 C   0  0  1  0  0  0  0  0  0  0  0  0
   23.7649    9.7271   19.7508 C   0  0  0  0  0  0  0  0  0  0  0  0
   24.3943   10.5273   19.0471 O   0  0  0  0  0  0  0  0  0  0  0  0
   23.7712    7.5693   18.3895 N   0  0  0  0  0  0  0  0  0  0  0  0
   23.2463    6.4082   18.6693 C   0  0  0  0  0  0  0  0  0  0  0  0
   22.5902    6.3682   19.8801 N   0  0  1  0  0  0  0  0  0  0  0  0
  2  1  1  0  0  0  0
  3  1  1  1  0  0  0
  3  4  1  0  0  0  0
  3  5  1  0  0  0  0
  5  6  1  1  0  0  0
  5  7  1  0  0  0  0
  7  8  1  1  0  0  0
  7  9  1  0  0  0  0
  9  4  1  1  0  0  0
  9 20  1  0  0  0  0
 10 11  1  0  0  0  0
 11 12  1  6  0  0  0
 11 13  1  0  0  0  0
 14 13  1  1  0  0  0
 15 14  1  0  0  0  0
 15 16  1  1  0  0  0
 16 10  1  0  0  0  0
 16 17  2  0  0  0  0
 18 15  1  0  0  0  0
 19 18  1  0  0  0  0
 20 14  1  0  0  0  0
 20 19  1  1  0  0  0
M  END
>  <CHROM.1>
71.99338155,9.05786778,22.68296087,6.81077708,21.21281509,2.18398945,-1.22766903
-2.95679775

>  <Name>
1nyi_lig

>  <RI>
0

>  <Rbt.Current_Directory>
/home/itssahil/PROJECTS/Mol_Feturizer/New_Systems/rnas/1nyi

>  <Rbt.Executable>
rbdock ($Id: //depot/dev/client3/rdock/2013.1/src/exe/rbdock.cxx#4 $)

>  <Rbt.Library>
libRbt.so (2013.1, Build901 2013/11/27)

>  <Rbt.Parameter_File>
/export/apps/rDock/src/rDock_2013.1_src/data/scripts/dock_solv.prm

>  <Rbt.Receptor>
prm/blind_docking_60.prm

>  <SCORE>
1.18995

>  <SCORE.INTER>
-1.31773

>  <SCORE.INTER.CONST>
1

>  <SCORE.INTER.POLAR>
0

>  <SCORE.INTER.ROT>
2

>  <SCORE.INTER.SOLV>
11.4209

>  <SCORE.INTER.VDW>
-9.61878

>  <SCORE.INTER.norm>
-0.0658863

>  <SCORE.INTRA>
-0.934261

>  <SCORE.INTRA.DIHEDRAL>
-2.02593

>  <SCORE.INTRA.DIHEDRAL.0>
3.72394

>  <SCORE.INTRA.POLAR>
0

>  <SCORE.INTRA.POLAR.0>
0

>  <SCORE.INTRA.REPUL>
0

>  <SCORE.INTRA.REPUL.0>
0

>  <SCORE.INTRA.SOLV>
1.7448

>  <SCORE.INTRA.SOLV.lig_0>
-49.4697

>  <SCORE.INTRA.VDW>
-0.793696

>  <SCORE.INTRA.VDW.0>
-0.896538

>  <SCORE.INTRA.norm>
-0.046713

>  <SCORE.RESTR>
3.44193

>  <SCORE.RESTR.CAVITY>
3.44193

>  <SCORE.RESTR.norm>
0.172097

>  <SCORE.SYSTEM>
0

>  <SCORE.SYSTEM.CONST>
0

>  <SCORE.SYSTEM.DIHEDRAL>
0

>  <SCORE.SYSTEM.SOLV>
0

>  <SCORE.SYSTEM.norm>
0

>  <SCORE.heavy>
20

>  <SCORE.norm>
0.0594974

>  <RMSD>
25.848

$$$$
1nyi_lig
 OpenBabel11021811403D
libRbt.so/2013.1/901 2013/11/27
 20 22  0  0  0  0  0  0  0  0999 V2000
   23.3643   -2.5466   15.9848 C   0  0  0  0  0  0  0  0  0  0  0  0
   23.4367   -1.6396   17.0849 O   0  0  0  0  0  0  0  0  0  0  0  0
   24.7377   -3.0688   15.6251 C   0  0  1  0  0  0  0  0  0  0  0  0
   25.4780   -3.3291   16.8483 O   0  0  0  0  0  0  0  0  0  0  0  0
   24.6812   -4.3988   14.8818 C   0  0  1  0  0  0  0  0  0  0  0  0
   24.6219   -4.2069   13.4676 O   0  0  0  0  0  0  0  0  0  0  0  0
   25.9613   -5.0866   15.3519 C   0  0  1  0  0  0  0  0  0  0  0  0
   27.1227   -4.6235   14.6795 O   0  0  0  0  0  0  0  0  0  0  0  0
   25.9942   -4.6543   16.8162 C   0  0  2  0  0  0  0  0  0  0  0  0
   25.5083   -5.9130   21.7830 N   0  0  0  0  0  0  0  0  0  0  0  0
   26.3417   -4.9943   21.1925 C   0  0  1  0  0  0  0  0  0  0  0  0
   27.1440   -4.3290   22.0249 N   0  0  0  0  0  0  0  0  0  0  0  0
   26.3872   -4.7496   19.8861 N   0  0  0  0  0  0  0  0  0  0  0  0
   25.5118   -5.5259   19.1831 C   0  0  1  0  0  0  0  0  0  0  0  0
   24.6364   -6.4733   19.6840 C   0  0  1  0  0  0  0  0  0  0  0  0
   24.5995   -6.7093   21.0865 C   0  0  0  0  0  0  0  0  0  0  0  0
   23.8908   -7.5048   21.7163 O   0  0  0  0  0  0  0  0  0  0  0  0
   23.8957   -7.0443   18.6571 N   0  0  0  0  0  0  0  0  0  0  0  0
   24.3285   -6.4540   17.5772 C   0  0  0  0  0  0  0  0  0  0  0  0
   25.3166   -5.5219   17.8071 N   0  0  1  0  0  0  0  0  0  0  0  0
  2  1  1  0  0  0  0
  3  1  1  1  0  0  0
  3  4  1  0  0  0  0
  3  5  1  0  0  0  0
  5  6  1  6  0  0  0
  5  7  1  0  0  0  0
  7  8  1  6  0  0  0
  7  9  1  0  0  0  0
  9  4  1  6  0  0  0
  9 20  1  0  0  0  0
 10 11  1  0  0  0  0
 11 12  1  6  0  0  0
 11 13  1  0  0  0  0
 14 13  1  1  0  0  0
 15 14  1  0  0  0  0
 15 16  1  1  0  0  0
 16 10  1  0  0  0  0
 16 17  2  0  0  0  0
 18 15  1  0  0  0  0
 19 18  1  0  0  0  0
 20 14  1  0  0  0  0
 20 19  1  1  0  0  0
M  END
>  <CHROM.1>
40.07789902,-75.43370066,25.13678037,-4.90332679,18.01207605,-1.77151875
1.29825772,2.13443718

>  <Name>
1nyi_lig

>  <RI>
0

>  <Rbt.Current_Directory>
/home/itssahil/PROJECTS/Mol_Feturizer/New_Systems/rnas/1nyi

>  <Rbt.Executable>
rbdock ($Id: //depot/dev/client3/rdock/2013.1/src/exe/rbdock.cxx#4 $)

>  <Rbt.Library>
libRbt.so (2013.1, Build901 2013/11/27)

>  <Rbt.Parameter_File>
/export/apps/rDock/src/rDock_2013.1_src/data/scripts/dock_solv.prm

>  <Rbt.Receptor>
prm/blind_docking_100.prm

>  <SCORE>
3.38143

>  <SCORE.INTER>
-3.17705

>  <SCORE.INTER.CONST>
1

>  <SCORE.INTER.POLAR>
-1.4461

>  <SCORE.INTER.ROT>
2

>  <SCORE.INTER.SOLV>
17.9079

>  <SCORE.INTER.VDW>
-8.20034

>  <SCORE.INTER.norm>
-0.158852

>  <SCORE.INTRA>
-1.09895

>  <SCORE.INTRA.DIHEDRAL>
-1.28514

>  <SCORE.INTRA.DIHEDRAL.0>
3.72394

>  <SCORE.INTRA.POLAR>
0

>  <SCORE.INTRA.POLAR.0>
0

>  <SCORE.INTRA.REPUL>
0

>  <SCORE.INTRA.REPUL.0>
0

>  <SCORE.INTRA.SOLV>
-0.675687

>  <SCORE.INTRA.SOLV.lig_0>
-49.4697

>  <SCORE.INTRA.VDW>
-0.118538

>  <SCORE.INTRA.VDW.0>
-0.896538

>  <SCORE.INTRA.norm>
-0.0549477

>  <SCORE.RESTR>
7.65744

>  <SCORE.RESTR.CAVITY>
7.65744

>  <SCORE.RESTR.norm>
0.382872

>  <SCORE.SYSTEM>
0

>  <SCORE.SYSTEM.CONST>
0

>  <SCORE.SYSTEM.DIHEDRAL>
0

>  <SCORE.SYSTEM.SOLV>
0

>  <SCORE.SYSTEM.norm>
0

>  <SCORE.heavy>
20

>  <SCORE.norm>
0.169072

>  <RMSD>
25.849

$$$$
1nyi_lig
 OpenBabel11021811403D
libRbt.so/2013.1/901 2013/11/27
 20 22  0  0  0  0  0  0  0  0999 V2000
   27.0754   -5.4630   22.3970 C   0  0  0  0  0  0  0  0  0  0  0  0
   28.1046   -5.8253   21.4764 O   0  0  0  0  0  0  0  0  0  0  0  0
   25.7572   -5.2654   21.6820 C   0  0  1  0  0  0  0  0  0  0  0  0
   25.9428   -4.3026   20.6092 O   0  0  0  0  0  0  0  0  0  0  0  0
   25.2572   -6.5415   21.0141 C   0  0  1  0  0  0  0  0  0  0  0  0
   24.4205   -7.2984   21.8900 O   0  0  0  0  0  0  0  0  0  0  0  0
   24.5260   -5.9994   19.7877 C   0  0  1  0  0  0  0  0  0  0  0  0
   23.2290   -5.5045   20.0849 O   0  0  0  0  0  0  0  0  0  0  0  0
   25.4495   -4.8493   19.3921 C   0  0  2  0  0  0  0  0  0  0  0  0
   27.0190   -4.7788   14.4910 N   0  0  0  0  0  0  0  0  0  0  0  0
   25.8034   -4.4243   15.0237 C   0  0  1  0  0  0  0  0  0  0  0  0
   24.8939   -3.9992   14.1455 N   0  0  0  0  0  0  0  0  0  0  0  0
   25.5018   -4.4856   16.3175 N   0  0  0  0  0  0  0  0  0  0  0  0
   26.5405   -4.9534   17.0697 C   0  0  1  0  0  0  0  0  0  0  0  0
   27.7956   -5.3339   16.6284 C   0  0  1  0  0  0  0  0  0  0  0  0
   28.0969   -5.2493   15.2405 C   0  0  0  0  0  0  0  0  0  0  0  0
   29.1519   -5.5379   14.6614 O   0  0  0  0  0  0  0  0  0  0  0  0
   28.5858   -5.7394   17.6962 N   0  0  0  0  0  0  0  0  0  0  0  0
   27.8140   -5.6086   18.7398 C   0  0  0  0  0  0  0  0  0  0  0  0
   26.5510   -5.1430   18.4464 N   0  0  1  0  0  0  0  0  0  0  0  0
  2  1  1  0  0  0  0
  3  1  1  6  0  0  0
  3  4  1  0  0  0  0
  3  5  1  0  0  0  0
  5  6  1  1  0  0  0
  5  7  1  0  0  0  0
  7  8  1  1  0  0  0
  7  9  1  0  0  0  0
  9  4  1  1  0  0  0
  9 20  1  0  0  0  0
 10 11  1  0  0  0  0
 11 12  1  6  0  0  0
 11 13  1  0  0  0  0
 14 13  1  1  0  0  0
 15 14  1  0  0  0  0
 15 16  1  1  0  0  0
 16 10  1  0  0  0  0
 16 17  2  0  0  0  0
 18 15  1  0  0  0  0
 19 18  1  0  0  0  0
 20 14  1  0  0  0  0
 20 19  1  1  0  0  0
M  END
>  <CHROM.1>
-54.31279525,-141.00813044,26.36874307,-5.32849438,18.40395316,-1.81242700
0.09755915,-1.38784311

>  <Name>
1nyi_lig

>  <RI>
0

>  <Rbt.Current_Directory>
/home/itssahil/PROJECTS/Mol_Feturizer/New_Systems/rnas/1nyi

>  <Rbt.Executable>
rbdock ($Id: //depot/dev/client3/rdock/2013.1/src/exe/rbdock.cxx#4 $)

>  <Rbt.Library>
libRbt.so (2013.1, Build901 2013/11/27)

>  <Rbt.Parameter_File>
/export/apps/rDock/src/rDock_2013.1_src/data/scripts/dock_solv.prm

>  <Rbt.Receptor>
prm/blind_docking_80.prm

>  <SCORE>
-11.0533

>  <SCORE.INTER>
-12.8435

>  <SCORE.INTER.CONST>
1

>  <SCORE.INTER.POLAR>
-1.62905

>  <SCORE.INTER.ROT>
2

>  <SCORE.INTER.SOLV>
9.02621

>  <SCORE.INTER.VDW>
-11.0742

>  <SCORE.INTER.norm>
-0.642175

>  <SCORE.INTRA>
-0.984082

>  <SCORE.INTRA.DIHEDRAL>
-2.30211

>  <SCORE.INTRA.DIHEDRAL.0>
3.72394

>  <SCORE.INTRA.POLAR>
0

>  <SCORE.INTRA.POLAR.0>
0

>  <SCORE.INTRA.REPUL>
0

>  <SCORE.INTRA.REPUL.0>
0

>  <SCORE.INTRA.SOLV>
0.183578

>  <SCORE.INTRA.SOLV.lig_0>
-49.4697

>  <SCORE.INTRA.VDW>
0.0751857

>  <SCORE.INTRA.VDW.0>
-0.896538

>  <SCORE.INTRA.norm>
-0.0492041

>  <SCORE.RESTR>
2.77427

>  <SCORE.RESTR.CAVITY>
2.77427

>  <SCORE.RESTR.norm>
0.138713

>  <SCORE.SYSTEM>
0

>  <SCORE.SYSTEM.CONST>
0

>  <SCORE.SYSTEM.DIHEDRAL>
0

>  <SCORE.SYSTEM.SOLV>
0

>  <SCORE.SYSTEM.norm>
0

>  <SCORE.heavy>
20

>  <SCORE.norm>
-0.552666

>  <RMSD>
25.857

$$$$
1nyi_lig
 OpenBabel11021811403D
libRbt.so/2013.1/901 2013/11/27
 20 22  0  0  0  0  0  0  0  0999 V2000
   27.0772   -5.4649   22.3969 C   0  0  0  0  0  0  0  0  0  0  0  0
   28.1058   -5.8389   21.4803 O   0  0  0  0  0  0  0  0  0  0  0  0
   25.7584   -5.2767   21.6803 C   0  0  1  0  0  0  0  0  0  0  0  0
   25.9391   -4.3147   20.6060 O   0  0  0  0  0  0  0  0  0  0  0  0
   25.2670   -6.5570   21.0142 C   0  0  1  0  0  0  0  0  0  0  0  0
   24.4341   -7.3175   21.8907 O   0  0  0  0  0  0  0  0  0  0  0  0
   24.5336   -6.0217   19.7861 C   0  0  1  0  0  0  0  0  0  0  0  0
   23.2333   -5.5342   20.0813 O   0  0  0  0  0  0  0  0  0  0  0  0
   25.4503   -4.8666   19.3893 C   0  0  2  0  0  0  0  0  0  0  0  0
   27.0278   -4.7849   14.4910 N   0  0  0  0  0  0  0  0  0  0  0  0
   25.8100   -4.4356   15.0220 C   0  0  1  0  0  0  0  0  0  0  0  0
   24.9004   -4.0129   14.1427 N   0  0  0  0  0  0  0  0  0  0  0  0
   25.5065   -4.4994   16.3153 N   0  0  0  0  0  0  0  0  0  0  0  0
   26.5456   -4.9641   17.0687 C   0  0  1  0  0  0  0  0  0  0  0  0
   27.8029   -5.3394   16.6291 C   0  0  1  0  0  0  0  0  0  0  0  0
   28.1062   -5.2522   15.2418 C   0  0  0  0  0  0  0  0  0  0  0  0
   29.1632   -5.5363   14.6642 O   0  0  0  0  0  0  0  0  0  0  0  0
   28.5928   -5.7432   17.6978 N   0  0  0  0  0  0  0  0  0  0  0  0
   27.8188   -5.6164   18.7402 C   0  0  0  0  0  0  0  0  0  0  0  0
   26.5545   -5.1552   18.4452 N   0  0  1  0  0  0  0  0  0  0  0  0
  2  1  1  0  0  0  0
  3  1  1  6  0  0  0
  3  4  1  0  0  0  0
  3  5  1  0  0  0  0
  5  6  1  1  0  0  0
  5  7  1  0  0  0  0
  7  8  1  1  0  0  0
  7  9  1  0  0  0  0
  9  4  1  1  0  0  0
  9 20  1  0  0  0  0
 10 11  1  0  0  0  0
 11 12  1  6  0  0  0
 11 13  1  0  0  0  0
 14 13  1  1  0  0  0
 15 14  1  0  0  0  0
 15 16  1  1  0  0  0
 16 10  1  0  0  0  0
 16 17  2  0  0  0  0
 18 15  1  0  0  0  0
 19 18  1  0  0  0  0
 20 14  1  0  0  0  0
 20 19  1  1  0  0  0
M  END
>  <CHROM.1>
-55.04477944,-140.78849396,26.37428090,-5.34005570,18.40347542,-1.81272052
0.09401997,-1.38720740

>  <Name>
1nyi_lig

>  <RI>
0

>  <Rbt.Current_Directory>
/home/itssahil/PROJECTS/Mol_Feturizer/New_Systems/rnas/1nyi

>  <Rbt.Executable>
rbdock ($Id: //depot/dev/client3/rdock/2013.1/src/exe/rbdock.cxx#4 $)

>  <Rbt.Library>
libRbt.so (2013.1, Build901 2013/11/27)

>  <Rbt.Parameter_File>
/export/apps/rDock/src/rDock_2013.1_src/data/scripts/dock_solv.prm

>  <Rbt.Receptor>
prm/blind_docking_80.prm

>  <SCORE>
-11.0864

>  <SCORE.INTER>
-12.8685

>  <SCORE.INTER.CONST>
1

>  <SCORE.INTER.POLAR>
-1.60425

>  <SCORE.INTER.ROT>
2

>  <SCORE.INTER.SOLV>
9.00477

>  <SCORE.INTER.VDW>
-11.1664

>  <SCORE.INTER.norm>
-0.643423

>  <SCORE.INTRA>
-1.01344

>  <SCORE.INTRA.DIHEDRAL>
-2.33078

>  <SCORE.INTRA.DIHEDRAL.0>
3.72394

>  <SCORE.INTRA.POLAR>
0

>  <SCORE.INTRA.POLAR.0>
0

>  <SCORE.INTRA.REPUL>
0

>  <SCORE.INTRA.REPUL.0>
0

>  <SCORE.INTRA.SOLV>
0.182686

>  <SCORE.INTRA.SOLV.lig_0>
-49.4697

>  <SCORE.INTRA.VDW>
0.0606083

>  <SCORE.INTRA.VDW.0>
-0.896538

>  <SCORE.INTRA.norm>
-0.050672

>  <SCORE.RESTR>
2.79549

>  <SCORE.RESTR.CAVITY>
2.79549

>  <SCORE.RESTR.norm>
0.139774

>  <SCORE.SYSTEM>
0

>  <SCORE.SYSTEM.CONST>
0

>  <SCORE.SYSTEM.DIHEDRAL>
0

>  <SCORE.SYSTEM.SOLV>
0

>  <SCORE.SYSTEM.norm>
0

>  <SCORE.heavy>
20

>  <SCORE.norm>
-0.554321

>  <RMSD>
25.859

$$$$
1nyi_lig
 OpenBabel11021811403D
libRbt.so/2013.1/901 2013/11/27
 20 22  0  0  0  0  0  0  0  0999 V2000
   26.6742   -5.4757   22.2652 C   0  0  0  0  0  0  0  0  0  0  0  0
   26.4682   -5.0920   23.6248 O   0  0  0  0  0  0  0  0  0  0  0  0
   25.3577   -5.5722   21.5266 C   0  0  1  0  0  0  0  0  0  0  0  0
   25.3454   -4.5902   20.4553 O   0  0  0  0  0  0  0  0  0  0  0  0
   25.1634   -6.9259   20.8526 C   0  0  1  0  0  0  0  0  0  0  0  0
   24.4988   -7.8504   21.7151 O   0  0  0  0  0  0  0  0  0  0  0  0
   24.3524   -6.5561   19.6123 C   0  0  1  0  0  0  0  0  0  0  0  0
   22.9731   -6.3599   19.8856 O   0  0  0  0  0  0  0  0  0  0  0  0
   25.0064   -5.2299   19.2308 C   0  0  2  0  0  0  0  0  0  0  0  0
   26.7493   -4.1699   14.5055 N   0  0  0  0  0  0  0  0  0  0  0  0
   25.4907   -4.0021   15.0300 C   0  0  1  0  0  0  0  0  0  0  0  0
   24.5849   -3.4898   14.1957 N   0  0  0  0  0  0  0  0  0  0  0  0
   25.1463   -4.3160   16.2756 N   0  0  0  0  0  0  0  0  0  0  0  0
   26.1888   -4.8386   16.9850 C   0  0  1  0  0  0  0  0  0  0  0  0
   27.4853   -5.0457   16.5479 C   0  0  1  0  0  0  0  0  0  0  0  0
   27.8312   -4.6920   15.2139 C   0  0  0  0  0  0  0  0  0  0  0  0
   28.9264   -4.7980   14.6473 O   0  0  0  0  0  0  0  0  0  0  0  0
   28.2637   -5.5812   17.5659 N   0  0  0  0  0  0  0  0  0  0  0  0
   27.4454   -5.6940   18.5756 C   0  0  0  0  0  0  0  0  0  0  0  0
   26.1622   -5.2717   18.3053 N   0  0  1  0  0  0  0  0  0  0  0  0
  2  1  1  0  0  0  0
  3  1  1  6  0  0  0
  3  4  1  0  0  0  0
  3  5  1  0  0  0  0
  5  6  1  1  0  0  0
  5  7  1  0  0  0  0
  7  8  1  1  0  0  0
  7  9  1  0  0  0  0
  9  4  1  1  0  0  0
  9 20  1  0  0  0  0
 10 11  1  0  0  0  0
 11 12  1  6  0  0  0
 11 13  1  0  0  0  0
 14 13  1  1  0  0  0
 15 14  1  0  0  0  0
 15 16  1  1  0  0  0
 16 10  1  0  0  0  0
 16 17  2  0  0  0  0
 18 15  1  0  0  0  0
 19 18  1  0  0  0  0
 20 14  1  0  0  0  0
 20 19  1  1  0  0  0
M  END
>  <CHROM.1>
117.16721779,-127.57601527,25.99053472,-5.29377370,18.42945341,-1.79503776
-0.07722437,-1.33661301

>  <Name>
1nyi_lig

>  <RI>
0

>  <Rbt.Current_Directory>
/home/itssahil/PROJECTS/Mol_Feturizer/New_Systems/rnas/1nyi

>  <Rbt.Executable>
rbdock ($Id: //depot/dev/client3/rdock/2013.1/src/exe/rbdock.cxx#4 $)

>  <Rbt.Library>
libRbt.so (2013.1, Build901 2013/11/27)

>  <Rbt.Parameter_File>
/export/apps/rDock/src/rDock_2013.1_src/data/scripts/dock_solv.prm

>  <Rbt.Receptor>
prm/blind_docking_80.prm

>  <SCORE>
-6.85353

>  <SCORE.INTER>
-9.04884

>  <SCORE.INTER.CONST>
1

>  <SCORE.INTER.POLAR>
-0.890128

>  <SCORE.INTER.ROT>
2

>  <SCORE.INTER.SOLV>
11.2357

>  <SCORE.INTER.VDW>
-11.744

>  <SCORE.INTER.norm>
-0.452442

>  <SCORE.INTRA>
0.483428

>  <SCORE.INTRA.DIHEDRAL>
2.74776

>  <SCORE.INTRA.DIHEDRAL.0>
3.72394

>  <SCORE.INTRA.POLAR>
0

>  <SCORE.INTRA.POLAR.0>
0

>  <SCORE.INTRA.REPUL>
0

>  <SCORE.INTRA.REPUL.0>
0

>  <SCORE.INTRA.SOLV>
-0.922628

>  <SCORE.INTRA.SOLV.lig_0>
-49.4697

>  <SCORE.INTRA.VDW>
-0.429138

>  <SCORE.INTRA.VDW.0>
-0.896538

>  <SCORE.INTRA.norm>
0.0241714

>  <SCORE.RESTR>
1.71188

>  <SCORE.RESTR.CAVITY>
1.71188

>  <SCORE.RESTR.norm>
0.085594

>  <SCORE.SYSTEM>
0

>  <SCORE.SYSTEM.CONST>
0

>  <SCORE.SYSTEM.DIHEDRAL>
0

>  <SCORE.SYSTEM.SOLV>
0

>  <SCORE.SYSTEM.norm>
0

>  <SCORE.heavy>
20

>  <SCORE.norm>
-0.342676

>  <RMSD>
25.883

$$$$
1nyi_lig
 OpenBabel11021811403D
libRbt.so/2013.1/901 2013/11/27
 20 22  0  0  0  0  0  0  0  0999 V2000
   26.4994   -5.4463   22.1880 C   0  0  0  0  0  0  0  0  0  0  0  0
   26.2796   -5.3500   23.5953 O   0  0  0  0  0  0  0  0  0  0  0  0
   25.1953   -5.3357   21.4296 C   0  0  1  0  0  0  0  0  0  0  0  0
   25.3843   -4.4481   20.2944 O   0  0  0  0  0  0  0  0  0  0  0  0
   24.7444   -6.6695   20.8445 C   0  0  1  0  0  0  0  0  0  0  0  0
   23.9046   -7.3834   21.7530 O   0  0  0  0  0  0  0  0  0  0  0  0
   24.0314   -6.2367   19.5650 C   0  0  1  0  0  0  0  0  0  0  0  0
   22.7153   -5.7563   19.7948 O   0  0  0  0  0  0  0  0  0  0  0  0
   24.9358   -5.0939   19.1089 C   0  0  2  0  0  0  0  0  0  0  0  0
   27.3370   -4.0541   14.6769 N   0  0  0  0  0  0  0  0  0  0  0  0
   26.1898   -3.5066   15.1978 C   0  0  1  0  0  0  0  0  0  0  0  0
   25.6103   -2.5678   14.4482 N   0  0  0  0  0  0  0  0  0  0  0  0
   25.6506   -3.8556   16.3623 N   0  0  0  0  0  0  0  0  0  0  0  0
   26.3634   -4.8361   16.9898 C   0  0  1  0  0  0  0  0  0  0  0  0
   27.5239   -5.4473   16.5488 C   0  0  1  0  0  0  0  0  0  0  0  0
   28.0866   -5.0488   15.3043 C   0  0  0  0  0  0  0  0  0  0  0  0
   29.1089   -5.4717   14.7496 O   0  0  0  0  0  0  0  0  0  0  0  0
   27.9615   -6.3875   17.4727 N   0  0  0  0  0  0  0  0  0  0  0  0
   27.0775   -6.3375   18.4308 C   0  0  0  0  0  0  0  0  0  0  0  0
   26.0680   -5.4255   18.2133 N   0  0  1  0  0  0  0  0  0  0  0  0
  2  1  1  0  0  0  0
  3  1  1  6  0  0  0
  3  4  1  0  0  0  0
  3  5  1  0  0  0  0
  5  6  1  1  0  0  0
  5  7  1  0  0  0  0
  7  8  1  1  0  0  0
  7  9  1  0  0  0  0
  9  4  1  1  0  0  0
  9 20  1  0  0  0  0
 10 11  1  0  0  0  0
 11 12  1  6  0  0  0
 11 13  1  0  0  0  0
 14 13  1  1  0  0  0
 15 14  1  0  0  0  0
 15 16  1  1  0  0  0
 16 10  1  0  0  0  0
 16 17  2  0  0  0  0
 18 15  1  0  0  0  0
 19 18  1  0  0  0  0
 20 14  1  0  0  0  0
 20 19  1  1  0  0  0
M  END
>  <CHROM.1>
135.75750270,-110.05175311,26.01066496,-5.24848211,18.42575793,-1.92543666
0.26619915,-1.23535287

>  <Name>
1nyi_lig

>  <RI>
0

>  <Rbt.Current_Directory>
/home/itssahil/PROJECTS/Mol_Feturizer/New_Systems/rnas/1nyi

>  <Rbt.Executable>
rbdock ($Id: //depot/dev/client3/rdock/2013.1/src/exe/rbdock.cxx#4 $)

>  <Rbt.Library>
libRbt.so (2013.1, Build901 2013/11/27)

>  <Rbt.Parameter_File>
/export/apps/rDock/src/rDock_2013.1_src/data/scripts/dock_solv.prm

>  <Rbt.Receptor>
prm/blind_docking_80.prm

>  <SCORE>
-7.31615

>  <SCORE.INTER>
-9.47732

>  <SCORE.INTER.CONST>
1

>  <SCORE.INTER.POLAR>
-0.866932

>  <SCORE.INTER.ROT>
2

>  <SCORE.INTER.SOLV>
11.4097

>  <SCORE.INTER.VDW>
-12.165

>  <SCORE.INTER.norm>
-0.473866

>  <SCORE.INTRA>
0.0948265

>  <SCORE.INTRA.DIHEDRAL>
1.84176

>  <SCORE.INTRA.DIHEDRAL.0>
3.72394

>  <SCORE.INTRA.POLAR>
0

>  <SCORE.INTRA.POLAR.0>
0

>  <SCORE.INTRA.REPUL>
0

>  <SCORE.INTRA.REPUL.0>
0

>  <SCORE.INTRA.SOLV>
-0.848963

>  <SCORE.INTRA.SOLV.lig_0>
-49.4697

>  <SCORE.INTRA.VDW>
-0.401571

>  <SCORE.INTRA.VDW.0>
-0.896538

>  <SCORE.INTRA.norm>
0.00474133

>  <SCORE.RESTR>
2.06634

>  <SCORE.RESTR.CAVITY>
2.06634

>  <SCORE.RESTR.norm>
0.103317

>  <SCORE.SYSTEM>
0

>  <SCORE.SYSTEM.CONST>
0

>  <SCORE.SYSTEM.DIHEDRAL>
0

>  <SCORE.SYSTEM.SOLV>
0

>  <SCORE.SYSTEM.norm>
0

>  <SCORE.heavy>
20

>  <SCORE.norm>
-0.365808

>  <RMSD>
25.897

$$$$
1nyi_lig
 OpenBabel11021811403D
libRbt.so/2013.1/901 2013/11/27
 20 22  0  0  0  0  0  0  0  0999 V2000
   26.8961   -5.6247   22.2648 C   0  0  0  0  0  0  0  0  0  0  0  0
   27.4995   -4.3378   22.1315 O   0  0  0  0  0  0  0  0  0  0  0  0
   25.5467   -5.6610   21.5821 C   0  0  1  0  0  0  0  0  0  0  0  0
   25.5170   -4.6456   20.5428 O   0  0  0  0  0  0  0  0  0  0  0  0
   25.2839   -6.9867   20.8765 C   0  0  1  0  0  0  0  0  0  0  0  0
   24.6302   -7.9191   21.7389 O   0  0  0  0  0  0  0  0  0  0  0  0
   24.4315   -6.5553   19.6849 C   0  0  1  0  0  0  0  0  0  0  0  0
   23.0716   -6.3294   20.0244 O   0  0  0  0  0  0  0  0  0  0  0  0
   25.1070   -5.2365   19.3154 C   0  0  2  0  0  0  0  0  0  0  0  0
   26.6333   -4.2003   14.5107 N   0  0  0  0  0  0  0  0  0  0  0  0
   25.3992   -4.0320   15.0903 C   0  0  1  0  0  0  0  0  0  0  0  0
   24.4556   -3.5264   14.2946 N   0  0  0  0  0  0  0  0  0  0  0  0
   25.1118   -4.3394   16.3518 N   0  0  0  0  0  0  0  0  0  0  0  0
   26.1864   -4.8558   17.0166 C   0  0  1  0  0  0  0  0  0  0  0  0
   27.4624   -5.0627   16.5228 C   0  0  1  0  0  0  0  0  0  0  0  0
   27.7472   -4.7160   15.1727 C   0  0  0  0  0  0  0  0  0  0  0  0
   28.8161   -4.8231   14.5581 O   0  0  0  0  0  0  0  0  0  0  0  0
   28.2870   -5.5907   17.5079 N   0  0  0  0  0  0  0  0  0  0  0  0
   27.5151   -5.6994   18.5540 C   0  0  0  0  0  0  0  0  0  0  0  0
   26.2201   -5.2813   18.3392 N   0  0  1  0  0  0  0  0  0  0  0  0
  2  1  1  0  0  0  0
  3  1  1  6  0  0  0
  3  4  1  0  0  0  0
  3  5  1  0  0  0  0
  5  6  1  1  0  0  0
  5  7  1  0  0  0  0
  7  8  1  1  0  0  0
  7  9  1  0  0  0  0
  9  4  1  1  0  0  0
  9 20  1  0  0  0  0
 10 11  1  0  0  0  0
 11 12  1  6  0  0  0
 11 13  1  0  0  0  0
 14 13  1  1  0  0  0
 15 14  1  0  0  0  0
 15 16  1  1  0  0  0
 16 10  1  0  0  0  0
 16 17  2  0  0  0  0
 18 15  1  0  0  0  0
 19 18  1  0  0  0  0
 20 14  1  0  0  0  0
 20 19  1  1  0  0  0
M  END
>  <CHROM.1>
24.60696242,-130.32724125,26.08407985,-5.28194691,18.37262157,-1.77062079
-0.12741974,-1.33109996

>  <Name>
1nyi_lig

>  <RI>
0

>  <Rbt.Current_Directory>
/home/itssahil/PROJECTS/Mol_Feturizer/New_Systems/rnas/1nyi

>  <Rbt.Executable>
rbdock ($Id: //depot/dev/client3/rdock/2013.1/src/exe/rbdock.cxx#4 $)

>  <Rbt.Library>
libRbt.so (2013.1, Build901 2013/11/27)

>  <Rbt.Parameter_File>
/export/apps/rDock/src/rDock_2013.1_src/data/scripts/dock_solv.prm

>  <Rbt.Receptor>
prm/blind_docking_80.prm

>  <SCORE>
-8.76854

>  <SCORE.INTER>
-10.4247

>  <SCORE.INTER.CONST>
1

>  <SCORE.INTER.POLAR>
-1.05283

>  <SCORE.INTER.ROT>
2

>  <SCORE.INTER.SOLV>
10.8601

>  <SCORE.INTER.VDW>
-11.9937

>  <SCORE.INTER.norm>
-0.521234

>  <SCORE.INTRA>
-0.0400691

>  <SCORE.INTRA.DIHEDRAL>
0.877791

>  <SCORE.INTRA.DIHEDRAL.0>
3.72394

>  <SCORE.INTRA.POLAR>
0

>  <SCORE.INTRA.POLAR.0>
0

>  <SCORE.INTRA.REPUL>
0

>  <SCORE.INTRA.REPUL.0>
0

>  <SCORE.INTRA.SOLV>
-0.573733

>  <SCORE.INTRA.SOLV.lig_0>
-49.4697

>  <SCORE.INTRA.VDW>
-0.192098

>  <SCORE.INTRA.VDW.0>
-0.896538

>  <SCORE.INTRA.norm>
-0.00200345

>  <SCORE.RESTR>
1.69621

>  <SCORE.RESTR.CAVITY>
1.69621

>  <SCORE.RESTR.norm>
0.0848104

>  <SCORE.SYSTEM>
0

>  <SCORE.SYSTEM.CONST>
0

>  <SCORE.SYSTEM.DIHEDRAL>
0

>  <SCORE.SYSTEM.SOLV>
0

>  <SCORE.SYSTEM.norm>
0

>  <SCORE.heavy>
20

>  <SCORE.norm>
-0.438427

>  <RMSD>
25.908

$$$$
1nyi_lig
 OpenBabel11021811403D
libRbt.so/2013.1/901 2013/11/27
 20 22  0  0  0  0  0  0  0  0999 V2000
   23.4784   -2.4251   16.1921 C   0  0  0  0  0  0  0  0  0  0  0  0
   22.5201   -2.4696   15.1349 O   0  0  0  0  0  0  0  0  0  0  0  0
   24.8000   -3.0114   15.7471 C   0  0  1  0  0  0  0  0  0  0  0  0
   25.5874   -3.3441   16.9225 O   0  0  0  0  0  0  0  0  0  0  0  0
   24.6309   -4.3160   14.9764 C   0  0  1  0  0  0  0  0  0  0  0  0
   24.5088   -4.0834   13.5724 O   0  0  0  0  0  0  0  0  0  0  0  0
   25.8934   -5.0847   15.3609 C   0  0  1  0  0  0  0  0  0  0  0  0
   27.0422   -4.6676   14.6386 O   0  0  0  0  0  0  0  0  0  0  0  0
   26.0266   -4.6941   16.8312 C   0  0  2  0  0  0  0  0  0  0  0  0
   25.5862   -5.9118   21.8124 N   0  0  0  0  0  0  0  0  0  0  0  0
   26.4189   -5.0029   21.2061 C   0  0  1  0  0  0  0  0  0  0  0  0
   27.2343   -4.3365   22.0246 N   0  0  0  0  0  0  0  0  0  0  0  0
   26.4520   -4.7685   19.8974 N   0  0  0  0  0  0  0  0  0  0  0  0
   25.5641   -5.5446   19.2098 C   0  0  1  0  0  0  0  0  0  0  0  0
   24.6883   -6.4826   19.7273 C   0  0  1  0  0  0  0  0  0  0  0  0
   24.6649   -6.7076   21.1319 C   0  0  0  0  0  0  0  0  0  0  0  0
   23.9581   -7.4937   21.7753 O   0  0  0  0  0  0  0  0  0  0  0  0
   23.9330   -7.0566   18.7128 N   0  0  0  0  0  0  0  0  0  0  0  0
   24.3578   -6.4774   17.6238 C   0  0  0  0  0  0  0  0  0  0  0  0
   25.3542   -5.5499   17.8360 N   0  0  1  0  0  0  0  0  0  0  0  0
  2  1  1  0  0  0  0
  3  1  1  1  0  0  0
  3  4  1  0  0  0  0
  3  5  1  0  0  0  0
  5  6  1  6  0  0  0
  5  7  1  0  0  0  0
  7  8  1  6  0  0  0
  7  9  1  0  0  0  0
  9  4  1  6  0  0  0
  9 20  1  0  0  0  0
 10 11  1  0  0  0  0
 11 12  1  6  0  0  0
 11 13  1  0  0  0  0
 14 13  1  1  0  0  0
 15 14  1  0  0  0  0
 15 16  1  1  0  0  0
 16 10  1  0  0  0  0
 16 17  2  0  0  0  0
 18 15  1  0  0  0  0
 19 18  1  0  0  0  0
 20 14  1  0  0  0  0
 20 19  1  1  0  0  0
M  END
>  <CHROM.1>
-161.85401346,-71.28805944,25.11625673,-4.94151646,17.94817364,1.70401052
-0.55494589,-1.13130700

>  <Name>
1nyi_lig

>  <RI>
0

>  <Rbt.Current_Directory>
/home/itssahil/PROJECTS/Mol_Feturizer/New_Systems/rnas/1nyi

>  <Rbt.Executable>
rbdock ($Id: //depot/dev/client3/rdock/2013.1/src/exe/rbdock.cxx#4 $)

>  <Rbt.Library>
libRbt.so (2013.1, Build901 2013/11/27)

>  <Rbt.Parameter_File>
/export/apps/rDock/src/rDock_2013.1_src/data/scripts/dock_solv.prm

>  <Rbt.Receptor>
prm/blind_docking_100.prm

>  <SCORE>
2.00066

>  <SCORE.INTER>
-4.63019

>  <SCORE.INTER.CONST>
1

>  <SCORE.INTER.POLAR>
-1.35679

>  <SCORE.INTER.ROT>
2

>  <SCORE.INTER.SOLV>
16.9513

>  <SCORE.INTER.VDW>
-9.14793

>  <SCORE.INTER.norm>
-0.231509

>  <SCORE.INTRA>
-0.89916

>  <SCORE.INTRA.DIHEDRAL>
-1.44515

>  <SCORE.INTRA.DIHEDRAL.0>
3.72394

>  <SCORE.INTRA.POLAR>
0

>  <SCORE.INTRA.POLAR.0>
0

>  <SCORE.INTRA.REPUL>
0

>  <SCORE.INTRA.REPUL.0>
0

>  <SCORE.INTRA.SOLV>
-0.409466

>  <SCORE.INTRA.SOLV.lig_0>
-49.4697

>  <SCORE.INTRA.VDW>
0.0281502

>  <SCORE.INTRA.VDW.0>
-0.896538

>  <SCORE.INTRA.norm>
-0.044958

>  <SCORE.RESTR>
7.53001

>  <SCORE.RESTR.CAVITY>
7.53001

>  <SCORE.RESTR.norm>
0.3765

>  <SCORE.SYSTEM>
0

>  <SCORE.SYSTEM.CONST>
0

>  <SCORE.SYSTEM.DIHEDRAL>
0

>  <SCORE.SYSTEM.SOLV>
0

>  <SCORE.SYSTEM.norm>
0

>  <SCORE.heavy>
20

>  <SCORE.norm>
0.100033

>  <RMSD>
25.909

$$$$
1nyi_lig
 OpenBabel11021811403D
libRbt.so/2013.1/901 2013/11/27
 20 22  0  0  0  0  0  0  0  0999 V2000
   26.9155   -5.6141   22.2575 C   0  0  0  0  0  0  0  0  0  0  0  0
   27.5003   -4.3190   22.1208 O   0  0  0  0  0  0  0  0  0  0  0  0
   25.5649   -5.6704   21.5786 C   0  0  1  0  0  0  0  0  0  0  0  0
   25.5187   -4.6581   20.5368 O   0  0  0  0  0  0  0  0  0  0  0  0
   25.3184   -7.0014   20.8769 C   0  0  1  0  0  0  0  0  0  0  0  0
   24.6798   -7.9404   21.7434 O   0  0  0  0  0  0  0  0  0  0  0  0
   24.4570   -6.5846   19.6866 C   0  0  1  0  0  0  0  0  0  0  0  0
   23.0951   -6.3764   20.0291 O   0  0  0  0  0  0  0  0  0  0  0  0
   25.1135   -5.2576   19.3121 C   0  0  2  0  0  0  0  0  0  0  0  0
   26.6241   -4.1760   14.5123 N   0  0  0  0  0  0  0  0  0  0  0  0
   25.3906   -4.0178   15.0961 C   0  0  1  0  0  0  0  0  0  0  0  0
   24.4430   -3.5099   14.3067 N   0  0  0  0  0  0  0  0  0  0  0  0
   25.1075   -4.3367   16.3558 N   0  0  0  0  0  0  0  0  0  0  0  0
   26.1859   -4.8536   17.0139 C   0  0  1  0  0  0  0  0  0  0  0  0
   27.4616   -5.0509   16.5156 C   0  0  1  0  0  0  0  0  0  0  0  0
   27.7418   -4.6922   15.1676 C   0  0  0  0  0  0  0  0  0  0  0  0
   28.8097   -4.7895   14.5497 O   0  0  0  0  0  0  0  0  0  0  0  0
   28.2908   -5.5832   17.4944 N   0  0  0  0  0  0  0  0  0  0  0  0
   27.5218   -5.7038   18.5414 C   0  0  0  0  0  0  0  0  0  0  0  0
   26.2245   -5.2896   18.3330 N   0  0  1  0  0  0  0  0  0  0  0  0
  2  1  1  0  0  0  0
  3  1  1  6  0  0  0
  3  4  1  0  0  0  0
  3  5  1  0  0  0  0
  5  6  1  1  0  0  0
  5  7  1  0  0  0  0
  7  8  1  1  0  0  0
  7  9  1  0  0  0  0
  9  4  1  1  0  0  0
  9 20  1  0  0  0  0
 10 11  1  0  0  0  0
 11 12  1  6  0  0  0
 11 13  1  0  0  0  0
 14 13  1  1  0  0  0
 15 14  1  0  0  0  0
 15 16  1  1  0  0  0
 16 10  1  0  0  0  0
 16 17  2  0  0  0  0
 18 15  1  0  0  0  0
 19 18  1  0  0  0  0
 20 14  1  0  0  0  0
 20 19  1  1  0  0  0
M  END
>  <CHROM.1>
24.67073984,-129.52308832,26.09166306,-5.28226087,18.36998538,-1.76654115
-0.13423886,-1.32660225

>  <Name>
1nyi_lig

>  <RI>
0

>  <Rbt.Current_Directory>
/home/itssahil/PROJECTS/Mol_Feturizer/New_Systems/rnas/1nyi

>  <Rbt.Executable>
rbdock ($Id: //depot/dev/client3/rdock/2013.1/src/exe/rbdock.cxx#4 $)

>  <Rbt.Library>
libRbt.so (2013.1, Build901 2013/11/27)

>  <Rbt.Parameter_File>
/export/apps/rDock/src/rDock_2013.1_src/data/scripts/dock_solv.prm

>  <Rbt.Receptor>
prm/blind_docking_80.prm

>  <SCORE>
-8.72535

>  <SCORE.INTER>
-10.3549

>  <SCORE.INTER.CONST>
1

>  <SCORE.INTER.POLAR>
-1.06081

>  <SCORE.INTER.ROT>
2

>  <SCORE.INTER.SOLV>
10.8582

>  <SCORE.INTER.VDW>
-11.92

>  <SCORE.INTER.norm>
-0.517744

>  <SCORE.INTRA>
-0.0483377

>  <SCORE.INTRA.DIHEDRAL>
0.866349

>  <SCORE.INTRA.DIHEDRAL.0>
3.72394

>  <SCORE.INTRA.POLAR>
0

>  <SCORE.INTRA.POLAR.0>
0

>  <SCORE.INTRA.REPUL>
0

>  <SCORE.INTRA.REPUL.0>
0

>  <SCORE.INTRA.SOLV>
-0.576322

>  <SCORE.INTRA.SOLV.lig_0>
-49.4697

>  <SCORE.INTRA.VDW>
-0.193351

>  <SCORE.INTRA.VDW.0>
-0.896538

>  <SCORE.INTRA.norm>
-0.00241688

>  <SCORE.RESTR>
1.67787

>  <SCORE.RESTR.CAVITY>
1.67787

>  <SCORE.RESTR.norm>
0.0838934

>  <SCORE.SYSTEM>
0

>  <SCORE.SYSTEM.CONST>
0

>  <SCORE.SYSTEM.DIHEDRAL>
0

>  <SCORE.SYSTEM.SOLV>
0

>  <SCORE.SYSTEM.norm>
0

>  <SCORE.heavy>
20

>  <SCORE.norm>
-0.436267

>  <RMSD>
25.910

$$$$
1nyi_lig
 OpenBabel11021811403D
libRbt.so/2013.1/901 2013/11/27
 20 22  0  0  0  0  0  0  0  0999 V2000
   27.9295   -4.4339   15.8547 C   0  0  0  0  0  0  0  0  0  0  0  0
   28.6881   -3.5118   15.0723 O   0  0  0  0  0  0  0  0  0  0  0  0
   26.4541   -4.3217   15.5407 C   0  0  1  0  0  0  0  0  0  0  0  0
   25.7562   -5.4414   16.1502 O   0  0  0  0  0  0  0  0  0  0  0  0
   25.8240   -3.0661   16.1332 C   0  0  1  0  0  0  0  0  0  0  0  0
   25.8802   -1.9700   15.2191 O   0  0  0  0  0  0  0  0  0  0  0  0
   24.4026   -3.5323   16.4415 C   0  0  1  0  0  0  0  0  0  0  0  0
   23.5633   -3.5580   15.2968 O   0  0  0  0  0  0  0  0  0  0  0  0
   24.6700   -4.9545   16.9292 C   0  0  2  0  0  0  0  0  0  0  0  0
   28.1544   -5.8892   20.5999 N   0  0  0  0  0  0  0  0  0  0  0  0
   28.3221   -5.7994   19.2394 C   0  0  1  0  0  0  0  0  0  0  0  0
   29.5690   -5.9803   18.8016 N   0  0  0  0  0  0  0  0  0  0  0  0
   27.3417   -5.5546   18.3747 N   0  0  0  0  0  0  0  0  0  0  0  0
   26.1323   -5.4090   18.9907 C   0  0  1  0  0  0  0  0  0  0  0  0
   25.8633   -5.4814   20.3461 C   0  0  1  0  0  0  0  0  0  0  0  0
   26.9312   -5.7342   21.2516 C   0  0  0  0  0  0  0  0  0  0  0  0
   26.8901   -5.8310   22.4847 O   0  0  0  0  0  0  0  0  0  0  0  0
   24.5131   -5.2631   20.5878 N   0  0  0  0  0  0  0  0  0  0  0  0
   23.9976   -5.0742   19.4044 C   0  0  0  0  0  0  0  0  0  0  0  0
   24.9119   -5.1533   18.3769 N   0  0  1  0  0  0  0  0  0  0  0  0
  2  1  1  0  0  0  0
  3  1  1  1  0  0  0
  3  4  1  0  0  0  0
  3  5  1  0  0  0  0
  5  6  1  6  0  0  0
  5  7  1  0  0  0  0
  7  8  1  6  0  0  0
  7  9  1  0  0  0  0
  9  4  1  6  0  0  0
  9 20  1  0  0  0  0
 10 11  1  0  0  0  0
 11 12  1  6  0  0  0
 11 13  1  0  0  0  0
 14 13  1  1  0  0  0
 15 14  1  0  0  0  0
 15 16  1  1  0  0  0
 16 10  1  0  0  0  0
 16 17  2  0  0  0  0
 18 15  1  0  0  0  0
 19 18  1  0  0  0  0
 20 14  1  0  0  0  0
 20 19  1  1  0  0  0
M  END
>  <CHROM.1>
168.82987591,17.58339632,26.28867496,-4.76885247,17.99883865,-1.76565865
-0.13844614,1.94721536

>  <Name>
1nyi_lig

>  <RI>
0

>  <Rbt.Current_Directory>
/home/itssahil/PROJECTS/Mol_Feturizer/New_Systems/rnas/1nyi

>  <Rbt.Executable>
rbdock ($Id: //depot/dev/client3/rdock/2013.1/src/exe/rbdock.cxx#4 $)

>  <Rbt.Library>
libRbt.so (2013.1, Build901 2013/11/27)

>  <Rbt.Parameter_File>
/export/apps/rDock/src/rDock_2013.1_src/data/scripts/dock_solv.prm

>  <Rbt.Receptor>
prm/blind_docking_80.prm

>  <SCORE>
-8.96628

>  <SCORE.INTER>
-8.75049

>  <SCORE.INTER.CONST>
1

>  <SCORE.INTER.POLAR>
-0.72426

>  <SCORE.INTER.ROT>
2

>  <SCORE.INTER.SOLV>
13.0932

>  <SCORE.INTER.VDW>
-12.7172

>  <SCORE.INTER.norm>
-0.437524

>  <SCORE.INTRA>
-0.786187

>  <SCORE.INTRA.DIHEDRAL>
-2.14235

>  <SCORE.INTRA.DIHEDRAL.0>
3.72394

>  <SCORE.INTRA.POLAR>
0

>  <SCORE.INTRA.POLAR.0>
0

>  <SCORE.INTRA.REPUL>
0

>  <SCORE.INTRA.REPUL.0>
0

>  <SCORE.INTRA.SOLV>
1.64606

>  <SCORE.INTRA.SOLV.lig_0>
-49.4697

>  <SCORE.INTRA.VDW>
-0.538043

>  <SCORE.INTRA.VDW.0>
-0.896538

>  <SCORE.INTRA.norm>
-0.0393093

>  <SCORE.RESTR>
0.570394

>  <SCORE.RESTR.CAVITY>
0.570394

>  <SCORE.RESTR.norm>
0.0285197

>  <SCORE.SYSTEM>
0

>  <SCORE.SYSTEM.CONST>
0

>  <SCORE.SYSTEM.DIHEDRAL>
0

>  <SCORE.SYSTEM.SOLV>
0

>  <SCORE.SYSTEM.norm>
0

>  <SCORE.heavy>
20

>  <SCORE.norm>
-0.448314

>  <RMSD>
25.912

$$$$
1nyi_lig
 OpenBabel11021811403D
libRbt.so/2013.1/901 2013/11/27
 20 22  0  0  0  0  0  0  0  0999 V2000
   27.9381   -4.4098   15.8621 C   0  0  0  0  0  0  0  0  0  0  0  0
   28.7054   -3.5137   15.0582 O   0  0  0  0  0  0  0  0  0  0  0  0
   26.4642   -4.2939   15.5422 C   0  0  1  0  0  0  0  0  0  0  0  0
   25.7621   -5.4158   16.1429 O   0  0  0  0  0  0  0  0  0  0  0  0
   25.8333   -3.0406   16.1385 C   0  0  1  0  0  0  0  0  0  0  0  0
   25.8950   -1.9398   15.2304 O   0  0  0  0  0  0  0  0  0  0  0  0
   24.4100   -3.5063   16.4382 C   0  0  1  0  0  0  0  0  0  0  0  0
   23.5755   -3.5249   15.2898 O   0  0  0  0  0  0  0  0  0  0  0  0
   24.6732   -4.9315   16.9197 C   0  0  2  0  0  0  0  0  0  0  0  0
   28.1394   -5.8965   20.5998 N   0  0  0  0  0  0  0  0  0  0  0  0
   28.3129   -5.8006   19.2404 C   0  0  1  0  0  0  0  0  0  0  0  0
   29.5609   -5.9840   18.8068 N   0  0  0  0  0  0  0  0  0  0  0  0
   27.3369   -5.5481   18.3730 N   0  0  0  0  0  0  0  0  0  0  0  0
   26.1256   -5.4011   18.9848 C   0  0  1  0  0  0  0  0  0  0  0  0
   25.8509   -5.4791   20.3388 C   0  0  1  0  0  0  0  0  0  0  0  0
   26.9142   -5.7402   21.2473 C   0  0  0  0  0  0  0  0  0  0  0  0
   26.8677   -5.8428   22.4798 O   0  0  0  0  0  0  0  0  0  0  0  0
   24.5005   -5.2571   20.5761 N   0  0  0  0  0  0  0  0  0  0  0  0
   23.9904   -5.0606   19.3916 C   0  0  0  0  0  0  0  0  0  0  0  0
   24.9086   -5.1381   18.3674 N   0  0  1  0  0  0  0  0  0  0  0  0
  2  1  1  0  0  0  0
  3  1  1  1  0  0  0
  3  4  1  0  0  0  0
  3  5  1  0  0  0  0
  5  6  1  6  0  0  0
  5  7  1  0  0  0  0
  7  8  1  6  0  0  0
  7  9  1  0  0  0  0
  9  4  1  6  0  0  0
  9 20  1  0  0  0  0
 10 11  1  0  0  0  0
 11 12  1  6  0  0  0
 11 13  1  0  0  0  0
 14 13  1  1  0  0  0
 15 14  1  0  0  0  0
 15 16  1  1  0  0  0
 16 10  1  0  0  0  0
 16 17  2  0  0  0  0
 18 15  1  0  0  0  0
 19 18  1  0  0  0  0
 20 14  1  0  0  0  0
 20 19  1  1  0  0  0
M  END
>  <CHROM.1>
167.03994465,17.45363263,26.28749965,-4.75695729,17.99542473,-1.76013544
-0.14201036,1.95206062

>  <Name>
1nyi_lig

>  <RI>
0

>  <Rbt.Current_Directory>
/home/itssahil/PROJECTS/Mol_Feturizer/New_Systems/rnas/1nyi

>  <Rbt.Executable>
rbdock ($Id: //depot/dev/client3/rdock/2013.1/src/exe/rbdock.cxx#4 $)

>  <Rbt.Library>
libRbt.so (2013.1, Build901 2013/11/27)

>  <Rbt.Parameter_File>
/export/apps/rDock/src/rDock_2013.1_src/data/scripts/dock_solv.prm

>  <Rbt.Receptor>
prm/blind_docking_80.prm

>  <SCORE>
-8.89391

>  <SCORE.INTER>
-8.71625

>  <SCORE.INTER.CONST>
1

>  <SCORE.INTER.POLAR>
-0.725366

>  <SCORE.INTER.ROT>
2

>  <SCORE.INTER.SOLV>
13.1182

>  <SCORE.INTER.VDW>
-12.699

>  <SCORE.INTER.norm>
-0.435813

>  <SCORE.INTRA>
-0.72937

>  <SCORE.INTRA.DIHEDRAL>
-1.99848

>  <SCORE.INTRA.DIHEDRAL.0>
3.72394

>  <SCORE.INTRA.POLAR>
0

>  <SCORE.INTRA.POLAR.0>
0

>  <SCORE.INTRA.REPUL>
0

>  <SCORE.INTRA.REPUL.0>
0

>  <SCORE.INTRA.SOLV>
1.62902

>  <SCORE.INTRA.SOLV.lig_0>
-49.4697

>  <SCORE.INTRA.VDW>
-0.544641

>  <SCORE.INTRA.VDW.0>
-0.896538

>  <SCORE.INTRA.norm>
-0.0364685

>  <SCORE.RESTR>
0.551718

>  <SCORE.RESTR.CAVITY>
0.551718

>  <SCORE.RESTR.norm>
0.0275859

>  <SCORE.SYSTEM>
0

>  <SCORE.SYSTEM.CONST>
0

>  <SCORE.SYSTEM.DIHEDRAL>
0

>  <SCORE.SYSTEM.SOLV>
0

>  <SCORE.SYSTEM.norm>
0

>  <SCORE.heavy>
20

>  <SCORE.norm>
-0.444695

>  <RMSD>
25.913

$$$$
1nyi_lig
 OpenBabel11021811403D
libRbt.so/2013.1/901 2013/11/27
 20 22  0  0  0  0  0  0  0  0999 V2000
   26.9093   -5.5973   22.2542 C   0  0  0  0  0  0  0  0  0  0  0  0
   27.5114   -4.3085   22.1332 O   0  0  0  0  0  0  0  0  0  0  0  0
   25.5581   -5.6273   21.5747 C   0  0  1  0  0  0  0  0  0  0  0  0
   25.5301   -4.6105   20.5367 O   0  0  0  0  0  0  0  0  0  0  0  0
   25.2884   -6.9511   20.8681 C   0  0  1  0  0  0  0  0  0  0  0  0
   24.6331   -7.8819   21.7309 O   0  0  0  0  0  0  0  0  0  0  0  0
   24.4349   -6.5148   19.6790 C   0  0  1  0  0  0  0  0  0  0  0  0
   23.0767   -6.2838   20.0220 O   0  0  0  0  0  0  0  0  0  0  0  0
   25.1148   -5.1982   19.3096 C   0  0  2  0  0  0  0  0  0  0  0  0
   26.6267   -4.1847   14.4954 N   0  0  0  0  0  0  0  0  0  0  0  0
   25.3938   -4.0154   15.0774 C   0  0  1  0  0  0  0  0  0  0  0  0
   24.4473   -3.5156   14.2816 N   0  0  0  0  0  0  0  0  0  0  0  0
   25.1103   -4.3167   16.3413 N   0  0  0  0  0  0  0  0  0  0  0  0
   26.1875   -4.8278   17.0060 C   0  0  1  0  0  0  0  0  0  0  0  0
   27.4625   -5.0351   16.5099 C   0  0  1  0  0  0  0  0  0  0  0  0
   27.7432   -4.6951   15.1572 C   0  0  0  0  0  0  0  0  0  0  0  0
   28.8106   -4.8036   14.5403 O   0  0  0  0  0  0  0  0  0  0  0  0
   28.2906   -5.5566   17.4955 N   0  0  0  0  0  0  0  0  0  0  0  0
   27.5217   -5.6611   18.5442 C   0  0  0  0  0  0  0  0  0  0  0  0
   26.2254   -5.2463   18.3307 N   0  0  1  0  0  0  0  0  0  0  0  0
  2  1  1  0  0  0  0
  3  1  1  6  0  0  0
  3  4  1  0  0  0  0
  3  5  1  0  0  0  0
  5  6  1  1  0  0  0
  5  7  1  0  0  0  0
  7  8  1  1  0  0  0
  7  9  1  0  0  0  0
  9  4  1  1  0  0  0
  9 20  1  0  0  0  0
 10 11  1  0  0  0  0
 11 12  1  6  0  0  0
 11 13  1  0  0  0  0
 14 13  1  1  0  0  0
 15 14  1  0  0  0  0
 15 16  1  1  0  0  0
 16 10  1  0  0  0  0
 16 17  2  0  0  0  0
 18 15  1  0  0  0  0
 19 18  1  0  0  0  0
 20 14  1  0  0  0  0
 20 19  1  1  0  0  0
M  END
>  <CHROM.1>
25.21844190,-130.82091124,26.08715118,-5.25222057,18.36314630,-1.76800822
-0.12697809,-1.33394741

>  <Name>
1nyi_lig

>  <RI>
0

>  <Rbt.Current_Directory>
/home/itssahil/PROJECTS/Mol_Feturizer/New_Systems/rnas/1nyi

>  <Rbt.Executable>
rbdock ($Id: //depot/dev/client3/rdock/2013.1/src/exe/rbdock.cxx#4 $)

>  <Rbt.Library>
libRbt.so (2013.1, Build901 2013/11/27)

>  <Rbt.Parameter_File>
/export/apps/rDock/src/rDock_2013.1_src/data/scripts/dock_solv.prm

>  <Rbt.Receptor>
prm/blind_docking_80.prm

>  <SCORE>
-8.7245

>  <SCORE.INTER>
-10.3395

>  <SCORE.INTER.CONST>
1

>  <SCORE.INTER.POLAR>
-1.06089

>  <SCORE.INTER.ROT>
2

>  <SCORE.INTER.SOLV>
10.9476

>  <SCORE.INTER.VDW>
-11.9393

>  <SCORE.INTER.norm>
-0.516977

>  <SCORE.INTRA>
-0.0884765

>  <SCORE.INTRA.DIHEDRAL>
0.798568

>  <SCORE.INTRA.DIHEDRAL.0>
3.72394

>  <SCORE.INTRA.POLAR>
0

>  <SCORE.INTRA.POLAR.0>
0

>  <SCORE.INTRA.REPUL>
0

>  <SCORE.INTRA.REPUL.0>
0

>  <SCORE.INTRA.SOLV>
-0.579756

>  <SCORE.INTRA.SOLV.lig_0>
-49.4697

>  <SCORE.INTRA.VDW>
-0.197882

>  <SCORE.INTRA.VDW.0>
-0.896538

>  <SCORE.INTRA.norm>
-0.00442383

>  <SCORE.RESTR>
1.70351

>  <SCORE.RESTR.CAVITY>
1.70351

>  <SCORE.RESTR.norm>
0.0851757

>  <SCORE.SYSTEM>
0

>  <SCORE.SYSTEM.CONST>
0

>  <SCORE.SYSTEM.DIHEDRAL>
0

>  <SCORE.SYSTEM.SOLV>
0

>  <SCORE.SYSTEM.norm>
0

>  <SCORE.heavy>
20

>  <SCORE.norm>
-0.436225

>  <RMSD>
25.915

$$$$
1nyi_lig
 OpenBabel11021811403D
libRbt.so/2013.1/901 2013/11/27
 20 22  0  0  0  0  0  0  0  0999 V2000
   27.0767   -5.4656   22.2371 C   0  0  0  0  0  0  0  0  0  0  0  0
   28.0179   -5.9379   21.2732 O   0  0  0  0  0  0  0  0  0  0  0  0
   25.7355   -5.1931   21.5929 C   0  0  1  0  0  0  0  0  0  0  0  0
   25.9270   -4.2913   20.4694 O   0  0  0  0  0  0  0  0  0  0  0  0
   25.0991   -6.4513   21.0129 C   0  0  1  0  0  0  0  0  0  0  0  0
   24.2631   -7.1046   21.9693 O   0  0  0  0  0  0  0  0  0  0  0  0
   24.3365   -5.9024   19.8088 C   0  0  1  0  0  0  0  0  0  0  0  0
   23.1021   -5.2953   20.1597 O   0  0  0  0  0  0  0  0  0  0  0  0
   25.3187   -4.8453   19.3089 C   0  0  2  0  0  0  0  0  0  0  0  0
   27.2224   -4.1389   14.5796 N   0  0  0  0  0  0  0  0  0  0  0  0
   26.1548   -3.5280   15.1913 C   0  0  1  0  0  0  0  0  0  0  0  0
   25.5152   -2.6180   14.4551 N   0  0  0  0  0  0  0  0  0  0  0  0
   25.7439   -3.7920   16.4283 N   0  0  0  0  0  0  0  0  0  0  0  0
   26.5011   -4.7547   17.0311 C   0  0  1  0  0  0  0  0  0  0  0  0
   27.5896   -5.4247   16.5010 C   0  0  1  0  0  0  0  0  0  0  0  0
   28.0158   -5.1168   15.1790 C   0  0  0  0  0  0  0  0  0  0  0  0
   28.9584   -5.6016   14.5400 O   0  0  0  0  0  0  0  0  0  0  0  0
   28.1081   -6.3217   17.4261 N   0  0  0  0  0  0  0  0  0  0  0  0
   27.3403   -6.1894   18.4725 C   0  0  0  0  0  0  0  0  0  0  0  0
   26.3337   -5.2623   18.3139 N   0  0  1  0  0  0  0  0  0  0  0  0
  2  1  1  0  0  0  0
  3  1  1  6  0  0  0
  3  4  1  0  0  0  0
  3  5  1  0  0  0  0
  5  6  1  1  0  0  0
  5  7  1  0  0  0  0
  7  8  1  1  0  0  0
  7  9  1  0  0  0  0
  9  4  1  1  0  0  0
  9 20  1  0  0  0  0
 10 11  1  0  0  0  0
 11 12  1  6  0  0  0
 11 13  1  0  0  0  0
 14 13  1  1  0  0  0
 15 14  1  0  0  0  0
 15 16  1  1  0  0  0
 16 10  1  0  0  0  0
 16 17  2  0  0  0  0
 18 15  1  0  0  0  0
 19 18  1  0  0  0  0
 20 14  1  0  0  0  0
 20 19  1  1  0  0  0
M  END
>  <CHROM.1>
-54.02893060,-117.20467876,26.30896450,-5.17943792,18.36070126,-1.87471920
0.35786028,-1.23019893

>  <Name>
1nyi_lig

>  <RI>
0

>  <Rbt.Current_Directory>
/home/itssahil/PROJECTS/Mol_Feturizer/New_Systems/rnas/1nyi

>  <Rbt.Executable>
rbdock ($Id: //depot/dev/client3/rdock/2013.1/src/exe/rbdock.cxx#4 $)

>  <Rbt.Library>
libRbt.so (2013.1, Build901 2013/11/27)

>  <Rbt.Parameter_File>
/export/apps/rDock/src/rDock_2013.1_src/data/scripts/dock_solv.prm

>  <Rbt.Receptor>
prm/blind_docking_80.prm

>  <SCORE>
-6.22337

>  <SCORE.INTER>
-7.00257

>  <SCORE.INTER.CONST>
1

>  <SCORE.INTER.POLAR>
-0.945086

>  <SCORE.INTER.ROT>
2

>  <SCORE.INTER.SOLV>
9.19166

>  <SCORE.INTER.VDW>
-9.51531

>  <SCORE.INTER.norm>
-0.350128

>  <SCORE.INTRA>
-1.47409

>  <SCORE.INTRA.DIHEDRAL>
-2.37627

>  <SCORE.INTRA.DIHEDRAL.0>
3.72394

>  <SCORE.INTRA.POLAR>
0

>  <SCORE.INTRA.POLAR.0>
0

>  <SCORE.INTRA.REPUL>
0

>  <SCORE.INTRA.REPUL.0>
0

>  <SCORE.INTRA.SOLV>
0.128702

>  <SCORE.INTRA.SOLV.lig_0>
-49.4697

>  <SCORE.INTRA.VDW>
-0.350299

>  <SCORE.INTRA.VDW.0>
-0.896538

>  <SCORE.INTRA.norm>
-0.0737043

>  <SCORE.RESTR>
2.25328

>  <SCORE.RESTR.CAVITY>
2.25328

>  <SCORE.RESTR.norm>
0.112664

>  <SCORE.SYSTEM>
0

>  <SCORE.SYSTEM.CONST>
0

>  <SCORE.SYSTEM.DIHEDRAL>
0

>  <SCORE.SYSTEM.SOLV>
0

>  <SCORE.SYSTEM.norm>
0

>  <SCORE.heavy>
20

>  <SCORE.norm>
-0.311169

>  <RMSD>
25.916

$$$$
1nyi_lig
 OpenBabel11021811403D
libRbt.so/2013.1/901 2013/11/27
 20 22  0  0  0  0  0  0  0  0999 V2000
   26.9173   -5.6136   22.2495 C   0  0  0  0  0  0  0  0  0  0  0  0
   27.4999   -4.3171   22.1173 O   0  0  0  0  0  0  0  0  0  0  0  0
   25.5663   -5.6696   21.5714 C   0  0  1  0  0  0  0  0  0  0  0  0
   25.5201   -4.6578   20.5291 O   0  0  0  0  0  0  0  0  0  0  0  0
   25.3186   -7.0007   20.8706 C   0  0  1  0  0  0  0  0  0  0  0  0
   24.6799   -7.9389   21.7379 O   0  0  0  0  0  0  0  0  0  0  0  0
   24.4568   -6.5841   19.6805 C   0  0  1  0  0  0  0  0  0  0  0  0
   23.0951   -6.3749   20.0237 O   0  0  0  0  0  0  0  0  0  0  0  0
   25.1138   -5.2577   19.3049 C   0  0  2  0  0  0  0  0  0  0  0  0
   26.6241   -4.1741   14.5055 N   0  0  0  0  0  0  0  0  0  0  0  0
   25.3913   -4.0140   15.0901 C   0  0  1  0  0  0  0  0  0  0  0  0
   24.4443   -3.5034   14.3017 N   0  0  0  0  0  0  0  0  0  0  0  0
   25.1082   -4.3337   16.3496 N   0  0  0  0  0  0  0  0  0  0  0  0
   26.1859   -4.8535   17.0066 C   0  0  1  0  0  0  0  0  0  0  0  0
   27.4609   -5.0528   16.5074 C   0  0  1  0  0  0  0  0  0  0  0  0
   27.7411   -4.6932   15.1597 C   0  0  0  0  0  0  0  0  0  0  0  0
   28.8085   -4.7921   14.5411 O   0  0  0  0  0  0  0  0  0  0  0  0
   28.2896   -5.5878   17.4853 N   0  0  0  0  0  0  0  0  0  0  0  0
   27.5209   -5.7079   18.5325 C   0  0  0  0  0  0  0  0  0  0  0  0
   26.2243   -5.2910   18.3252 N   0  0  1  0  0  0  0  0  0  0  0  0
  2  1  1  0  0  0  0
  3  1  1  6  0  0  0
  3  4  1  0  0  0  0
  3  5  1  0  0  0  0
  5  6  1  1  0  0  0
  5  7  1  0  0  0  0
  7  8  1  1  0  0  0
  7  9  1  0  0  0  0
  9  4  1  1  0  0  0
  9 20  1  0  0  0  0
 10 11  1  0  0  0  0
 11 12  1  6  0  0  0
 11 13  1  0  0  0  0
 14 13  1  1  0  0  0
 15 14  1  0  0  0  0
 15 16  1  1  0  0  0
 16 10  1  0  0  0  0
 16 17  2  0  0  0  0
 18 15  1  0  0  0  0
 19 18  1  0  0  0  0
 20 14  1  0  0  0  0
 20 19  1  1  0  0  0
M  END
>  <CHROM.1>
24.95191609,-129.39978037,26.09177417,-5.28188933,18.36307418,-1.76637486
-0.13283914,-1.32634480

>  <Name>
1nyi_lig

>  <RI>
0

>  <Rbt.Current_Directory>
/home/itssahil/PROJECTS/Mol_Feturizer/New_Systems/rnas/1nyi

>  <Rbt.Executable>
rbdock ($Id: //depot/dev/client3/rdock/2013.1/src/exe/rbdock.cxx#4 $)

>  <Rbt.Library>
libRbt.so (2013.1, Build901 2013/11/27)

>  <Rbt.Parameter_File>
/export/apps/rDock/src/rDock_2013.1_src/data/scripts/dock_solv.prm

>  <Rbt.Receptor>
prm/blind_docking_80.prm

>  <SCORE>
-8.78508

>  <SCORE.INTER>
-10.4022

>  <SCORE.INTER.CONST>
1

>  <SCORE.INTER.POLAR>
-1.05758

>  <SCORE.INTER.ROT>
2

>  <SCORE.INTER.SOLV>
10.8275

>  <SCORE.INTER.VDW>
-11.952

>  <SCORE.INTER.norm>
-0.520108

>  <SCORE.INTRA>
-0.0719158

>  <SCORE.INTRA.DIHEDRAL>
0.828668

>  <SCORE.INTRA.DIHEDRAL.0>
3.72394

>  <SCORE.INTRA.POLAR>
0

>  <SCORE.INTRA.POLAR.0>
0

>  <SCORE.INTRA.REPUL>
0

>  <SCORE.INTRA.REPUL.0>
0

>  <SCORE.INTRA.SOLV>
-0.579895

>  <SCORE.INTRA.SOLV.lig_0>
-49.4697

>  <SCORE.INTRA.VDW>
-0.196302

>  <SCORE.INTRA.VDW.0>
-0.896538

>  <SCORE.INTRA.norm>
-0.00359579

>  <SCORE.RESTR>
1.68899

>  <SCORE.RESTR.CAVITY>
1.68899

>  <SCORE.RESTR.norm>
0.0844494

>  <SCORE.SYSTEM>
0

>  <SCORE.SYSTEM.CONST>
0

>  <SCORE.SYSTEM.DIHEDRAL>
0

>  <SCORE.SYSTEM.SOLV>
0

>  <SCORE.SYSTEM.norm>
0

>  <SCORE.heavy>
20

>  <SCORE.norm>
-0.439254

>  <RMSD>
25.917

$$$$
1nyi_lig
 OpenBabel11021811403D
libRbt.so/2013.1/901 2013/11/27
 20 22  0  0  0  0  0  0  0  0999 V2000
   27.9321   -4.3734   15.8589 C   0  0  0  0  0  0  0  0  0  0  0  0
   28.6846   -3.4732   15.0457 O   0  0  0  0  0  0  0  0  0  0  0  0
   26.4565   -4.2855   15.5377 C   0  0  1  0  0  0  0  0  0  0  0  0
   25.7744   -5.4174   16.1424 O   0  0  0  0  0  0  0  0  0  0  0  0
   25.8027   -3.0413   16.1286 C   0  0  1  0  0  0  0  0  0  0  0  0
   25.8451   -1.9432   15.2162 O   0  0  0  0  0  0  0  0  0  0  0  0
   24.3878   -3.5316   16.4293 C   0  0  1  0  0  0  0  0  0  0  0  0
   23.5546   -3.5698   15.2804 O   0  0  0  0  0  0  0  0  0  0  0  0
   24.6764   -4.9498   16.9166 C   0  0  2  0  0  0  0  0  0  0  0  0
   28.1522   -5.8717   20.5987 N   0  0  0  0  0  0  0  0  0  0  0  0
   28.3237   -5.7828   19.2386 C   0  0  1  0  0  0  0  0  0  0  0  0
   29.5723   -5.9611   18.8048 N   0  0  0  0  0  0  0  0  0  0  0  0
   27.3453   -5.5415   18.3707 N   0  0  0  0  0  0  0  0  0  0  0  0
   26.1337   -5.3983   18.9829 C   0  0  1  0  0  0  0  0  0  0  0  0
   25.8608   -5.4700   20.3376 C   0  0  1  0  0  0  0  0  0  0  0  0
   26.9266   -5.7191   21.2466 C   0  0  0  0  0  0  0  0  0  0  0  0
   26.8820   -5.8147   22.4797 O   0  0  0  0  0  0  0  0  0  0  0  0
   24.5093   -5.2549   20.5750 N   0  0  0  0  0  0  0  0  0  0  0  0
   23.9968   -5.0686   19.3899 C   0  0  0  0  0  0  0  0  0  0  0  0
   24.9145   -5.1464   18.3652 N   0  0  1  0  0  0  0  0  0  0  0  0
  2  1  1  0  0  0  0
  3  1  1  1  0  0  0
  3  4  1  0  0  0  0
  3  5  1  0  0  0  0
  5  6  1  6  0  0  0
  5  7  1  0  0  0  0
  7  8  1  6  0  0  0
  7  9  1  0  0  0  0
  9  4  1  6  0  0  0
  9 20  1  0  0  0  0
 10 11  1  0  0  0  0
 11 12  1  6  0  0  0
 11 13  1  0  0  0  0
 14 13  1  1  0  0  0
 15 14  1  0  0  0  0
 15 16  1  1  0  0  0
 16 10  1  0  0  0  0
 16 17  2  0  0  0  0
 18 15  1  0  0  0  0
 19 18  1  0  0  0  0
 20 14  1  0  0  0  0
 20 19  1  1  0  0  0
M  END
>  <CHROM.1>
166.65272994,16.75466750,26.28538513,-4.75147119,17.99116401,-1.76669555
-0.13342361,1.94924412

>  <Name>
1nyi_lig

>  <RI>
0

>  <Rbt.Current_Directory>
/home/itssahil/PROJECTS/Mol_Feturizer/New_Systems/rnas/1nyi

>  <Rbt.Executable>
rbdock ($Id: //depot/dev/client3/rdock/2013.1/src/exe/rbdock.cxx#4 $)

>  <Rbt.Library>
libRbt.so (2013.1, Build901 2013/11/27)

>  <Rbt.Parameter_File>
/export/apps/rDock/src/rDock_2013.1_src/data/scripts/dock_solv.prm

>  <Rbt.Receptor>
prm/blind_docking_80.prm

>  <SCORE>
-8.89653

>  <SCORE.INTER>
-8.70789

>  <SCORE.INTER.CONST>
1

>  <SCORE.INTER.POLAR>
-0.719465

>  <SCORE.INTER.ROT>
2

>  <SCORE.INTER.SOLV>
13.2207

>  <SCORE.INTER.VDW>
-12.7473

>  <SCORE.INTER.norm>
-0.435395

>  <SCORE.INTRA>
-0.742888

>  <SCORE.INTRA.DIHEDRAL>
-1.96287

>  <SCORE.INTRA.DIHEDRAL.0>
3.72394

>  <SCORE.INTRA.POLAR>
0

>  <SCORE.INTRA.POLAR.0>
0

>  <SCORE.INTRA.REPUL>
0

>  <SCORE.INTRA.REPUL.0>
0

>  <SCORE.INTRA.SOLV>
1.60394

>  <SCORE.INTRA.SOLV.lig_0>
-49.4697

>  <SCORE.INTRA.VDW>
-0.563421

>  <SCORE.INTRA.VDW.0>
-0.896538

>  <SCORE.INTRA.norm>
-0.0371444

>  <SCORE.RESTR>
0.554247

>  <SCORE.RESTR.CAVITY>
0.554247

>  <SCORE.RESTR.norm>
0.0277123

>  <SCORE.SYSTEM>
0

>  <SCORE.SYSTEM.CONST>
0

>  <SCORE.SYSTEM.DIHEDRAL>
0

>  <SCORE.SYSTEM.SOLV>
0

>  <SCORE.SYSTEM.norm>
0

>  <SCORE.heavy>
20

>  <SCORE.norm>
-0.444827

>  <RMSD>
25.919

$$$$
1nyi_lig
 OpenBabel11021811403D
libRbt.so/2013.1/901 2013/11/27
 20 22  0  0  0  0  0  0  0  0999 V2000
   27.9209   -4.2721   15.8798 C   0  0  0  0  0  0  0  0  0  0  0  0
   28.5846   -5.2669   15.1002 O   0  0  0  0  0  0  0  0  0  0  0  0
   26.4451   -4.2250   15.5510 C   0  0  1  0  0  0  0  0  0  0  0  0
   25.7934   -5.3814   16.1429 O   0  0  0  0  0  0  0  0  0  0  0  0
   25.7517   -3.0055   16.1481 C   0  0  1  0  0  0  0  0  0  0  0  0
   25.7667   -1.8993   15.2447 O   0  0  0  0  0  0  0  0  0  0  0  0
   24.3503   -3.5396   16.4369 C   0  0  1  0  0  0  0  0  0  0  0  0
   23.5248   -3.5930   15.2831 O   0  0  0  0  0  0  0  0  0  0  0  0
   24.6780   -4.9526   16.9146 C   0  0  2  0  0  0  0  0  0  0  0  0
   28.1480   -5.8887   20.5986 N   0  0  0  0  0  0  0  0  0  0  0  0
   28.3214   -5.7958   19.2390 C   0  0  1  0  0  0  0  0  0  0  0  0
   29.5705   -5.9738   18.8063 N   0  0  0  0  0  0  0  0  0  0  0  0
   27.3444   -5.5510   18.3705 N   0  0  0  0  0  0  0  0  0  0  0  0
   26.1321   -5.4087   18.9815 C   0  0  1  0  0  0  0  0  0  0  0  0
   25.8573   -5.4842   20.3356 C   0  0  1  0  0  0  0  0  0  0  0  0
   26.9216   -5.7371   21.2452 C   0  0  0  0  0  0  0  0  0  0  0  0
   26.8753   -5.8364   22.4780 O   0  0  0  0  0  0  0  0  0  0  0  0
   24.5057   -5.2687   20.5718 N   0  0  0  0  0  0  0  0  0  0  0  0
   23.9950   -5.0783   19.3866 C   0  0  0  0  0  0  0  0  0  0  0  0
   24.9139   -5.1539   18.3630 N   0  0  1  0  0  0  0  0  0  0  0  0
  2  1  1  0  0  0  0
  3  1  1  1  0  0  0
  3  4  1  0  0  0  0
  3  5  1  0  0  0  0
  5  6  1  6  0  0  0
  5  7  1  0  0  0  0
  7  8  1  6  0  0  0
  7  9  1  0  0  0  0
  9  4  1  6  0  0  0
  9 20  1  0  0  0  0
 10 11  1  0  0  0  0
 11 12  1  6  0  0  0
 11 13  1  0  0  0  0
 14 13  1  1  0  0  0
 15 14  1  0  0  0  0
 15 16  1  1  0  0  0
 16 10  1  0  0  0  0
 16 17  2  0  0  0  0
 18 15  1  0  0  0  0
 19 18  1  0  0  0  0
 20 14  1  0  0  0  0
 20 19  1  1  0  0  0
M  END
>  <CHROM.1>
74.29789776,14.98039098,26.26793227,-4.84851166,17.99822748,-1.82030246,-0.24792853
1.89127866

>  <Name>
1nyi_lig

>  <RI>
0

>  <Rbt.Current_Directory>
/home/itssahil/PROJECTS/Mol_Feturizer/New_Systems/rnas/1nyi

>  <Rbt.Executable>
rbdock ($Id: //depot/dev/client3/rdock/2013.1/src/exe/rbdock.cxx#4 $)

>  <Rbt.Library>
libRbt.so (2013.1, Build901 2013/11/27)

>  <Rbt.Parameter_File>
/export/apps/rDock/src/rDock_2013.1_src/data/scripts/dock_solv.prm

>  <Rbt.Receptor>
prm/blind_docking_80.prm

>  <SCORE>
-8.97629

>  <SCORE.INTER>
-8.84342

>  <SCORE.INTER.CONST>
1

>  <SCORE.INTER.POLAR>
-0.721057

>  <SCORE.INTER.ROT>
2

>  <SCORE.INTER.SOLV>
12.2083

>  <SCORE.INTER.VDW>
-12.4949

>  <SCORE.INTER.norm>
-0.442171

>  <SCORE.INTRA>
-0.670688

>  <SCORE.INTRA.DIHEDRAL>
-1.8463

>  <SCORE.INTRA.DIHEDRAL.0>
3.72394

>  <SCORE.INTRA.POLAR>
0

>  <SCORE.INTRA.POLAR.0>
0

>  <SCORE.INTRA.REPUL>
0

>  <SCORE.INTRA.REPUL.0>
0

>  <SCORE.INTRA.SOLV>
1.90928

>  <SCORE.INTRA.SOLV.lig_0>
-49.4697

>  <SCORE.INTRA.VDW>
-0.702179

>  <SCORE.INTRA.VDW.0>
-0.896538

>  <SCORE.INTRA.norm>
-0.0335344

>  <SCORE.RESTR>
0.537813

>  <SCORE.RESTR.CAVITY>
0.537813

>  <SCORE.RESTR.norm>
0.0268907

>  <SCORE.SYSTEM>
0

>  <SCORE.SYSTEM.CONST>
0

>  <SCORE.SYSTEM.DIHEDRAL>
0

>  <SCORE.SYSTEM.SOLV>
0

>  <SCORE.SYSTEM.norm>
0

>  <SCORE.heavy>
20

>  <SCORE.norm>
-0.448815

>  <RMSD>
25.924

$$$$
1nyi_lig
 OpenBabel11021811403D
libRbt.so/2013.1/901 2013/11/27
 20 22  0  0  0  0  0  0  0  0999 V2000
   27.1735   -5.3191   20.8852 C   0  0  0  0  0  0  0  0  0  0  0  0
   27.5854   -4.2369   21.7202 O   0  0  0  0  0  0  0  0  0  0  0  0
   25.6852   -5.2605   20.6212 C   0  0  1  0  0  0  0  0  0  0  0  0
   25.4149   -4.1828   19.6845 O   0  0  0  0  0  0  0  0  0  0  0  0
   25.1585   -6.5291   19.9596 C   0  0  1  0  0  0  0  0  0  0  0  0
   24.7291   -7.4864   20.9288 O   0  0  0  0  0  0  0  0  0  0  0  0
   24.0254   -5.9923   19.0875 C   0  0  1  0  0  0  0  0  0  0  0  0
   22.8345   -5.7346   19.8162 O   0  0  0  0  0  0  0  0  0  0  0  0
   24.6383   -4.6807   18.6016 C   0  0  2  0  0  0  0  0  0  0  0  0
   29.0760   -5.9900   16.3473 N   0  0  0  0  0  0  0  0  0  0  0  0
   28.6987   -6.1025   17.6634 C   0  0  1  0  0  0  0  0  0  0  0  0
   29.6136   -6.6273   18.4799 N   0  0  0  0  0  0  0  0  0  0  0  0
   27.5166   -5.7258   18.1425 N   0  0  0  0  0  0  0  0  0  0  0  0
   26.7097   -5.1997   17.1753 C   0  0  1  0  0  0  0  0  0  0  0  0
   26.9974   -5.0452   15.8306 C   0  0  1  0  0  0  0  0  0  0  0  0
   28.2654   -5.4655   15.3409 C   0  0  0  0  0  0  0  0  0  0  0  0
   28.7014   -5.4124   14.1839 O   0  0  0  0  0  0  0  0  0  0  0  0
   25.9164   -4.4859   15.1616 N   0  0  0  0  0  0  0  0  0  0  0  0
   25.0166   -4.3082   16.0894 C   0  0  0  0  0  0  0  0  0  0  0  0
   25.4205   -4.7089   17.3441 N   0  0  1  0  0  0  0  0  0  0  0  0
  2  1  1  0  0  0  0
  3  1  1  6  0  0  0
  3  4  1  0  0  0  0
  3  5  1  0  0  0  0
  5  6  1  1  0  0  0
  5  7  1  0  0  0  0
  7  8  1  1  0  0  0
  7  9  1  0  0  0  0
  9  4  1  1  0  0  0
  9 20  1  0  0  0  0
 10 11  1  0  0  0  0
 11 12  1  1  0  0  0
 11 13  1  0  0  0  0
 14 13  1  6  0  0  0
 15 14  1  0  0  0  0
 15 16  1  6  0  0  0
 16 10  1  0  0  0  0
 16 17  2  0  0  0  0
 18 15  1  0  0  0  0
 19 18  1  0  0  0  0
 20 14  1  0  0  0  0
 20 19  1  6  0  0  0
M  END
>  <CHROM.1>
73.76528770,46.90935083,26.43610977,-5.42087302,18.20608802,-2.14158430,0.13048685
-1.43291482

>  <Name>
1nyi_lig

>  <RI>
0

>  <Rbt.Current_Directory>
/home/itssahil/PROJECTS/Mol_Feturizer/New_Systems/rnas/1nyi

>  <Rbt.Executable>
rbdock ($Id: //depot/dev/client3/rdock/2013.1/src/exe/rbdock.cxx#4 $)

>  <Rbt.Library>
libRbt.so (2013.1, Build901 2013/11/27)

>  <Rbt.Parameter_File>
/export/apps/rDock/src/rDock_2013.1_src/data/scripts/dock_solv.prm

>  <Rbt.Receptor>
prm/blind_docking_80.prm

>  <SCORE>
-9.71796

>  <SCORE.INTER>
-11.6646

>  <SCORE.INTER.CONST>
1

>  <SCORE.INTER.POLAR>
-1.80717

>  <SCORE.INTER.ROT>
2

>  <SCORE.INTER.SOLV>
12.2501

>  <SCORE.INTER.VDW>
-10.7692

>  <SCORE.INTER.norm>
-0.58323

>  <SCORE.INTRA>
-0.970136

>  <SCORE.INTRA.DIHEDRAL>
-1.89862

>  <SCORE.INTRA.DIHEDRAL.0>
3.72394

>  <SCORE.INTRA.POLAR>
0

>  <SCORE.INTRA.POLAR.0>
0

>  <SCORE.INTRA.REPUL>
0

>  <SCORE.INTRA.REPUL.0>
0

>  <SCORE.INTRA.SOLV>
1.6638

>  <SCORE.INTRA.SOLV.lig_0>
-49.4697

>  <SCORE.INTRA.VDW>
-0.852726

>  <SCORE.INTRA.VDW.0>
-0.896538

>  <SCORE.INTRA.norm>
-0.0485068

>  <SCORE.RESTR>
2.91677

>  <SCORE.RESTR.CAVITY>
2.91677

>  <SCORE.RESTR.norm>
0.145838

>  <SCORE.SYSTEM>
0

>  <SCORE.SYSTEM.CONST>
0

>  <SCORE.SYSTEM.DIHEDRAL>
0

>  <SCORE.SYSTEM.SOLV>
0

>  <SCORE.SYSTEM.norm>
0

>  <SCORE.heavy>
20

>  <SCORE.norm>
-0.485898

>  <RMSD>
25.934

$$$$
1nyi_lig
 OpenBabel11021811403D
libRbt.so/2013.1/901 2013/11/27
 20 22  0  0  0  0  0  0  0  0999 V2000
   26.6645   -5.5853   22.1761 C   0  0  0  0  0  0  0  0  0  0  0  0
   27.4632   -4.4031   22.1260 O   0  0  0  0  0  0  0  0  0  0  0  0
   25.3456   -5.3757   21.4656 C   0  0  1  0  0  0  0  0  0  0  0  0
   25.5463   -4.4500   20.3632 O   0  0  0  0  0  0  0  0  0  0  0  0
   24.8084   -6.6580   20.8399 C   0  0  1  0  0  0  0  0  0  0  0  0
   23.9604   -7.3673   21.7443 O   0  0  0  0  0  0  0  0  0  0  0  0
   24.0807   -6.1342   19.6035 C   0  0  1  0  0  0  0  0  0  0  0  0
   22.7990   -5.5981   19.8958 O   0  0  0  0  0  0  0  0  0  0  0  0
   25.0292   -5.0199   19.1667 C   0  0  2  0  0  0  0  0  0  0  0  0
   27.2223   -4.0450   14.6138 N   0  0  0  0  0  0  0  0  0  0  0  0
   26.1049   -3.4839   15.1828 C   0  0  1  0  0  0  0  0  0  0  0  0
   25.4963   -2.5492   14.4513 N   0  0  0  0  0  0  0  0  0  0  0  0
   25.6198   -3.8165   16.3755 N   0  0  0  0  0  0  0  0  0  0  0  0
   26.3554   -4.7951   16.9792 C   0  0  1  0  0  0  0  0  0  0  0  0
   27.4895   -5.4191   16.4901 C   0  0  1  0  0  0  0  0  0  0  0  0
   27.9946   -5.0382   15.2157 C   0  0  0  0  0  0  0  0  0  0  0  0
   28.9864   -5.4742   14.6175 O   0  0  0  0  0  0  0  0  0  0  0  0
   27.9647   -6.3524   17.4024 N   0  0  0  0  0  0  0  0  0  0  0  0
   27.1279   -6.2858   18.4010 C   0  0  0  0  0  0  0  0  0  0  0  0
   26.1151   -5.3692   18.2218 N   0  0  1  0  0  0  0  0  0  0  0  0
  2  1  1  0  0  0  0
  3  1  1  6  0  0  0
  3  4  1  0  0  0  0
  3  5  1  0  0  0  0
  5  6  1  1  0  0  0
  5  7  1  0  0  0  0
  7  8  1  1  0  0  0
  7  9  1  0  0  0  0
  9  4  1  1  0  0  0
  9 20  1  0  0  0  0
 10 11  1  0  0  0  0
 11 12  1  6  0  0  0
 11 13  1  0  0  0  0
 14 13  1  1  0  0  0
 15 14  1  0  0  0  0
 15 16  1  1  0  0  0
 16 10  1  0  0  0  0
 16 17  2  0  0  0  0
 18 15  1  0  0  0  0
 19 18  1  0  0  0  0
 20 14  1  0  0  0  0
 20 19  1  1  0  0  0
M  END
>  <CHROM.1>
32.32126108,-114.17150714,26.09522076,-5.16986992,18.33455367,-1.90541019
0.19203424,-1.26653933

>  <Name>
1nyi_lig

>  <RI>
0

>  <Rbt.Current_Directory>
/home/itssahil/PROJECTS/Mol_Feturizer/New_Systems/rnas/1nyi

>  <Rbt.Executable>
rbdock ($Id: //depot/dev/client3/rdock/2013.1/src/exe/rbdock.cxx#4 $)

>  <Rbt.Library>
libRbt.so (2013.1, Build901 2013/11/27)

>  <Rbt.Parameter_File>
/export/apps/rDock/src/rDock_2013.1_src/data/scripts/dock_solv.prm

>  <Rbt.Receptor>
prm/blind_docking_80.prm

>  <SCORE>
-8.48495

>  <SCORE.INTER>
-9.79372

>  <SCORE.INTER.CONST>
1

>  <SCORE.INTER.POLAR>
-0.877653

>  <SCORE.INTER.ROT>
2

>  <SCORE.INTER.SOLV>
10.9053

>  <SCORE.INTER.VDW>
-12.1721

>  <SCORE.INTER.norm>
-0.489686

>  <SCORE.INTRA>
-0.694549

>  <SCORE.INTRA.DIHEDRAL>
-0.239671

>  <SCORE.INTRA.DIHEDRAL.0>
3.72394

>  <SCORE.INTRA.POLAR>
0

>  <SCORE.INTRA.POLAR.0>
0

>  <SCORE.INTRA.REPUL>
0

>  <SCORE.INTRA.REPUL.0>
0

>  <SCORE.INTRA.SOLV>
-0.690562

>  <SCORE.INTRA.SOLV.lig_0>
-49.4697

>  <SCORE.INTRA.VDW>
-0.229432

>  <SCORE.INTRA.VDW.0>
-0.896538

>  <SCORE.INTRA.norm>
-0.0347275

>  <SCORE.RESTR>
2.00331

>  <SCORE.RESTR.CAVITY>
2.00331

>  <SCORE.RESTR.norm>
0.100166

>  <SCORE.SYSTEM>
0

>  <SCORE.SYSTEM.CONST>
0

>  <SCORE.SYSTEM.DIHEDRAL>
0

>  <SCORE.SYSTEM.SOLV>
0

>  <SCORE.SYSTEM.norm>
0

>  <SCORE.heavy>
20

>  <SCORE.norm>
-0.424248

>  <RMSD>
25.953

$$$$
1nyi_lig
 OpenBabel11021811403D
libRbt.so/2013.1/901 2013/11/27
 20 22  0  0  0  0  0  0  0  0999 V2000
   28.0292   -4.3286   15.8339 C   0  0  0  0  0  0  0  0  0  0  0  0
   28.5484   -5.4379   15.1005 O   0  0  0  0  0  0  0  0  0  0  0  0
   26.5761   -4.0871   15.4900 C   0  0  1  0  0  0  0  0  0  0  0  0
   25.7836   -5.2004   15.9847 O   0  0  0  0  0  0  0  0  0  0  0  0
   26.0139   -2.8425   16.1677 C   0  0  1  0  0  0  0  0  0  0  0  0
   26.1751   -1.6823   15.3502 O   0  0  0  0  0  0  0  0  0  0  0  0
   24.5546   -3.2304   16.3970 C   0  0  1  0  0  0  0  0  0  0  0  0
   23.7539   -3.1035   15.2316 O   0  0  0  0  0  0  0  0  0  0  0  0
   24.7079   -4.7029   16.7715 C   0  0  2  0  0  0  0  0  0  0  0  0
   28.0176   -6.0736   20.4670 N   0  0  0  0  0  0  0  0  0  0  0  0
   28.2402   -5.8713   19.1266 C   0  0  1  0  0  0  0  0  0  0  0  0
   29.4968   -6.0562   18.7192 N   0  0  0  0  0  0  0  0  0  0  0  0
   27.3020   -5.5184   18.2525 N   0  0  0  0  0  0  0  0  0  0  0  0
   26.0749   -5.3855   18.8355 C   0  0  1  0  0  0  0  0  0  0  0  0
   25.7518   -5.5665   20.1688 C   0  0  1  0  0  0  0  0  0  0  0  0
   26.7756   -5.9340   21.0858 C   0  0  0  0  0  0  0  0  0  0  0  0
   26.6840   -6.1364   22.3033 O   0  0  0  0  0  0  0  0  0  0  0  0
   24.4007   -5.3238   20.3806 N   0  0  0  0  0  0  0  0  0  0  0  0
   23.9373   -5.0147   19.2009 C   0  0  0  0  0  0  0  0  0  0  0  0
   24.8876   -5.0354   18.2037 N   0  0  1  0  0  0  0  0  0  0  0  0
  2  1  1  0  0  0  0
  3  1  1  1  0  0  0
  3  4  1  0  0  0  0
  3  5  1  0  0  0  0
  5  6  1  6  0  0  0
  5  7  1  0  0  0  0
  7  8  1  6  0  0  0
  7  9  1  0  0  0  0
  9  4  1  6  0  0  0
  9 20  1  0  0  0  0
 10 11  1  0  0  0  0
 11 12  1  6  0  0  0
 11 13  1  0  0  0  0
 14 13  1  1  0  0  0
 15 14  1  0  0  0  0
 15 16  1  1  0  0  0
 16 10  1  0  0  0  0
 16 17  2  0  0  0  0
 18 15  1  0  0  0  0
 19 18  1  0  0  0  0
 20 14  1  0  0  0  0
 20 19  1  1  0  0  0
M  END
>  <CHROM.1>
67.53849863,19.74866390,26.28593432,-4.80783661,17.89971356,-1.76388103,-0.30037598
1.96492655

>  <Name>
1nyi_lig

>  <RI>
0

>  <Rbt.Current_Directory>
/home/itssahil/PROJECTS/Mol_Feturizer/New_Systems/rnas/1nyi

>  <Rbt.Executable>
rbdock ($Id: //depot/dev/client3/rdock/2013.1/src/exe/rbdock.cxx#4 $)

>  <Rbt.Library>
libRbt.so (2013.1, Build901 2013/11/27)

>  <Rbt.Parameter_File>
/export/apps/rDock/src/rDock_2013.1_src/data/scripts/dock_solv.prm

>  <Rbt.Receptor>
prm/blind_docking_80.prm

>  <SCORE>
-8.07123

>  <SCORE.INTER>
-7.71954

>  <SCORE.INTER.CONST>
1

>  <SCORE.INTER.POLAR>
-0.789672

>  <SCORE.INTER.ROT>
2

>  <SCORE.INTER.SOLV>
11.5958

>  <SCORE.INTER.VDW>
-11.3127

>  <SCORE.INTER.norm>
-0.385977

>  <SCORE.INTRA>
-0.677221

>  <SCORE.INTRA.DIHEDRAL>
-2.36501

>  <SCORE.INTRA.DIHEDRAL.0>
3.72394

>  <SCORE.INTRA.POLAR>
0

>  <SCORE.INTRA.POLAR.0>
0

>  <SCORE.INTRA.REPUL>
0

>  <SCORE.INTRA.REPUL.0>
0

>  <SCORE.INTRA.SOLV>
2.19211

>  <SCORE.INTRA.SOLV.lig_0>
-49.4697

>  <SCORE.INTRA.VDW>
-0.590768

>  <SCORE.INTRA.VDW.0>
-0.896538

>  <SCORE.INTRA.norm>
-0.0338611

>  <SCORE.RESTR>
0.325531

>  <SCORE.RESTR.CAVITY>
0.325531

>  <SCORE.RESTR.norm>
0.0162766

>  <SCORE.SYSTEM>
0

>  <SCORE.SYSTEM.CONST>
0

>  <SCORE.SYSTEM.DIHEDRAL>
0

>  <SCORE.SYSTEM.SOLV>
0

>  <SCORE.SYSTEM.norm>
0

>  <SCORE.heavy>
20

>  <SCORE.norm>
-0.403561

>  <RMSD>
26.003

$$$$
1nyi_lig
 OpenBabel11021811403D
libRbt.so/2013.1/901 2013/11/27
 20 22  0  0  0  0  0  0  0  0999 V2000
   26.9996   -5.2344   21.7702 C   0  0  0  0  0  0  0  0  0  0  0  0
   27.3192   -6.0115   22.9243 O   0  0  0  0  0  0  0  0  0  0  0  0
   25.5739   -5.4834   21.3302 C   0  0  1  0  0  0  0  0  0  0  0  0
   25.2042   -4.4833   20.3426 O   0  0  0  0  0  0  0  0  0  0  0  0
   25.4018   -6.8324   20.6411 C   0  0  1  0  0  0  0  0  0  0  0  0
   25.0634   -7.8588   21.5750 O   0  0  0  0  0  0  0  0  0  0  0  0
   24.2968   -6.5395   19.6282 C   0  0  1  0  0  0  0  0  0  0  0  0
   22.9993   -6.5335   20.2043 O   0  0  0  0  0  0  0  0  0  0  0  0
   24.6826   -5.1292   19.1874 C   0  0  2  0  0  0  0  0  0  0  0  0
   25.3791   -3.1773   14.4764 N   0  0  0  0  0  0  0  0  0  0  0  0
   24.2780   -3.1105   15.2952 C   0  0  1  0  0  0  0  0  0  0  0  0
   23.2346   -2.4430   14.8004 N   0  0  0  0  0  0  0  0  0  0  0  0
   24.2048   -3.6593   16.5044 N   0  0  0  0  0  0  0  0  0  0  0  0
   25.3532   -4.3130   16.8467 C   0  0  1  0  0  0  0  0  0  0  0  0
   26.5087   -4.4353   16.0954 C   0  0  1  0  0  0  0  0  0  0  0  0
   26.5656   -3.8304   14.8089 C   0  0  0  0  0  0  0  0  0  0  0  0
   27.5011   -3.8279   13.9986 O   0  0  0  0  0  0  0  0  0  0  0  0
   27.4679   -5.1608   16.7902 N   0  0  0  0  0  0  0  0  0  0  0  0
   26.8901   -5.4650   17.9197 C   0  0  0  0  0  0  0  0  0  0  0  0
   25.6003   -4.9942   18.0326 N   0  0  1  0  0  0  0  0  0  0  0  0
  2  1  1  0  0  0  0
  3  1  1  6  0  0  0
  3  4  1  0  0  0  0
  3  5  1  0  0  0  0
  5  6  1  1  0  0  0
  5  7  1  0  0  0  0
  7  8  1  1  0  0  0
  7  9  1  0  0  0  0
  9  4  1  1  0  0  0
  9 20  1  0  0  0  0
 10 11  1  0  0  0  0
 11 12  1  6  0  0  0
 11 13  1  0  0  0  0
 14 13  1  1  0  0  0
 15 14  1  0  0  0  0
 15 16  1  1  0  0  0
 16 10  1  0  0  0  0
 16 17  2  0  0  0  0
 18 15  1  0  0  0  0
 19 18  1  0  0  0  0
 20 14  1  0  0  0  0
 20 19  1  1  0  0  0
M  END
>  <CHROM.1>
168.24810411,-115.17346547,25.53137161,-4.95812905,18.23436401,-1.56229069
0.04839624,-1.16410159

>  <Name>
1nyi_lig

>  <RI>
0

>  <Rbt.Current_Directory>
/home/itssahil/PROJECTS/Mol_Feturizer/New_Systems/rnas/1nyi

>  <Rbt.Executable>
rbdock ($Id: //depot/dev/client3/rdock/2013.1/src/exe/rbdock.cxx#4 $)

>  <Rbt.Library>
libRbt.so (2013.1, Build901 2013/11/27)

>  <Rbt.Parameter_File>
/export/apps/rDock/src/rDock_2013.1_src/data/scripts/dock_solv.prm

>  <Rbt.Receptor>
prm/blind_docking_100.prm

>  <SCORE>
6.19514

>  <SCORE.INTER>
0.672292

>  <SCORE.INTER.CONST>
1

>  <SCORE.INTER.POLAR>
0

>  <SCORE.INTER.ROT>
2

>  <SCORE.INTER.SOLV>
13.8812

>  <SCORE.INTER.VDW>
-9.1122

>  <SCORE.INTER.norm>
0.0336146

>  <SCORE.INTRA>
-1.82694

>  <SCORE.INTRA.DIHEDRAL>
-2.04838

>  <SCORE.INTRA.DIHEDRAL.0>
3.72394

>  <SCORE.INTRA.POLAR>
0

>  <SCORE.INTRA.POLAR.0>
0

>  <SCORE.INTRA.REPUL>
0

>  <SCORE.INTRA.REPUL.0>
0

>  <SCORE.INTRA.SOLV>
-0.711169

>  <SCORE.INTRA.SOLV.lig_0>
-49.4697

>  <SCORE.INTRA.VDW>
-0.447167

>  <SCORE.INTRA.VDW.0>
-0.896538

>  <SCORE.INTRA.norm>
-0.091347

>  <SCORE.RESTR>
7.34979

>  <SCORE.RESTR.CAVITY>
7.34979

>  <SCORE.RESTR.norm>
0.36749

>  <SCORE.SYSTEM>
0

>  <SCORE.SYSTEM.CONST>
0

>  <SCORE.SYSTEM.DIHEDRAL>
0

>  <SCORE.SYSTEM.SOLV>
0

>  <SCORE.SYSTEM.norm>
0

>  <SCORE.heavy>
20

>  <SCORE.norm>
0.309757

>  <RMSD>
26.067

$$$$
1nyi_lig
 OpenBabel11021811403D
libRbt.so/2013.1/901 2013/11/27
 20 22  0  0  0  0  0  0  0  0999 V2000
   27.9099   -4.1374   15.6834 C   0  0  0  0  0  0  0  0  0  0  0  0
   28.4499   -5.2383   14.9523 O   0  0  0  0  0  0  0  0  0  0  0  0
   26.4289   -3.9863   15.4152 C   0  0  1  0  0  0  0  0  0  0  0  0
   25.7378   -5.1650   15.9104 O   0  0  0  0  0  0  0  0  0  0  0  0
   25.8180   -2.8030   16.1576 C   0  0  1  0  0  0  0  0  0  0  0  0
   25.8612   -1.6117   15.3707 O   0  0  0  0  0  0  0  0  0  0  0  0
   24.4008   -3.2964   16.4419 C   0  0  1  0  0  0  0  0  0  0  0  0
   23.5378   -3.1914   15.3195 O   0  0  0  0  0  0  0  0  0  0  0  0
   24.6706   -4.7651   16.7618 C   0  0  2  0  0  0  0  0  0  0  0  0
   28.2232   -6.1280   20.2274 N   0  0  0  0  0  0  0  0  0  0  0  0
   28.3626   -5.8887   18.8819 C   0  0  1  0  0  0  0  0  0  0  0  0
   29.5980   -6.0293   18.3990 N   0  0  0  0  0  0  0  0  0  0  0  0
   27.3665   -5.5421   18.0718 N   0  0  0  0  0  0  0  0  0  0  0  0
   26.1721   -5.4567   18.7270 C   0  0  1  0  0  0  0  0  0  0  0  0
   25.9314   -5.6772   20.0717 C   0  0  1  0  0  0  0  0  0  0  0  0
   27.0158   -6.0371   20.9195 C   0  0  0  0  0  0  0  0  0  0  0  0
   27.0001   -6.2700   22.1349 O   0  0  0  0  0  0  0  0  0  0  0  0
   24.5889   -5.4770   20.3662 N   0  0  0  0  0  0  0  0  0  0  0  0
   24.0500   -5.1539   19.2229 C   0  0  0  0  0  0  0  0  0  0  0  0
   24.9414   -5.1253   18.1728 N   0  0  1  0  0  0  0  0  0  0  0  0
  2  1  1  0  0  0  0
  3  1  1  1  0  0  0
  3  4  1  0  0  0  0
  3  5  1  0  0  0  0
  5  6  1  6  0  0  0
  5  7  1  0  0  0  0
  7  8  1  6  0  0  0
  7  9  1  0  0  0  0
  9  4  1  6  0  0  0
  9 20  1  0  0  0  0
 10 11  1  0  0  0  0
 11 12  1  6  0  0  0
 11 13  1  0  0  0  0
 14 13  1  1  0  0  0
 15 14  1  0  0  0  0
 15 16  1  1  0  0  0
 16 10  1  0  0  0  0
 16 17  2  0  0  0  0
 18 15  1  0  0  0  0
 19 18  1  0  0  0  0
 20 14  1  0  0  0  0
 20 19  1  1  0  0  0
M  END
>  <CHROM.1>
64.06070814,17.31537213,26.29976295,-4.82818694,17.80785050,-1.84558207,-0.28544805
1.98152309

>  <Name>
1nyi_lig

>  <RI>
0

>  <Rbt.Current_Directory>
/home/itssahil/PROJECTS/Mol_Feturizer/New_Systems/rnas/1nyi

>  <Rbt.Executable>
rbdock ($Id: //depot/dev/client3/rdock/2013.1/src/exe/rbdock.cxx#4 $)

>  <Rbt.Library>
libRbt.so (2013.1, Build901 2013/11/27)

>  <Rbt.Parameter_File>
/export/apps/rDock/src/rDock_2013.1_src/data/scripts/dock_solv.prm

>  <Rbt.Receptor>
prm/blind_docking_80.prm

>  <SCORE>
-8.87221

>  <SCORE.INTER>
-8.57259

>  <SCORE.INTER.CONST>
1

>  <SCORE.INTER.POLAR>
-0.897597

>  <SCORE.INTER.ROT>
2

>  <SCORE.INTER.SOLV>
11.4998

>  <SCORE.INTER.VDW>
-11.4897

>  <SCORE.INTER.norm>
-0.42863

>  <SCORE.INTRA>
-0.806452

>  <SCORE.INTRA.DIHEDRAL>
-2.50374

>  <SCORE.INTRA.DIHEDRAL.0>
3.72394

>  <SCORE.INTRA.POLAR>
0

>  <SCORE.INTRA.POLAR.0>
0

>  <SCORE.INTRA.REPUL>
0

>  <SCORE.INTRA.REPUL.0>
0

>  <SCORE.INTRA.SOLV>
2.24506

>  <SCORE.INTRA.SOLV.lig_0>
-49.4697

>  <SCORE.INTRA.VDW>
-0.677115

>  <SCORE.INTRA.VDW.0>
-0.896538

>  <SCORE.INTRA.norm>
-0.0403226

>  <SCORE.RESTR>
0.506833

>  <SCORE.RESTR.CAVITY>
0.506833

>  <SCORE.RESTR.norm>
0.0253416

>  <SCORE.SYSTEM>
0

>  <SCORE.SYSTEM.CONST>
0

>  <SCORE.SYSTEM.DIHEDRAL>
0

>  <SCORE.SYSTEM.SOLV>
0

>  <SCORE.SYSTEM.norm>
0

>  <SCORE.heavy>
20

>  <SCORE.norm>
-0.44361

>  <RMSD>
26.101

$$$$
1nyi_lig
 OpenBabel11021811403D
libRbt.so/2013.1/901 2013/11/27
 20 22  0  0  0  0  0  0  0  0999 V2000
   27.9362   -4.1300   15.6637 C   0  0  0  0  0  0  0  0  0  0  0  0
   28.7022   -3.2117   14.8841 O   0  0  0  0  0  0  0  0  0  0  0  0
   26.4571   -3.9635   15.3942 C   0  0  1  0  0  0  0  0  0  0  0  0
   25.7529   -5.1336   15.8914 O   0  0  0  0  0  0  0  0  0  0  0  0
   25.8585   -2.7720   16.1335 C   0  0  1  0  0  0  0  0  0  0  0  0
   25.9151   -1.5829   15.3442 O   0  0  0  0  0  0  0  0  0  0  0  0
   24.4359   -3.2495   16.4179 C   0  0  1  0  0  0  0  0  0  0  0  0
   23.5748   -3.1376   15.2947 O   0  0  0  0  0  0  0  0  0  0  0  0
   24.6895   -4.7203   16.7412 C   0  0  2  0  0  0  0  0  0  0  0  0
   28.2242   -6.1173   20.2115 N   0  0  0  0  0  0  0  0  0  0  0  0
   28.3670   -5.8830   18.8655 C   0  0  1  0  0  0  0  0  0  0  0  0
   29.6008   -6.0394   18.3834 N   0  0  0  0  0  0  0  0  0  0  0  0
   27.3754   -5.5263   18.0541 N   0  0  0  0  0  0  0  0  0  0  0  0
   26.1818   -5.4252   18.7086 C   0  0  1  0  0  0  0  0  0  0  0  0
   25.9380   -5.6396   20.0537 C   0  0  1  0  0  0  0  0  0  0  0  0
   27.0176   -6.0104   20.9028 C   0  0  0  0  0  0  0  0  0  0  0  0
   26.9987   -6.2402   22.1187 O   0  0  0  0  0  0  0  0  0  0  0  0
   24.5978   -5.4227   20.3472 N   0  0  0  0  0  0  0  0  0  0  0  0
   24.0634   -5.0959   19.2029 C   0  0  0  0  0  0  0  0  0  0  0  0
   24.9554   -5.0804   18.1531 N   0  0  1  0  0  0  0  0  0  0  0  0
  2  1  1  0  0  0  0
  3  1  1  1  0  0  0
  3  4  1  0  0  0  0
  3  5  1  0  0  0  0
  5  6  1  6  0  0  0
  5  7  1  0  0  0  0
  7  8  1  6  0  0  0
  7  9  1  0  0  0  0
  9  4  1  6  0  0  0
  9 20  1  0  0  0  0
 10 11  1  0  0  0  0
 11 12  1  6  0  0  0
 11 13  1  0  0  0  0
 14 13  1  1  0  0  0
 15 14  1  0  0  0  0
 15 16  1  1  0  0  0
 16 10  1  0  0  0  0
 16 17  2  0  0  0  0
 18 15  1  0  0  0  0
 19 18  1  0  0  0  0
 20 14  1  0  0  0  0
 20 19  1  1  0  0  0
M  END
>  <CHROM.1>
163.90041655,17.24681293,26.33053426,-4.68434976,17.78538224,-1.77509675
-0.17078343,2.05244006

>  <Name>
1nyi_lig

>  <RI>
0

>  <Rbt.Current_Directory>
/home/itssahil/PROJECTS/Mol_Feturizer/New_Systems/rnas/1nyi

>  <Rbt.Executable>
rbdock ($Id: //depot/dev/client3/rdock/2013.1/src/exe/rbdock.cxx#4 $)

>  <Rbt.Library>
libRbt.so (2013.1, Build901 2013/11/27)

>  <Rbt.Parameter_File>
/export/apps/rDock/src/rDock_2013.1_src/data/scripts/dock_solv.prm

>  <Rbt.Receptor>
prm/blind_docking_80.prm

>  <SCORE>
-8.86001

>  <SCORE.INTER>
-8.75638

>  <SCORE.INTER.CONST>
1

>  <SCORE.INTER.POLAR>
-0.991316

>  <SCORE.INTER.ROT>
2

>  <SCORE.INTER.SOLV>
12.6819

>  <SCORE.INTER.VDW>
-11.6938

>  <SCORE.INTER.norm>
-0.437819

>  <SCORE.INTRA>
-0.604274

>  <SCORE.INTRA.DIHEDRAL>
-1.70359

>  <SCORE.INTRA.DIHEDRAL.0>
3.72394

>  <SCORE.INTRA.POLAR>
0

>  <SCORE.INTRA.POLAR.0>
0

>  <SCORE.INTRA.REPUL>
0

>  <SCORE.INTRA.REPUL.0>
0

>  <SCORE.INTRA.SOLV>
1.60252

>  <SCORE.INTRA.SOLV.lig_0>
-49.4697

>  <SCORE.INTRA.VDW>
-0.553739

>  <SCORE.INTRA.VDW.0>
-0.896538

>  <SCORE.INTRA.norm>
-0.0302137

>  <SCORE.RESTR>
0.500635

>  <SCORE.RESTR.CAVITY>
0.500635

>  <SCORE.RESTR.norm>
0.0250318

>  <SCORE.SYSTEM>
0

>  <SCORE.SYSTEM.CONST>
0

>  <SCORE.SYSTEM.DIHEDRAL>
0

>  <SCORE.SYSTEM.SOLV>
0

>  <SCORE.SYSTEM.norm>
0

>  <SCORE.heavy>
20

>  <SCORE.norm>
-0.443001

>  <RMSD>
26.108

$$$$
1nyi_lig
 OpenBabel11021811403D
libRbt.so/2013.1/901 2013/11/27
 20 22  0  0  0  0  0  0  0  0999 V2000
   27.9593   -4.0974   15.6701 C   0  0  0  0  0  0  0  0  0  0  0  0
   28.7302   -3.2291   14.8395 O   0  0  0  0  0  0  0  0  0  0  0  0
   26.4809   -3.9358   15.3939 C   0  0  1  0  0  0  0  0  0  0  0  0
   25.7779   -5.1063   15.8919 O   0  0  0  0  0  0  0  0  0  0  0  0
   25.8760   -2.7438   16.1272 C   0  0  1  0  0  0  0  0  0  0  0  0
   25.9326   -1.5569   15.3344 O   0  0  0  0  0  0  0  0  0  0  0  0
   24.4536   -3.2243   16.4072 C   0  0  1  0  0  0  0  0  0  0  0  0
   23.5968   -3.1182   15.2801 O   0  0  0  0  0  0  0  0  0  0  0  0
   24.7099   -4.6934   16.7360 C   0  0  2  0  0  0  0  0  0  0  0  0
   28.2236   -6.1270   20.2127 N   0  0  0  0  0  0  0  0  0  0  0  0
   28.3691   -5.9042   18.8650 C   0  0  1  0  0  0  0  0  0  0  0  0
   29.5996   -6.0850   18.3830 N   0  0  0  0  0  0  0  0  0  0  0  0
   27.3829   -5.5362   18.0521 N   0  0  0  0  0  0  0  0  0  0  0  0
   26.1919   -5.4103   18.7069 C   0  0  1  0  0  0  0  0  0  0  0  0
   25.9457   -5.6115   20.0536 C   0  0  1  0  0  0  0  0  0  0  0  0
   27.0197   -5.9949   20.9043 C   0  0  0  0  0  0  0  0  0  0  0  0
   26.9980   -6.2161   22.1218 O   0  0  0  0  0  0  0  0  0  0  0  0
   24.6097   -5.3698   20.3468 N   0  0  0  0  0  0  0  0  0  0  0  0
   24.0798   -5.0416   19.2007 C   0  0  0  0  0  0  0  0  0  0  0  0
   24.9710   -5.0484   18.1501 N   0  0  1  0  0  0  0  0  0  0  0  0
  2  1  1  0  0  0  0
  3  1  1  1  0  0  0
  3  4  1  0  0  0  0
  3  5  1  0  0  0  0
  5  6  1  6  0  0  0
  5  7  1  0  0  0  0
  7  8  1  6  0  0  0
  7  9  1  0  0  0  0
  9  4  1  6  0  0  0
  9 20  1  0  0  0  0
 10 11  1  0  0  0  0
 11 12  1  6  0  0  0
 11 13  1  0  0  0  0
 14 13  1  1  0  0  0
 15 14  1  0  0  0  0
 15 16  1  1  0  0  0
 16 10  1  0  0  0  0
 16 17  2  0  0  0  0
 18 15  1  0  0  0  0
 19 18  1  0  0  0  0
 20 14  1  0  0  0  0
 20 19  1  1  0  0  0
M  END
>  <CHROM.1>
160.82546411,16.05719790,26.34406551,-4.66784829,17.78057162,-1.77231873
-0.18422717,2.05090024

>  <Name>
1nyi_lig

>  <RI>
0

>  <Rbt.Current_Directory>
/home/itssahil/PROJECTS/Mol_Feturizer/New_Systems/rnas/1nyi

>  <Rbt.Executable>
rbdock ($Id: //depot/dev/client3/rdock/2013.1/src/exe/rbdock.cxx#4 $)

>  <Rbt.Library>
libRbt.so (2013.1, Build901 2013/11/27)

>  <Rbt.Parameter_File>
/export/apps/rDock/src/rDock_2013.1_src/data/scripts/dock_solv.prm

>  <Rbt.Receptor>
prm/blind_docking_80.prm

>  <SCORE>
-8.7913

>  <SCORE.INTER>
-8.79696

>  <SCORE.INTER.CONST>
1

>  <SCORE.INTER.POLAR>
-0.988286

>  <SCORE.INTER.ROT>
2

>  <SCORE.INTER.SOLV>
12.5953

>  <SCORE.INTER.VDW>
-11.7021

>  <SCORE.INTER.norm>
-0.439848

>  <SCORE.INTRA>
-0.478272

>  <SCORE.INTRA.DIHEDRAL>
-1.36567

>  <SCORE.INTRA.DIHEDRAL.0>
3.72394

>  <SCORE.INTRA.POLAR>
0

>  <SCORE.INTRA.POLAR.0>
0

>  <SCORE.INTRA.REPUL>
0

>  <SCORE.INTRA.REPUL.0>
0

>  <SCORE.INTRA.SOLV>
1.54656

>  <SCORE.INTRA.SOLV.lig_0>
-49.4697

>  <SCORE.INTRA.VDW>
-0.56872

>  <SCORE.INTRA.VDW.0>
-0.896538

>  <SCORE.INTRA.norm>
-0.0239136

>  <SCORE.RESTR>
0.483933

>  <SCORE.RESTR.CAVITY>
0.483933

>  <SCORE.RESTR.norm>
0.0241967

>  <SCORE.SYSTEM>
0

>  <SCORE.SYSTEM.CONST>
0

>  <SCORE.SYSTEM.DIHEDRAL>
0

>  <SCORE.SYSTEM.SOLV>
0

>  <SCORE.SYSTEM.norm>
0

>  <SCORE.heavy>
20

>  <SCORE.norm>
-0.439565

>  <RMSD>
26.112

$$$$
1nyi_lig
 OpenBabel11021811403D
libRbt.so/2013.1/901 2013/11/27
 20 22  0  0  0  0  0  0  0  0999 V2000
   27.9906   -4.2430   15.6430 C   0  0  0  0  0  0  0  0  0  0  0  0
   28.7924   -3.3258   14.8987 O   0  0  0  0  0  0  0  0  0  0  0  0
   26.5195   -4.0142   15.3748 C   0  0  1  0  0  0  0  0  0  0  0  0
   25.7666   -5.1511   15.8774 O   0  0  0  0  0  0  0  0  0  0  0  0
   25.9738   -2.7954   16.1106 C   0  0  1  0  0  0  0  0  0  0  0  0
   26.0802   -1.6127   15.3167 O   0  0  0  0  0  0  0  0  0  0  0  0
   24.5325   -3.2103   16.3987 C   0  0  1  0  0  0  0  0  0  0  0  0
   23.6753   -3.0656   15.2763 O   0  0  0  0  0  0  0  0  0  0  0  0
   24.7232   -4.6895   16.7271 C   0  0  2  0  0  0  0  0  0  0  0  0
   28.2189   -6.1321   20.2182 N   0  0  0  0  0  0  0  0  0  0  0  0
   28.3734   -5.8964   18.8737 C   0  0  1  0  0  0  0  0  0  0  0  0
   29.6087   -6.0651   18.3997 N   0  0  0  0  0  0  0  0  0  0  0  0
   27.3913   -5.5273   18.0564 N   0  0  0  0  0  0  0  0  0  0  0  0
   26.1944   -5.4147   18.7030 C   0  0  1  0  0  0  0  0  0  0  0  0
   25.9391   -5.6294   20.0459 C   0  0  1  0  0  0  0  0  0  0  0  0
   27.0089   -6.0137   20.9015 C   0  0  0  0  0  0  0  0  0  0  0  0
   26.9792   -6.2459   22.1168 O   0  0  0  0  0  0  0  0  0  0  0  0
   24.5995   -5.3987   20.3308 N   0  0  0  0  0  0  0  0  0  0  0  0
   24.0763   -5.0637   19.1836 C   0  0  0  0  0  0  0  0  0  0  0  0
   24.9756   -5.0555   18.1400 N   0  0  1  0  0  0  0  0  0  0  0  0
  2  1  1  0  0  0  0
  3  1  1  1  0  0  0
  3  4  1  0  0  0  0
  3  5  1  0  0  0  0
  5  6  1  6  0  0  0
  5  7  1  0  0  0  0
  7  8  1  6  0  0  0
  7  9  1  0  0  0  0
  9  4  1  6  0  0  0
  9 20  1  0  0  0  0
 10 11  1  0  0  0  0
 11 12  1  6  0  0  0
 11 13  1  0  0  0  0
 14 13  1  1  0  0  0
 15 14  1  0  0  0  0
 15 16  1  1  0  0  0
 16 10  1  0  0  0  0
 16 17  2  0  0  0  0
 18 15  1  0  0  0  0
 19 18  1  0  0  0  0
 20 14  1  0  0  0  0
 20 19  1  1  0  0  0
M  END
>  <CHROM.1>
166.19507658,19.17928427,26.37064462,-4.69341487,17.77669805,-1.75578053
-0.18446747,2.04771815

>  <Name>
1nyi_lig

>  <RI>
0

>  <Rbt.Current_Directory>
/home/itssahil/PROJECTS/Mol_Feturizer/New_Systems/rnas/1nyi

>  <Rbt.Executable>
rbdock ($Id: //depot/dev/client3/rdock/2013.1/src/exe/rbdock.cxx#4 $)

>  <Rbt.Library>
libRbt.so (2013.1, Build901 2013/11/27)

>  <Rbt.Parameter_File>
/export/apps/rDock/src/rDock_2013.1_src/data/scripts/dock_solv.prm

>  <Rbt.Receptor>
prm/blind_docking_80.prm

>  <SCORE>
-8.76169

>  <SCORE.INTER>
-8.60144

>  <SCORE.INTER.CONST>
1

>  <SCORE.INTER.POLAR>
-0.939221

>  <SCORE.INTER.ROT>
2

>  <SCORE.INTER.SOLV>
12.5958

>  <SCORE.INTER.VDW>
-11.7355

>  <SCORE.INTER.norm>
-0.430072

>  <SCORE.INTRA>
-0.62566

>  <SCORE.INTRA.DIHEDRAL>
-1.92936

>  <SCORE.INTRA.DIHEDRAL.0>
3.72394

>  <SCORE.INTRA.POLAR>
0

>  <SCORE.INTRA.POLAR.0>
0

>  <SCORE.INTRA.REPUL>
0

>  <SCORE.INTRA.REPUL.0>
0

>  <SCORE.INTRA.SOLV>
1.67502

>  <SCORE.INTRA.SOLV.lig_0>
-49.4697

>  <SCORE.INTRA.VDW>
-0.49849

>  <SCORE.INTRA.VDW.0>
-0.896538

>  <SCORE.INTRA.norm>
-0.031283

>  <SCORE.RESTR>
0.465403

>  <SCORE.RESTR.CAVITY>
0.465403

>  <SCORE.RESTR.norm>
0.0232702

>  <SCORE.SYSTEM>
0

>  <SCORE.SYSTEM.CONST>
0

>  <SCORE.SYSTEM.DIHEDRAL>
0

>  <SCORE.SYSTEM.SOLV>
0

>  <SCORE.SYSTEM.norm>
0

>  <SCORE.heavy>
20

>  <SCORE.norm>
-0.438085

>  <RMSD>
26.116

$$$$
1nyi_lig
 OpenBabel11021811403D
libRbt.so/2013.1/901 2013/11/27
 20 22  0  0  0  0  0  0  0  0999 V2000
   27.9630   -4.2209   15.6568 C   0  0  0  0  0  0  0  0  0  0  0  0
   28.4466   -5.3610   14.9466 O   0  0  0  0  0  0  0  0  0  0  0  0
   26.4888   -4.0070   15.3937 C   0  0  1  0  0  0  0  0  0  0  0  0
   25.7507   -5.1587   15.8847 O   0  0  0  0  0  0  0  0  0  0  0  0
   25.9297   -2.8034   16.1442 C   0  0  1  0  0  0  0  0  0  0  0  0
   26.0202   -1.6106   15.3635 O   0  0  0  0  0  0  0  0  0  0  0  0
   24.4940   -3.2390   16.4300 C   0  0  1  0  0  0  0  0  0  0  0  0
   23.6330   -3.0921   15.3107 O   0  0  0  0  0  0  0  0  0  0  0  0
   24.7033   -4.7194   16.7413 C   0  0  2  0  0  0  0  0  0  0  0  0
   28.2266   -6.1356   20.2154 N   0  0  0  0  0  0  0  0  0  0  0  0
   28.3766   -5.8797   18.8741 C   0  0  1  0  0  0  0  0  0  0  0  0
   29.6152   -6.0174   18.3986 N   0  0  0  0  0  0  0  0  0  0  0  0
   27.3875   -5.5201   18.0611 N   0  0  0  0  0  0  0  0  0  0  0  0
   26.1884   -5.4399   18.7085 C   0  0  1  0  0  0  0  0  0  0  0  0
   25.9372   -5.6768   20.0485 C   0  0  1  0  0  0  0  0  0  0  0  0
   27.0144   -6.0504   20.8996 C   0  0  0  0  0  0  0  0  0  0  0  0
   26.9890   -6.2986   22.1118 O   0  0  0  0  0  0  0  0  0  0  0  0
   24.5931   -5.4768   20.3356 N   0  0  0  0  0  0  0  0  0  0  0  0
   24.0636   -5.1378   19.1926 C   0  0  0  0  0  0  0  0  0  0  0  0
   24.9628   -5.0982   18.1496 N   0  0  1  0  0  0  0  0  0  0  0  0
  2  1  1  0  0  0  0
  3  1  1  1  0  0  0
  3  4  1  0  0  0  0
  3  5  1  0  0  0  0
  5  6  1  6  0  0  0
  5  7  1  0  0  0  0
  7  8  1  6  0  0  0
  7  9  1  0  0  0  0
  9  4  1  6  0  0  0
  9 20  1  0  0  0  0
 10 11  1  0  0  0  0
 11 12  1  6  0  0  0
 11 13  1  0  0  0  0
 14 13  1  1  0  0  0
 15 14  1  0  0  0  0
 15 16  1  1  0  0  0
 16 10  1  0  0  0  0
 16 17  2  0  0  0  0
 18 15  1  0  0  0  0
 19 18  1  0  0  0  0
 20 14  1  0  0  0  0
 20 19  1  1  0  0  0
M  END
>  <CHROM.1>
62.48356752,19.65923071,26.33620286,-4.82698941,17.79092019,-1.82943018,-0.29846775
1.98455129

>  <Name>
1nyi_lig

>  <RI>
0

>  <Rbt.Current_Directory>
/home/itssahil/PROJECTS/Mol_Feturizer/New_Systems/rnas/1nyi

>  <Rbt.Executable>
rbdock ($Id: //depot/dev/client3/rdock/2013.1/src/exe/rbdock.cxx#4 $)

>  <Rbt.Library>
libRbt.so (2013.1, Build901 2013/11/27)

>  <Rbt.Parameter_File>
/export/apps/rDock/src/rDock_2013.1_src/data/scripts/dock_solv.prm

>  <Rbt.Receptor>
prm/blind_docking_80.prm

>  <SCORE>
-8.82793

>  <SCORE.INTER>
-8.56855

>  <SCORE.INTER.CONST>
1

>  <SCORE.INTER.POLAR>
-0.897593

>  <SCORE.INTER.ROT>
2

>  <SCORE.INTER.SOLV>
11.5066

>  <SCORE.INTER.VDW>
-11.4892

>  <SCORE.INTER.norm>
-0.428428

>  <SCORE.INTRA>
-0.718749

>  <SCORE.INTRA.DIHEDRAL>
-2.54873

>  <SCORE.INTRA.DIHEDRAL.0>
3.72394

>  <SCORE.INTRA.POLAR>
0

>  <SCORE.INTRA.POLAR.0>
0

>  <SCORE.INTRA.REPUL>
0

>  <SCORE.INTRA.REPUL.0>
0

>  <SCORE.INTRA.SOLV>
2.33091

>  <SCORE.INTRA.SOLV.lig_0>
-49.4697

>  <SCORE.INTRA.VDW>
-0.609841

>  <SCORE.INTRA.VDW.0>
-0.896538

>  <SCORE.INTRA.norm>
-0.0359375

>  <SCORE.RESTR>
0.459376

>  <SCORE.RESTR.CAVITY>
0.459376

>  <SCORE.RESTR.norm>
0.0229688

>  <SCORE.SYSTEM>
0

>  <SCORE.SYSTEM.CONST>
0

>  <SCORE.SYSTEM.DIHEDRAL>
0

>  <SCORE.SYSTEM.SOLV>
0

>  <SCORE.SYSTEM.norm>
0

>  <SCORE.heavy>
20

>  <SCORE.norm>
-0.441396

>  <RMSD>
26.117

$$$$
1nyi_lig
 OpenBabel11021811403D
libRbt.so/2013.1/901 2013/11/27
 20 22  0  0  0  0  0  0  0  0999 V2000
   27.9908   -4.2642   15.6357 C   0  0  0  0  0  0  0  0  0  0  0  0
   28.7974   -3.3429   14.9018 O   0  0  0  0  0  0  0  0  0  0  0  0
   26.5209   -4.0224   15.3729 C   0  0  1  0  0  0  0  0  0  0  0  0
   25.7603   -5.1552   15.8732 O   0  0  0  0  0  0  0  0  0  0  0  0
   25.9872   -2.8023   16.1153 C   0  0  1  0  0  0  0  0  0  0  0  0
   26.1008   -1.6173   15.3258 O   0  0  0  0  0  0  0  0  0  0  0  0
   24.5434   -3.2067   16.4061 C   0  0  1  0  0  0  0  0  0  0  0  0
   23.6841   -3.0505   15.2868 O   0  0  0  0  0  0  0  0  0  0  0  0
   24.7232   -4.6886   16.7279 C   0  0  2  0  0  0  0  0  0  0  0  0
   28.2251   -6.1337   20.2118 N   0  0  0  0  0  0  0  0  0  0  0  0
   28.3790   -5.8883   18.8690 C   0  0  1  0  0  0  0  0  0  0  0  0
   29.6156   -6.0468   18.3947 N   0  0  0  0  0  0  0  0  0  0  0  0
   27.3953   -5.5196   18.0535 N   0  0  0  0  0  0  0  0  0  0  0  0
   26.1974   -5.4182   18.7000 C   0  0  1  0  0  0  0  0  0  0  0  0
   25.9425   -5.6431   20.0414 C   0  0  1  0  0  0  0  0  0  0  0  0
   27.0140   -6.0268   20.8951 C   0  0  0  0  0  0  0  0  0  0  0  0
   26.9849   -6.2671   22.1088 O   0  0  0  0  0  0  0  0  0  0  0  0
   24.6014   -5.4220   20.3269 N   0  0  0  0  0  0  0  0  0  0  0  0
   24.0770   -5.0825   19.1816 C   0  0  0  0  0  0  0  0  0  0  0  0
   24.9769   -5.0624   18.1386 N   0  0  1  0  0  0  0  0  0  0  0  0
  2  1  1  0  0  0  0
  3  1  1  1  0  0  0
  3  4  1  0  0  0  0
  3  5  1  0  0  0  0
  5  6  1  6  0  0  0
  5  7  1  0  0  0  0
  7  8  1  6  0  0  0
  7  9  1  0  0  0  0
  9  4  1  6  0  0  0
  9 20  1  0  0  0  0
 10 11  1  0  0  0  0
 11 12  1  6  0  0  0
 11 13  1  0  0  0  0
 14 13  1  1  0  0  0
 15 14  1  0  0  0  0
 15 16  1  1  0  0  0
 16 10  1  0  0  0  0
 16 17  2  0  0  0  0
 18 15  1  0  0  0  0
 19 18  1  0  0  0  0
 20 14  1  0  0  0  0
 20 19  1  1  0  0  0
M  END
>  <CHROM.1>
166.70281907,20.01242262,26.37558590,-4.69898042,17.77552767,-1.75424348
-0.18285964,2.04955775

>  <Name>
1nyi_lig

>  <RI>
0

>  <Rbt.Current_Directory>
/home/itssahil/PROJECTS/Mol_Feturizer/New_Systems/rnas/1nyi

>  <Rbt.Executable>
rbdock ($Id: //depot/dev/client3/rdock/2013.1/src/exe/rbdock.cxx#4 $)

>  <Rbt.Library>
libRbt.so (2013.1, Build901 2013/11/27)

>  <Rbt.Parameter_File>
/export/apps/rDock/src/rDock_2013.1_src/data/scripts/dock_solv.prm

>  <Rbt.Receptor>
prm/blind_docking_80.prm

>  <SCORE>
-8.74778

>  <SCORE.INTER>
-8.59396

>  <SCORE.INTER.CONST>
1

>  <SCORE.INTER.POLAR>
-0.942416

>  <SCORE.INTER.ROT>
2

>  <SCORE.INTER.SOLV>
12.6416

>  <SCORE.INTER.VDW>
-11.7351

>  <SCORE.INTER.norm>
-0.429698

>  <SCORE.INTRA>
-0.61105

>  <SCORE.INTRA.DIHEDRAL>
-1.97653

>  <SCORE.INTRA.DIHEDRAL.0>
3.72394

>  <SCORE.INTRA.POLAR>
0

>  <SCORE.INTRA.POLAR.0>
0

>  <SCORE.INTRA.REPUL>
0

>  <SCORE.INTRA.REPUL.0>
0

>  <SCORE.INTRA.SOLV>
1.7029

>  <SCORE.INTRA.SOLV.lig_0>
-49.4697

>  <SCORE.INTRA.VDW>
-0.474238

>  <SCORE.INTRA.VDW.0>
-0.896538

>  <SCORE.INTRA.norm>
-0.0305525

>  <SCORE.RESTR>
0.457222

>  <SCORE.RESTR.CAVITY>
0.457222

>  <SCORE.RESTR.norm>
0.0228611

>  <SCORE.SYSTEM>
0

>  <SCORE.SYSTEM.CONST>
0

>  <SCORE.SYSTEM.DIHEDRAL>
0

>  <SCORE.SYSTEM.SOLV>
0

>  <SCORE.SYSTEM.norm>
0

>  <SCORE.heavy>
20

>  <SCORE.norm>
-0.437389

>  <RMSD>
26.118

$$$$
1nyi_lig
 OpenBabel11021811403D
libRbt.so/2013.1/901 2013/11/27
 20 22  0  0  0  0  0  0  0  0999 V2000
   28.0225   -4.3072   15.6264 C   0  0  0  0  0  0  0  0  0  0  0  0
   28.8488   -3.3804   14.9219 O   0  0  0  0  0  0  0  0  0  0  0  0
   26.5585   -4.0335   15.3622 C   0  0  1  0  0  0  0  0  0  0  0  0
   25.7729   -5.1491   15.8627 O   0  0  0  0  0  0  0  0  0  0  0  0
   26.0510   -2.8015   16.1031 C   0  0  1  0  0  0  0  0  0  0  0  0
   26.1910   -1.6199   15.3129 O   0  0  0  0  0  0  0  0  0  0  0  0
   24.5984   -3.1741   16.3930 C   0  0  1  0  0  0  0  0  0  0  0  0
   23.7436   -3.0001   15.2729 O   0  0  0  0  0  0  0  0  0  0  0  0
   24.7456   -4.6593   16.7161 C   0  0  2  0  0  0  0  0  0  0  0  0
   28.2230   -6.1216   20.2173 N   0  0  0  0  0  0  0  0  0  0  0  0
   28.3856   -5.8730   18.8760 C   0  0  1  0  0  0  0  0  0  0  0  0
   29.6247   -6.0329   18.4088 N   0  0  0  0  0  0  0  0  0  0  0  0
   27.4077   -5.4999   18.0556 N   0  0  0  0  0  0  0  0  0  0  0  0
   26.2061   -5.3975   18.6951 C   0  0  1  0  0  0  0  0  0  0  0  0
   25.9426   -5.6255   20.0343 C   0  0  1  0  0  0  0  0  0  0  0  0
   27.0080   -6.0138   20.8935 C   0  0  0  0  0  0  0  0  0  0  0  0
   26.9710   -6.2573   22.1064 O   0  0  0  0  0  0  0  0  0  0  0  0
   24.6002   -5.4021   20.3123 N   0  0  0  0  0  0  0  0  0  0  0  0
   24.0836   -5.0584   19.1647 C   0  0  0  0  0  0  0  0  0  0  0  0
   24.9898   -5.0374   18.1273 N   0  0  1  0  0  0  0  0  0  0  0  0
  2  1  1  0  0  0  0
  3  1  1  1  0  0  0
  3  4  1  0  0  0  0
  3  5  1  0  0  0  0
  5  6  1  6  0  0  0
  5  7  1  0  0  0  0
  7  8  1  6  0  0  0
  7  9  1  0  0  0  0
  9  4  1  6  0  0  0
  9 20  1  0  0  0  0
 10 11  1  0  0  0  0
 11 12  1  6  0  0  0
 11 13  1  0  0  0  0
 14 13  1  1  0  0  0
 15 14  1  0  0  0  0
 15 16  1  1  0  0  0
 16 10  1  0  0  0  0
 16 17  2  0  0  0  0
 18 15  1  0  0  0  0
 19 18  1  0  0  0  0
 20 14  1  0  0  0  0
 20 19  1  1  0  0  0
M  END
>  <CHROM.1>
168.32928240,21.19155793,26.39915258,-4.68850166,17.77037556,-1.74306468
-0.18622666,2.04810929

>  <Name>
1nyi_lig

>  <RI>
0

>  <Rbt.Current_Directory>
/home/itssahil/PROJECTS/Mol_Feturizer/New_Systems/rnas/1nyi

>  <Rbt.Executable>
rbdock ($Id: //depot/dev/client3/rdock/2013.1/src/exe/rbdock.cxx#4 $)

>  <Rbt.Library>
libRbt.so (2013.1, Build901 2013/11/27)

>  <Rbt.Parameter_File>
/export/apps/rDock/src/rDock_2013.1_src/data/scripts/dock_solv.prm

>  <Rbt.Receptor>
prm/blind_docking_80.prm

>  <SCORE>
-8.42952

>  <SCORE.INTER>
-8.21828

>  <SCORE.INTER.CONST>
1

>  <SCORE.INTER.POLAR>
-0.928462

>  <SCORE.INTER.ROT>
2

>  <SCORE.INTER.SOLV>
12.7625

>  <SCORE.INTER.VDW>
-11.5715

>  <SCORE.INTER.norm>
-0.410914

>  <SCORE.INTRA>
-0.621421

>  <SCORE.INTRA.DIHEDRAL>
-2.1137

>  <SCORE.INTRA.DIHEDRAL.0>
3.72394

>  <SCORE.INTRA.POLAR>
0

>  <SCORE.INTRA.POLAR.0>
0

>  <SCORE.INTRA.REPUL>
0

>  <SCORE.INTRA.REPUL.0>
0

>  <SCORE.INTRA.SOLV>
1.74742

>  <SCORE.INTRA.SOLV.lig_0>
-49.4697

>  <SCORE.INTRA.VDW>
-0.438281

>  <SCORE.INTRA.VDW.0>
-0.896538

>  <SCORE.INTRA.norm>
-0.0310711

>  <SCORE.RESTR>
0.410181

>  <SCORE.RESTR.CAVITY>
0.410181

>  <SCORE.RESTR.norm>
0.0205091

>  <SCORE.SYSTEM>
0

>  <SCORE.SYSTEM.CONST>
0

>  <SCORE.SYSTEM.DIHEDRAL>
0

>  <SCORE.SYSTEM.SOLV>
0

>  <SCORE.SYSTEM.norm>
0

>  <SCORE.heavy>
20

>  <SCORE.norm>
-0.421476

>  <RMSD>
26.122

$$$$
1nyi_lig
 OpenBabel11021811403D
libRbt.so/2013.1/901 2013/11/27
 20 22  0  0  0  0  0  0  0  0999 V2000
   28.0243   -4.2744   15.6304 C   0  0  0  0  0  0  0  0  0  0  0  0
   28.8397   -3.3495   14.9109 O   0  0  0  0  0  0  0  0  0  0  0  0
   26.5572   -4.0234   15.3606 C   0  0  1  0  0  0  0  0  0  0  0  0
   25.7867   -5.1490   15.8622 O   0  0  0  0  0  0  0  0  0  0  0  0
   26.0291   -2.7967   16.0959 C   0  0  1  0  0  0  0  0  0  0  0  0
   26.1541   -1.6157   15.3024 O   0  0  0  0  0  0  0  0  0  0  0  0
   24.5813   -3.1899   16.3824 C   0  0  1  0  0  0  0  0  0  0  0  0
   23.7276   -3.0322   15.2590 O   0  0  0  0  0  0  0  0  0  0  0  0
   24.7494   -4.6718   16.7108 C   0  0  2  0  0  0  0  0  0  0  0  0
   28.2253   -6.1358   20.2128 N   0  0  0  0  0  0  0  0  0  0  0  0
   28.3861   -5.8980   18.8693 C   0  0  1  0  0  0  0  0  0  0  0  0
   29.6226   -6.0707   18.3999 N   0  0  0  0  0  0  0  0  0  0  0  0
   27.4087   -5.5232   18.0490 N   0  0  0  0  0  0  0  0  0  0  0  0
   26.2098   -5.4071   18.6910 C   0  0  1  0  0  0  0  0  0  0  0  0
   25.9482   -5.6235   20.0325 C   0  0  1  0  0  0  0  0  0  0  0  0
   27.0131   -6.0139   20.8915 C   0  0  0  0  0  0  0  0  0  0  0  0
   26.9775   -6.2485   22.1062 O   0  0  0  0  0  0  0  0  0  0  0  0
   24.6084   -5.3879   20.3125 N   0  0  0  0  0  0  0  0  0  0  0  0
   24.0912   -5.0484   19.1639 C   0  0  0  0  0  0  0  0  0  0  0  0
   24.9947   -5.0418   18.1239 N   0  0  1  0  0  0  0  0  0  0  0  0
  2  1  1  0  0  0  0
  3  1  1  1  0  0  0
  3  4  1  0  0  0  0
  3  5  1  0  0  0  0
  5  6  1  6  0  0  0
  5  7  1  0  0  0  0
  7  8  1  6  0  0  0
  7  9  1  0  0  0  0
  9  4  1  6  0  0  0
  9 20  1  0  0  0  0
 10 11  1  0  0  0  0
 11 12  1  6  0  0  0
 11 13  1  0  0  0  0
 14 13  1  1  0  0  0
 15 14  1  0  0  0  0
 15 16  1  1  0  0  0
 16 10  1  0  0  0  0
 16 17  2  0  0  0  0
 18 15  1  0  0  0  0
 19 18  1  0  0  0  0
 20 14  1  0  0  0  0
 20 19  1  1  0  0  0
M  END
>  <CHROM.1>
167.52152310,19.83831705,26.39694517,-4.69109278,17.76551437,-1.74786142
-0.18801485,2.04817626

>  <Name>
1nyi_lig

>  <RI>
0

>  <Rbt.Current_Directory>
/home/itssahil/PROJECTS/Mol_Feturizer/New_Systems/rnas/1nyi

>  <Rbt.Executable>
rbdock ($Id: //depot/dev/client3/rdock/2013.1/src/exe/rbdock.cxx#4 $)

>  <Rbt.Library>
libRbt.so (2013.1, Build901 2013/11/27)

>  <Rbt.Parameter_File>
/export/apps/rDock/src/rDock_2013.1_src/data/scripts/dock_solv.prm

>  <Rbt.Receptor>
prm/blind_docking_80.prm

>  <SCORE>
-8.61022

>  <SCORE.INTER>
-8.40391

>  <SCORE.INTER.CONST>
1

>  <SCORE.INTER.POLAR>
-0.927662

>  <SCORE.INTER.ROT>
2

>  <SCORE.INTER.SOLV>
12.5978

>  <SCORE.INTER.VDW>
-11.643

>  <SCORE.INTER.norm>
-0.420196

>  <SCORE.INTRA>
-0.648827

>  <SCORE.INTRA.DIHEDRAL>
-2.04559

>  <SCORE.INTRA.DIHEDRAL.0>
3.72394

>  <SCORE.INTRA.POLAR>
0

>  <SCORE.INTRA.POLAR.0>
0

>  <SCORE.INTRA.REPUL>
0

>  <SCORE.INTRA.REPUL.0>
0

>  <SCORE.INTRA.SOLV>
1.70394

>  <SCORE.INTRA.SOLV.lig_0>
-49.4697

>  <SCORE.INTRA.VDW>
-0.478001

>  <SCORE.INTRA.VDW.0>
-0.896538

>  <SCORE.INTRA.norm>
-0.0324413

>  <SCORE.RESTR>
0.442519

>  <SCORE.RESTR.CAVITY>
0.442519

>  <SCORE.RESTR.norm>
0.0221259

>  <SCORE.SYSTEM>
0

>  <SCORE.SYSTEM.CONST>
0

>  <SCORE.SYSTEM.DIHEDRAL>
0

>  <SCORE.SYSTEM.SOLV>
0

>  <SCORE.SYSTEM.norm>
0

>  <SCORE.heavy>
20

>  <SCORE.norm>
-0.430511

>  <RMSD>
26.127

$$$$
1nyi_lig
 OpenBabel11021811403D
libRbt.so/2013.1/901 2013/11/27
 20 22  0  0  0  0  0  0  0  0999 V2000
   19.3695   11.4283   27.4681 C   0  0  0  0  0  0  0  0  0  0  0  0
   20.2530   11.1317   28.5495 O   0  0  0  0  0  0  0  0  0  0  0  0
   19.8077   12.6806   26.7416 C   0  0  1  0  0  0  0  0  0  0  0  0
   21.2125   12.5548   26.3911 O   0  0  0  0  0  0  0  0  0  0  0  0
   19.0665   12.8821   25.4245 C   0  0  1  0  0  0  0  0  0  0  0  0
   17.8826   13.6611   25.6031 O   0  0  0  0  0  0  0  0  0  0  0  0
   20.1235   13.5663   24.5601 C   0  0  1  0  0  0  0  0  0  0  0  0
   20.2570   14.9527   24.8349 O   0  0  0  0  0  0  0  0  0  0  0  0
   21.3795   12.8192   25.0033 C   0  0  2  0  0  0  0  0  0  0  0  0
   23.3659   10.8706   20.6736 N   0  0  0  0  0  0  0  0  0  0  0  0
   23.1297   12.1805   21.0137 C   0  0  1  0  0  0  0  0  0  0  0  0
   23.4625   13.0824   20.0890 N   0  0  0  0  0  0  0  0  0  0  0  0
   22.6043   12.5750   22.1699 N   0  0  0  0  0  0  0  0  0  0  0  0
   22.3120   11.5246   22.9911 C   0  0  1  0  0  0  0  0  0  0  0  0
   22.5117   10.1785   22.7403 C   0  0  1  0  0  0  0  0  0  0  0  0
   23.0849    9.7827   21.4997 C   0  0  0  0  0  0  0  0  0  0  0  0
   23.3404    8.6404   21.0978 O   0  0  0  0  0  0  0  0  0  0  0  0
   22.1028    9.4141   23.8255 N   0  0  0  0  0  0  0  0  0  0  0  0
   21.6661   10.2867   24.6915 C   0  0  0  0  0  0  0  0  0  0  0  0
   21.7508   11.5926   24.2607 N   0  0  1  0  0  0  0  0  0  0  0  0
  2  1  1  0  0  0  0
  3  1  1  6  0  0  0
  3  4  1  0  0  0  0
  3  5  1  0  0  0  0
  5  6  1  1  0  0  0
  5  7  1  0  0  0  0
  7  8  1  1  0  0  0
  7  9  1  0  0  0  0
  9  4  1  1  0  0  0
  9 20  1  0  0  0  0
 10 11  1  0  0  0  0
 11 12  1  6  0  0  0
 11 13  1  0  0  0  0
 14 13  1  1  0  0  0
 15 14  1  0  0  0  0
 15 16  1  1  0  0  0
 16 10  1  0  0  0  0
 16 17  2  0  0  0  0
 18 15  1  0  0  0  0
 19 18  1  0  0  0  0
 20 14  1  0  0  0  0
 20 19  1  1  0  0  0
M  END
>  <CHROM.1>
51.58804693,-162.55171157,21.39834866,11.80687589,24.04379538,-2.89649200
0.99311000,-0.63366516

>  <Name>
1nyi_lig

>  <RI>
0

>  <Rbt.Current_Directory>
/home/itssahil/PROJECTS/Mol_Feturizer/New_Systems/rnas/1nyi

>  <Rbt.Executable>
rbdock ($Id: //depot/dev/client3/rdock/2013.1/src/exe/rbdock.cxx#4 $)

>  <Rbt.Library>
libRbt.so (2013.1, Build901 2013/11/27)

>  <Rbt.Parameter_File>
/export/apps/rDock/src/rDock_2013.1_src/data/scripts/dock_solv.prm

>  <Rbt.Receptor>
prm/blind_docking_40.prm

>  <SCORE>
-5.92728

>  <SCORE.INTER>
-7.28038

>  <SCORE.INTER.CONST>
1

>  <SCORE.INTER.POLAR>
-0.451703

>  <SCORE.INTER.ROT>
2

>  <SCORE.INTER.SOLV>
10.2044

>  <SCORE.INTER.VDW>
-11.6827

>  <SCORE.INTER.norm>
-0.364019

>  <SCORE.INTRA>
-1.73803

>  <SCORE.INTRA.DIHEDRAL>
-2.196

>  <SCORE.INTRA.DIHEDRAL.0>
3.72394

>  <SCORE.INTRA.POLAR>
0

>  <SCORE.INTRA.POLAR.0>
0

>  <SCORE.INTRA.REPUL>
0

>  <SCORE.INTRA.REPUL.0>
0

>  <SCORE.INTRA.SOLV>
-0.640721

>  <SCORE.INTRA.SOLV.lig_0>
-49.4697

>  <SCORE.INTRA.VDW>
-0.319672

>  <SCORE.INTRA.VDW.0>
-0.896538

>  <SCORE.INTRA.norm>
-0.0869016

>  <SCORE.RESTR>
3.09113

>  <SCORE.RESTR.CAVITY>
3.09113

>  <SCORE.RESTR.norm>
0.154557

>  <SCORE.SYSTEM>
0

>  <SCORE.SYSTEM.CONST>
0

>  <SCORE.SYSTEM.DIHEDRAL>
0

>  <SCORE.SYSTEM.SOLV>
0

>  <SCORE.SYSTEM.norm>
0

>  <SCORE.heavy>
20

>  <SCORE.norm>
-0.296364

>  <RMSD>
26.187

$$$$
1nyi_lig
 OpenBabel11021811403D
libRbt.so/2013.1/901 2013/11/27
 20 22  0  0  0  0  0  0  0  0999 V2000
   19.4459   11.4672   27.4300 C   0  0  0  0  0  0  0  0  0  0  0  0
   20.2525   11.1462   28.5632 O   0  0  0  0  0  0  0  0  0  0  0  0
   19.9659   12.7037   26.7307 C   0  0  1  0  0  0  0  0  0  0  0  0
   21.3575   12.4908   26.3697 O   0  0  0  0  0  0  0  0  0  0  0  0
   19.2351   12.9866   25.4228 C   0  0  1  0  0  0  0  0  0  0  0  0
   18.1080   13.8401   25.6261 O   0  0  0  0  0  0  0  0  0  0  0  0
   20.3331   13.6176   24.5690 C   0  0  1  0  0  0  0  0  0  0  0  0
   20.5621   14.9847   24.8757 O   0  0  0  0  0  0  0  0  0  0  0  0
   21.5368   12.7762   24.9876 C   0  0  2  0  0  0  0  0  0  0  0  0
   23.2952   10.8032   20.5713 N   0  0  0  0  0  0  0  0  0  0  0  0
   23.1397   12.1174   20.9398 C   0  0  1  0  0  0  0  0  0  0  0  0
   23.4953   13.0169   20.0213 N   0  0  0  0  0  0  0  0  0  0  0  0
   22.6683   12.5184   22.1170 N   0  0  0  0  0  0  0  0  0  0  0  0
   22.3422   11.4703   22.9284 C   0  0  1  0  0  0  0  0  0  0  0  0
   22.4618   10.1202   22.6495 C   0  0  1  0  0  0  0  0  0  0  0  0
   22.9784    9.7170   21.3867 C   0  0  0  0  0  0  0  0  0  0  0  0
   23.1605    8.5701   20.9586 O   0  0  0  0  0  0  0  0  0  0  0  0
   22.0420    9.3593   23.7329 N   0  0  0  0  0  0  0  0  0  0  0  0
   21.6772   10.2381   24.6254 C   0  0  0  0  0  0  0  0  0  0  0  0
   21.8206   11.5452   24.2144 N   0  0  1  0  0  0  0  0  0  0  0  0
  2  1  1  0  0  0  0
  3  1  1  6  0  0  0
  3  4  1  0  0  0  0
  3  5  1  0  0  0  0
  5  6  1  1  0  0  0
  5  7  1  0  0  0  0
  7  8  1  1  0  0  0
  7  9  1  0  0  0  0
  9  4  1  1  0  0  0
  9 20  1  0  0  0  0
 10 11  1  0  0  0  0
 11 12  1  6  0  0  0
 11 13  1  0  0  0  0
 14 13  1  1  0  0  0
 15 14  1  0  0  0  0
 15 16  1  1  0  0  0
 16 10  1  0  0  0  0
 16 17  2  0  0  0  0
 18 15  1  0  0  0  0
 19 18  1  0  0  0  0
 20 14  1  0  0  0  0
 20 19  1  1  0  0  0
M  END
>  <CHROM.1>
56.14598513,-164.15933112,21.45976447,11.79239612,23.99959425,-2.97415345
1.04269848,-0.54794963

>  <Name>
1nyi_lig

>  <RI>
0

>  <Rbt.Current_Directory>
/home/itssahil/PROJECTS/Mol_Feturizer/New_Systems/rnas/1nyi

>  <Rbt.Executable>
rbdock ($Id: //depot/dev/client3/rdock/2013.1/src/exe/rbdock.cxx#4 $)

>  <Rbt.Library>
libRbt.so (2013.1, Build901 2013/11/27)

>  <Rbt.Parameter_File>
/export/apps/rDock/src/rDock_2013.1_src/data/scripts/dock_solv.prm

>  <Rbt.Receptor>
prm/blind_docking_40.prm

>  <SCORE>
-5.68882

>  <SCORE.INTER>
-6.91081

>  <SCORE.INTER.CONST>
1

>  <SCORE.INTER.POLAR>
-0.409102

>  <SCORE.INTER.ROT>
2

>  <SCORE.INTER.SOLV>
10.3264

>  <SCORE.INTER.VDW>
-11.619

>  <SCORE.INTER.norm>
-0.34554

>  <SCORE.INTRA>
-1.83703

>  <SCORE.INTRA.DIHEDRAL>
-2.39369

>  <SCORE.INTRA.DIHEDRAL.0>
3.72394

>  <SCORE.INTRA.POLAR>
0

>  <SCORE.INTRA.POLAR.0>
0

>  <SCORE.INTRA.REPUL>
0

>  <SCORE.INTRA.REPUL.0>
0

>  <SCORE.INTRA.SOLV>
-0.657809

>  <SCORE.INTRA.SOLV.lig_0>
-49.4697

>  <SCORE.INTRA.VDW>
-0.311277

>  <SCORE.INTRA.VDW.0>
-0.896538

>  <SCORE.INTRA.norm>
-0.0918513

>  <SCORE.RESTR>
3.05902

>  <SCORE.RESTR.CAVITY>
3.05902

>  <SCORE.RESTR.norm>
0.152951

>  <SCORE.SYSTEM>
0

>  <SCORE.SYSTEM.CONST>
0

>  <SCORE.SYSTEM.DIHEDRAL>
0

>  <SCORE.SYSTEM.SOLV>
0

>  <SCORE.SYSTEM.norm>
0

>  <SCORE.heavy>
20

>  <SCORE.norm>
-0.284441

>  <RMSD>
26.189

$$$$
1nyi_lig
 OpenBabel11021811403D
libRbt.so/2013.1/901 2013/11/27
 20 22  0  0  0  0  0  0  0  0999 V2000
   19.3826   11.4246   27.4730 C   0  0  0  0  0  0  0  0  0  0  0  0
   20.2485   11.1493   28.5742 O   0  0  0  0  0  0  0  0  0  0  0  0
   19.8163   12.6784   26.7463 C   0  0  1  0  0  0  0  0  0  0  0  0
   21.2204   12.5558   26.3921 O   0  0  0  0  0  0  0  0  0  0  0  0
   19.0712   12.8793   25.4314 C   0  0  1  0  0  0  0  0  0  0  0  0
   17.8862   13.6556   25.6136 O   0  0  0  0  0  0  0  0  0  0  0  0
   20.1245   13.5663   24.5647 C   0  0  1  0  0  0  0  0  0  0  0  0
   20.2559   14.9529   24.8402 O   0  0  0  0  0  0  0  0  0  0  0  0
   21.3833   12.8216   25.0041 C   0  0  2  0  0  0  0  0  0  0  0  0
   23.3654   10.8806   20.6690 N   0  0  0  0  0  0  0  0  0  0  0  0
   23.1277   12.1898   21.0108 C   0  0  1  0  0  0  0  0  0  0  0  0
   23.4575   13.0931   20.0866 N   0  0  0  0  0  0  0  0  0  0  0  0
   22.6036   12.5823   22.1684 N   0  0  0  0  0  0  0  0  0  0  0  0
   22.3144   11.5305   22.9890 C   0  0  1  0  0  0  0  0  0  0  0  0
   22.5158   10.1850   22.7364 C   0  0  1  0  0  0  0  0  0  0  0  0
   23.0875    9.7914   21.4945 C   0  0  0  0  0  0  0  0  0  0  0  0
   23.3441    8.6499   21.0910 O   0  0  0  0  0  0  0  0  0  0  0  0
   22.1099    9.4189   23.8216 N   0  0  0  0  0  0  0  0  0  0  0  0
   21.6733   10.2899   24.6891 C   0  0  0  0  0  0  0  0  0  0  0  0
   21.7552   11.5963   24.2596 N   0  0  1  0  0  0  0  0  0  0  0  0
  2  1  1  0  0  0  0
  3  1  1  6  0  0  0
  3  4  1  0  0  0  0
  3  5  1  0  0  0  0
  5  6  1  1  0  0  0
  5  7  1  0  0  0  0
  7  8  1  1  0  0  0
  7  9  1  0  0  0  0
  9  4  1  1  0  0  0
  9 20  1  0  0  0  0
 10 11  1  0  0  0  0
 11 12  1  6  0  0  0
 11 13  1  0  0  0  0
 14 13  1  1  0  0  0
 15 14  1  0  0  0  0
 15 16  1  1  0  0  0
 16 10  1  0  0  0  0
 16 17  2  0  0  0  0
 18 15  1  0  0  0  0
 19 18  1  0  0  0  0
 20 14  1  0  0  0  0
 20 19  1  1  0  0  0
M  END
>  <CHROM.1>
53.16604579,-162.48888710,21.40133593,11.81121600,24.04536491,-2.89177631
0.99395125,-0.63617919

>  <Name>
1nyi_lig

>  <RI>
0

>  <Rbt.Current_Directory>
/home/itssahil/PROJECTS/Mol_Feturizer/New_Systems/rnas/1nyi

>  <Rbt.Executable>
rbdock ($Id: //depot/dev/client3/rdock/2013.1/src/exe/rbdock.cxx#4 $)

>  <Rbt.Library>
libRbt.so (2013.1, Build901 2013/11/27)

>  <Rbt.Parameter_File>
/export/apps/rDock/src/rDock_2013.1_src/data/scripts/dock_solv.prm

>  <Rbt.Receptor>
prm/blind_docking_40.prm

>  <SCORE>
-5.84943

>  <SCORE.INTER>
-7.13106

>  <SCORE.INTER.CONST>
1

>  <SCORE.INTER.POLAR>
-0.422431

>  <SCORE.INTER.ROT>
2

>  <SCORE.INTER.SOLV>
10.228

>  <SCORE.INTER.VDW>
-11.6886

>  <SCORE.INTER.norm>
-0.356553

>  <SCORE.INTRA>
-1.79109

>  <SCORE.INTRA.DIHEDRAL>
-2.27846

>  <SCORE.INTRA.DIHEDRAL.0>
3.72394

>  <SCORE.INTRA.POLAR>
0

>  <SCORE.INTRA.POLAR.0>
0

>  <SCORE.INTRA.REPUL>
0

>  <SCORE.INTRA.REPUL.0>
0

>  <SCORE.INTRA.SOLV>
-0.652196

>  <SCORE.INTRA.SOLV.lig_0>
-49.4697

>  <SCORE.INTRA.VDW>
-0.325755

>  <SCORE.INTRA.VDW.0>
-0.896538

>  <SCORE.INTRA.norm>
-0.0895543

>  <SCORE.RESTR>
3.07271

>  <SCORE.RESTR.CAVITY>
3.07271

>  <SCORE.RESTR.norm>
0.153636

>  <SCORE.SYSTEM>
0

>  <SCORE.SYSTEM.CONST>
0

>  <SCORE.SYSTEM.DIHEDRAL>
0

>  <SCORE.SYSTEM.SOLV>
0

>  <SCORE.SYSTEM.norm>
0

>  <SCORE.heavy>
20

>  <SCORE.norm>
-0.292472

>  <RMSD>
26.189

$$$$
1nyi_lig
 OpenBabel11021811403D
libRbt.so/2013.1/901 2013/11/27
 20 22  0  0  0  0  0  0  0  0999 V2000
   19.3742   11.4198   27.4788 C   0  0  0  0  0  0  0  0  0  0  0  0
   20.2482   11.1454   28.5737 O   0  0  0  0  0  0  0  0  0  0  0  0
   19.7980   12.6771   26.7523 C   0  0  1  0  0  0  0  0  0  0  0  0
   21.2018   12.5635   26.3937 O   0  0  0  0  0  0  0  0  0  0  0  0
   19.0478   12.8750   25.4398 C   0  0  1  0  0  0  0  0  0  0  0  0
   17.8586   13.6439   25.6265 O   0  0  0  0  0  0  0  0  0  0  0  0
   20.0943   13.5695   24.5708 C   0  0  1  0  0  0  0  0  0  0  0  0
   20.2180   14.9565   24.8477 O   0  0  0  0  0  0  0  0  0  0  0  0
   21.3589   12.8320   25.0056 C   0  0  2  0  0  0  0  0  0  0  0  0
   23.3652   10.9093   20.6735 N   0  0  0  0  0  0  0  0  0  0  0  0
   23.1243   12.2169   21.0190 C   0  0  1  0  0  0  0  0  0  0  0  0
   23.4577   13.1240   20.0997 N   0  0  0  0  0  0  0  0  0  0  0  0
   22.5939   12.6045   22.1753 N   0  0  0  0  0  0  0  0  0  0  0  0
   22.3017   11.5494   22.9905 C   0  0  1  0  0  0  0  0  0  0  0  0
   22.5060   10.2050   22.7340 C   0  0  1  0  0  0  0  0  0  0  0  0
   23.0845    9.8167   21.4936 C   0  0  0  0  0  0  0  0  0  0  0  0
   23.3445    8.6770   21.0871 O   0  0  0  0  0  0  0  0  0  0  0  0
   22.0955    9.4345   23.8142 N   0  0  0  0  0  0  0  0  0  0  0  0
   21.6535   10.3018   24.6828 C   0  0  0  0  0  0  0  0  0  0  0  0
   21.7360   11.6099   24.2585 N   0  0  1  0  0  0  0  0  0  0  0  0
  2  1  1  0  0  0  0
  3  1  1  6  0  0  0
  3  4  1  0  0  0  0
  3  5  1  0  0  0  0
  5  6  1  1  0  0  0
  5  7  1  0  0  0  0
  7  8  1  1  0  0  0
  7  9  1  0  0  0  0
  9  4  1  1  0  0  0
  9 20  1  0  0  0  0
 10 11  1  0  0  0  0
 11 12  1  6  0  0  0
 11 13  1  0  0  0  0
 14 13  1  1  0  0  0
 15 14  1  0  0  0  0
 15 16  1  1  0  0  0
 16 10  1  0  0  0  0
 16 17  2  0  0  0  0
 18 15  1  0  0  0  0
 19 18  1  0  0  0  0
 20 14  1  0  0  0  0
 20 19  1  1  0  0  0
M  END
>  <CHROM.1>
52.92684555,-161.92930894,21.38720070,11.82288782,24.04846925,-2.88853192
0.99049704,-0.63569131

>  <Name>
1nyi_lig

>  <RI>
0

>  <Rbt.Current_Directory>
/home/itssahil/PROJECTS/Mol_Feturizer/New_Systems/rnas/1nyi

>  <Rbt.Executable>
rbdock ($Id: //depot/dev/client3/rdock/2013.1/src/exe/rbdock.cxx#4 $)

>  <Rbt.Library>
libRbt.so (2013.1, Build901 2013/11/27)

>  <Rbt.Parameter_File>
/export/apps/rDock/src/rDock_2013.1_src/data/scripts/dock_solv.prm

>  <Rbt.Receptor>
prm/blind_docking_40.prm

>  <SCORE>
-5.83855

>  <SCORE.INTER>
-7.11971

>  <SCORE.INTER.CONST>
1

>  <SCORE.INTER.POLAR>
-0.429885

>  <SCORE.INTER.ROT>
2

>  <SCORE.INTER.SOLV>
10.2249

>  <SCORE.INTER.VDW>
-11.6552

>  <SCORE.INTER.norm>
-0.355986

>  <SCORE.INTRA>
-1.7877

>  <SCORE.INTRA.DIHEDRAL>
-2.26534

>  <SCORE.INTRA.DIHEDRAL.0>
3.72394

>  <SCORE.INTRA.POLAR>
0

>  <SCORE.INTRA.POLAR.0>
0

>  <SCORE.INTRA.REPUL>
0

>  <SCORE.INTRA.REPUL.0>
0

>  <SCORE.INTRA.SOLV>
-0.655612

>  <SCORE.INTRA.SOLV.lig_0>
-49.4697

>  <SCORE.INTRA.VDW>
-0.327224

>  <SCORE.INTRA.VDW.0>
-0.896538

>  <SCORE.INTRA.norm>
-0.0893851

>  <SCORE.RESTR>
3.06887

>  <SCORE.RESTR.CAVITY>
3.06887

>  <SCORE.RESTR.norm>
0.153443

>  <SCORE.SYSTEM>
0

>  <SCORE.SYSTEM.CONST>
0

>  <SCORE.SYSTEM.DIHEDRAL>
0

>  <SCORE.SYSTEM.SOLV>
0

>  <SCORE.SYSTEM.norm>
0

>  <SCORE.heavy>
20

>  <SCORE.norm>
-0.291927

>  <RMSD>
26.198

$$$$
1nyi_lig
 OpenBabel11021811403D
libRbt.so/2013.1/901 2013/11/27
 20 22  0  0  0  0  0  0  0  0999 V2000
   19.3604   11.4246   27.4734 C   0  0  0  0  0  0  0  0  0  0  0  0
   20.2500   11.1310   28.5507 O   0  0  0  0  0  0  0  0  0  0  0  0
   19.7863   12.6829   26.7500 C   0  0  1  0  0  0  0  0  0  0  0  0
   21.1910   12.5696   26.3947 O   0  0  0  0  0  0  0  0  0  0  0  0
   19.0394   12.8831   25.4359 C   0  0  1  0  0  0  0  0  0  0  0  0
   17.8499   13.6519   25.6209 O   0  0  0  0  0  0  0  0  0  0  0  0
   20.0882   13.5787   24.5707 C   0  0  1  0  0  0  0  0  0  0  0  0
   20.2115   14.9652   24.8500 O   0  0  0  0  0  0  0  0  0  0  0  0
   21.3516   12.8402   25.0074 C   0  0  2  0  0  0  0  0  0  0  0  0
   23.3650   10.9238   20.6758 N   0  0  0  0  0  0  0  0  0  0  0  0
   23.1230   12.2309   21.0225 C   0  0  1  0  0  0  0  0  0  0  0  0
   23.4573   13.1394   20.1049 N   0  0  0  0  0  0  0  0  0  0  0  0
   22.5907   12.6169   22.1785 N   0  0  0  0  0  0  0  0  0  0  0  0
   22.2979   11.5606   22.9920 C   0  0  1  0  0  0  0  0  0  0  0  0
   22.5031   10.2166   22.7342 C   0  0  1  0  0  0  0  0  0  0  0  0
   23.0836    9.8301   21.4941 C   0  0  0  0  0  0  0  0  0  0  0  0
   23.3446    8.6910   21.0866 O   0  0  0  0  0  0  0  0  0  0  0  0
   22.0914    9.4445   23.8128 N   0  0  0  0  0  0  0  0  0  0  0  0
   21.6478   10.3106   24.6818 C   0  0  0  0  0  0  0  0  0  0  0  0
   21.7303   11.6192   24.2593 N   0  0  1  0  0  0  0  0  0  0  0  0
  2  1  1  0  0  0  0
  3  1  1  6  0  0  0
  3  4  1  0  0  0  0
  3  5  1  0  0  0  0
  5  6  1  1  0  0  0
  5  7  1  0  0  0  0
  7  8  1  1  0  0  0
  7  9  1  0  0  0  0
  9  4  1  1  0  0  0
  9 20  1  0  0  0  0
 10 11  1  0  0  0  0
 11 12  1  6  0  0  0
 11 13  1  0  0  0  0
 14 13  1  1  0  0  0
 15 14  1  0  0  0  0
 15 16  1  1  0  0  0
 16 10  1  0  0  0  0
 16 17  2  0  0  0  0
 18 15  1  0  0  0  0
 19 18  1  0  0  0  0
 20 14  1  0  0  0  0
 20 19  1  1  0  0  0
M  END
>  <CHROM.1>
51.56467100,-162.00221020,21.38223957,11.83164908,24.04723681,-2.89017205
0.98866844,-0.63339776

>  <Name>
1nyi_lig

>  <RI>
0

>  <Rbt.Current_Directory>
/home/itssahil/PROJECTS/Mol_Feturizer/New_Systems/rnas/1nyi

>  <Rbt.Executable>
rbdock ($Id: //depot/dev/client3/rdock/2013.1/src/exe/rbdock.cxx#4 $)

>  <Rbt.Library>
libRbt.so (2013.1, Build901 2013/11/27)

>  <Rbt.Parameter_File>
/export/apps/rDock/src/rDock_2013.1_src/data/scripts/dock_solv.prm

>  <Rbt.Receptor>
prm/blind_docking_40.prm

>  <SCORE>
-5.84177

>  <SCORE.INTER>
-7.16897

>  <SCORE.INTER.CONST>
1

>  <SCORE.INTER.POLAR>
-0.454759

>  <SCORE.INTER.ROT>
2

>  <SCORE.INTER.SOLV>
10.2341

>  <SCORE.INTER.VDW>
-11.6081

>  <SCORE.INTER.norm>
-0.358449

>  <SCORE.INTRA>
-1.74111

>  <SCORE.INTRA.DIHEDRAL>
-2.19302

>  <SCORE.INTRA.DIHEDRAL.0>
3.72394

>  <SCORE.INTRA.POLAR>
0

>  <SCORE.INTRA.POLAR.0>
0

>  <SCORE.INTRA.REPUL>
0

>  <SCORE.INTRA.REPUL.0>
0

>  <SCORE.INTRA.SOLV>
-0.645531

>  <SCORE.INTRA.SOLV.lig_0>
-49.4697

>  <SCORE.INTRA.VDW>
-0.321838

>  <SCORE.INTRA.VDW.0>
-0.896538

>  <SCORE.INTRA.norm>
-0.0870557

>  <SCORE.RESTR>
3.06831

>  <SCORE.RESTR.CAVITY>
3.06831

>  <SCORE.RESTR.norm>
0.153416

>  <SCORE.SYSTEM>
0

>  <SCORE.SYSTEM.CONST>
0

>  <SCORE.SYSTEM.DIHEDRAL>
0

>  <SCORE.SYSTEM.SOLV>
0

>  <SCORE.SYSTEM.norm>
0

>  <SCORE.heavy>
20

>  <SCORE.norm>
-0.292089

>  <RMSD>
26.205

$$$$
1nyi_lig
 OpenBabel11021811403D
libRbt.so/2013.1/901 2013/11/27
 20 22  0  0  0  0  0  0  0  0999 V2000
   19.4029   11.4459   27.4508 C   0  0  0  0  0  0  0  0  0  0  0  0
   20.2726   11.1642   28.5472 O   0  0  0  0  0  0  0  0  0  0  0  0
   19.8403   12.6978   26.7231 C   0  0  1  0  0  0  0  0  0  0  0  0
   21.2414   12.5663   26.3597 O   0  0  0  0  0  0  0  0  0  0  0  0
   19.0883   12.9057   25.4133 C   0  0  1  0  0  0  0  0  0  0  0  0
   17.9097   13.6898   25.6042 O   0  0  0  0  0  0  0  0  0  0  0  0
   20.1407   13.5869   24.5408 C   0  0  1  0  0  0  0  0  0  0  0  0
   20.2832   14.9720   24.8176 O   0  0  0  0  0  0  0  0  0  0  0  0
   21.3971   12.8330   24.9711 C   0  0  2  0  0  0  0  0  0  0  0  0
   23.3634   10.8856   20.6317 N   0  0  0  0  0  0  0  0  0  0  0  0
   23.1404   12.1962   20.9782 C   0  0  1  0  0  0  0  0  0  0  0  0
   23.4821   13.0992   20.0579 N   0  0  0  0  0  0  0  0  0  0  0  0
   22.6191   12.5903   22.1364 N   0  0  0  0  0  0  0  0  0  0  0  0
   22.3164   11.5389   22.9525 C   0  0  1  0  0  0  0  0  0  0  0  0
   22.5025   10.1921   22.6951 C   0  0  1  0  0  0  0  0  0  0  0  0
   23.0716    9.7966   21.4526 C   0  0  0  0  0  0  0  0  0  0  0  0
   23.3156    8.6537   21.0450 O   0  0  0  0  0  0  0  0  0  0  0  0
   22.0861    9.4266   23.7767 N   0  0  0  0  0  0  0  0  0  0  0  0
   21.6583   10.2993   24.6469 C   0  0  0  0  0  0  0  0  0  0  0  0
   21.7560   11.6063   24.2225 N   0  0  1  0  0  0  0  0  0  0  0  0
  2  1  1  0  0  0  0
  3  1  1  6  0  0  0
  3  4  1  0  0  0  0
  3  5  1  0  0  0  0
  5  6  1  1  0  0  0
  5  7  1  0  0  0  0
  7  8  1  1  0  0  0
  7  9  1  0  0  0  0
  9  4  1  1  0  0  0
  9 20  1  0  0  0  0
 10 11  1  0  0  0  0
 11 12  1  6  0  0  0
 11 13  1  0  0  0  0
 14 13  1  1  0  0  0
 15 14  1  0  0  0  0
 15 16  1  1  0  0  0
 16 10  1  0  0  0  0
 16 17  2  0  0  0  0
 18 15  1  0  0  0  0
 19 18  1  0  0  0  0
 20 14  1  0  0  0  0
 20 19  1  1  0  0  0
M  END
>  <CHROM.1>
53.25451261,-161.93910383,21.40886052,11.82410423,24.01393246,-2.90386852
1.00091585,-0.62254780

>  <Name>
1nyi_lig

>  <RI>
0

>  <Rbt.Current_Directory>
/home/itssahil/PROJECTS/Mol_Feturizer/New_Systems/rnas/1nyi

>  <Rbt.Executable>
rbdock ($Id: //depot/dev/client3/rdock/2013.1/src/exe/rbdock.cxx#4 $)

>  <Rbt.Library>
libRbt.so (2013.1, Build901 2013/11/27)

>  <Rbt.Parameter_File>
/export/apps/rDock/src/rDock_2013.1_src/data/scripts/dock_solv.prm

>  <Rbt.Receptor>
prm/blind_docking_40.prm

>  <SCORE>
-5.74837

>  <SCORE.INTER>
-6.9961

>  <SCORE.INTER.CONST>
1

>  <SCORE.INTER.POLAR>
-0.426331

>  <SCORE.INTER.ROT>
2

>  <SCORE.INTER.SOLV>
10.1934

>  <SCORE.INTER.VDW>
-11.5741

>  <SCORE.INTER.norm>
-0.349805

>  <SCORE.INTRA>
-1.79771

>  <SCORE.INTRA.DIHEDRAL>
-2.28098

>  <SCORE.INTRA.DIHEDRAL.0>
3.72394

>  <SCORE.INTRA.POLAR>
0

>  <SCORE.INTRA.POLAR.0>
0

>  <SCORE.INTRA.REPUL>
0

>  <SCORE.INTRA.REPUL.0>
0

>  <SCORE.INTRA.SOLV>
-0.657782

>  <SCORE.INTRA.SOLV.lig_0>
-49.4697

>  <SCORE.INTRA.VDW>
-0.328326

>  <SCORE.INTRA.VDW.0>
-0.896538

>  <SCORE.INTRA.norm>
-0.0898853

>  <SCORE.RESTR>
3.04543

>  <SCORE.RESTR.CAVITY>
3.04543

>  <SCORE.RESTR.norm>
0.152271

>  <SCORE.SYSTEM>
0

>  <SCORE.SYSTEM.CONST>
0

>  <SCORE.SYSTEM.DIHEDRAL>
0

>  <SCORE.SYSTEM.SOLV>
0

>  <SCORE.SYSTEM.norm>
0

>  <SCORE.heavy>
20

>  <SCORE.norm>
-0.287419

>  <RMSD>
26.218

$$$$
1nyi_lig
 OpenBabel11021811403D
libRbt.so/2013.1/901 2013/11/27
 20 22  0  0  0  0  0  0  0  0999 V2000
   19.5355   11.4224   27.4730 C   0  0  0  0  0  0  0  0  0  0  0  0
   20.2853   11.2608   28.6770 O   0  0  0  0  0  0  0  0  0  0  0  0
   19.9541   12.6785   26.7414 C   0  0  1  0  0  0  0  0  0  0  0  0
   21.3466   12.5511   26.3452 O   0  0  0  0  0  0  0  0  0  0  0  0
   19.1718   12.8912   25.4502 C   0  0  1  0  0  0  0  0  0  0  0  0
   17.9966   13.6724   25.6719 O   0  0  0  0  0  0  0  0  0  0  0  0
   20.2027   13.5784   24.5570 C   0  0  1  0  0  0  0  0  0  0  0  0
   20.3493   14.9625   24.8370 O   0  0  0  0  0  0  0  0  0  0  0  0
   21.4699   12.8247   24.9547 C   0  0  2  0  0  0  0  0  0  0  0  0
   23.3750   10.9019   20.5771 N   0  0  0  0  0  0  0  0  0  0  0  0
   23.1631   12.2107   20.9366 C   0  0  1  0  0  0  0  0  0  0  0  0
   23.4989   13.1193   20.0196 N   0  0  0  0  0  0  0  0  0  0  0  0
   22.6574   12.5983   22.1040 N   0  0  0  0  0  0  0  0  0  0  0  0
   22.3586   11.5419   22.9152 C   0  0  1  0  0  0  0  0  0  0  0  0
   22.5345   10.1963   22.6449 C   0  0  1  0  0  0  0  0  0  0  0  0
   23.0869    9.8078   21.3927 C   0  0  0  0  0  0  0  0  0  0  0  0
   23.3200    8.6670   20.9732 O   0  0  0  0  0  0  0  0  0  0  0  0
   22.1266    9.4243   23.7251 N   0  0  0  0  0  0  0  0  0  0  0  0
   21.7137   10.2923   24.6072 C   0  0  0  0  0  0  0  0  0  0  0  0
   21.8134   11.6021   24.1921 N   0  0  1  0  0  0  0  0  0  0  0  0
  2  1  1  0  0  0  0
  3  1  1  6  0  0  0
  3  4  1  0  0  0  0
  3  5  1  0  0  0  0
  5  6  1  1  0  0  0
  5  7  1  0  0  0  0
  7  8  1  1  0  0  0
  7  9  1  0  0  0  0
  9  4  1  1  0  0  0
  9 20  1  0  0  0  0
 10 11  1  0  0  0  0
 11 12  1  6  0  0  0
 11 13  1  0  0  0  0
 14 13  1  1  0  0  0
 15 14  1  0  0  0  0
 15 16  1  1  0  0  0
 16 10  1  0  0  0  0
 16 17  2  0  0  0  0
 18 15  1  0  0  0  0
 19 18  1  0  0  0  0
 20 14  1  0  0  0  0
 20 19  1  1  0  0  0
M  END
>  <CHROM.1>
63.17592368,-161.15403886,21.46260902,11.82746014,24.00416887,-2.89415921
1.01689624,-0.61991642

>  <Name>
1nyi_lig

>  <RI>
0

>  <Rbt.Current_Directory>
/home/itssahil/PROJECTS/Mol_Feturizer/New_Systems/rnas/1nyi

>  <Rbt.Executable>
rbdock ($Id: //depot/dev/client3/rdock/2013.1/src/exe/rbdock.cxx#4 $)

>  <Rbt.Library>
libRbt.so (2013.1, Build901 2013/11/27)

>  <Rbt.Parameter_File>
/export/apps/rDock/src/rDock_2013.1_src/data/scripts/dock_solv.prm

>  <Rbt.Receptor>
prm/blind_docking_40.prm

>  <SCORE>
-5.27116

>  <SCORE.INTER>
-6.32819

>  <SCORE.INTER.CONST>
1

>  <SCORE.INTER.POLAR>
-0.269272

>  <SCORE.INTER.ROT>
2

>  <SCORE.INTER.SOLV>
10.497

>  <SCORE.INTER.VDW>
-11.7536

>  <SCORE.INTER.norm>
-0.31641

>  <SCORE.INTRA>
-1.90194

>  <SCORE.INTRA.DIHEDRAL>
-2.39483

>  <SCORE.INTRA.DIHEDRAL.0>
3.72394

>  <SCORE.INTRA.POLAR>
0

>  <SCORE.INTRA.POLAR.0>
0

>  <SCORE.INTRA.REPUL>
0

>  <SCORE.INTRA.REPUL.0>
0

>  <SCORE.INTRA.SOLV>
-0.731792

>  <SCORE.INTRA.SOLV.lig_0>
-49.4697

>  <SCORE.INTRA.VDW>
-0.338634

>  <SCORE.INTRA.VDW.0>
-0.896538

>  <SCORE.INTRA.norm>
-0.0950972

>  <SCORE.RESTR>
2.95898

>  <SCORE.RESTR.CAVITY>
2.95898

>  <SCORE.RESTR.norm>
0.147949

>  <SCORE.SYSTEM>
0

>  <SCORE.SYSTEM.CONST>
0

>  <SCORE.SYSTEM.DIHEDRAL>
0

>  <SCORE.SYSTEM.SOLV>
0

>  <SCORE.SYSTEM.norm>
0

>  <SCORE.heavy>
20

>  <SCORE.norm>
-0.263558

>  <RMSD>
26.220

$$$$
1nyi_lig
 OpenBabel11021811403D
libRbt.so/2013.1/901 2013/11/27
 20 22  0  0  0  0  0  0  0  0999 V2000
   19.4082   11.4279   27.4691 C   0  0  0  0  0  0  0  0  0  0  0  0
   20.2686   11.1819   28.5814 O   0  0  0  0  0  0  0  0  0  0  0  0
   19.8170   12.6882   26.7393 C   0  0  1  0  0  0  0  0  0  0  0  0
   21.2206   12.5879   26.3758 O   0  0  0  0  0  0  0  0  0  0  0  0
   19.0602   12.8768   25.4293 C   0  0  1  0  0  0  0  0  0  0  0  0
   17.8642   13.6342   25.6192 O   0  0  0  0  0  0  0  0  0  0  0  0
   20.0967   13.5803   24.5555 C   0  0  1  0  0  0  0  0  0  0  0  0
   20.2077   14.9688   24.8300 O   0  0  0  0  0  0  0  0  0  0  0  0
   21.3700   12.8559   24.9867 C   0  0  2  0  0  0  0  0  0  0  0  0
   23.4124   10.9481   20.6649 N   0  0  0  0  0  0  0  0  0  0  0  0
   23.1646   12.2542   21.0111 C   0  0  1  0  0  0  0  0  0  0  0  0
   23.5010   13.1642   20.0958 N   0  0  0  0  0  0  0  0  0  0  0  0
   22.6250   12.6379   22.1645 N   0  0  0  0  0  0  0  0  0  0  0  0
   22.3310   11.5803   22.9758 C   0  0  1  0  0  0  0  0  0  0  0  0
   22.5417   10.2371   22.7183 C   0  0  1  0  0  0  0  0  0  0  0  0
   23.1299    9.8530   21.4811 C   0  0  0  0  0  0  0  0  0  0  0  0
   23.3966    8.7150   21.0743 O   0  0  0  0  0  0  0  0  0  0  0  0
   22.1266    9.4632   23.7943 N   0  0  0  0  0  0  0  0  0  0  0  0
   21.6757   10.3273   24.6614 C   0  0  0  0  0  0  0  0  0  0  0  0
   21.7565   11.6365   24.2400 N   0  0  1  0  0  0  0  0  0  0  0  0
  2  1  1  0  0  0  0
  3  1  1  6  0  0  0
  3  4  1  0  0  0  0
  3  5  1  0  0  0  0
  5  6  1  1  0  0  0
  5  7  1  0  0  0  0
  7  8  1  1  0  0  0
  7  9  1  0  0  0  0
  9  4  1  1  0  0  0
  9 20  1  0  0  0  0
 10 11  1  0  0  0  0
 11 12  1  6  0  0  0
 11 13  1  0  0  0  0
 14 13  1  1  0  0  0
 15 14  1  0  0  0  0
 15 16  1  1  0  0  0
 16 10  1  0  0  0  0
 16 17  2  0  0  0  0
 18 15  1  0  0  0  0
 19 18  1  0  0  0  0
 20 14  1  0  0  0  0
 20 19  1  1  0  0  0
M  END
>  <CHROM.1>
54.38736806,-161.20693647,21.41247079,11.84710915,24.03613842,-2.88212134
0.98496937,-0.63936934

>  <Name>
1nyi_lig

>  <RI>
0

>  <Rbt.Current_Directory>
/home/itssahil/PROJECTS/Mol_Feturizer/New_Systems/rnas/1nyi

>  <Rbt.Executable>
rbdock ($Id: //depot/dev/client3/rdock/2013.1/src/exe/rbdock.cxx#4 $)

>  <Rbt.Library>
libRbt.so (2013.1, Build901 2013/11/27)

>  <Rbt.Parameter_File>
/export/apps/rDock/src/rDock_2013.1_src/data/scripts/dock_solv.prm

>  <Rbt.Receptor>
prm/blind_docking_40.prm

>  <SCORE>
-5.49983

>  <SCORE.INTER>
-6.66821

>  <SCORE.INTER.CONST>
1

>  <SCORE.INTER.POLAR>
-0.398175

>  <SCORE.INTER.ROT>
2

>  <SCORE.INTER.SOLV>
10.5797

>  <SCORE.INTER.VDW>
-11.5781

>  <SCORE.INTER.norm>
-0.333411

>  <SCORE.INTRA>
-1.81738

>  <SCORE.INTRA.DIHEDRAL>
-2.32723

>  <SCORE.INTRA.DIHEDRAL.0>
3.72394

>  <SCORE.INTRA.POLAR>
0

>  <SCORE.INTRA.POLAR.0>
0

>  <SCORE.INTRA.REPUL>
0

>  <SCORE.INTRA.REPUL.0>
0

>  <SCORE.INTRA.SOLV>
-0.67226

>  <SCORE.INTRA.SOLV.lig_0>
-49.4697

>  <SCORE.INTRA.VDW>
-0.317632

>  <SCORE.INTRA.VDW.0>
-0.896538

>  <SCORE.INTRA.norm>
-0.0908689

>  <SCORE.RESTR>
2.98576

>  <SCORE.RESTR.CAVITY>
2.98576

>  <SCORE.RESTR.norm>
0.149288

>  <SCORE.SYSTEM>
0

>  <SCORE.SYSTEM.CONST>
0

>  <SCORE.SYSTEM.DIHEDRAL>
0

>  <SCORE.SYSTEM.SOLV>
0

>  <SCORE.SYSTEM.norm>
0

>  <SCORE.heavy>
20

>  <SCORE.norm>
-0.274991

>  <RMSD>
26.220

$$$$
1nyi_lig
 OpenBabel11021811403D
libRbt.so/2013.1/901 2013/11/27
 20 22  0  0  0  0  0  0  0  0999 V2000
   19.3879   11.4364   27.4565 C   0  0  0  0  0  0  0  0  0  0  0  0
   20.2872   11.1706   28.5328 O   0  0  0  0  0  0  0  0  0  0  0  0
   19.7868   12.6952   26.7186 C   0  0  1  0  0  0  0  0  0  0  0  0
   21.1902   12.6021   26.3527 O   0  0  0  0  0  0  0  0  0  0  0  0
   19.0259   12.8713   25.4092 C   0  0  1  0  0  0  0  0  0  0  0  0
   17.8253   13.6219   25.5974 O   0  0  0  0  0  0  0  0  0  0  0  0
   20.0559   13.5767   24.5292 C   0  0  1  0  0  0  0  0  0  0  0  0
   20.1583   14.9674   24.7955 O   0  0  0  0  0  0  0  0  0  0  0  0
   21.3349   12.8632   24.9618 C   0  0  2  0  0  0  0  0  0  0  0  0
   23.4113   10.9456   20.6606 N   0  0  0  0  0  0  0  0  0  0  0  0
   23.1600   12.2525   21.0014 C   0  0  1  0  0  0  0  0  0  0  0  0
   23.5028   13.1603   20.0863 N   0  0  0  0  0  0  0  0  0  0  0  0
   22.6114   12.6387   22.1497 N   0  0  0  0  0  0  0  0  0  0  0  0
   22.3119   11.5830   22.9615 C   0  0  1  0  0  0  0  0  0  0  0  0
   22.5255   10.2393   22.7091 C   0  0  1  0  0  0  0  0  0  0  0  0
   23.1234    9.8525   21.4774 C   0  0  0  0  0  0  0  0  0  0  0  0
   23.3939    8.7136   21.0756 O   0  0  0  0  0  0  0  0  0  0  0  0
   22.1028    9.4679   23.7839 N   0  0  0  0  0  0  0  0  0  0  0  0
   21.6447   10.3340   24.6453 C   0  0  0  0  0  0  0  0  0  0  0  0
   21.7278   11.6421   24.2212 N   0  0  1  0  0  0  0  0  0  0  0  0
  2  1  1  0  0  0  0
  3  1  1  6  0  0  0
  3  4  1  0  0  0  0
  3  5  1  0  0  0  0
  5  6  1  1  0  0  0
  5  7  1  0  0  0  0
  7  8  1  1  0  0  0
  7  9  1  0  0  0  0
  9  4  1  1  0  0  0
  9 20  1  0  0  0  0
 10 11  1  0  0  0  0
 11 12  1  6  0  0  0
 11 13  1  0  0  0  0
 14 13  1  1  0  0  0
 15 14  1  0  0  0  0
 15 16  1  1  0  0  0
 16 10  1  0  0  0  0
 16 17  2  0  0  0  0
 18 15  1  0  0  0  0
 19 18  1  0  0  0  0
 20 14  1  0  0  0  0
 20 19  1  1  0  0  0
M  END
>  <CHROM.1>
51.84644956,-160.53025695,21.39216764,11.84776723,24.01865167,-2.88060307
0.97966119,-0.64456133

>  <Name>
1nyi_lig

>  <RI>
0

>  <Rbt.Current_Directory>
/home/itssahil/PROJECTS/Mol_Feturizer/New_Systems/rnas/1nyi

>  <Rbt.Executable>
rbdock ($Id: //depot/dev/client3/rdock/2013.1/src/exe/rbdock.cxx#4 $)

>  <Rbt.Library>
libRbt.so (2013.1, Build901 2013/11/27)

>  <Rbt.Parameter_File>
/export/apps/rDock/src/rDock_2013.1_src/data/scripts/dock_solv.prm

>  <Rbt.Receptor>
prm/blind_docking_40.prm

>  <SCORE>
-5.65965

>  <SCORE.INTER>
-6.8927

>  <SCORE.INTER.CONST>
1

>  <SCORE.INTER.POLAR>
-0.437387

>  <SCORE.INTER.ROT>
2

>  <SCORE.INTER.SOLV>
10.3693

>  <SCORE.INTER.VDW>
-11.5269

>  <SCORE.INTER.norm>
-0.344635

>  <SCORE.INTRA>
-1.78081

>  <SCORE.INTRA.DIHEDRAL>
-2.20493

>  <SCORE.INTRA.DIHEDRAL.0>
3.72394

>  <SCORE.INTRA.POLAR>
0

>  <SCORE.INTRA.POLAR.0>
0

>  <SCORE.INTRA.REPUL>
0

>  <SCORE.INTRA.REPUL.0>
0

>  <SCORE.INTRA.SOLV>
-0.66101

>  <SCORE.INTRA.SOLV.lig_0>
-49.4697

>  <SCORE.INTRA.VDW>
-0.347842

>  <SCORE.INTRA.VDW.0>
-0.896538

>  <SCORE.INTRA.norm>
-0.0890405

>  <SCORE.RESTR>
3.01386

>  <SCORE.RESTR.CAVITY>
3.01386

>  <SCORE.RESTR.norm>
0.150693

>  <SCORE.SYSTEM>
0

>  <SCORE.SYSTEM.CONST>
0

>  <SCORE.SYSTEM.DIHEDRAL>
0

>  <SCORE.SYSTEM.SOLV>
0

>  <SCORE.SYSTEM.norm>
0

>  <SCORE.heavy>
20

>  <SCORE.norm>
-0.282982

>  <RMSD>
26.237

$$$$
1nyi_lig
 OpenBabel11021811403D
libRbt.so/2013.1/901 2013/11/27
 20 22  0  0  0  0  0  0  0  0999 V2000
   19.3896   11.4374   27.4566 C   0  0  0  0  0  0  0  0  0  0  0  0
   20.2901   11.1791   28.5338 O   0  0  0  0  0  0  0  0  0  0  0  0
   19.7794   12.6987   26.7182 C   0  0  1  0  0  0  0  0  0  0  0  0
   21.1822   12.6134   26.3480 O   0  0  0  0  0  0  0  0  0  0  0  0
   19.0137   12.8715   25.4112 C   0  0  1  0  0  0  0  0  0  0  0  0
   17.8096   13.6155   25.6035 O   0  0  0  0  0  0  0  0  0  0  0  0
   20.0371   13.5828   24.5285 C   0  0  1  0  0  0  0  0  0  0  0  0
   20.1329   14.9740   24.7953 O   0  0  0  0  0  0  0  0  0  0  0  0
   21.3213   12.8760   24.9568 C   0  0  2  0  0  0  0  0  0  0  0  0
   23.4115   10.9727   20.6559 N   0  0  0  0  0  0  0  0  0  0  0  0
   23.1565   12.2782   20.9992 C   0  0  1  0  0  0  0  0  0  0  0  0
   23.4993   13.1889   20.0869 N   0  0  0  0  0  0  0  0  0  0  0  0
   22.6045   12.6607   22.1471 N   0  0  0  0  0  0  0  0  0  0  0  0
   22.3056   11.6025   22.9558 C   0  0  1  0  0  0  0  0  0  0  0  0
   22.5226   10.2599   22.7009 C   0  0  1  0  0  0  0  0  0  0  0  0
   23.1241    9.8771   21.4696 C   0  0  0  0  0  0  0  0  0  0  0  0
   23.3981    8.7397   21.0659 O   0  0  0  0  0  0  0  0  0  0  0  0
   22.0993    9.4851   23.7730 N   0  0  0  0  0  0  0  0  0  0  0  0
   21.6374   10.3482   24.6353 C   0  0  0  0  0  0  0  0  0  0  0  0
   21.7186   11.6574   24.2143 N   0  0  1  0  0  0  0  0  0  0  0  0
  2  1  1  0  0  0  0
  3  1  1  6  0  0  0
  3  4  1  0  0  0  0
  3  5  1  0  0  0  0
  5  6  1  1  0  0  0
  5  7  1  0  0  0  0
  7  8  1  1  0  0  0
  7  9  1  0  0  0  0
  9  4  1  1  0  0  0
  9 20  1  0  0  0  0
 10 11  1  0  0  0  0
 11 12  1  6  0  0  0
 11 13  1  0  0  0  0
 14 13  1  1  0  0  0
 15 14  1  0  0  0  0
 15 16  1  1  0  0  0
 16 10  1  0  0  0  0
 16 17  2  0  0  0  0
 18 15  1  0  0  0  0
 19 18  1  0  0  0  0
 20 14  1  0  0  0  0
 20 19  1  1  0  0  0
M  END
>  <CHROM.1>
52.10887503,-160.16429501,21.38539933,11.86177349,24.01525398,-2.87543939
0.97748558,-0.64686249

>  <Name>
1nyi_lig

>  <RI>
0

>  <Rbt.Current_Directory>
/home/itssahil/PROJECTS/Mol_Feturizer/New_Systems/rnas/1nyi

>  <Rbt.Executable>
rbdock ($Id: //depot/dev/client3/rdock/2013.1/src/exe/rbdock.cxx#4 $)

>  <Rbt.Library>
libRbt.so (2013.1, Build901 2013/11/27)

>  <Rbt.Parameter_File>
/export/apps/rDock/src/rDock_2013.1_src/data/scripts/dock_solv.prm

>  <Rbt.Receptor>
prm/blind_docking_40.prm

>  <SCORE>
-5.56815

>  <SCORE.INTER>
-6.76996

>  <SCORE.INTER.CONST>
1

>  <SCORE.INTER.POLAR>
-0.432787

>  <SCORE.INTER.ROT>
2

>  <SCORE.INTER.SOLV>
10.358

>  <SCORE.INTER.VDW>
-11.4567

>  <SCORE.INTER.norm>
-0.338498

>  <SCORE.INTRA>
-1.79281

>  <SCORE.INTRA.DIHEDRAL>
-2.21841

>  <SCORE.INTRA.DIHEDRAL.0>
3.72394

>  <SCORE.INTRA.POLAR>
0

>  <SCORE.INTRA.POLAR.0>
0

>  <SCORE.INTRA.REPUL>
0

>  <SCORE.INTRA.REPUL.0>
0

>  <SCORE.INTRA.SOLV>
-0.666232

>  <SCORE.INTRA.SOLV.lig_0>
-49.4697

>  <SCORE.INTRA.VDW>
-0.350491

>  <SCORE.INTRA.VDW.0>
-0.896538

>  <SCORE.INTRA.norm>
-0.0896407

>  <SCORE.RESTR>
2.99462

>  <SCORE.RESTR.CAVITY>
2.99462

>  <SCORE.RESTR.norm>
0.149731

>  <SCORE.SYSTEM>
0

>  <SCORE.SYSTEM.CONST>
0

>  <SCORE.SYSTEM.DIHEDRAL>
0

>  <SCORE.SYSTEM.SOLV>
0

>  <SCORE.SYSTEM.norm>
0

>  <SCORE.heavy>
20

>  <SCORE.norm>
-0.278407

>  <RMSD>
26.251

$$$$
1nyi_lig
 OpenBabel11021811403D
libRbt.so/2013.1/901 2013/11/27
 20 22  0  0  0  0  0  0  0  0999 V2000
   19.4623   11.4339   27.4620 C   0  0  0  0  0  0  0  0  0  0  0  0
   20.3031   11.2463   28.6003 O   0  0  0  0  0  0  0  0  0  0  0  0
   19.8359   12.6967   26.7177 C   0  0  1  0  0  0  0  0  0  0  0  0
   21.2345   12.6189   26.3304 O   0  0  0  0  0  0  0  0  0  0  0  0
   19.0533   12.8637   25.4200 C   0  0  1  0  0  0  0  0  0  0  0  0
   17.8475   13.6011   25.6262 O   0  0  0  0  0  0  0  0  0  0  0  0
   20.0618   13.5799   24.5241 C   0  0  1  0  0  0  0  0  0  0  0  0
   20.1529   14.9719   24.7883 O   0  0  0  0  0  0  0  0  0  0  0  0
   21.3551   12.8808   24.9373 C   0  0  2  0  0  0  0  0  0  0  0  0
   23.4138   10.9853   20.6179 N   0  0  0  0  0  0  0  0  0  0  0  0
   23.1572   12.2898   20.9635 C   0  0  1  0  0  0  0  0  0  0  0  0
   23.4886   13.2018   20.0483 N   0  0  0  0  0  0  0  0  0  0  0  0
   22.6140   12.6703   22.1163 N   0  0  0  0  0  0  0  0  0  0  0  0
   22.3261   11.6109   22.9275 C   0  0  1  0  0  0  0  0  0  0  0  0
   22.5457   10.2691   22.6705 C   0  0  1  0  0  0  0  0  0  0  0  0
   23.1376    9.8886   21.4340 C   0  0  0  0  0  0  0  0  0  0  0  0
   23.4121    8.7522   21.0278 O   0  0  0  0  0  0  0  0  0  0  0  0
   22.1347    9.4927   23.7463 N   0  0  0  0  0  0  0  0  0  0  0  0
   21.6774   10.3541   24.6128 C   0  0  0  0  0  0  0  0  0  0  0  0
   21.7501   11.6637   24.1912 N   0  0  1  0  0  0  0  0  0  0  0  0
  2  1  1  0  0  0  0
  3  1  1  6  0  0  0
  3  4  1  0  0  0  0
  3  5  1  0  0  0  0
  5  6  1  1  0  0  0
  5  7  1  0  0  0  0
  7  8  1  1  0  0  0
  7  9  1  0  0  0  0
  9  4  1  1  0  0  0
  9 20  1  0  0  0  0
 10 11  1  0  0  0  0
 11 12  1  6  0  0  0
 11 13  1  0  0  0  0
 14 13  1  1  0  0  0
 15 14  1  0  0  0  0
 15 16  1  1  0  0  0
 16 10  1  0  0  0  0
 16 17  2  0  0  0  0
 18 15  1  0  0  0  0
 19 18  1  0  0  0  0
 20 14  1  0  0  0  0
 20 19  1  1  0  0  0
M  END
>  <CHROM.1>
57.34185029,-159.92973950,21.41200186,11.86972737,24.00145220,-2.85907520
0.98384962,-0.65898256

>  <Name>
1nyi_lig

>  <RI>
0

>  <Rbt.Current_Directory>
/home/itssahil/PROJECTS/Mol_Feturizer/New_Systems/rnas/1nyi

>  <Rbt.Executable>
rbdock ($Id: //depot/dev/client3/rdock/2013.1/src/exe/rbdock.cxx#4 $)

>  <Rbt.Library>
libRbt.so (2013.1, Build901 2013/11/27)

>  <Rbt.Parameter_File>
/export/apps/rDock/src/rDock_2013.1_src/data/scripts/dock_solv.prm

>  <Rbt.Receptor>
prm/blind_docking_40.prm

>  <SCORE>
-5.34358

>  <SCORE.INTER>
-6.37492

>  <SCORE.INTER.CONST>
1

>  <SCORE.INTER.POLAR>
-0.34684

>  <SCORE.INTER.ROT>
2

>  <SCORE.INTER.SOLV>
10.3935

>  <SCORE.INTER.VDW>
-11.4916

>  <SCORE.INTER.norm>
-0.318746

>  <SCORE.INTRA>
-1.90716

>  <SCORE.INTRA.DIHEDRAL>
-2.408

>  <SCORE.INTRA.DIHEDRAL.0>
3.72394

>  <SCORE.INTRA.POLAR>
0

>  <SCORE.INTRA.POLAR.0>
0

>  <SCORE.INTRA.REPUL>
0

>  <SCORE.INTRA.REPUL.0>
0

>  <SCORE.INTRA.SOLV>
-0.70422

>  <SCORE.INTRA.SOLV.lig_0>
-49.4697

>  <SCORE.INTRA.VDW>
-0.351048

>  <SCORE.INTRA.VDW.0>
-0.896538

>  <SCORE.INTRA.norm>
-0.0953578

>  <SCORE.RESTR>
2.9385

>  <SCORE.RESTR.CAVITY>
2.9385

>  <SCORE.RESTR.norm>
0.146925

>  <SCORE.SYSTEM>
0

>  <SCORE.SYSTEM.CONST>
0

>  <SCORE.SYSTEM.DIHEDRAL>
0

>  <SCORE.SYSTEM.SOLV>
0

>  <SCORE.SYSTEM.norm>
0

>  <SCORE.heavy>
20

>  <SCORE.norm>
-0.267179

>  <RMSD>
26.263

$$$$
1nyi_lig
 OpenBabel11021811403D
libRbt.so/2013.1/901 2013/11/27
 20 22  0  0  0  0  0  0  0  0999 V2000
   21.6027    9.0687   20.9998 C   0  0  0  0  0  0  0  0  0  0  0  0
   22.4841    8.0629   20.5003 O   0  0  0  0  0  0  0  0  0  0  0  0
   22.2953   10.4123   21.0577 C   0  0  1  0  0  0  0  0  0  0  0  0
   21.3948   11.3808   21.6606 O   0  0  0  0  0  0  0  0  0  0  0  0
   23.5373   10.3922   21.9416 C   0  0  1  0  0  0  0  0  0  0  0  0
   24.7085   10.0643   21.1926 O   0  0  0  0  0  0  0  0  0  0  0  0
   23.5526   11.8097   22.5100 C   0  0  1  0  0  0  0  0  0  0  0  0
   24.0690   12.7699   21.6007 O   0  0  0  0  0  0  0  0  0  0  0  0
   22.0595   12.0435   22.7296 C   0  0  2  0  0  0  0  0  0  0  0  0
   18.6073   13.1530   26.3819 N   0  0  0  0  0  0  0  0  0  0  0  0
   18.8902   13.8218   25.2158 C   0  0  1  0  0  0  0  0  0  0  0  0
   18.1664   14.9200   24.9939 N   0  0  0  0  0  0  0  0  0  0  0  0
   19.8142   13.4445   24.3368 N   0  0  0  0  0  0  0  0  0  0  0  0
   20.4673   12.3109   24.7265 C   0  0  1  0  0  0  0  0  0  0  0  0
   20.2555   11.5697   25.8756 C   0  0  1  0  0  0  0  0  0  0  0  0
   19.2540   11.9885   26.7953 C   0  0  0  0  0  0  0  0  0  0  0  0
   18.9196   11.4618   27.8641 O   0  0  0  0  0  0  0  0  0  0  0  0
   21.1061   10.4723   25.9119 N   0  0  0  0  0  0  0  0  0  0  0  0
   21.8069   10.5679   24.8157 C   0  0  0  0  0  0  0  0  0  0  0  0
   21.4869   11.6614   24.0411 N   0  0  1  0  0  0  0  0  0  0  0  0
  2  1  1  0  0  0  0
  3  1  1  1  0  0  0
  3  4  1  0  0  0  0
  3  5  1  0  0  0  0
  5  6  1  6  0  0  0
  5  7  1  0  0  0  0
  7  8  1  6  0  0  0
  7  9  1  0  0  0  0
  9  4  1  6  0  0  0
  9 20  1  0  0  0  0
 10 11  1  0  0  0  0
 11 12  1  1  0  0  0
 11 13  1  0  0  0  0
 14 13  1  6  0  0  0
 15 14  1  0  0  0  0
 15 16  1  6  0  0  0
 16 10  1  0  0  0  0
 16 17  2  0  0  0  0
 18 15  1  0  0  0  0
 19 18  1  0  0  0  0
 20 14  1  0  0  0  0
 20 19  1  6  0  0  0
M  END
>  <CHROM.1>
-175.91619788,-92.06619335,21.26788542,11.53164361,23.70147829,0.11646031
-0.93383787,2.79439413

>  <Name>
1nyi_lig

>  <RI>
0

>  <Rbt.Current_Directory>
/home/itssahil/PROJECTS/Mol_Feturizer/New_Systems/rnas/1nyi

>  <Rbt.Executable>
rbdock ($Id: //depot/dev/client3/rdock/2013.1/src/exe/rbdock.cxx#4 $)

>  <Rbt.Library>
libRbt.so (2013.1, Build901 2013/11/27)

>  <Rbt.Parameter_File>
/export/apps/rDock/src/rDock_2013.1_src/data/scripts/dock_solv.prm

>  <Rbt.Receptor>
prm/blind_docking_40.prm

>  <SCORE>
2.55727

>  <SCORE.INTER>
1.27641

>  <SCORE.INTER.CONST>
1

>  <SCORE.INTER.POLAR>
0

>  <SCORE.INTER.ROT>
2

>  <SCORE.INTER.SOLV>
8.83071

>  <SCORE.INTER.VDW>
-7.02596

>  <SCORE.INTER.norm>
0.0638205

>  <SCORE.INTRA>
-1.80604

>  <SCORE.INTRA.DIHEDRAL>
-2.52408

>  <SCORE.INTRA.DIHEDRAL.0>
3.72394

>  <SCORE.INTRA.POLAR>
0

>  <SCORE.INTRA.POLAR.0>
0

>  <SCORE.INTRA.REPUL>
0

>  <SCORE.INTRA.REPUL.0>
0

>  <SCORE.INTRA.SOLV>
-0.573351

>  <SCORE.INTRA.SOLV.lig_0>
-49.4697

>  <SCORE.INTRA.VDW>
-0.257329

>  <SCORE.INTRA.VDW.0>
-0.896538

>  <SCORE.INTRA.norm>
-0.0903022

>  <SCORE.RESTR>
3.0869

>  <SCORE.RESTR.CAVITY>
3.0869

>  <SCORE.RESTR.norm>
0.154345

>  <SCORE.SYSTEM>
0

>  <SCORE.SYSTEM.CONST>
0

>  <SCORE.SYSTEM.DIHEDRAL>
0

>  <SCORE.SYSTEM.SOLV>
0

>  <SCORE.SYSTEM.norm>
0

>  <SCORE.heavy>
20

>  <SCORE.norm>
0.127863

>  <RMSD>
26.287

$$$$
1nyi_lig
 OpenBabel11021811403D
libRbt.so/2013.1/901 2013/11/27
 20 22  0  0  0  0  0  0  0  0999 V2000
   21.4828    5.6773   20.5116 C   0  0  0  0  0  0  0  0  0  0  0  0
   21.8734    4.4026   21.0221 O   0  0  0  0  0  0  0  0  0  0  0  0
   22.4576    6.1588   19.4598 C   0  0  1  0  0  0  0  0  0  0  0  0
   22.0412    7.4724   18.9977 O   0  0  0  0  0  0  0  0  0  0  0  0
   23.8685    6.3386   20.0089 C   0  0  1  0  0  0  0  0  0  0  0  0
   24.6416    5.1459   19.8684 O   0  0  0  0  0  0  0  0  0  0  0  0
   24.3924    7.5078   19.1776 C   0  0  1  0  0  0  0  0  0  0  0  0
   24.8180    7.1226   17.8791 O   0  0  0  0  0  0  0  0  0  0  0  0
   23.1382    8.3740   19.0841 C   0  0  2  0  0  0  0  0  0  0  0  0
   22.1204    9.2310   24.0559 N   0  0  0  0  0  0  0  0  0  0  0  0
   22.2229    8.0404   23.3782 C   0  0  1  0  0  0  0  0  0  0  0  0
   22.0311    6.9437   24.1127 N   0  0  0  0  0  0  0  0  0  0  0  0
   22.4892    7.9340   22.0796 N   0  0  0  0  0  0  0  0  0  0  0  0
   22.6432    9.1511   21.4811 C   0  0  1  0  0  0  0  0  0  0  0  0
   22.5595   10.3982   22.0748 C   0  0  1  0  0  0  0  0  0  0  0  0
   22.2836   10.4851   23.4679 C   0  0  0  0  0  0  0  0  0  0  0  0
   22.1740   11.4978   24.1707 O   0  0  0  0  0  0  0  0  0  0  0  0
   22.7920   11.3997   21.1409 N   0  0  0  0  0  0  0  0  0  0  0  0
   23.0001   10.7598   20.0233 C   0  0  0  0  0  0  0  0  0  0  0  0
   22.9207    9.3894   20.1404 N   0  0  1  0  0  0  0  0  0  0  0  0
  2  1  1  0  0  0  0
  3  1  1  1  0  0  0
  3  4  1  0  0  0  0
  3  5  1  0  0  0  0
  5  6  1  6  0  0  0
  5  7  1  0  0  0  0
  7  8  1  6  0  0  0
  7  9  1  0  0  0  0
  9  4  1  1  0  0  0
  9 20  1  0  0  0  0
 10 11  1  0  0  0  0
 11 12  1  6  0  0  0
 11 13  1  0  0  0  0
 14 13  1  1  0  0  0
 15 14  1  0  0  0  0
 15 16  1  1  0  0  0
 16 10  1  0  0  0  0
 16 17  2  0  0  0  0
 18 15  1  0  0  0  0
 19 18  1  0  0  0  0
 20 14  1  0  0  0  0
 20 19  1  1  0  0  0
M  END
>  <CHROM.1>
-178.42179677,55.43415837,22.80616493,8.12246938,21.07520825,1.02834668,-1.20149612
-2.94299220

>  <Name>
1nyi_lig

>  <RI>
0

>  <Rbt.Current_Directory>
/home/itssahil/PROJECTS/Mol_Feturizer/New_Systems/rnas/1nyi

>  <Rbt.Executable>
rbdock ($Id: //depot/dev/client3/rdock/2013.1/src/exe/rbdock.cxx#4 $)

>  <Rbt.Library>
libRbt.so (2013.1, Build901 2013/11/27)

>  <Rbt.Parameter_File>
/export/apps/rDock/src/rDock_2013.1_src/data/scripts/dock_solv.prm

>  <Rbt.Receptor>
prm/blind_docking_60.prm

>  <SCORE>
-2.20956

>  <SCORE.INTER>
-4.33733

>  <SCORE.INTER.CONST>
1

>  <SCORE.INTER.POLAR>
0

>  <SCORE.INTER.ROT>
2

>  <SCORE.INTER.SOLV>
10.7716

>  <SCORE.INTER.VDW>
-11.4154

>  <SCORE.INTER.norm>
-0.216867

>  <SCORE.INTRA>
-1.3307

>  <SCORE.INTRA.DIHEDRAL>
-2.5186

>  <SCORE.INTRA.DIHEDRAL.0>
3.72394

>  <SCORE.INTRA.POLAR>
0

>  <SCORE.INTRA.POLAR.0>
0

>  <SCORE.INTRA.REPUL>
0

>  <SCORE.INTRA.REPUL.0>
0

>  <SCORE.INTRA.SOLV>
2.17532

>  <SCORE.INTRA.SOLV.lig_0>
-49.4697

>  <SCORE.INTRA.VDW>
-1.15905

>  <SCORE.INTRA.VDW.0>
-0.896538

>  <SCORE.INTRA.norm>
-0.0665348

>  <SCORE.RESTR>
3.45847

>  <SCORE.RESTR.CAVITY>
3.45847

>  <SCORE.RESTR.norm>
0.172924

>  <SCORE.SYSTEM>
0

>  <SCORE.SYSTEM.CONST>
0

>  <SCORE.SYSTEM.DIHEDRAL>
0

>  <SCORE.SYSTEM.SOLV>
0

>  <SCORE.SYSTEM.norm>
0

>  <SCORE.heavy>
20

>  <SCORE.norm>
-0.110478

>  <RMSD>
26.365

$$$$
1nyi_lig
 OpenBabel11021811403D
libRbt.so/2013.1/901 2013/11/27
 20 22  0  0  0  0  0  0  0  0999 V2000
   26.8611   -5.5500   21.5117 C   0  0  0  0  0  0  0  0  0  0  0  0
   27.5236   -4.3740   21.9767 O   0  0  0  0  0  0  0  0  0  0  0  0
   25.4694   -5.2248   21.0162 C   0  0  1  0  0  0  0  0  0  0  0  0
   25.5682   -4.2607   19.9332 O   0  0  0  0  0  0  0  0  0  0  0  0
   24.7593   -6.4394   20.4287 C   0  0  1  0  0  0  0  0  0  0  0  0
   24.0074   -7.1382   21.4220 O   0  0  0  0  0  0  0  0  0  0  0  0
   23.8949   -5.8119   19.3371 C   0  0  1  0  0  0  0  0  0  0  0  0
   22.7100   -5.2124   19.8395 O   0  0  0  0  0  0  0  0  0  0  0  0
   24.8427   -4.7384   18.8066 C   0  0  2  0  0  0  0  0  0  0  0  0
   26.7940   -3.3861   14.2402 N   0  0  0  0  0  0  0  0  0  0  0  0
   25.8662   -2.7388   15.0195 C   0  0  1  0  0  0  0  0  0  0  0  0
   25.4002   -1.5916   14.5236 N   0  0  0  0  0  0  0  0  0  0  0  0
   25.4265   -3.1843   16.1929 N   0  0  0  0  0  0  0  0  0  0  0  0
   25.9965   -4.3746   16.5415 C   0  0  1  0  0  0  0  0  0  0  0  0
   26.9347   -5.1000   15.8285 C   0  0  1  0  0  0  0  0  0  0  0  0
   27.3967   -4.5969   14.5804 C   0  0  0  0  0  0  0  0  0  0  0  0
   28.2250   -5.0947   13.8072 O   0  0  0  0  0  0  0  0  0  0  0  0
   27.2861   -6.2535   16.5177 N   0  0  0  0  0  0  0  0  0  0  0  0
   26.5679   -6.2133   17.6060 C   0  0  0  0  0  0  0  0  0  0  0  0
   25.7509   -5.1077   17.6964 N   0  0  1  0  0  0  0  0  0  0  0  0
  2  1  1  0  0  0  0
  3  1  1  6  0  0  0
  3  4  1  0  0  0  0
  3  5  1  0  0  0  0
  5  6  1  1  0  0  0
  5  7  1  0  0  0  0
  7  8  1  1  0  0  0
  7  9  1  0  0  0  0
  9  4  1  1  0  0  0
  9 20  1  0  0  0  0
 10 11  1  0  0  0  0
 11 12  1  6  0  0  0
 11 13  1  0  0  0  0
 14 13  1  1  0  0  0
 15 14  1  0  0  0  0
 15 16  1  1  0  0  0
 16 10  1  0  0  0  0
 16 17  2  0  0  0  0
 18 15  1  0  0  0  0
 19 18  1  0  0  0  0
 20 14  1  0  0  0  0
 20 19  1  1  0  0  0
M  END
>  <CHROM.1>
59.32643853,-103.35583863,25.85573274,-4.83290305,17.91240362,-1.84486526
0.41483086,-1.16895270

>  <Name>
1nyi_lig

>  <RI>
0

>  <Rbt.Current_Directory>
/home/itssahil/PROJECTS/Mol_Feturizer/New_Systems/rnas/1nyi

>  <Rbt.Executable>
rbdock ($Id: //depot/dev/client3/rdock/2013.1/src/exe/rbdock.cxx#4 $)

>  <Rbt.Library>
libRbt.so (2013.1, Build901 2013/11/27)

>  <Rbt.Parameter_File>
/export/apps/rDock/src/rDock_2013.1_src/data/scripts/dock_solv.prm

>  <Rbt.Receptor>
prm/blind_docking_80.prm

>  <SCORE>
-11.6765

>  <SCORE.INTER>
-11.7636

>  <SCORE.INTER.CONST>
1

>  <SCORE.INTER.POLAR>
-1.09745

>  <SCORE.INTER.ROT>
2

>  <SCORE.INTER.SOLV>
11.4406

>  <SCORE.INTER.VDW>
-12.9311

>  <SCORE.INTER.norm>
-0.588181

>  <SCORE.INTRA>
-2.08162

>  <SCORE.INTRA.DIHEDRAL>
-2.56354

>  <SCORE.INTRA.DIHEDRAL.0>
3.72394

>  <SCORE.INTRA.POLAR>
0

>  <SCORE.INTRA.POLAR.0>
0

>  <SCORE.INTRA.REPUL>
0

>  <SCORE.INTRA.REPUL.0>
0

>  <SCORE.INTRA.SOLV>
-0.86221

>  <SCORE.INTRA.SOLV.lig_0>
-49.4697

>  <SCORE.INTRA.VDW>
-0.368743

>  <SCORE.INTRA.VDW.0>
-0.896538

>  <SCORE.INTRA.norm>
-0.104081

>  <SCORE.RESTR>
2.16875

>  <SCORE.RESTR.CAVITY>
2.16875

>  <SCORE.RESTR.norm>
0.108437

>  <SCORE.SYSTEM>
0

>  <SCORE.SYSTEM.CONST>
0

>  <SCORE.SYSTEM.DIHEDRAL>
0

>  <SCORE.SYSTEM.SOLV>
0

>  <SCORE.SYSTEM.norm>
0

>  <SCORE.heavy>
20

>  <SCORE.norm>
-0.583825

>  <RMSD>
26.366

$$$$
1nyi_lig
 OpenBabel11021811403D
libRbt.so/2013.1/901 2013/11/27
 20 22  0  0  0  0  0  0  0  0999 V2000
   19.6178   11.4608   27.2554 C   0  0  0  0  0  0  0  0  0  0  0  0
   20.3533   11.1855   28.4476 O   0  0  0  0  0  0  0  0  0  0  0  0
   20.1371   12.7093   26.5774 C   0  0  1  0  0  0  0  0  0  0  0  0
   21.5185   12.4908   26.1821 O   0  0  0  0  0  0  0  0  0  0  0  0
   19.3829   13.0338   25.2928 C   0  0  1  0  0  0  0  0  0  0  0  0
   18.2698   13.8938   25.5414 O   0  0  0  0  0  0  0  0  0  0  0  0
   20.4700   13.6748   24.4327 C   0  0  1  0  0  0  0  0  0  0  0  0
   20.7208   15.0310   24.7695 O   0  0  0  0  0  0  0  0  0  0  0  0
   21.6726   12.8100   24.8044 C   0  0  2  0  0  0  0  0  0  0  0  0
   23.3044   10.9338   20.2982 N   0  0  0  0  0  0  0  0  0  0  0  0
   23.1696   12.2396   20.7029 C   0  0  1  0  0  0  0  0  0  0  0  0
   23.5103   13.1589   19.7985 N   0  0  0  0  0  0  0  0  0  0  0  0
   22.7308   12.6149   21.9010 N   0  0  0  0  0  0  0  0  0  0  0  0
   22.4156   11.5495   22.6940 C   0  0  1  0  0  0  0  0  0  0  0  0
   22.5164   10.2059   22.3788 C   0  0  1  0  0  0  0  0  0  0  0  0
   22.9983    9.8301   21.0940 C   0  0  0  0  0  0  0  0  0  0  0  0
   23.1598    8.6929   20.6332 O   0  0  0  0  0  0  0  0  0  0  0  0
   22.1168    9.4215   23.4532 N   0  0  0  0  0  0  0  0  0  0  0  0
   21.7817   10.2807   24.3759 C   0  0  0  0  0  0  0  0  0  0  0  0
   21.9264   11.5964   23.9940 N   0  0  1  0  0  0  0  0  0  0  0  0
  2  1  1  0  0  0  0
  3  1  1  6  0  0  0
  3  4  1  0  0  0  0
  3  5  1  0  0  0  0
  5  6  1  1  0  0  0
  5  7  1  0  0  0  0
  7  8  1  1  0  0  0
  7  9  1  0  0  0  0
  9  4  1  1  0  0  0
  9 20  1  0  0  0  0
 10 11  1  0  0  0  0
 11 12  1  6  0  0  0
 11 13  1  0  0  0  0
 14 13  1  1  0  0  0
 15 14  1  0  0  0  0
 15 16  1  1  0  0  0
 16 10  1  0  0  0  0
 16 17  2  0  0  0  0
 18 15  1  0  0  0  0
 19 18  1  0  0  0  0
 20 14  1  0  0  0  0
 20 19  1  1  0  0  0
M  END
>  <CHROM.1>
62.57137296,-164.43434493,21.55548461,11.85792401,23.79670722,-2.97127616
1.06794578,-0.52342153

>  <Name>
1nyi_lig

>  <RI>
0

>  <Rbt.Current_Directory>
/home/itssahil/PROJECTS/Mol_Feturizer/New_Systems/rnas/1nyi

>  <Rbt.Executable>
rbdock ($Id: //depot/dev/client3/rdock/2013.1/src/exe/rbdock.cxx#4 $)

>  <Rbt.Library>
libRbt.so (2013.1, Build901 2013/11/27)

>  <Rbt.Parameter_File>
/export/apps/rDock/src/rDock_2013.1_src/data/scripts/dock_solv.prm

>  <Rbt.Receptor>
prm/blind_docking_40.prm

>  <SCORE>
-5.69107

>  <SCORE.INTER>
-6.85745

>  <SCORE.INTER.CONST>
1

>  <SCORE.INTER.POLAR>
-0.356891

>  <SCORE.INTER.ROT>
2

>  <SCORE.INTER.SOLV>
10.1508

>  <SCORE.INTER.VDW>
-11.6989

>  <SCORE.INTER.norm>
-0.342872

>  <SCORE.INTRA>
-1.88259

>  <SCORE.INTRA.DIHEDRAL>
-2.41786

>  <SCORE.INTRA.DIHEDRAL.0>
3.72394

>  <SCORE.INTRA.POLAR>
0

>  <SCORE.INTRA.POLAR.0>
0

>  <SCORE.INTRA.REPUL>
0

>  <SCORE.INTRA.REPUL.0>
0

>  <SCORE.INTRA.SOLV>
-0.698601

>  <SCORE.INTRA.SOLV.lig_0>
-49.4697

>  <SCORE.INTRA.VDW>
-0.324361

>  <SCORE.INTRA.VDW.0>
-0.896538

>  <SCORE.INTRA.norm>
-0.0941297

>  <SCORE.RESTR>
3.04897

>  <SCORE.RESTR.CAVITY>
3.04897

>  <SCORE.RESTR.norm>
0.152448

>  <SCORE.SYSTEM>
0

>  <SCORE.SYSTEM.CONST>
0

>  <SCORE.SYSTEM.DIHEDRAL>
0

>  <SCORE.SYSTEM.SOLV>
0

>  <SCORE.SYSTEM.norm>
0

>  <SCORE.heavy>
20

>  <SCORE.norm>
-0.284554

>  <RMSD>
26.370

$$$$
1nyi_lig
 OpenBabel11021811403D
libRbt.so/2013.1/901 2013/11/27
 20 22  0  0  0  0  0  0  0  0999 V2000
   19.6904   11.4489   27.2924 C   0  0  0  0  0  0  0  0  0  0  0  0
   20.3665   11.2868   28.5392 O   0  0  0  0  0  0  0  0  0  0  0  0
   20.1521   12.7052   26.5877 C   0  0  1  0  0  0  0  0  0  0  0  0
   21.5338   12.5314   26.1717 O   0  0  0  0  0  0  0  0  0  0  0  0
   19.3650   12.9829   25.3118 C   0  0  1  0  0  0  0  0  0  0  0  0
   18.2255   13.8053   25.5674 O   0  0  0  0  0  0  0  0  0  0  0  0
   20.4134   13.6502   24.4240 C   0  0  1  0  0  0  0  0  0  0  0  0
   20.6198   15.0195   24.7370 O   0  0  0  0  0  0  0  0  0  0  0  0
   21.6529   12.8354   24.7872 C   0  0  2  0  0  0  0  0  0  0  0  0
   23.3448   10.9522   20.3061 N   0  0  0  0  0  0  0  0  0  0  0  0
   23.1788   12.2586   20.6972 C   0  0  1  0  0  0  0  0  0  0  0  0
   23.5021   13.1764   19.7849 N   0  0  0  0  0  0  0  0  0  0  0  0
   22.7268   12.6357   21.8898 N   0  0  0  0  0  0  0  0  0  0  0  0
   22.4328   11.5713   22.6923 C   0  0  1  0  0  0  0  0  0  0  0  0
   22.5654   10.2273   22.3910 C   0  0  1  0  0  0  0  0  0  0  0  0
   23.0608    9.8499   21.1118 C   0  0  0  0  0  0  0  0  0  0  0  0
   23.2499    8.7121   20.6630 O   0  0  0  0  0  0  0  0  0  0  0  0
   22.1795    9.4447   23.4716 N   0  0  0  0  0  0  0  0  0  0  0  0
   21.8213   10.3051   24.3844 C   0  0  0  0  0  0  0  0  0  0  0  0
   21.9375   11.6200   23.9899 N   0  0  1  0  0  0  0  0  0  0  0  0
  2  1  1  0  0  0  0
  3  1  1  6  0  0  0
  3  4  1  0  0  0  0
  3  5  1  0  0  0  0
  5  6  1  1  0  0  0
  5  7  1  0  0  0  0
  7  8  1  1  0  0  0
  7  9  1  0  0  0  0
  9  4  1  1  0  0  0
  9 20  1  0  0  0  0
 10 11  1  0  0  0  0
 11 12  1  6  0  0  0
 11 13  1  0  0  0  0
 14 13  1  1  0  0  0
 15 14  1  0  0  0  0
 15 16  1  1  0  0  0
 16 10  1  0  0  0  0
 16 17  2  0  0  0  0
 18 15  1  0  0  0  0
 19 18  1  0  0  0  0
 20 14  1  0  0  0  0
 20 19  1  1  0  0  0
M  END
>  <CHROM.1>
68.11626623,-162.97613332,21.56715029,11.86839033,23.80592742,-2.92097972
1.05720112,-0.57546725

>  <Name>
1nyi_lig

>  <RI>
0

>  <Rbt.Current_Directory>
/home/itssahil/PROJECTS/Mol_Feturizer/New_Systems/rnas/1nyi

>  <Rbt.Executable>
rbdock ($Id: //depot/dev/client3/rdock/2013.1/src/exe/rbdock.cxx#4 $)

>  <Rbt.Library>
libRbt.so (2013.1, Build901 2013/11/27)

>  <Rbt.Parameter_File>
/export/apps/rDock/src/rDock_2013.1_src/data/scripts/dock_solv.prm

>  <Rbt.Receptor>
prm/blind_docking_40.prm

>  <SCORE>
-5.08193

>  <SCORE.INTER>
-6.18681

>  <SCORE.INTER.CONST>
1

>  <SCORE.INTER.POLAR>
-0.258457

>  <SCORE.INTER.ROT>
2

>  <SCORE.INTER.SOLV>
10.2615

>  <SCORE.INTER.VDW>
-11.6168

>  <SCORE.INTER.norm>
-0.309341

>  <SCORE.INTRA>
-1.80876

>  <SCORE.INTRA.DIHEDRAL>
-2.19882

>  <SCORE.INTRA.DIHEDRAL.0>
3.72394

>  <SCORE.INTRA.POLAR>
0

>  <SCORE.INTRA.POLAR.0>
0

>  <SCORE.INTRA.REPUL>
0

>  <SCORE.INTRA.REPUL.0>
0

>  <SCORE.INTRA.SOLV>
-0.747266

>  <SCORE.INTRA.SOLV.lig_0>
-49.4697

>  <SCORE.INTRA.VDW>
-0.335712

>  <SCORE.INTRA.VDW.0>
-0.896538

>  <SCORE.INTRA.norm>
-0.0904378

>  <SCORE.RESTR>
2.91364

>  <SCORE.RESTR.CAVITY>
2.91364

>  <SCORE.RESTR.norm>
0.145682

>  <SCORE.SYSTEM>
0

>  <SCORE.SYSTEM.CONST>
0

>  <SCORE.SYSTEM.DIHEDRAL>
0

>  <SCORE.SYSTEM.SOLV>
0

>  <SCORE.SYSTEM.norm>
0

>  <SCORE.heavy>
20

>  <SCORE.norm>
-0.254096

>  <RMSD>
26.373

$$$$
1nyi_lig
 OpenBabel11021811403D
libRbt.so/2013.1/901 2013/11/27
 20 22  0  0  0  0  0  0  0  0999 V2000
   19.6487   11.4519   27.2860 C   0  0  0  0  0  0  0  0  0  0  0  0
   20.3484   11.2424   28.5126 O   0  0  0  0  0  0  0  0  0  0  0  0
   20.1329   12.7082   26.5966 C   0  0  1  0  0  0  0  0  0  0  0  0
   21.5131   12.5168   26.1835 O   0  0  0  0  0  0  0  0  0  0  0  0
   19.3550   13.0120   25.3210 C   0  0  1  0  0  0  0  0  0  0  0  0
   18.2277   13.8497   25.5814 O   0  0  0  0  0  0  0  0  0  0  0  0
   20.4170   13.6720   24.4440 C   0  0  1  0  0  0  0  0  0  0  0  0
   20.6440   15.0344   24.7725 O   0  0  0  0  0  0  0  0  0  0  0  0
   21.6421   12.8337   24.8027 C   0  0  2  0  0  0  0  0  0  0  0  0
   23.3298   10.9716   20.3113 N   0  0  0  0  0  0  0  0  0  0  0  0
   23.1845   12.2762   20.7163 C   0  0  1  0  0  0  0  0  0  0  0  0
   23.5303   13.1983   19.8167 N   0  0  0  0  0  0  0  0  0  0  0  0
   22.7315   12.6477   21.9102 N   0  0  0  0  0  0  0  0  0  0  0  0
   22.4132   11.5797   22.6985 C   0  0  1  0  0  0  0  0  0  0  0  0
   22.5237   10.2371   22.3826 C   0  0  1  0  0  0  0  0  0  0  0  0
   23.0208    9.8654   21.1024 C   0  0  0  0  0  0  0  0  0  0  0  0
   23.1926    8.7296   20.6418 O   0  0  0  0  0  0  0  0  0  0  0  0
   22.1167    9.4493   23.4517 N   0  0  0  0  0  0  0  0  0  0  0  0
   21.7679   10.3055   24.3720 C   0  0  0  0  0  0  0  0  0  0  0  0
   21.9102   11.6225   23.9934 N   0  0  1  0  0  0  0  0  0  0  0  0
  2  1  1  0  0  0  0
  3  1  1  6  0  0  0
  3  4  1  0  0  0  0
  3  5  1  0  0  0  0
  5  6  1  1  0  0  0
  5  7  1  0  0  0  0
  7  8  1  1  0  0  0
  7  9  1  0  0  0  0
  9  4  1  1  0  0  0
  9 20  1  0  0  0  0
 10 11  1  0  0  0  0
 11 12  1  6  0  0  0
 11 13  1  0  0  0  0
 14 13  1  1  0  0  0
 15 14  1  0  0  0  0
 15 16  1  1  0  0  0
 16 10  1  0  0  0  0
 16 17  2  0  0  0  0
 18 15  1  0  0  0  0
 19 18  1  0  0  0  0
 20 14  1  0  0  0  0
 20 19  1  1  0  0  0
M  END
>  <CHROM.1>
66.23090076,-162.76655341,21.54888039,11.87731637,23.81067155,-2.95409312
1.06161092,-0.53589152

>  <Name>
1nyi_lig

>  <RI>
0

>  <Rbt.Current_Directory>
/home/itssahil/PROJECTS/Mol_Feturizer/New_Systems/rnas/1nyi

>  <Rbt.Executable>
rbdock ($Id: //depot/dev/client3/rdock/2013.1/src/exe/rbdock.cxx#4 $)

>  <Rbt.Library>
libRbt.so (2013.1, Build901 2013/11/27)

>  <Rbt.Parameter_File>
/export/apps/rDock/src/rDock_2013.1_src/data/scripts/dock_solv.prm

>  <Rbt.Receptor>
prm/blind_docking_40.prm

>  <SCORE>
-5.31934

>  <SCORE.INTER>
-6.43082

>  <SCORE.INTER.CONST>
1

>  <SCORE.INTER.POLAR>
-0.296239

>  <SCORE.INTER.ROT>
2

>  <SCORE.INTER.SOLV>
10.2643

>  <SCORE.INTER.VDW>
-11.6545

>  <SCORE.INTER.norm>
-0.321541

>  <SCORE.INTRA>
-1.85114

>  <SCORE.INTRA.DIHEDRAL>
-2.29466

>  <SCORE.INTRA.DIHEDRAL.0>
3.72394

>  <SCORE.INTRA.POLAR>
0

>  <SCORE.INTRA.POLAR.0>
0

>  <SCORE.INTRA.REPUL>
0

>  <SCORE.INTRA.REPUL.0>
0

>  <SCORE.INTRA.SOLV>
-0.737094

>  <SCORE.INTRA.SOLV.lig_0>
-49.4697

>  <SCORE.INTRA.VDW>
-0.335263

>  <SCORE.INTRA.VDW.0>
-0.896538

>  <SCORE.INTRA.norm>
-0.092557

>  <SCORE.RESTR>
2.96262

>  <SCORE.RESTR.CAVITY>
2.96262

>  <SCORE.RESTR.norm>
0.148131

>  <SCORE.SYSTEM>
0

>  <SCORE.SYSTEM.CONST>
0

>  <SCORE.SYSTEM.DIHEDRAL>
0

>  <SCORE.SYSTEM.SOLV>
0

>  <SCORE.SYSTEM.norm>
0

>  <SCORE.heavy>
20

>  <SCORE.norm>
-0.265967

>  <RMSD>
26.376

$$$$
1nyi_lig
 OpenBabel11021811403D
libRbt.so/2013.1/901 2013/11/27
 20 22  0  0  0  0  0  0  0  0999 V2000
   19.6780   11.4547   27.2950 C   0  0  0  0  0  0  0  0  0  0  0  0
   20.3581   11.2748   28.5372 O   0  0  0  0  0  0  0  0  0  0  0  0
   20.1485   12.7131   26.5998 C   0  0  1  0  0  0  0  0  0  0  0  0
   21.5297   12.5336   26.1846 O   0  0  0  0  0  0  0  0  0  0  0  0
   19.3651   13.0044   25.3247 C   0  0  1  0  0  0  0  0  0  0  0  0
   18.2302   13.8321   25.5843 O   0  0  0  0  0  0  0  0  0  0  0  0
   20.4188   13.6714   24.4430 C   0  0  1  0  0  0  0  0  0  0  0  0
   20.6332   15.0372   24.7659 O   0  0  0  0  0  0  0  0  0  0  0  0
   21.6528   12.8465   24.8023 C   0  0  2  0  0  0  0  0  0  0  0  0
   23.3516   10.9838   20.3153 N   0  0  0  0  0  0  0  0  0  0  0  0
   23.1947   12.2884   20.7158 C   0  0  1  0  0  0  0  0  0  0  0  0
   23.5306   13.2104   19.8124 N   0  0  0  0  0  0  0  0  0  0  0  0
   22.7399   12.6600   21.9090 N   0  0  0  0  0  0  0  0  0  0  0  0
   22.4326   11.5921   22.7017 C   0  0  1  0  0  0  0  0  0  0  0  0
   22.5552   10.2493   22.3905 C   0  0  1  0  0  0  0  0  0  0  0  0
   23.0540    9.8776   21.1109 C   0  0  0  0  0  0  0  0  0  0  0  0
   23.2357    8.7418   20.6542 O   0  0  0  0  0  0  0  0  0  0  0  0
   22.1570    9.4617   23.4630 N   0  0  0  0  0  0  0  0  0  0  0  0
   21.8016   10.3180   24.3807 C   0  0  0  0  0  0  0  0  0  0  0  0
   21.9311   11.6349   23.9971 N   0  0  1  0  0  0  0  0  0  0  0  0
  2  1  1  0  0  0  0
  3  1  1  6  0  0  0
  3  4  1  0  0  0  0
  3  5  1  0  0  0  0
  5  6  1  1  0  0  0
  5  7  1  0  0  0  0
  7  8  1  1  0  0  0
  7  9  1  0  0  0  0
  9  4  1  1  0  0  0
  9 20  1  0  0  0  0
 10 11  1  0  0  0  0
 11 12  1  6  0  0  0
 11 13  1  0  0  0  0
 14 13  1  1  0  0  0
 15 14  1  0  0  0  0
 15 16  1  1  0  0  0
 16 10  1  0  0  0  0
 16 17  2  0  0  0  0
 18 15  1  0  0  0  0
 19 18  1  0  0  0  0
 20 14  1  0  0  0  0
 20 19  1  1  0  0  0
M  END
>  <CHROM.1>
67.70292076,-162.72115186,21.56605900,11.88645552,23.81528524,-2.93732987
1.05816337,-0.55362194

>  <Name>
1nyi_lig

>  <RI>
0

>  <Rbt.Current_Directory>
/home/itssahil/PROJECTS/Mol_Feturizer/New_Systems/rnas/1nyi

>  <Rbt.Executable>
rbdock ($Id: //depot/dev/client3/rdock/2013.1/src/exe/rbdock.cxx#4 $)

>  <Rbt.Library>
libRbt.so (2013.1, Build901 2013/11/27)

>  <Rbt.Parameter_File>
/export/apps/rDock/src/rDock_2013.1_src/data/scripts/dock_solv.prm

>  <Rbt.Receptor>
prm/blind_docking_40.prm

>  <SCORE>
-5.01252

>  <SCORE.INTER>
-6.08138

>  <SCORE.INTER.CONST>
1

>  <SCORE.INTER.POLAR>
-0.267784

>  <SCORE.INTER.ROT>
2

>  <SCORE.INTER.SOLV>
10.4492

>  <SCORE.INTER.VDW>
-11.578

>  <SCORE.INTER.norm>
-0.304069

>  <SCORE.INTRA>
-1.82057

>  <SCORE.INTRA.DIHEDRAL>
-2.22121

>  <SCORE.INTRA.DIHEDRAL.0>
3.72394

>  <SCORE.INTRA.POLAR>
0

>  <SCORE.INTRA.POLAR.0>
0

>  <SCORE.INTRA.REPUL>
0

>  <SCORE.INTRA.REPUL.0>
0

>  <SCORE.INTRA.SOLV>
-0.746903

>  <SCORE.INTRA.SOLV.lig_0>
-49.4697

>  <SCORE.INTRA.VDW>
-0.336515

>  <SCORE.INTRA.VDW.0>
-0.896538

>  <SCORE.INTRA.norm>
-0.0910285

>  <SCORE.RESTR>
2.88943

>  <SCORE.RESTR.CAVITY>
2.88943

>  <SCORE.RESTR.norm>
0.144472

>  <SCORE.SYSTEM>
0

>  <SCORE.SYSTEM.CONST>
0

>  <SCORE.SYSTEM.DIHEDRAL>
0

>  <SCORE.SYSTEM.SOLV>
0

>  <SCORE.SYSTEM.norm>
0

>  <SCORE.heavy>
20

>  <SCORE.norm>
-0.250626

>  <RMSD>
26.377

$$$$
1nyi_lig
 OpenBabel11021811403D
libRbt.so/2013.1/901 2013/11/27
 20 22  0  0  0  0  0  0  0  0999 V2000
   19.6851   11.4648   27.2707 C   0  0  0  0  0  0  0  0  0  0  0  0
   20.3825   11.2822   28.5028 O   0  0  0  0  0  0  0  0  0  0  0  0
   20.1558   12.7171   26.5649 C   0  0  1  0  0  0  0  0  0  0  0  0
   21.5353   12.5319   26.1465 O   0  0  0  0  0  0  0  0  0  0  0  0
   19.3688   13.0009   25.2903 C   0  0  1  0  0  0  0  0  0  0  0  0
   18.2364   13.8327   25.5476 O   0  0  0  0  0  0  0  0  0  0  0  0
   20.4210   13.6593   24.4004 C   0  0  1  0  0  0  0  0  0  0  0  0
   20.6391   15.0270   24.7127 O   0  0  0  0  0  0  0  0  0  0  0  0
   21.6544   12.8346   24.7616 C   0  0  2  0  0  0  0  0  0  0  0  0
   23.3377   10.9361   20.2837 N   0  0  0  0  0  0  0  0  0  0  0  0
   23.1851   12.2440   20.6755 C   0  0  1  0  0  0  0  0  0  0  0  0
   23.5212   13.1588   19.7648 N   0  0  0  0  0  0  0  0  0  0  0  0
   22.7341   12.6251   21.8671 N   0  0  0  0  0  0  0  0  0  0  0  0
   22.4260   11.5635   22.6679 C   0  0  1  0  0  0  0  0  0  0  0  0
   22.5444   10.2183   22.3659 C   0  0  1  0  0  0  0  0  0  0  0  0
   23.0392    9.8364   21.0878 C   0  0  0  0  0  0  0  0  0  0  0  0
   23.2168    8.6969   20.6386 O   0  0  0  0  0  0  0  0  0  0  0  0
   22.1468    9.4392   23.4448 N   0  0  0  0  0  0  0  0  0  0  0  0
   21.7957   10.3029   24.3573 C   0  0  0  0  0  0  0  0  0  0  0  0
   21.9277   11.6167   23.9642 N   0  0  1  0  0  0  0  0  0  0  0  0
  2  1  1  0  0  0  0
  3  1  1  6  0  0  0
  3  4  1  0  0  0  0
  3  5  1  0  0  0  0
  5  6  1  1  0  0  0
  5  7  1  0  0  0  0
  7  8  1  1  0  0  0
  7  9  1  0  0  0  0
  9  4  1  1  0  0  0
  9 20  1  0  0  0  0
 10 11  1  0  0  0  0
 11 12  1  6  0  0  0
 11 13  1  0  0  0  0
 14 13  1  1  0  0  0
 15 14  1  0  0  0  0
 15 16  1  1  0  0  0
 16 10  1  0  0  0  0
 16 17  2  0  0  0  0
 18 15  1  0  0  0  0
 19 18  1  0  0  0  0
 20 14  1  0  0  0  0
 20 19  1  1  0  0  0
M  END
>  <CHROM.1>
66.87652972,-162.65789168,21.56412523,11.86704342,23.78156745,-2.93742210
1.06169808,-0.56085998

>  <Name>
1nyi_lig

>  <RI>
0

>  <Rbt.Current_Directory>
/home/itssahil/PROJECTS/Mol_Feturizer/New_Systems/rnas/1nyi

>  <Rbt.Executable>
rbdock ($Id: //depot/dev/client3/rdock/2013.1/src/exe/rbdock.cxx#4 $)

>  <Rbt.Library>
libRbt.so (2013.1, Build901 2013/11/27)

>  <Rbt.Parameter_File>
/export/apps/rDock/src/rDock_2013.1_src/data/scripts/dock_solv.prm

>  <Rbt.Receptor>
prm/blind_docking_40.prm

>  <SCORE>
-5.03549

>  <SCORE.INTER>
-6.10376

>  <SCORE.INTER.CONST>
1

>  <SCORE.INTER.POLAR>
-0.279854

>  <SCORE.INTER.ROT>
2

>  <SCORE.INTER.SOLV>
10.1214

>  <SCORE.INTER.VDW>
-11.4435

>  <SCORE.INTER.norm>
-0.305188

>  <SCORE.INTRA>
-1.8393

>  <SCORE.INTRA.DIHEDRAL>
-2.26396

>  <SCORE.INTRA.DIHEDRAL.0>
3.72394

>  <SCORE.INTRA.POLAR>
0

>  <SCORE.INTRA.POLAR.0>
0

>  <SCORE.INTRA.REPUL>
0

>  <SCORE.INTRA.REPUL.0>
0

>  <SCORE.INTRA.SOLV>
-0.742198

>  <SCORE.INTRA.SOLV.lig_0>
-49.4697

>  <SCORE.INTRA.VDW>
-0.336218

>  <SCORE.INTRA.VDW.0>
-0.896538

>  <SCORE.INTRA.norm>
-0.0919648

>  <SCORE.RESTR>
2.90756

>  <SCORE.RESTR.CAVITY>
2.90756

>  <SCORE.RESTR.norm>
0.145378

>  <SCORE.SYSTEM>
0

>  <SCORE.SYSTEM.CONST>
0

>  <SCORE.SYSTEM.DIHEDRAL>
0

>  <SCORE.SYSTEM.SOLV>
0

>  <SCORE.SYSTEM.norm>
0

>  <SCORE.heavy>
20

>  <SCORE.norm>
-0.251774

>  <RMSD>
26.388

$$$$
1nyi_lig
 OpenBabel11021811403D
libRbt.so/2013.1/901 2013/11/27
 20 22  0  0  0  0  0  0  0  0999 V2000
   21.8831    8.2644   21.3147 C   0  0  0  0  0  0  0  0  0  0  0  0
   22.9368    7.3722   20.9521 O   0  0  0  0  0  0  0  0  0  0  0  0
   22.2581    9.6966   21.0040 C   0  0  1  0  0  0  0  0  0  0  0  0
   21.1845   10.5711   21.4454 O   0  0  0  0  0  0  0  0  0  0  0  0
   23.5025   10.1519   21.7580 C   0  0  1  0  0  0  0  0  0  0  0  0
   24.6911    9.9057   21.0050 O   0  0  0  0  0  0  0  0  0  0  0  0
   23.2188   11.6355   21.9841 C   0  0  1  0  0  0  0  0  0  0  0  0
   23.4751   12.4335   20.8382 O   0  0  0  0  0  0  0  0  0  0  0  0
   21.7197   11.5969   22.2730 C   0  0  2  0  0  0  0  0  0  0  0  0
   18.7388   13.3631   26.0787 N   0  0  0  0  0  0  0  0  0  0  0  0
   18.9019   13.8442   24.8023 C   0  0  1  0  0  0  0  0  0  0  0  0
   18.1844   14.9276   24.5013 N   0  0  0  0  0  0  0  0  0  0  0  0
   19.7092   13.3063   23.8925 N   0  0  0  0  0  0  0  0  0  0  0  0
   20.3748   12.2151   24.3715 C   0  0  1  0  0  0  0  0  0  0  0  0
   20.2787   11.6570   25.6340 C   0  0  1  0  0  0  0  0  0  0  0  0
   19.4001   12.2450   26.5862 C   0  0  0  0  0  0  0  0  0  0  0  0
   19.1783   11.8924   27.7515 O   0  0  0  0  0  0  0  0  0  0  0  0
   21.1007   10.5424   25.7385 N   0  0  0  0  0  0  0  0  0  0  0  0
   21.6728   10.4498   24.5697 C   0  0  0  0  0  0  0  0  0  0  0  0
   21.2927   11.4321   23.6817 N   0  0  1  0  0  0  0  0  0  0  0  0
  2  1  1  0  0  0  0
  3  1  1  1  0  0  0
  3  4  1  0  0  0  0
  3  5  1  0  0  0  0
  5  6  1  6  0  0  0
  5  7  1  0  0  0  0
  7  8  1  6  0  0  0
  7  9  1  0  0  0  0
  9  4  1  6  0  0  0
  9 20  1  0  0  0  0
 10 11  1  0  0  0  0
 11 12  1  1  0  0  0
 11 13  1  0  0  0  0
 14 13  1  6  0  0  0
 15 14  1  0  0  0  0
 15 16  1  6  0  0  0
 16 10  1  0  0  0  0
 16 17  2  0  0  0  0
 18 15  1  0  0  0  0
 19 18  1  0  0  0  0
 20 14  1  0  0  0  0
 20 19  1  6  0  0  0
M  END
>  <CHROM.1>
-177.39457808,-107.80938663,21.23023892,11.33125334,23.45746658,0.03173736
-0.96881582,2.55756414

>  <Name>
1nyi_lig

>  <RI>
0

>  <Rbt.Current_Directory>
/home/itssahil/PROJECTS/Mol_Feturizer/New_Systems/rnas/1nyi

>  <Rbt.Executable>
rbdock ($Id: //depot/dev/client3/rdock/2013.1/src/exe/rbdock.cxx#4 $)

>  <Rbt.Library>
libRbt.so (2013.1, Build901 2013/11/27)

>  <Rbt.Parameter_File>
/export/apps/rDock/src/rDock_2013.1_src/data/scripts/dock_solv.prm

>  <Rbt.Receptor>
prm/blind_docking_40.prm

>  <SCORE>
0.626176

>  <SCORE.INTER>
-0.920378

>  <SCORE.INTER.CONST>
1

>  <SCORE.INTER.POLAR>
0

>  <SCORE.INTER.ROT>
2

>  <SCORE.INTER.SOLV>
7.15926

>  <SCORE.INTER.VDW>
-7.93334

>  <SCORE.INTER.norm>
-0.0460189

>  <SCORE.INTRA>
-1.92481

>  <SCORE.INTRA.DIHEDRAL>
-2.52205

>  <SCORE.INTRA.DIHEDRAL.0>
3.72394

>  <SCORE.INTRA.POLAR>
0

>  <SCORE.INTRA.POLAR.0>
0

>  <SCORE.INTRA.REPUL>
0

>  <SCORE.INTRA.REPUL.0>
0

>  <SCORE.INTRA.SOLV>
-0.627864

>  <SCORE.INTRA.SOLV.lig_0>
-49.4697

>  <SCORE.INTRA.VDW>
-0.34985

>  <SCORE.INTRA.VDW.0>
-0.896538

>  <SCORE.INTRA.norm>
-0.0962404

>  <SCORE.RESTR>
3.47136

>  <SCORE.RESTR.CAVITY>
3.47136

>  <SCORE.RESTR.norm>
0.173568

>  <SCORE.SYSTEM>
0

>  <SCORE.SYSTEM.CONST>
0

>  <SCORE.SYSTEM.DIHEDRAL>
0

>  <SCORE.SYSTEM.SOLV>
0

>  <SCORE.SYSTEM.norm>
0

>  <SCORE.heavy>
20

>  <SCORE.norm>
0.0313088

>  <RMSD>
26.406

$$$$
1nyi_lig
 OpenBabel11021811403D
libRbt.so/2013.1/901 2013/11/27
 20 22  0  0  0  0  0  0  0  0999 V2000
   21.8899    8.2471   21.2499 C   0  0  0  0  0  0  0  0  0  0  0  0
   22.9540    7.3596   20.9064 O   0  0  0  0  0  0  0  0  0  0  0  0
   22.2670    9.6816   20.9531 C   0  0  1  0  0  0  0  0  0  0  0  0
   21.1887   10.5523   21.3904 O   0  0  0  0  0  0  0  0  0  0  0  0
   23.5038   10.1322   21.7224 C   0  0  1  0  0  0  0  0  0  0  0  0
   24.6997    9.8921   20.9792 O   0  0  0  0  0  0  0  0  0  0  0  0
   23.2170   11.6139   21.9564 C   0  0  1  0  0  0  0  0  0  0  0  0
   23.4839   12.4203   20.8188 O   0  0  0  0  0  0  0  0  0  0  0  0
   21.7153   11.5724   22.2305 C   0  0  2  0  0  0  0  0  0  0  0  0
   18.7864   13.3805   26.0570 N   0  0  0  0  0  0  0  0  0  0  0  0
   18.9749   13.8795   24.7910 C   0  0  1  0  0  0  0  0  0  0  0  0
   18.3022   14.9960   24.5082 N   0  0  0  0  0  0  0  0  0  0  0  0
   19.7651   13.3280   23.8745 N   0  0  0  0  0  0  0  0  0  0  0  0
   20.3849   12.2023   24.3348 C   0  0  1  0  0  0  0  0  0  0  0  0
   20.2602   11.6239   25.5857 C   0  0  1  0  0  0  0  0  0  0  0  0
   19.4006   12.2275   26.5453 C   0  0  0  0  0  0  0  0  0  0  0  0
   19.1589   11.8613   27.7025 O   0  0  0  0  0  0  0  0  0  0  0  0
   21.0373   10.4759   25.6719 N   0  0  0  0  0  0  0  0  0  0  0  0
   21.6114   10.3836   24.5041 C   0  0  0  0  0  0  0  0  0  0  0  0
   21.2748   11.3972   23.6338 N   0  0  1  0  0  0  0  0  0  0  0  0
  2  1  1  0  0  0  0
  3  1  1  1  0  0  0
  3  4  1  0  0  0  0
  3  5  1  0  0  0  0
  5  6  1  6  0  0  0
  5  7  1  0  0  0  0
  7  8  1  6  0  0  0
  7  9  1  0  0  0  0
  9  4  1  6  0  0  0
  9 20  1  0  0  0  0
 10 11  1  0  0  0  0
 11 12  1  1  0  0  0
 11 13  1  0  0  0  0
 14 13  1  6  0  0  0
 15 14  1  0  0  0  0
 15 16  1  6  0  0  0
 16 10  1  0  0  0  0
 16 17  2  0  0  0  0
 18 15  1  0  0  0  0
 19 18  1  0  0  0  0
 20 14  1  0  0  0  0
 20 19  1  6  0  0  0
M  END
>  <CHROM.1>
-176.67359927,-110.22253574,21.23878425,11.31734360,23.41907479,0.08084870
-0.97261108,2.61347518

>  <Name>
1nyi_lig

>  <RI>
0

>  <Rbt.Current_Directory>
/home/itssahil/PROJECTS/Mol_Feturizer/New_Systems/rnas/1nyi

>  <Rbt.Executable>
rbdock ($Id: //depot/dev/client3/rdock/2013.1/src/exe/rbdock.cxx#4 $)

>  <Rbt.Library>
libRbt.so (2013.1, Build901 2013/11/27)

>  <Rbt.Parameter_File>
/export/apps/rDock/src/rDock_2013.1_src/data/scripts/dock_solv.prm

>  <Rbt.Receptor>
prm/blind_docking_40.prm

>  <SCORE>
0.901832

>  <SCORE.INTER>
-0.582991

>  <SCORE.INTER.CONST>
1

>  <SCORE.INTER.POLAR>
0

>  <SCORE.INTER.ROT>
2

>  <SCORE.INTER.SOLV>
7.21324

>  <SCORE.INTER.VDW>
-7.72641

>  <SCORE.INTER.norm>
-0.0291496

>  <SCORE.INTRA>
-1.91733

>  <SCORE.INTRA.DIHEDRAL>
-2.4965

>  <SCORE.INTRA.DIHEDRAL.0>
3.72394

>  <SCORE.INTRA.POLAR>
0

>  <SCORE.INTRA.POLAR.0>
0

>  <SCORE.INTRA.REPUL>
0

>  <SCORE.INTRA.REPUL.0>
0

>  <SCORE.INTRA.SOLV>
-0.628344

>  <SCORE.INTRA.SOLV.lig_0>
-49.4697

>  <SCORE.INTRA.VDW>
-0.354906

>  <SCORE.INTRA.VDW.0>
-0.896538

>  <SCORE.INTRA.norm>
-0.0958664

>  <SCORE.RESTR>
3.40215

>  <SCORE.RESTR.CAVITY>
3.40215

>  <SCORE.RESTR.norm>
0.170108

>  <SCORE.SYSTEM>
0

>  <SCORE.SYSTEM.CONST>
0

>  <SCORE.SYSTEM.DIHEDRAL>
0

>  <SCORE.SYSTEM.SOLV>
0

>  <SCORE.SYSTEM.norm>
0

>  <SCORE.heavy>
20

>  <SCORE.norm>
0.0450916

>  <RMSD>
26.427

$$$$
1nyi_lig
 OpenBabel11021811403D
libRbt.so/2013.1/901 2013/11/27
 20 22  0  0  0  0  0  0  0  0999 V2000
   21.4394    5.8059   20.4298 C   0  0  0  0  0  0  0  0  0  0  0  0
   21.9015    4.6464   21.1227 O   0  0  0  0  0  0  0  0  0  0  0  0
   22.4522    6.2593   19.4018 C   0  0  1  0  0  0  0  0  0  0  0  0
   22.0906    7.5886   18.9386 O   0  0  0  0  0  0  0  0  0  0  0  0
   23.8563    6.3882   19.9817 C   0  0  1  0  0  0  0  0  0  0  0  0
   24.5914    5.1705   19.8506 O   0  0  0  0  0  0  0  0  0  0  0  0
   24.4372    7.5431   19.1685 C   0  0  1  0  0  0  0  0  0  0  0  0
   24.8772    7.1503   17.8771 O   0  0  0  0  0  0  0  0  0  0  0  0
   23.2154    8.4519   19.0535 C   0  0  2  0  0  0  0  0  0  0  0  0
   22.1290    9.3173   24.0093 N   0  0  0  0  0  0  0  0  0  0  0  0
   22.2066    8.1274   23.3273 C   0  0  1  0  0  0  0  0  0  0  0  0
   21.9656    7.0338   24.0520 N   0  0  0  0  0  0  0  0  0  0  0  0
   22.4946    8.0186   22.0335 N   0  0  0  0  0  0  0  0  0  0  0  0
   22.6990    9.2330   21.4447 C   0  0  1  0  0  0  0  0  0  0  0  0
   22.6437   10.4793   22.0434 C   0  0  1  0  0  0  0  0  0  0  0  0
   22.3436   10.5683   23.4313 C   0  0  0  0  0  0  0  0  0  0  0  0
   22.2528   11.5807   24.1373 O   0  0  0  0  0  0  0  0  0  0  0  0
   22.9261   11.4773   21.1195 N   0  0  0  0  0  0  0  0  0  0  0  0
   23.1354   10.8364   20.0027 C   0  0  0  0  0  0  0  0  0  0  0  0
   23.0100    9.4687   20.1108 N   0  0  1  0  0  0  0  0  0  0  0  0
  2  1  1  0  0  0  0
  3  1  1  1  0  0  0
  3  4  1  0  0  0  0
  3  5  1  0  0  0  0
  5  6  1  6  0  0  0
  5  7  1  0  0  0  0
  7  8  1  6  0  0  0
  7  9  1  0  0  0  0
  9  4  1  1  0  0  0
  9 20  1  0  0  0  0
 10 11  1  0  0  0  0
 11 12  1  6  0  0  0
 11 13  1  0  0  0  0
 14 13  1  1  0  0  0
 15 14  1  0  0  0  0
 15 16  1  1  0  0  0
 16 10  1  0  0  0  0
 16 17  2  0  0  0  0
 18 15  1  0  0  0  0
 19 18  1  0  0  0  0
 20 14  1  0  0  0  0
 20 19  1  1  0  0  0
M  END
>  <CHROM.1>
-167.38038949,55.59438630,22.84185983,8.20898817,21.04640187,1.06584458,-1.18368789
-2.89823243

>  <Name>
1nyi_lig

>  <RI>
0

>  <Rbt.Current_Directory>
/home/itssahil/PROJECTS/Mol_Feturizer/New_Systems/rnas/1nyi

>  <Rbt.Executable>
rbdock ($Id: //depot/dev/client3/rdock/2013.1/src/exe/rbdock.cxx#4 $)

>  <Rbt.Library>
libRbt.so (2013.1, Build901 2013/11/27)

>  <Rbt.Parameter_File>
/export/apps/rDock/src/rDock_2013.1_src/data/scripts/dock_solv.prm

>  <Rbt.Receptor>
prm/blind_docking_60.prm

>  <SCORE>
-2.25671

>  <SCORE.INTER>
-5.09448

>  <SCORE.INTER.CONST>
1

>  <SCORE.INTER.POLAR>
0

>  <SCORE.INTER.ROT>
2

>  <SCORE.INTER.SOLV>
10.4844

>  <SCORE.INTER.VDW>
-11.8245

>  <SCORE.INTER.norm>
-0.254724

>  <SCORE.INTRA>
-0.830759

>  <SCORE.INTRA.DIHEDRAL>
-1.9659

>  <SCORE.INTRA.DIHEDRAL.0>
3.72394

>  <SCORE.INTRA.POLAR>
0

>  <SCORE.INTRA.POLAR.0>
0

>  <SCORE.INTRA.REPUL>
0

>  <SCORE.INTRA.REPUL.0>
0

>  <SCORE.INTRA.SOLV>
2.47902

>  <SCORE.INTRA.SOLV.lig_0>
-49.4697

>  <SCORE.INTRA.VDW>
-1.08732

>  <SCORE.INTRA.VDW.0>
-0.896538

>  <SCORE.INTRA.norm>
-0.041538

>  <SCORE.RESTR>
3.66853

>  <SCORE.RESTR.CAVITY>
3.66853

>  <SCORE.RESTR.norm>
0.183427

>  <SCORE.SYSTEM>
0

>  <SCORE.SYSTEM.CONST>
0

>  <SCORE.SYSTEM.DIHEDRAL>
0

>  <SCORE.SYSTEM.SOLV>
0

>  <SCORE.SYSTEM.norm>
0

>  <SCORE.heavy>
20

>  <SCORE.norm>
-0.112835

>  <RMSD>
26.427

$$$$
1nyi_lig
 OpenBabel11021811403D
libRbt.so/2013.1/901 2013/11/27
 20 22  0  0  0  0  0  0  0  0999 V2000
   20.0000   11.3573   27.2647 C   0  0  0  0  0  0  0  0  0  0  0  0
   18.7178   11.5020   27.8755 O   0  0  0  0  0  0  0  0  0  0  0  0
   20.3841   12.6125   26.5130 C   0  0  1  0  0  0  0  0  0  0  0  0
   21.7368   12.4613   26.0036 O   0  0  0  0  0  0  0  0  0  0  0  0
   19.5041   12.8550   25.2918 C   0  0  1  0  0  0  0  0  0  0  0  0
   18.3675   13.6573   25.6157 O   0  0  0  0  0  0  0  0  0  0  0  0
   20.4732   13.5308   24.3240 C   0  0  1  0  0  0  0  0  0  0  0  0
   20.6712   14.9085   24.6038 O   0  0  0  0  0  0  0  0  0  0  0  0
   21.7525   12.7474   24.6102 C   0  0  2  0  0  0  0  0  0  0  0  0
   23.3260   10.8327   20.0994 N   0  0  0  0  0  0  0  0  0  0  0  0
   23.1818   12.1419   20.4897 C   0  0  1  0  0  0  0  0  0  0  0  0
   23.4942   13.0534   19.5673 N   0  0  0  0  0  0  0  0  0  0  0  0
   22.7601   12.5274   21.6906 N   0  0  0  0  0  0  0  0  0  0  0  0
   22.4731   11.4686   22.5030 C   0  0  1  0  0  0  0  0  0  0  0  0
   22.5854   10.1224   22.2035 C   0  0  1  0  0  0  0  0  0  0  0  0
   23.0487    9.7358   20.9150 C   0  0  0  0  0  0  0  0  0  0  0  0
   23.2163    8.5948   20.4660 O   0  0  0  0  0  0  0  0  0  0  0  0
   22.2155    9.3472   23.2950 N   0  0  0  0  0  0  0  0  0  0  0  0
   21.8863   10.2142   24.2126 C   0  0  0  0  0  0  0  0  0  0  0  0
   22.0071   11.5265   23.8111 N   0  0  1  0  0  0  0  0  0  0  0  0
  2  1  1  0  0  0  0
  3  1  1  6  0  0  0
  3  4  1  0  0  0  0
  3  5  1  0  0  0  0
  5  6  1  1  0  0  0
  5  7  1  0  0  0  0
  7  8  1  1  0  0  0
  7  9  1  0  0  0  0
  9  4  1  1  0  0  0
  9 20  1  0  0  0  0
 10 11  1  0  0  0  0
 11 12  1  6  0  0  0
 11 13  1  0  0  0  0
 14 13  1  1  0  0  0
 15 14  1  0  0  0  0
 15 16  1  1  0  0  0
 16 10  1  0  0  0  0
 16 17  2  0  0  0  0
 18 15  1  0  0  0  0
 19 18  1  0  0  0  0
 20 14  1  0  0  0  0
 20 19  1  1  0  0  0
M  END
>  <CHROM.1>
175.33282461,-159.63903381,21.54522962,11.77944881,23.63120237,-3.12143925
1.04482134,-0.35407855

>  <Name>
1nyi_lig

>  <RI>
0

>  <Rbt.Current_Directory>
/home/itssahil/PROJECTS/Mol_Feturizer/New_Systems/rnas/1nyi

>  <Rbt.Executable>
rbdock ($Id: //depot/dev/client3/rdock/2013.1/src/exe/rbdock.cxx#4 $)

>  <Rbt.Library>
libRbt.so (2013.1, Build901 2013/11/27)

>  <Rbt.Parameter_File>
/export/apps/rDock/src/rDock_2013.1_src/data/scripts/dock_solv.prm

>  <Rbt.Receptor>
prm/blind_docking_40.prm

>  <SCORE>
-5.08518

>  <SCORE.INTER>
-5.9976

>  <SCORE.INTER.CONST>
1

>  <SCORE.INTER.POLAR>
0

>  <SCORE.INTER.ROT>
2

>  <SCORE.INTER.SOLV>
8.7223

>  <SCORE.INTER.VDW>
-11.8392

>  <SCORE.INTER.norm>
-0.29988

>  <SCORE.INTRA>
-1.81557

>  <SCORE.INTRA.DIHEDRAL>
-2.3567

>  <SCORE.INTRA.DIHEDRAL.0>
3.72394

>  <SCORE.INTRA.POLAR>
0

>  <SCORE.INTRA.POLAR.0>
0

>  <SCORE.INTRA.REPUL>
0

>  <SCORE.INTRA.REPUL.0>
0

>  <SCORE.INTRA.SOLV>
-0.55685

>  <SCORE.INTRA.SOLV.lig_0>
-49.4697

>  <SCORE.INTRA.VDW>
-0.358792

>  <SCORE.INTRA.VDW.0>
-0.896538

>  <SCORE.INTRA.norm>
-0.0907783

>  <SCORE.RESTR>
2.72799

>  <SCORE.RESTR.CAVITY>
2.72799

>  <SCORE.RESTR.norm>
0.136399

>  <SCORE.SYSTEM>
0

>  <SCORE.SYSTEM.CONST>
0

>  <SCORE.SYSTEM.DIHEDRAL>
0

>  <SCORE.SYSTEM.SOLV>
0

>  <SCORE.SYSTEM.norm>
0

>  <SCORE.heavy>
20

>  <SCORE.norm>
-0.254259

>  <RMSD>
26.444

$$$$
1nyi_lig
 OpenBabel11021811403D
libRbt.so/2013.1/901 2013/11/27
 20 22  0  0  0  0  0  0  0  0999 V2000
   19.9997   11.3523   27.2677 C   0  0  0  0  0  0  0  0  0  0  0  0
   18.7191   11.4926   27.8829 O   0  0  0  0  0  0  0  0  0  0  0  0
   20.3773   12.6092   26.5155 C   0  0  1  0  0  0  0  0  0  0  0  0
   21.7301   12.4640   26.0045 O   0  0  0  0  0  0  0  0  0  0  0  0
   19.4948   12.8479   25.2954 C   0  0  1  0  0  0  0  0  0  0  0  0
   18.3551   13.6451   25.6206 O   0  0  0  0  0  0  0  0  0  0  0  0
   20.4598   13.5279   24.3264 C   0  0  1  0  0  0  0  0  0  0  0  0
   20.6519   14.9065   24.6060 O   0  0  0  0  0  0  0  0  0  0  0  0
   21.7428   12.7502   24.6110 C   0  0  2  0  0  0  0  0  0  0  0  0
   23.3335   10.8421   20.1035 N   0  0  0  0  0  0  0  0  0  0  0  0
   23.1860   12.1508   20.4944 C   0  0  1  0  0  0  0  0  0  0  0  0
   23.4999   13.0636   19.5739 N   0  0  0  0  0  0  0  0  0  0  0  0
   22.7599   12.5344   21.6944 N   0  0  0  0  0  0  0  0  0  0  0  0
   22.4721   11.4745   22.5050 C   0  0  1  0  0  0  0  0  0  0  0  0
   22.5874   10.1287   22.2045 C   0  0  1  0  0  0  0  0  0  0  0  0
   23.0553    9.7441   20.9171 C   0  0  0  0  0  0  0  0  0  0  0  0
   23.2262    8.6037   20.4677 O   0  0  0  0  0  0  0  0  0  0  0  0
   22.2153    9.3520   23.2942 N   0  0  0  0  0  0  0  0  0  0  0  0
   21.8819   10.2176   24.2115 C   0  0  0  0  0  0  0  0  0  0  0  0
   22.0019   11.5304   23.8116 N   0  0  1  0  0  0  0  0  0  0  0  0
  2  1  1  0  0  0  0
  3  1  1  6  0  0  0
  3  4  1  0  0  0  0
  3  5  1  0  0  0  0
  5  6  1  1  0  0  0
  5  7  1  0  0  0  0
  7  8  1  1  0  0  0
  7  9  1  0  0  0  0
  9  4  1  1  0  0  0
  9 20  1  0  0  0  0
 10 11  1  0  0  0  0
 11 12  1  6  0  0  0
 11 13  1  0  0  0  0
 14 13  1  1  0  0  0
 15 14  1  0  0  0  0
 15 16  1  1  0  0  0
 16 10  1  0  0  0  0
 16 17  2  0  0  0  0
 18 15  1  0  0  0  0
 19 18  1  0  0  0  0
 20 14  1  0  0  0  0
 20 19  1  1  0  0  0
M  END
>  <CHROM.1>
175.18400483,-159.33598261,21.54253024,11.78129567,23.63384615,-3.11710771
1.04280011,-0.35660292

>  <Name>
1nyi_lig

>  <RI>
0

>  <Rbt.Current_Directory>
/home/itssahil/PROJECTS/Mol_Feturizer/New_Systems/rnas/1nyi

>  <Rbt.Executable>
rbdock ($Id: //depot/dev/client3/rdock/2013.1/src/exe/rbdock.cxx#4 $)

>  <Rbt.Library>
libRbt.so (2013.1, Build901 2013/11/27)

>  <Rbt.Parameter_File>
/export/apps/rDock/src/rDock_2013.1_src/data/scripts/dock_solv.prm

>  <Rbt.Receptor>
prm/blind_docking_40.prm

>  <SCORE>
-5.13545

>  <SCORE.INTER>
-6.05629

>  <SCORE.INTER.CONST>
1

>  <SCORE.INTER.POLAR>
0

>  <SCORE.INTER.ROT>
2

>  <SCORE.INTER.SOLV>
8.71844

>  <SCORE.INTER.VDW>
-11.877

>  <SCORE.INTER.norm>
-0.302814

>  <SCORE.INTRA>
-1.8167

>  <SCORE.INTRA.DIHEDRAL>
-2.35108

>  <SCORE.INTRA.DIHEDRAL.0>
3.72394

>  <SCORE.INTRA.POLAR>
0

>  <SCORE.INTRA.POLAR.0>
0

>  <SCORE.INTRA.REPUL>
0

>  <SCORE.INTRA.REPUL.0>
0

>  <SCORE.INTRA.SOLV>
-0.560409

>  <SCORE.INTRA.SOLV.lig_0>
-49.4697

>  <SCORE.INTRA.VDW>
-0.360957

>  <SCORE.INTRA.VDW.0>
-0.896538

>  <SCORE.INTRA.norm>
-0.0908351

>  <SCORE.RESTR>
2.73754

>  <SCORE.RESTR.CAVITY>
2.73754

>  <SCORE.RESTR.norm>
0.136877

>  <SCORE.SYSTEM>
0

>  <SCORE.SYSTEM.CONST>
0

>  <SCORE.SYSTEM.DIHEDRAL>
0

>  <SCORE.SYSTEM.SOLV>
0

>  <SCORE.SYSTEM.norm>
0

>  <SCORE.heavy>
20

>  <SCORE.norm>
-0.256772

>  <RMSD>
26.445

$$$$
1nyi_lig
 OpenBabel11021811403D
libRbt.so/2013.1/901 2013/11/27
 20 22  0  0  0  0  0  0  0  0999 V2000
   20.0011   11.3555   27.2708 C   0  0  0  0  0  0  0  0  0  0  0  0
   18.7269   11.4963   27.8990 O   0  0  0  0  0  0  0  0  0  0  0  0
   20.3728   12.6132   26.5171 C   0  0  1  0  0  0  0  0  0  0  0  0
   21.7261   12.4735   26.0058 O   0  0  0  0  0  0  0  0  0  0  0  0
   19.4889   12.8465   25.2970 C   0  0  1  0  0  0  0  0  0  0  0  0
   18.3457   13.6390   25.6216 O   0  0  0  0  0  0  0  0  0  0  0  0
   20.4505   13.5299   24.3270 C   0  0  1  0  0  0  0  0  0  0  0  0
   20.6365   14.9096   24.6049 O   0  0  0  0  0  0  0  0  0  0  0  0
   21.7371   12.7582   24.6121 C   0  0  2  0  0  0  0  0  0  0  0  0
   23.3404   10.8522   20.1081 N   0  0  0  0  0  0  0  0  0  0  0  0
   23.1879   12.1607   20.4979 C   0  0  1  0  0  0  0  0  0  0  0  0
   23.4999   13.0739   19.5771 N   0  0  0  0  0  0  0  0  0  0  0  0
   22.7589   12.5438   21.6970 N   0  0  0  0  0  0  0  0  0  0  0  0
   22.4736   11.4835   22.5080 C   0  0  1  0  0  0  0  0  0  0  0  0
   22.5940   10.1379   22.2087 C   0  0  1  0  0  0  0  0  0  0  0  0
   23.0650    9.7539   20.9223 C   0  0  0  0  0  0  0  0  0  0  0  0
   23.2403    8.6138   20.4739 O   0  0  0  0  0  0  0  0  0  0  0  0
   22.2231    9.3607   23.2984 N   0  0  0  0  0  0  0  0  0  0  0  0
   21.8855   10.2258   24.2147 C   0  0  0  0  0  0  0  0  0  0  0  0
   22.0014   11.5388   23.8139 N   0  0  1  0  0  0  0  0  0  0  0  0
  2  1  1  0  0  0  0
  3  1  1  6  0  0  0
  3  4  1  0  0  0  0
  3  5  1  0  0  0  0
  5  6  1  1  0  0  0
  5  7  1  0  0  0  0
  7  8  1  1  0  0  0
  7  9  1  0  0  0  0
  9  4  1  1  0  0  0
  9 20  1  0  0  0  0
 10 11  1  0  0  0  0
 11 12  1  6  0  0  0
 11 13  1  0  0  0  0
 14 13  1  1  0  0  0
 15 14  1  0  0  0  0
 15 16  1  1  0  0  0
 16 10  1  0  0  0  0
 16 17  2  0  0  0  0
 18 15  1  0  0  0  0
 19 18  1  0  0  0  0
 20 14  1  0  0  0  0
 20 19  1  1  0  0  0
M  END
>  <CHROM.1>
174.51323879,-159.22254313,21.54274787,11.78765022,23.63728852,-3.10907362
1.04122581,-0.36447583

>  <Name>
1nyi_lig

>  <RI>
0

>  <Rbt.Current_Directory>
/home/itssahil/PROJECTS/Mol_Feturizer/New_Systems/rnas/1nyi

>  <Rbt.Executable>
rbdock ($Id: //depot/dev/client3/rdock/2013.1/src/exe/rbdock.cxx#4 $)

>  <Rbt.Library>
libRbt.so (2013.1, Build901 2013/11/27)

>  <Rbt.Parameter_File>
/export/apps/rDock/src/rDock_2013.1_src/data/scripts/dock_solv.prm

>  <Rbt.Receptor>
prm/blind_docking_40.prm

>  <SCORE>
-5.1123

>  <SCORE.INTER>
-6.03555

>  <SCORE.INTER.CONST>
1

>  <SCORE.INTER.POLAR>
0

>  <SCORE.INTER.ROT>
2

>  <SCORE.INTER.SOLV>
8.74216

>  <SCORE.INTER.VDW>
-11.8711

>  <SCORE.INTER.norm>
-0.301777

>  <SCORE.INTRA>
-1.81048

>  <SCORE.INTRA.DIHEDRAL>
-2.32693

>  <SCORE.INTRA.DIHEDRAL.0>
3.72394

>  <SCORE.INTRA.POLAR>
0

>  <SCORE.INTRA.POLAR.0>
0

>  <SCORE.INTRA.REPUL>
0

>  <SCORE.INTRA.REPUL.0>
0

>  <SCORE.INTRA.SOLV>
-0.564961

>  <SCORE.INTRA.SOLV.lig_0>
-49.4697

>  <SCORE.INTRA.VDW>
-0.364536

>  <SCORE.INTRA.VDW.0>
-0.896538

>  <SCORE.INTRA.norm>
-0.0905241

>  <SCORE.RESTR>
2.73373

>  <SCORE.RESTR.CAVITY>
2.73373

>  <SCORE.RESTR.norm>
0.136687

>  <SCORE.SYSTEM>
0

>  <SCORE.SYSTEM.CONST>
0

>  <SCORE.SYSTEM.DIHEDRAL>
0

>  <SCORE.SYSTEM.SOLV>
0

>  <SCORE.SYSTEM.norm>
0

>  <SCORE.heavy>
20

>  <SCORE.norm>
-0.255615

>  <RMSD>
26.447

$$$$
1nyi_lig
 OpenBabel11021811403D
libRbt.so/2013.1/901 2013/11/27
 20 22  0  0  0  0  0  0  0  0999 V2000
   19.9985   11.3563   27.2690 C   0  0  0  0  0  0  0  0  0  0  0  0
   18.7133   11.4896   27.8762 O   0  0  0  0  0  0  0  0  0  0  0  0
   20.3720   12.6137   26.5156 C   0  0  1  0  0  0  0  0  0  0  0  0
   21.7258   12.4729   26.0060 O   0  0  0  0  0  0  0  0  0  0  0  0
   19.4898   12.8474   25.2943 C   0  0  1  0  0  0  0  0  0  0  0  0
   18.3468   13.6408   25.6175 O   0  0  0  0  0  0  0  0  0  0  0  0
   20.4531   13.5299   24.3254 C   0  0  1  0  0  0  0  0  0  0  0  0
   20.6398   14.9096   24.6033 O   0  0  0  0  0  0  0  0  0  0  0  0
   21.7388   12.7573   24.6122 C   0  0  2  0  0  0  0  0  0  0  0  0
   23.3383   10.8495   20.1077 N   0  0  0  0  0  0  0  0  0  0  0  0
   23.1851   12.1581   20.4967 C   0  0  1  0  0  0  0  0  0  0  0  0
   23.4952   13.0709   19.5749 N   0  0  0  0  0  0  0  0  0  0  0  0
   22.7573   12.5417   21.6961 N   0  0  0  0  0  0  0  0  0  0  0  0
   22.4738   11.4818   22.5081 C   0  0  1  0  0  0  0  0  0  0  0  0
   22.5950   10.1360   22.2096 C   0  0  1  0  0  0  0  0  0  0  0  0
   23.0647    9.7515   20.9229 C   0  0  0  0  0  0  0  0  0  0  0  0
   23.2405    8.6113   20.4751 O   0  0  0  0  0  0  0  0  0  0  0  0
   22.2261    9.3593   23.3004 N   0  0  0  0  0  0  0  0  0  0  0  0
   21.8888   10.2248   24.2164 C   0  0  0  0  0  0  0  0  0  0  0  0
   22.0032   11.5376   23.8146 N   0  0  1  0  0  0  0  0  0  0  0  0
  2  1  1  0  0  0  0
  3  1  1  6  0  0  0
  3  4  1  0  0  0  0
  3  5  1  0  0  0  0
  5  6  1  1  0  0  0
  5  7  1  0  0  0  0
  7  8  1  1  0  0  0
  7  9  1  0  0  0  0
  9  4  1  1  0  0  0
  9 20  1  0  0  0  0
 10 11  1  0  0  0  0
 11 12  1  6  0  0  0
 11 13  1  0  0  0  0
 14 13  1  1  0  0  0
 15 14  1  0  0  0  0
 15 16  1  1  0  0  0
 16 10  1  0  0  0  0
 16 17  2  0  0  0  0
 18 15  1  0  0  0  0
 19 18  1  0  0  0  0
 20 14  1  0  0  0  0
 20 19  1  1  0  0  0
M  END
>  <CHROM.1>
175.53017862,-159.39112641,21.54217937,11.78630626,23.63544964,-3.11054475
1.04070451,-0.36363564

>  <Name>
1nyi_lig

>  <RI>
0

>  <Rbt.Current_Directory>
/home/itssahil/PROJECTS/Mol_Feturizer/New_Systems/rnas/1nyi

>  <Rbt.Executable>
rbdock ($Id: //depot/dev/client3/rdock/2013.1/src/exe/rbdock.cxx#4 $)

>  <Rbt.Library>
libRbt.so (2013.1, Build901 2013/11/27)

>  <Rbt.Parameter_File>
/export/apps/rDock/src/rDock_2013.1_src/data/scripts/dock_solv.prm

>  <Rbt.Receptor>
prm/blind_docking_40.prm

>  <SCORE>
-5.11947

>  <SCORE.INTER>
-6.03486

>  <SCORE.INTER.CONST>
1

>  <SCORE.INTER.POLAR>
0

>  <SCORE.INTER.ROT>
2

>  <SCORE.INTER.SOLV>
8.72967

>  <SCORE.INTER.VDW>
-11.8665

>  <SCORE.INTER.norm>
-0.301743

>  <SCORE.INTRA>
-1.81926

>  <SCORE.INTRA.DIHEDRAL>
-2.36232

>  <SCORE.INTRA.DIHEDRAL.0>
3.72394

>  <SCORE.INTRA.POLAR>
0

>  <SCORE.INTRA.POLAR.0>
0

>  <SCORE.INTRA.REPUL>
0

>  <SCORE.INTRA.REPUL.0>
0

>  <SCORE.INTRA.SOLV>
-0.558098

>  <SCORE.INTRA.SOLV.lig_0>
-49.4697

>  <SCORE.INTRA.VDW>
-0.359055

>  <SCORE.INTRA.VDW.0>
-0.896538

>  <SCORE.INTRA.norm>
-0.0909631

>  <SCORE.RESTR>
2.73465

>  <SCORE.RESTR.CAVITY>
2.73465

>  <SCORE.RESTR.norm>
0.136733

>  <SCORE.SYSTEM>
0

>  <SCORE.SYSTEM.CONST>
0

>  <SCORE.SYSTEM.DIHEDRAL>
0

>  <SCORE.SYSTEM.SOLV>
0

>  <SCORE.SYSTEM.norm>
0

>  <SCORE.heavy>
20

>  <SCORE.norm>
-0.255973

>  <RMSD>
26.448

$$$$
1nyi_lig
 OpenBabel11021811403D
libRbt.so/2013.1/901 2013/11/27
 20 22  0  0  0  0  0  0  0  0999 V2000
   19.9985   11.3625   27.2676 C   0  0  0  0  0  0  0  0  0  0  0  0
   18.7127   11.4961   27.8733 O   0  0  0  0  0  0  0  0  0  0  0  0
   20.3722   12.6187   26.5124 C   0  0  1  0  0  0  0  0  0  0  0  0
   21.7258   12.4769   26.0027 O   0  0  0  0  0  0  0  0  0  0  0  0
   19.4897   12.8510   25.2910 C   0  0  1  0  0  0  0  0  0  0  0  0
   18.3469   13.6451   25.6134 O   0  0  0  0  0  0  0  0  0  0  0  0
   20.4529   13.5320   24.3209 C   0  0  1  0  0  0  0  0  0  0  0  0
   20.6400   14.9120   24.5970 O   0  0  0  0  0  0  0  0  0  0  0  0
   21.7385   12.7595   24.6085 C   0  0  2  0  0  0  0  0  0  0  0  0
   23.3393   10.8452   20.1072 N   0  0  0  0  0  0  0  0  0  0  0  0
   23.1870   12.1543   20.4946 C   0  0  1  0  0  0  0  0  0  0  0  0
   23.4984   13.0658   19.5719 N   0  0  0  0  0  0  0  0  0  0  0  0
   22.7587   12.5397   21.6933 N   0  0  0  0  0  0  0  0  0  0  0  0
   22.4738   11.4809   22.5063 C   0  0  1  0  0  0  0  0  0  0  0  0
   22.5941   10.1347   22.2095 C   0  0  1  0  0  0  0  0  0  0  0  0
   23.0643    9.7483   20.9235 C   0  0  0  0  0  0  0  0  0  0  0  0
   23.2395    8.6074   20.4772 O   0  0  0  0  0  0  0  0  0  0  0  0
   22.2239    9.3595   23.3009 N   0  0  0  0  0  0  0  0  0  0  0  0
   21.8867   10.2263   24.2157 C   0  0  0  0  0  0  0  0  0  0  0  0
   22.0024   11.5386   23.8124 N   0  0  1  0  0  0  0  0  0  0  0  0
  2  1  1  0  0  0  0
  3  1  1  6  0  0  0
  3  4  1  0  0  0  0
  3  5  1  0  0  0  0
  5  6  1  1  0  0  0
  5  7  1  0  0  0  0
  7  8  1  1  0  0  0
  7  9  1  0  0  0  0
  9  4  1  1  0  0  0
  9 20  1  0  0  0  0
 10 11  1  0  0  0  0
 11 12  1  6  0  0  0
 11 13  1  0  0  0  0
 14 13  1  1  0  0  0
 15 14  1  0  0  0  0
 15 16  1  1  0  0  0
 16 10  1  0  0  0  0
 16 17  2  0  0  0  0
 18 15  1  0  0  0  0
 19 18  1  0  0  0  0
 20 14  1  0  0  0  0
 20 19  1  1  0  0  0
M  END
>  <CHROM.1>
175.61609086,-159.32993755,21.54214781,11.78712391,23.63328857,-3.11200326
1.04062421,-0.36342927

>  <Name>
1nyi_lig

>  <RI>
0

>  <Rbt.Current_Directory>
/home/itssahil/PROJECTS/Mol_Feturizer/New_Systems/rnas/1nyi

>  <Rbt.Executable>
rbdock ($Id: //depot/dev/client3/rdock/2013.1/src/exe/rbdock.cxx#4 $)

>  <Rbt.Library>
libRbt.so (2013.1, Build901 2013/11/27)

>  <Rbt.Parameter_File>
/export/apps/rDock/src/rDock_2013.1_src/data/scripts/dock_solv.prm

>  <Rbt.Receptor>
prm/blind_docking_40.prm

>  <SCORE>
-5.08155

>  <SCORE.INTER>
-5.9857

>  <SCORE.INTER.CONST>
1

>  <SCORE.INTER.POLAR>
0

>  <SCORE.INTER.ROT>
2

>  <SCORE.INTER.SOLV>
8.7322

>  <SCORE.INTER.VDW>
-11.8345

>  <SCORE.INTER.norm>
-0.299285

>  <SCORE.INTRA>
-1.82044

>  <SCORE.INTRA.DIHEDRAL>
-2.36479

>  <SCORE.INTRA.DIHEDRAL.0>
3.72394

>  <SCORE.INTRA.POLAR>
0

>  <SCORE.INTRA.POLAR.0>
0

>  <SCORE.INTRA.REPUL>
0

>  <SCORE.INTRA.REPUL.0>
0

>  <SCORE.INTRA.SOLV>
-0.558213

>  <SCORE.INTRA.SOLV.lig_0>
-49.4697

>  <SCORE.INTRA.VDW>
-0.358939

>  <SCORE.INTRA.VDW.0>
-0.896538

>  <SCORE.INTRA.norm>
-0.0910221

>  <SCORE.RESTR>
2.72459

>  <SCORE.RESTR.CAVITY>
2.72459

>  <SCORE.RESTR.norm>
0.13623

>  <SCORE.SYSTEM>
0

>  <SCORE.SYSTEM.CONST>
0

>  <SCORE.SYSTEM.DIHEDRAL>
0

>  <SCORE.SYSTEM.SOLV>
0

>  <SCORE.SYSTEM.norm>
0

>  <SCORE.heavy>
20

>  <SCORE.norm>
-0.254078

>  <RMSD>
26.449

$$$$
1nyi_lig
 OpenBabel11021811403D
libRbt.so/2013.1/901 2013/11/27
 20 22  0  0  0  0  0  0  0  0999 V2000
   19.9973   11.3592   27.2689 C   0  0  0  0  0  0  0  0  0  0  0  0
   18.7088   11.4884   27.8699 O   0  0  0  0  0  0  0  0  0  0  0  0
   20.3694   12.6168   26.5151 C   0  0  1  0  0  0  0  0  0  0  0  0
   21.7240   12.4783   26.0073 O   0  0  0  0  0  0  0  0  0  0  0  0
   19.4882   12.8481   25.2927 C   0  0  1  0  0  0  0  0  0  0  0  0
   18.3432   13.6394   25.6139 O   0  0  0  0  0  0  0  0  0  0  0  0
   20.4514   13.5318   24.3245 C   0  0  1  0  0  0  0  0  0  0  0  0
   20.6350   14.9120   24.6018 O   0  0  0  0  0  0  0  0  0  0  0  0
   21.7382   12.7619   24.6134 C   0  0  2  0  0  0  0  0  0  0  0  0
   23.3467   10.8544   20.1119 N   0  0  0  0  0  0  0  0  0  0  0  0
   23.1905   12.1629   20.4999 C   0  0  1  0  0  0  0  0  0  0  0  0
   23.4998   13.0757   19.5779 N   0  0  0  0  0  0  0  0  0  0  0  0
   22.7605   12.5464   21.6985 N   0  0  0  0  0  0  0  0  0  0  0  0
   22.4782   11.4864   22.5109 C   0  0  1  0  0  0  0  0  0  0  0  0
   22.6024   10.1407   22.2135 C   0  0  1  0  0  0  0  0  0  0  0  0
   23.0744    9.7563   20.9275 C   0  0  0  0  0  0  0  0  0  0  0  0
   23.2530    8.6161   20.4807 O   0  0  0  0  0  0  0  0  0  0  0  0
   22.2337    9.3640   23.3043 N   0  0  0  0  0  0  0  0  0  0  0  0
   21.8937   10.2294   24.2194 C   0  0  0  0  0  0  0  0  0  0  0  0
   22.0059   11.5422   23.8168 N   0  0  1  0  0  0  0  0  0  0  0  0
  2  1  1  0  0  0  0
  3  1  1  6  0  0  0
  3  4  1  0  0  0  0
  3  5  1  0  0  0  0
  5  6  1  1  0  0  0
  5  7  1  0  0  0  0
  7  8  1  1  0  0  0
  7  9  1  0  0  0  0
  9  4  1  1  0  0  0
  9 20  1  0  0  0  0
 10 11  1  0  0  0  0
 11 12  1  6  0  0  0
 11 13  1  0  0  0  0
 14 13  1  1  0  0  0
 15 14  1  0  0  0  0
 15 16  1  1  0  0  0
 16 10  1  0  0  0  0
 16 17  2  0  0  0  0
 18 15  1  0  0  0  0
 19 18  1  0  0  0  0
 20 14  1  0  0  0  0
 20 19  1  1  0  0  0
M  END
>  <CHROM.1>
175.76451384,-159.39641338,21.54447988,11.78977598,23.63669332,-3.10822317
1.03875642,-0.36619008

>  <Name>
1nyi_lig

>  <RI>
0

>  <Rbt.Current_Directory>
/home/itssahil/PROJECTS/Mol_Feturizer/New_Systems/rnas/1nyi

>  <Rbt.Executable>
rbdock ($Id: //depot/dev/client3/rdock/2013.1/src/exe/rbdock.cxx#4 $)

>  <Rbt.Library>
libRbt.so (2013.1, Build901 2013/11/27)

>  <Rbt.Parameter_File>
/export/apps/rDock/src/rDock_2013.1_src/data/scripts/dock_solv.prm

>  <Rbt.Receptor>
prm/blind_docking_40.prm

>  <SCORE>
-5.07227

>  <SCORE.INTER>
-5.97404

>  <SCORE.INTER.CONST>
1

>  <SCORE.INTER.POLAR>
0

>  <SCORE.INTER.ROT>
2

>  <SCORE.INTER.SOLV>
8.77737

>  <SCORE.INTER.VDW>
-11.8418

>  <SCORE.INTER.norm>
-0.298702

>  <SCORE.INTRA>
-1.82099

>  <SCORE.INTRA.DIHEDRAL>
-2.36937

>  <SCORE.INTRA.DIHEDRAL.0>
3.72394

>  <SCORE.INTRA.POLAR>
0

>  <SCORE.INTRA.POLAR.0>
0

>  <SCORE.INTRA.REPUL>
0

>  <SCORE.INTRA.REPUL.0>
0

>  <SCORE.INTRA.SOLV>
-0.556829

>  <SCORE.INTRA.SOLV.lig_0>
-49.4697

>  <SCORE.INTRA.VDW>
-0.357895

>  <SCORE.INTRA.VDW.0>
-0.896538

>  <SCORE.INTRA.norm>
-0.0910497

>  <SCORE.RESTR>
2.72277

>  <SCORE.RESTR.CAVITY>
2.72277

>  <SCORE.RESTR.norm>
0.136138

>  <SCORE.SYSTEM>
0

>  <SCORE.SYSTEM.CONST>
0

>  <SCORE.SYSTEM.DIHEDRAL>
0

>  <SCORE.SYSTEM.SOLV>
0

>  <SCORE.SYSTEM.norm>
0

>  <SCORE.heavy>
20

>  <SCORE.norm>
-0.253613

>  <RMSD>
26.449

$$$$
1nyi_lig
 OpenBabel11021811403D
libRbt.so/2013.1/901 2013/11/27
 20 22  0  0  0  0  0  0  0  0999 V2000
   20.0001   11.3777   27.2790 C   0  0  0  0  0  0  0  0  0  0  0  0
   18.7231   11.5200   27.9012 O   0  0  0  0  0  0  0  0  0  0  0  0
   20.3726   12.6315   26.5192 C   0  0  1  0  0  0  0  0  0  0  0  0
   21.7222   12.4845   26.0004 O   0  0  0  0  0  0  0  0  0  0  0  0
   19.4824   12.8647   25.3035 C   0  0  1  0  0  0  0  0  0  0  0  0
   18.3445   13.6629   25.6324 O   0  0  0  0  0  0  0  0  0  0  0  0
   20.4412   13.5409   24.3257 C   0  0  1  0  0  0  0  0  0  0  0  0
   20.6346   14.9208   24.5982 O   0  0  0  0  0  0  0  0  0  0  0  0
   21.7262   12.7648   24.6057 C   0  0  2  0  0  0  0  0  0  0  0  0
   23.3186   10.8373   20.1070 N   0  0  0  0  0  0  0  0  0  0  0  0
   23.1773   12.1477   20.4945 C   0  0  1  0  0  0  0  0  0  0  0  0
   23.4986   13.0566   19.5727 N   0  0  0  0  0  0  0  0  0  0  0  0
   22.7501   12.5365   21.6924 N   0  0  0  0  0  0  0  0  0  0  0  0
   22.4542   11.4802   22.5046 C   0  0  1  0  0  0  0  0  0  0  0  0
   22.5629   10.1330   22.2077 C   0  0  1  0  0  0  0  0  0  0  0  0
   23.0322    9.7428   20.9225 C   0  0  0  0  0  0  0  0  0  0  0  0
   23.1980    8.6004   20.4762 O   0  0  0  0  0  0  0  0  0  0  0  0
   22.1836    9.3609   23.2981 N   0  0  0  0  0  0  0  0  0  0  0  0
   21.8524   10.2305   24.2125 C   0  0  0  0  0  0  0  0  0  0  0  0
   21.9807   11.5418   23.8098 N   0  0  1  0  0  0  0  0  0  0  0  0
  2  1  1  0  0  0  0
  3  1  1  6  0  0  0
  3  4  1  0  0  0  0
  3  5  1  0  0  0  0
  5  6  1  1  0  0  0
  5  7  1  0  0  0  0
  7  8  1  1  0  0  0
  7  9  1  0  0  0  0
  9  4  1  1  0  0  0
  9 20  1  0  0  0  0
 10 11  1  0  0  0  0
 11 12  1  6  0  0  0
 11 13  1  0  0  0  0
 14 13  1  1  0  0  0
 15 14  1  0  0  0  0
 15 16  1  1  0  0  0
 16 10  1  0  0  0  0
 16 17  2  0  0  0  0
 18 15  1  0  0  0  0
 19 18  1  0  0  0  0
 20 14  1  0  0  0  0
 20 19  1  1  0  0  0
M  END
>  <CHROM.1>
175.20045621,-158.71622815,21.52796236,11.79145466,23.63672859,-3.12257812
1.04497295,-0.35352481

>  <Name>
1nyi_lig

>  <RI>
0

>  <Rbt.Current_Directory>
/home/itssahil/PROJECTS/Mol_Feturizer/New_Systems/rnas/1nyi

>  <Rbt.Executable>
rbdock ($Id: //depot/dev/client3/rdock/2013.1/src/exe/rbdock.cxx#4 $)

>  <Rbt.Library>
libRbt.so (2013.1, Build901 2013/11/27)

>  <Rbt.Parameter_File>
/export/apps/rDock/src/rDock_2013.1_src/data/scripts/dock_solv.prm

>  <Rbt.Receptor>
prm/blind_docking_40.prm

>  <SCORE>
-5.07088

>  <SCORE.INTER>
-5.97864

>  <SCORE.INTER.CONST>
1

>  <SCORE.INTER.POLAR>
0

>  <SCORE.INTER.ROT>
2

>  <SCORE.INTER.SOLV>
8.61724

>  <SCORE.INTER.VDW>
-11.7915

>  <SCORE.INTER.norm>
-0.298932

>  <SCORE.INTRA>
-1.82201

>  <SCORE.INTRA.DIHEDRAL>
-2.35017

>  <SCORE.INTRA.DIHEDRAL.0>
3.72394

>  <SCORE.INTRA.POLAR>
0

>  <SCORE.INTRA.POLAR.0>
0

>  <SCORE.INTRA.REPUL>
0

>  <SCORE.INTRA.REPUL.0>
0

>  <SCORE.INTRA.SOLV>
-0.566038

>  <SCORE.INTRA.SOLV.lig_0>
-49.4697

>  <SCORE.INTRA.VDW>
-0.363906

>  <SCORE.INTRA.VDW.0>
-0.896538

>  <SCORE.INTRA.norm>
-0.0911006

>  <SCORE.RESTR>
2.72978

>  <SCORE.RESTR.CAVITY>
2.72978

>  <SCORE.RESTR.norm>
0.136489

>  <SCORE.SYSTEM>
0

>  <SCORE.SYSTEM.CONST>
0

>  <SCORE.SYSTEM.DIHEDRAL>
0

>  <SCORE.SYSTEM.SOLV>
0

>  <SCORE.SYSTEM.norm>
0

>  <SCORE.heavy>
20

>  <SCORE.norm>
-0.253544

>  <RMSD>
26.450

$$$$
1nyi_lig
 OpenBabel11021811403D
libRbt.so/2013.1/901 2013/11/27
 20 22  0  0  0  0  0  0  0  0999 V2000
   20.0534   11.3997   27.2595 C   0  0  0  0  0  0  0  0  0  0  0  0
   20.4946   10.2302   26.5698 O   0  0  0  0  0  0  0  0  0  0  0  0
   20.3830   12.6476   26.4708 C   0  0  1  0  0  0  0  0  0  0  0  0
   21.7398   12.5385   25.9615 O   0  0  0  0  0  0  0  0  0  0  0  0
   19.4911   12.8177   25.2459 C   0  0  1  0  0  0  0  0  0  0  0  0
   18.3226   13.5807   25.5503 O   0  0  0  0  0  0  0  0  0  0  0  0
   20.4291   13.5052   24.2559 C   0  0  1  0  0  0  0  0  0  0  0  0
   20.5696   14.8976   24.4953 O   0  0  0  0  0  0  0  0  0  0  0  0
   21.7406   12.7846   24.5604 C   0  0  2  0  0  0  0  0  0  0  0  0
   23.4061   10.8085   20.1096 N   0  0  0  0  0  0  0  0  0  0  0  0
   23.2111   12.1215   20.4633 C   0  0  1  0  0  0  0  0  0  0  0  0
   23.4934   13.0186   19.5175 N   0  0  0  0  0  0  0  0  0  0  0  0
   22.7696   12.5233   21.6517 N   0  0  0  0  0  0  0  0  0  0  0  0
   22.5186   11.4771   22.4917 C   0  0  1  0  0  0  0  0  0  0  0  0
   22.6827   10.1283   22.2295 C   0  0  1  0  0  0  0  0  0  0  0  0
   23.1662    9.7246   20.9538 C   0  0  0  0  0  0  0  0  0  0  0  0
   23.3787    8.5788   20.5369 O   0  0  0  0  0  0  0  0  0  0  0  0
   22.3370    9.3698   23.3405 N   0  0  0  0  0  0  0  0  0  0  0  0
   21.9712   10.2484   24.2327 C   0  0  0  0  0  0  0  0  0  0  0  0
   22.0446   11.5529   23.7959 N   0  0  1  0  0  0  0  0  0  0  0  0
  2  1  1  0  0  0  0
  3  1  1  6  0  0  0
  3  4  1  0  0  0  0
  3  5  1  0  0  0  0
  5  6  1  1  0  0  0
  5  7  1  0  0  0  0
  7  8  1  1  0  0  0
  7  9  1  0  0  0  0
  9  4  1  1  0  0  0
  9 20  1  0  0  0  0
 10 11  1  0  0  0  0
 11 12  1  6  0  0  0
 11 13  1  0  0  0  0
 14 13  1  1  0  0  0
 15 14  1  0  0  0  0
 15 16  1  1  0  0  0
 16 10  1  0  0  0  0
 16 17  2  0  0  0  0
 18 15  1  0  0  0  0
 19 18  1  0  0  0  0
 20 14  1  0  0  0  0
 20 19  1  1  0  0  0
M  END
>  <CHROM.1>
-44.08147282,-159.16498001,21.67636311,11.70840141,23.53857791,-3.01037706
1.04608169,-0.50843581

>  <Name>
1nyi_lig

>  <RI>
0

>  <Rbt.Current_Directory>
/home/itssahil/PROJECTS/Mol_Feturizer/New_Systems/rnas/1nyi

>  <Rbt.Executable>
rbdock ($Id: //depot/dev/client3/rdock/2013.1/src/exe/rbdock.cxx#4 $)

>  <Rbt.Library>
libRbt.so (2013.1, Build901 2013/11/27)

>  <Rbt.Parameter_File>
/export/apps/rDock/src/rDock_2013.1_src/data/scripts/dock_solv.prm

>  <Rbt.Receptor>
prm/blind_docking_40.prm

>  <SCORE>
-2.65585

>  <SCORE.INTER>
-5.36512

>  <SCORE.INTER.CONST>
1

>  <SCORE.INTER.POLAR>
0

>  <SCORE.INTER.ROT>
2

>  <SCORE.INTER.SOLV>
9.2243

>  <SCORE.INTER.VDW>
-11.5848

>  <SCORE.INTER.norm>
-0.268256

>  <SCORE.INTRA>
-0.503994

>  <SCORE.INTRA.DIHEDRAL>
-1.5571

>  <SCORE.INTRA.DIHEDRAL.0>
3.72394

>  <SCORE.INTRA.POLAR>
0

>  <SCORE.INTRA.POLAR.0>
0

>  <SCORE.INTRA.REPUL>
0

>  <SCORE.INTRA.REPUL.0>
0

>  <SCORE.INTRA.SOLV>
0.255052

>  <SCORE.INTRA.SOLV.lig_0>
-49.4697

>  <SCORE.INTRA.VDW>
0.147028

>  <SCORE.INTRA.VDW.0>
-0.896538

>  <SCORE.INTRA.norm>
-0.0251997

>  <SCORE.RESTR>
3.21327

>  <SCORE.RESTR.CAVITY>
3.21327

>  <SCORE.RESTR.norm>
0.160663

>  <SCORE.SYSTEM>
0

>  <SCORE.SYSTEM.CONST>
0

>  <SCORE.SYSTEM.DIHEDRAL>
0

>  <SCORE.SYSTEM.SOLV>
0

>  <SCORE.SYSTEM.norm>
0

>  <SCORE.heavy>
20

>  <SCORE.norm>
-0.132792

>  <RMSD>
26.450

$$$$
1nyi_lig
 OpenBabel11021811403D
libRbt.so/2013.1/901 2013/11/27
 20 22  0  0  0  0  0  0  0  0999 V2000
   19.9996   11.3737   27.2611 C   0  0  0  0  0  0  0  0  0  0  0  0
   18.7454   11.5424   27.9219 O   0  0  0  0  0  0  0  0  0  0  0  0
   20.3846   12.6269   26.5065 C   0  0  1  0  0  0  0  0  0  0  0  0
   21.7373   12.4738   25.9979 O   0  0  0  0  0  0  0  0  0  0  0  0
   19.5051   12.8670   25.2845 C   0  0  1  0  0  0  0  0  0  0  0  0
   18.3689   13.6707   25.6061 O   0  0  0  0  0  0  0  0  0  0  0  0
   20.4749   13.5400   24.3154 C   0  0  1  0  0  0  0  0  0  0  0  0
   20.6735   14.9183   24.5920 O   0  0  0  0  0  0  0  0  0  0  0  0
   21.7536   12.7566   24.6038 C   0  0  2  0  0  0  0  0  0  0  0  0
   23.3284   10.8304   20.0984 N   0  0  0  0  0  0  0  0  0  0  0  0
   23.1849   12.1406   20.4855 C   0  0  1  0  0  0  0  0  0  0  0  0
   23.4985   13.0497   19.5612 N   0  0  0  0  0  0  0  0  0  0  0  0
   22.7628   12.5291   21.6853 N   0  0  0  0  0  0  0  0  0  0  0  0
   22.4746   11.4725   22.5000 C   0  0  1  0  0  0  0  0  0  0  0  0
   22.5861   10.1255   22.2036 C   0  0  1  0  0  0  0  0  0  0  0  0
   23.0498    9.7356   20.9163 C   0  0  0  0  0  0  0  0  0  0  0  0
   23.2169    8.5934   20.4701 O   0  0  0  0  0  0  0  0  0  0  0  0
   22.2150    9.3531   23.2968 N   0  0  0  0  0  0  0  0  0  0  0  0
   21.8859   10.2224   24.2121 C   0  0  0  0  0  0  0  0  0  0  0  0
   22.0078   11.5337   23.8076 N   0  0  1  0  0  0  0  0  0  0  0  0
  2  1  1  0  0  0  0
  3  1  1  6  0  0  0
  3  4  1  0  0  0  0
  3  5  1  0  0  0  0
  5  6  1  1  0  0  0
  5  7  1  0  0  0  0
  7  8  1  1  0  0  0
  7  9  1  0  0  0  0
  9  4  1  1  0  0  0
  9 20  1  0  0  0  0
 10 11  1  0  0  0  0
 11 12  1  6  0  0  0
 11 13  1  0  0  0  0
 14 13  1  1  0  0  0
 15 14  1  0  0  0  0
 15 16  1  1  0  0  0
 16 10  1  0  0  0  0
 16 17  2  0  0  0  0
 18 15  1  0  0  0  0
 19 18  1  0  0  0  0
 20 14  1  0  0  0  0
 20 19  1  1  0  0  0
M  END
>  <CHROM.1>
172.66733760,-159.62034458,21.54799144,11.78769938,23.63002725,-3.11753978
1.04619440,-0.36092412

>  <Name>
1nyi_lig

>  <RI>
0

>  <Rbt.Current_Directory>
/home/itssahil/PROJECTS/Mol_Feturizer/New_Systems/rnas/1nyi

>  <Rbt.Executable>
rbdock ($Id: //depot/dev/client3/rdock/2013.1/src/exe/rbdock.cxx#4 $)

>  <Rbt.Library>
libRbt.so (2013.1, Build901 2013/11/27)

>  <Rbt.Parameter_File>
/export/apps/rDock/src/rDock_2013.1_src/data/scripts/dock_solv.prm

>  <Rbt.Receptor>
prm/blind_docking_40.prm

>  <SCORE>
-4.95464

>  <SCORE.INTER>
-5.87506

>  <SCORE.INTER.CONST>
1

>  <SCORE.INTER.POLAR>
0

>  <SCORE.INTER.ROT>
2

>  <SCORE.INTER.SOLV>
8.75676

>  <SCORE.INTER.VDW>
-11.769

>  <SCORE.INTER.norm>
-0.293753

>  <SCORE.INTRA>
-1.77868

>  <SCORE.INTRA.DIHEDRAL>
-2.24626

>  <SCORE.INTRA.DIHEDRAL.0>
3.72394

>  <SCORE.INTRA.POLAR>
0

>  <SCORE.INTRA.POLAR.0>
0

>  <SCORE.INTRA.REPUL>
0

>  <SCORE.INTRA.REPUL.0>
0

>  <SCORE.INTRA.SOLV>
-0.571029

>  <SCORE.INTRA.SOLV.lig_0>
-49.4697

>  <SCORE.INTRA.VDW>
-0.370039

>  <SCORE.INTRA.VDW.0>
-0.896538

>  <SCORE.INTRA.norm>
-0.0889341

>  <SCORE.RESTR>
2.69911

>  <SCORE.RESTR.CAVITY>
2.69911

>  <SCORE.RESTR.norm>
0.134955

>  <SCORE.SYSTEM>
0

>  <SCORE.SYSTEM.CONST>
0

>  <SCORE.SYSTEM.DIHEDRAL>
0

>  <SCORE.SYSTEM.SOLV>
0

>  <SCORE.SYSTEM.norm>
0

>  <SCORE.heavy>
20

>  <SCORE.norm>
-0.247732

>  <RMSD>
26.450

$$$$
1nyi_lig
 OpenBabel11021811403D
libRbt.so/2013.1/901 2013/11/27
 20 22  0  0  0  0  0  0  0  0999 V2000
   22.0364    7.9962   21.0552 C   0  0  0  0  0  0  0  0  0  0  0  0
   23.0734    7.1247   20.6044 O   0  0  0  0  0  0  0  0  0  0  0  0
   22.3462    9.4331   20.6983 C   0  0  1  0  0  0  0  0  0  0  0  0
   21.2743   10.2824   21.1901 O   0  0  0  0  0  0  0  0  0  0  0  0
   23.6191    9.9402   21.3670 C   0  0  1  0  0  0  0  0  0  0  0  0
   24.7670    9.7166   20.5468 O   0  0  0  0  0  0  0  0  0  0  0  0
   23.3028   11.4183   21.5853 C   0  0  1  0  0  0  0  0  0  0  0  0
   23.4637   12.2024   20.4128 O   0  0  0  0  0  0  0  0  0  0  0  0
   21.8261   11.3392   21.9662 C   0  0  2  0  0  0  0  0  0  0  0  0
   19.3173   13.3027   26.0084 N   0  0  0  0  0  0  0  0  0  0  0  0
   19.4305   13.7914   24.7296 C   0  0  1  0  0  0  0  0  0  0  0  0
   18.7993   14.9433   24.4975 N   0  0  0  0  0  0  0  0  0  0  0  0
   20.1132   13.1980   23.7546 N   0  0  0  0  0  0  0  0  0  0  0  0
   20.7054   12.0397   24.1680 C   0  0  1  0  0  0  0  0  0  0  0  0
   20.6503   11.4683   25.4270 C   0  0  1  0  0  0  0  0  0  0  0  0
   19.9048   12.1175   26.4503 C   0  0  0  0  0  0  0  0  0  0  0  0
   19.7372   11.7643   27.6245 O   0  0  0  0  0  0  0  0  0  0  0  0
   21.3678   10.2793   25.4550 N   0  0  0  0  0  0  0  0  0  0  0  0
   21.8403   10.1565   24.2452 C   0  0  0  0  0  0  0  0  0  0  0  0
   21.4908   11.1875   23.4009 N   0  0  1  0  0  0  0  0  0  0  0  0
  2  1  1  0  0  0  0
  3  1  1  1  0  0  0
  3  4  1  0  0  0  0
  3  5  1  0  0  0  0
  5  6  1  6  0  0  0
  5  7  1  0  0  0  0
  7  8  1  6  0  0  0
  7  9  1  0  0  0  0
  9  4  1  6  0  0  0
  9 20  1  0  0  0  0
 10 11  1  0  0  0  0
 11 12  1  1  0  0  0
 11 13  1  0  0  0  0
 14 13  1  6  0  0  0
 15 14  1  0  0  0  0
 15 16  1  6  0  0  0
 16 10  1  0  0  0  0
 16 17  2  0  0  0  0
 18 15  1  0  0  0  0
 19 18  1  0  0  0  0
 20 14  1  0  0  0  0
 20 19  1  6  0  0  0
M  END
>  <CHROM.1>
-179.30596340,-115.33399273,21.49413114,11.13990782,23.20477596,0.06106849
-1.04524624,2.59040923

>  <Name>
1nyi_lig

>  <RI>
0

>  <Rbt.Current_Directory>
/home/itssahil/PROJECTS/Mol_Feturizer/New_Systems/rnas/1nyi

>  <Rbt.Executable>
rbdock ($Id: //depot/dev/client3/rdock/2013.1/src/exe/rbdock.cxx#4 $)

>  <Rbt.Library>
libRbt.so (2013.1, Build901 2013/11/27)

>  <Rbt.Parameter_File>
/export/apps/rDock/src/rDock_2013.1_src/data/scripts/dock_solv.prm

>  <Rbt.Receptor>
prm/blind_docking_40.prm

>  <SCORE>
1.62173

>  <SCORE.INTER>
0.309398

>  <SCORE.INTER.CONST>
1

>  <SCORE.INTER.POLAR>
0

>  <SCORE.INTER.ROT>
2

>  <SCORE.INTER.SOLV>
8.29008

>  <SCORE.INTER.VDW>
-7.49043

>  <SCORE.INTER.norm>
0.0154699

>  <SCORE.INTRA>
-1.97361

>  <SCORE.INTRA.DIHEDRAL>
-2.5149

>  <SCORE.INTRA.DIHEDRAL.0>
3.72394

>  <SCORE.INTRA.POLAR>
0

>  <SCORE.INTRA.POLAR.0>
0

>  <SCORE.INTRA.REPUL>
0

>  <SCORE.INTRA.REPUL.0>
0

>  <SCORE.INTRA.SOLV>
-0.646145

>  <SCORE.INTRA.SOLV.lig_0>
-49.4697

>  <SCORE.INTRA.VDW>
-0.393085

>  <SCORE.INTRA.VDW.0>
-0.896538

>  <SCORE.INTRA.norm>
-0.0986804

>  <SCORE.RESTR>
3.28593

>  <SCORE.RESTR.CAVITY>
3.28593

>  <SCORE.RESTR.norm>
0.164297

>  <SCORE.SYSTEM>
0

>  <SCORE.SYSTEM.CONST>
0

>  <SCORE.SYSTEM.DIHEDRAL>
0

>  <SCORE.SYSTEM.SOLV>
0

>  <SCORE.SYSTEM.norm>
0

>  <SCORE.heavy>
20

>  <SCORE.norm>
0.0810863

>  <RMSD>
26.455

$$$$
1nyi_lig
 OpenBabel11021811403D
libRbt.so/2013.1/901 2013/11/27
 20 22  0  0  0  0  0  0  0  0999 V2000
   20.0658   11.3975   27.2569 C   0  0  0  0  0  0  0  0  0  0  0  0
   20.5029   10.2267   26.5669 O   0  0  0  0  0  0  0  0  0  0  0  0
   20.3857   12.6436   26.4612 C   0  0  1  0  0  0  0  0  0  0  0  0
   21.7357   12.5326   25.9345 O   0  0  0  0  0  0  0  0  0  0  0  0
   19.4780   12.8115   25.2477 C   0  0  1  0  0  0  0  0  0  0  0  0
   18.3140   13.5759   25.5656 O   0  0  0  0  0  0  0  0  0  0  0  0
   20.4034   13.4963   24.2441 C   0  0  1  0  0  0  0  0  0  0  0  0
   20.5478   14.8891   24.4786 O   0  0  0  0  0  0  0  0  0  0  0  0
   21.7184   12.7756   24.5330 C   0  0  2  0  0  0  0  0  0  0  0  0
   23.3835   10.7896   20.0864 N   0  0  0  0  0  0  0  0  0  0  0  0
   23.2023   12.1041   20.4421 C   0  0  1  0  0  0  0  0  0  0  0  0
   23.5003   12.9999   19.4999 N   0  0  0  0  0  0  0  0  0  0  0  0
   22.7594   12.5085   21.6291 N   0  0  0  0  0  0  0  0  0  0  0  0
   22.4917   11.4635   22.4654 C   0  0  1  0  0  0  0  0  0  0  0  0
   22.6411   10.1135   22.2010 C   0  0  1  0  0  0  0  0  0  0  0  0
   23.1264    9.7068   20.9269 C   0  0  0  0  0  0  0  0  0  0  0  0
   23.3274    8.5595   20.5085 O   0  0  0  0  0  0  0  0  0  0  0  0
   22.2806    9.3567   23.3084 N   0  0  0  0  0  0  0  0  0  0  0  0
   21.9206   10.2376   24.2008 C   0  0  0  0  0  0  0  0  0  0  0  0
   22.0117   11.5421   23.7673 N   0  0  1  0  0  0  0  0  0  0  0  0
  2  1  1  0  0  0  0
  3  1  1  6  0  0  0
  3  4  1  0  0  0  0
  3  5  1  0  0  0  0
  5  6  1  1  0  0  0
  5  7  1  0  0  0  0
  7  8  1  1  0  0  0
  7  9  1  0  0  0  0
  9  4  1  1  0  0  0
  9 20  1  0  0  0  0
 10 11  1  0  0  0  0
 11 12  1  6  0  0  0
 11 13  1  0  0  0  0
 14 13  1  1  0  0  0
 15 14  1  0  0  0  0
 15 16  1  1  0  0  0
 16 10  1  0  0  0  0
 16 17  2  0  0  0  0
 18 15  1  0  0  0  0
 19 18  1  0  0  0  0
 20 14  1  0  0  0  0
 20 19  1  1  0  0  0
M  END
>  <CHROM.1>
-43.81072714,-157.90760661,21.65634661,11.69737286,23.52044813,-3.02020277
1.05128562,-0.49733050

>  <Name>
1nyi_lig

>  <RI>
0

>  <Rbt.Current_Directory>
/home/itssahil/PROJECTS/Mol_Feturizer/New_Systems/rnas/1nyi

>  <Rbt.Executable>
rbdock ($Id: //depot/dev/client3/rdock/2013.1/src/exe/rbdock.cxx#4 $)

>  <Rbt.Library>
libRbt.so (2013.1, Build901 2013/11/27)

>  <Rbt.Parameter_File>
/export/apps/rDock/src/rDock_2013.1_src/data/scripts/dock_solv.prm

>  <Rbt.Receptor>
prm/blind_docking_40.prm

>  <SCORE>
-2.86451

>  <SCORE.INTER>
-5.654

>  <SCORE.INTER.CONST>
1

>  <SCORE.INTER.POLAR>
0

>  <SCORE.INTER.ROT>
2

>  <SCORE.INTER.SOLV>
8.92856

>  <SCORE.INTER.VDW>
-11.6789

>  <SCORE.INTER.norm>
-0.2827

>  <SCORE.INTRA>
-0.469689

>  <SCORE.INTRA.DIHEDRAL>
-1.52644

>  <SCORE.INTRA.DIHEDRAL.0>
3.72394

>  <SCORE.INTRA.POLAR>
0

>  <SCORE.INTRA.POLAR.0>
0

>  <SCORE.INTRA.REPUL>
0

>  <SCORE.INTRA.REPUL.0>
0

>  <SCORE.INTRA.SOLV>
0.245498

>  <SCORE.INTRA.SOLV.lig_0>
-49.4697

>  <SCORE.INTRA.VDW>
0.170781

>  <SCORE.INTRA.VDW.0>
-0.896538

>  <SCORE.INTRA.norm>
-0.0234844

>  <SCORE.RESTR>
3.25918

>  <SCORE.RESTR.CAVITY>
3.25918

>  <SCORE.RESTR.norm>
0.162959

>  <SCORE.SYSTEM>
0

>  <SCORE.SYSTEM.CONST>
0

>  <SCORE.SYSTEM.DIHEDRAL>
0

>  <SCORE.SYSTEM.SOLV>
0

>  <SCORE.SYSTEM.norm>
0

>  <SCORE.heavy>
20

>  <SCORE.norm>
-0.143226

>  <RMSD>
26.459

$$$$
1nyi_lig
 OpenBabel11021811403D
libRbt.so/2013.1/901 2013/11/27
 20 22  0  0  0  0  0  0  0  0999 V2000
   19.0392   13.5718   24.4717 C   0  0  0  0  0  0  0  0  0  0  0  0
   19.8551   14.0835   23.4179 O   0  0  0  0  0  0  0  0  0  0  0  0
   19.7039   12.3908   25.1436 C   0  0  1  0  0  0  0  0  0  0  0  0
   19.8621   11.3228   24.1706 O   0  0  0  0  0  0  0  0  0  0  0  0
   21.1092   12.7144   25.6385 C   0  0  1  0  0  0  0  0  0  0  0  0
   21.0936   13.1941   26.9839 O   0  0  0  0  0  0  0  0  0  0  0  0
   21.8257   11.3755   25.4755 C   0  0  1  0  0  0  0  0  0  0  0  0
   21.5394   10.4586   26.5209 O   0  0  0  0  0  0  0  0  0  0  0  0
   21.2156   10.8850   24.1643 C   0  0  2  0  0  0  0  0  0  0  0  0
   23.4821    9.2009   19.8614 N   0  0  0  0  0  0  0  0  0  0  0  0
   22.9501    8.4845   20.9059 C   0  0  1  0  0  0  0  0  0  0  0  0
   23.0308    7.1580   20.7920 N   0  0  0  0  0  0  0  0  0  0  0  0
   22.3857    9.0274   21.9808 N   0  0  0  0  0  0  0  0  0  0  0  0
   22.3996   10.3917   21.9396 C   0  0  1  0  0  0  0  0  0  0  0  0
   22.9088   11.1990   20.9377 C   0  0  1  0  0  0  0  0  0  0  0  0
   23.4984   10.5937   19.7931 C   0  0  0  0  0  0  0  0  0  0  0  0
   24.0001   11.1416   18.8032 O   0  0  0  0  0  0  0  0  0  0  0  0
   22.7226   12.5396   21.2496 N   0  0  0  0  0  0  0  0  0  0  0  0
   22.1255   12.5236   22.4093 C   0  0  0  0  0  0  0  0  0  0  0  0
   21.8980   11.2580   22.9037 N   0  0  1  0  0  0  0  0  0  0  0  0
  2  1  1  0  0  0  0
  3  1  1  6  0  0  0
  3  4  1  0  0  0  0
  3  5  1  0  0  0  0
  5  6  1  1  0  0  0
  5  7  1  0  0  0  0
  7  8  1  1  0  0  0
  7  9  1  0  0  0  0
  9  4  1  6  0  0  0
  9 20  1  0  0  0  0
 10 11  1  0  0  0  0
 11 12  1  1  0  0  0
 11 13  1  0  0  0  0
 14 13  1  6  0  0  0
 15 14  1  0  0  0  0
 15 16  1  6  0  0  0
 16 10  1  0  0  0  0
 16 17  2  0  0  0  0
 18 15  1  0  0  0  0
 19 18  1  0  0  0  0
 20 14  1  0  0  0  0
 20 19  1  6  0  0  0
M  END
>  <CHROM.1>
-62.46531531,-115.40244693,21.80285217,11.21352853,22.92489050,2.95331885
-1.12169480,2.42121318

>  <Name>
1nyi_lig

>  <RI>
0

>  <Rbt.Current_Directory>
/home/itssahil/PROJECTS/Mol_Feturizer/New_Systems/rnas/1nyi

>  <Rbt.Executable>
rbdock ($Id: //depot/dev/client3/rdock/2013.1/src/exe/rbdock.cxx#4 $)

>  <Rbt.Library>
libRbt.so (2013.1, Build901 2013/11/27)

>  <Rbt.Parameter_File>
/export/apps/rDock/src/rDock_2013.1_src/data/scripts/dock_solv.prm

>  <Rbt.Receptor>
prm/blind_docking_40.prm

>  <SCORE>
-0.990977

>  <SCORE.INTER>
-2.20883

>  <SCORE.INTER.CONST>
1

>  <SCORE.INTER.POLAR>
0

>  <SCORE.INTER.ROT>
2

>  <SCORE.INTER.SOLV>
9.92146

>  <SCORE.INTER.VDW>
-9.71304

>  <SCORE.INTER.norm>
-0.110441

>  <SCORE.INTRA>
-1.56174

>  <SCORE.INTRA.DIHEDRAL>
-2.49758

>  <SCORE.INTRA.DIHEDRAL.0>
3.72394

>  <SCORE.INTRA.POLAR>
0

>  <SCORE.INTRA.POLAR.0>
0

>  <SCORE.INTRA.REPUL>
0

>  <SCORE.INTRA.REPUL.0>
0

>  <SCORE.INTRA.SOLV>
0.11799

>  <SCORE.INTRA.SOLV.lig_0>
-49.4697

>  <SCORE.INTRA.VDW>
-0.371947

>  <SCORE.INTRA.VDW.0>
-0.896538

>  <SCORE.INTRA.norm>
-0.0780871

>  <SCORE.RESTR>
2.77959

>  <SCORE.RESTR.CAVITY>
2.77959

>  <SCORE.RESTR.norm>
0.13898

>  <SCORE.SYSTEM>
0

>  <SCORE.SYSTEM.CONST>
0

>  <SCORE.SYSTEM.DIHEDRAL>
0

>  <SCORE.SYSTEM.SOLV>
0

>  <SCORE.SYSTEM.norm>
0

>  <SCORE.heavy>
20

>  <SCORE.norm>
-0.0495489

>  <RMSD>
26.474

$$$$
1nyi_lig
 OpenBabel11021811403D
libRbt.so/2013.1/901 2013/11/27
 20 22  0  0  0  0  0  0  0  0999 V2000
   22.3844    7.6030   16.1425 C   0  0  0  0  0  0  0  0  0  0  0  0
   22.6421    6.2768   16.6039 O   0  0  0  0  0  0  0  0  0  0  0  0
   22.7312    8.6210   17.2062 C   0  0  1  0  0  0  0  0  0  0  0  0
   21.8982    8.3852   18.3735 O   0  0  0  0  0  0  0  0  0  0  0  0
   24.1714    8.4936   17.6900 C   0  0  1  0  0  0  0  0  0  0  0  0
   25.0560    9.3133   16.9246 O   0  0  0  0  0  0  0  0  0  0  0  0
   24.0595    8.9163   19.1534 C   0  0  1  0  0  0  0  0  0  0  0  0
   24.0004   10.3245   19.3245 O   0  0  0  0  0  0  0  0  0  0  0  0
   22.7210    8.2846   19.5296 C   0  0  2  0  0  0  0  0  0  0  0  0
   22.0790    5.2820   23.6601 N   0  0  0  0  0  0  0  0  0  0  0  0
   22.0062    6.6498   23.5551 C   0  0  1  0  0  0  0  0  0  0  0  0
   21.7289    7.2983   24.6872 N   0  0  0  0  0  0  0  0  0  0  0  0
   22.1946    7.3293   22.4275 N   0  0  0  0  0  0  0  0  0  0  0  0
   22.4810    6.5121   21.3722 C   0  0  1  0  0  0  0  0  0  0  0  0
   22.5759    5.1317   21.3775 C   0  0  1  0  0  0  0  0  0  0  0  0
   22.3599    4.4272   22.5945 C   0  0  0  0  0  0  0  0  0  0  0  0
   22.3984    3.2067   22.7964 O   0  0  0  0  0  0  0  0  0  0  0  0
   22.8681    4.6580   20.1049 N   0  0  0  0  0  0  0  0  0  0  0  0
   22.9508    5.7322   19.3694 C   0  0  0  0  0  0  0  0  0  0  0  0
   22.7360    6.9029   20.0631 N   0  0  1  0  0  0  0  0  0  0  0  0
  2  1  1  0  0  0  0
  3  1  1  6  0  0  0
  3  4  1  0  0  0  0
  3  5  1  0  0  0  0
  5  6  1  6  0  0  0
  5  7  1  0  0  0  0
  7  8  1  6  0  0  0
  7  9  1  0  0  0  0
  9  4  1  6  0  0  0
  9 20  1  0  0  0  0
 10 11  1  0  0  0  0
 11 12  1  1  0  0  0
 11 13  1  0  0  0  0
 14 13  1  6  0  0  0
 15 14  1  0  0  0  0
 15 16  1  6  0  0  0
 16 10  1  0  0  0  0
 16 17  2  0  0  0  0
 18 15  1  0  0  0  0
 19 18  1  0  0  0  0
 20 14  1  0  0  0  0
 20 19  1  6  0  0  0
M  END
>  <CHROM.1>
-61.44664175,-128.18447268,22.81535974,6.99084673,20.08654438,0.46468125
-1.35058496,-2.15515911

>  <Name>
1nyi_lig

>  <RI>
0

>  <Rbt.Current_Directory>
/home/itssahil/PROJECTS/Mol_Feturizer/New_Systems/rnas/1nyi

>  <Rbt.Executable>
rbdock ($Id: //depot/dev/client3/rdock/2013.1/src/exe/rbdock.cxx#4 $)

>  <Rbt.Library>
libRbt.so (2013.1, Build901 2013/11/27)

>  <Rbt.Parameter_File>
/export/apps/rDock/src/rDock_2013.1_src/data/scripts/dock_solv.prm

>  <Rbt.Receptor>
prm/blind_docking_60.prm

>  <SCORE>
0.796383

>  <SCORE.INTER>
-0.579828

>  <SCORE.INTER.CONST>
1

>  <SCORE.INTER.POLAR>
0

>  <SCORE.INTER.ROT>
2

>  <SCORE.INTER.SOLV>
9.80194

>  <SCORE.INTER.VDW>
-8.5872

>  <SCORE.INTER.norm>
-0.0289914

>  <SCORE.INTRA>
-1.333

>  <SCORE.INTRA.DIHEDRAL>
-2.45484

>  <SCORE.INTRA.DIHEDRAL.0>
3.72394

>  <SCORE.INTRA.POLAR>
0

>  <SCORE.INTRA.POLAR.0>
0

>  <SCORE.INTRA.REPUL>
0

>  <SCORE.INTRA.REPUL.0>
0

>  <SCORE.INTRA.SOLV>
0.149902

>  <SCORE.INTRA.SOLV.lig_0>
-49.4697

>  <SCORE.INTRA.VDW>
-0.180531

>  <SCORE.INTRA.VDW.0>
-0.896538

>  <SCORE.INTRA.norm>
-0.06665

>  <SCORE.RESTR>
2.70921

>  <SCORE.RESTR.CAVITY>
2.70921

>  <SCORE.RESTR.norm>
0.135461

>  <SCORE.SYSTEM>
0

>  <SCORE.SYSTEM.CONST>
0

>  <SCORE.SYSTEM.DIHEDRAL>
0

>  <SCORE.SYSTEM.SOLV>
0

>  <SCORE.SYSTEM.norm>
0

>  <SCORE.heavy>
20

>  <SCORE.norm>
0.0398192

>  <RMSD>
26.476

$$$$
1nyi_lig
 OpenBabel11021811403D
libRbt.so/2013.1/901 2013/11/27
 20 22  0  0  0  0  0  0  0  0999 V2000
   21.6081    9.3072   20.9851 C   0  0  0  0  0  0  0  0  0  0  0  0
   22.4510    8.2605   20.5037 O   0  0  0  0  0  0  0  0  0  0  0  0
   22.3700   10.6101   21.0856 C   0  0  1  0  0  0  0  0  0  0  0  0
   21.4916   11.6283   21.6369 O   0  0  0  0  0  0  0  0  0  0  0  0
   23.5556   10.5220   22.0401 C   0  0  1  0  0  0  0  0  0  0  0  0
   24.7482   10.1281   21.3598 O   0  0  0  0  0  0  0  0  0  0  0  0
   23.6169   11.9373   22.6110 C   0  0  1  0  0  0  0  0  0  0  0  0
   24.2380   12.8659   21.7349 O   0  0  0  0  0  0  0  0  0  0  0  0
   22.1290   12.2543   22.7439 C   0  0  2  0  0  0  0  0  0  0  0  0
   18.4392   13.4768   26.1173 N   0  0  0  0  0  0  0  0  0  0  0  0
   18.8113   14.1170   24.9602 C   0  0  1  0  0  0  0  0  0  0  0  0
   18.1172   15.2168   24.6641 N   0  0  0  0  0  0  0  0  0  0  0  0
   19.7911   13.7117   24.1574 N   0  0  0  0  0  0  0  0  0  0  0  0
   20.4024   12.5809   24.6165 C   0  0  1  0  0  0  0  0  0  0  0  0
   20.1016   11.8672   25.7633 C   0  0  1  0  0  0  0  0  0  0  0  0
   19.0421   12.3157   26.6003 C   0  0  0  0  0  0  0  0  0  0  0  0
   18.6272   11.8158   27.6536 O   0  0  0  0  0  0  0  0  0  0  0  0
   20.9353   10.7628   25.8833 N   0  0  0  0  0  0  0  0  0  0  0  0
   21.7130   10.8276   24.8378 C   0  0  0  0  0  0  0  0  0  0  0  0
   21.4608   11.9067   24.0193 N   0  0  1  0  0  0  0  0  0  0  0  0
  2  1  1  0  0  0  0
  3  1  1  1  0  0  0
  3  4  1  0  0  0  0
  3  5  1  0  0  0  0
  5  6  1  6  0  0  0
  5  7  1  0  0  0  0
  7  8  1  6  0  0  0
  7  9  1  0  0  0  0
  9  4  1  6  0  0  0
  9 20  1  0  0  0  0
 10 11  1  0  0  0  0
 11 12  1  1  0  0  0
 11 13  1  0  0  0  0
 14 13  1  6  0  0  0
 15 14  1  0  0  0  0
 15 16  1  6  0  0  0
 16 10  1  0  0  0  0
 16 17  2  0  0  0  0
 18 15  1  0  0  0  0
 19 18  1  0  0  0  0
 20 14  1  0  0  0  0
 20 19  1  6  0  0  0
M  END
>  <CHROM.1>
-177.37959179,-89.07427619,21.22820395,11.76669149,23.64555713,0.16910531
-0.88697841,2.81709831

>  <Name>
1nyi_lig

>  <RI>
0

>  <Rbt.Current_Directory>
/home/itssahil/PROJECTS/Mol_Feturizer/New_Systems/rnas/1nyi

>  <Rbt.Executable>
rbdock ($Id: //depot/dev/client3/rdock/2013.1/src/exe/rbdock.cxx#4 $)

>  <Rbt.Library>
libRbt.so (2013.1, Build901 2013/11/27)

>  <Rbt.Parameter_File>
/export/apps/rDock/src/rDock_2013.1_src/data/scripts/dock_solv.prm

>  <Rbt.Receptor>
prm/blind_docking_40.prm

>  <SCORE>
2.86556

>  <SCORE.INTER>
1.62833

>  <SCORE.INTER.CONST>
1

>  <SCORE.INTER.POLAR>
0

>  <SCORE.INTER.ROT>
2

>  <SCORE.INTER.SOLV>
8.51198

>  <SCORE.INTER.VDW>
-6.6851

>  <SCORE.INTER.norm>
0.0814167

>  <SCORE.INTRA>
-1.83279

>  <SCORE.INTRA.DIHEDRAL>
-2.56188

>  <SCORE.INTRA.DIHEDRAL.0>
3.72394

>  <SCORE.INTRA.POLAR>
0

>  <SCORE.INTRA.POLAR.0>
0

>  <SCORE.INTRA.REPUL>
0

>  <SCORE.INTRA.REPUL.0>
0

>  <SCORE.INTRA.SOLV>
-0.568174

>  <SCORE.INTRA.SOLV.lig_0>
-49.4697

>  <SCORE.INTRA.VDW>
-0.267756

>  <SCORE.INTRA.VDW.0>
-0.896538

>  <SCORE.INTRA.norm>
-0.0916393

>  <SCORE.RESTR>
3.07001

>  <SCORE.RESTR.CAVITY>
3.07001

>  <SCORE.RESTR.norm>
0.153501

>  <SCORE.SYSTEM>
0

>  <SCORE.SYSTEM.CONST>
0

>  <SCORE.SYSTEM.DIHEDRAL>
0

>  <SCORE.SYSTEM.SOLV>
0

>  <SCORE.SYSTEM.norm>
0

>  <SCORE.heavy>
20

>  <SCORE.norm>
0.143278

>  <RMSD>
26.480

$$$$
1nyi_lig
 OpenBabel11021811403D
libRbt.so/2013.1/901 2013/11/27
 20 22  0  0  0  0  0  0  0  0999 V2000
   22.8818   -3.4901   14.2286 C   0  0  0  0  0  0  0  0  0  0  0  0
   23.0474   -4.8783   14.5173 O   0  0  0  0  0  0  0  0  0  0  0  0
   23.9742   -2.6699   14.8785 C   0  0  1  0  0  0  0  0  0  0  0  0
   23.8780   -2.8160   16.3212 O   0  0  0  0  0  0  0  0  0  0  0  0
   25.3704   -3.1540   14.5032 C   0  0  1  0  0  0  0  0  0  0  0  0
   25.8613   -2.4869   13.3395 O   0  0  0  0  0  0  0  0  0  0  0  0
   26.1701   -2.8455   15.7673 C   0  0  1  0  0  0  0  0  0  0  0  0
   26.5419   -1.4794   15.8728 O   0  0  0  0  0  0  0  0  0  0  0  0
   25.1453   -3.1959   16.8440 C   0  0  2  0  0  0  0  0  0  0  0  0
   25.5979   -6.2651   20.9506 N   0  0  0  0  0  0  0  0  0  0  0  0
   25.7231   -4.8998   20.8628 C   0  0  1  0  0  0  0  0  0  0  0  0
   26.0029   -4.2744   22.0072 N   0  0  0  0  0  0  0  0  0  0  0  0
   25.5879   -4.2023   19.7386 N   0  0  0  0  0  0  0  0  0  0  0  0
   25.3165   -4.9992   18.6642 C   0  0  1  0  0  0  0  0  0  0  0  0
   25.1722   -6.3754   18.6513 C   0  0  1  0  0  0  0  0  0  0  0  0
   25.3114   -7.0978   19.8691 C   0  0  0  0  0  0  0  0  0  0  0  0
   25.2161   -8.3172   20.0576 O   0  0  0  0  0  0  0  0  0  0  0  0
   24.8828   -6.8236   17.3690 N   0  0  0  0  0  0  0  0  0  0  0  0
   24.8644   -5.7402   16.6425 C   0  0  0  0  0  0  0  0  0  0  0  0
   25.1254   -4.5876   17.3506 N   0  0  1  0  0  0  0  0  0  0  0  0
  2  1  1  0  0  0  0
  3  1  1  6  0  0  0
  3  4  1  0  0  0  0
  3  5  1  0  0  0  0
  5  6  1  6  0  0  0
  5  7  1  0  0  0  0
  7  8  1  6  0  0  0
  7  9  1  0  0  0  0
  9  4  1  6  0  0  0
  9 20  1  0  0  0  0
 10 11  1  0  0  0  0
 11 12  1  6  0  0  0
 11 13  1  0  0  0  0
 14 13  1  1  0  0  0
 15 14  1  0  0  0  0
 15 16  1  1  0  0  0
 16 10  1  0  0  0  0
 16 17  2  0  0  0  0
 18 15  1  0  0  0  0
 19 18  1  0  0  0  0
 20 14  1  0  0  0  0
 20 19  1  1  0  0  0
M  END
>  <CHROM.1>
-62.62328191,-116.30946887,25.07106404,-4.50532395,17.36079517,1.81539756
-1.07651045,-0.83675266

>  <Name>
1nyi_lig

>  <RI>
0

>  <Rbt.Current_Directory>
/home/itssahil/PROJECTS/Mol_Feturizer/New_Systems/rnas/1nyi

>  <Rbt.Executable>
rbdock ($Id: //depot/dev/client3/rdock/2013.1/src/exe/rbdock.cxx#4 $)

>  <Rbt.Library>
libRbt.so (2013.1, Build901 2013/11/27)

>  <Rbt.Parameter_File>
/export/apps/rDock/src/rDock_2013.1_src/data/scripts/dock_solv.prm

>  <Rbt.Receptor>
prm/blind_docking_100.prm

>  <SCORE>
2.7658

>  <SCORE.INTER>
-2.85886

>  <SCORE.INTER.CONST>
1

>  <SCORE.INTER.POLAR>
-1.36517

>  <SCORE.INTER.ROT>
2

>  <SCORE.INTER.SOLV>
16.1464

>  <SCORE.INTER.VDW>
-7.67082

>  <SCORE.INTER.norm>
-0.142943

>  <SCORE.INTRA>
-1.54446

>  <SCORE.INTRA.DIHEDRAL>
-2.49079

>  <SCORE.INTRA.DIHEDRAL.0>
3.72394

>  <SCORE.INTRA.POLAR>
0

>  <SCORE.INTRA.POLAR.0>
0

>  <SCORE.INTRA.REPUL>
0

>  <SCORE.INTRA.REPUL.0>
0

>  <SCORE.INTRA.SOLV>
0.119966

>  <SCORE.INTRA.SOLV.lig_0>
-49.4697

>  <SCORE.INTRA.VDW>
-0.359049

>  <SCORE.INTRA.VDW.0>
-0.896538

>  <SCORE.INTRA.norm>
-0.077223

>  <SCORE.RESTR>
7.16912

>  <SCORE.RESTR.CAVITY>
7.16912

>  <SCORE.RESTR.norm>
0.358456

>  <SCORE.SYSTEM>
0

>  <SCORE.SYSTEM.CONST>
0

>  <SCORE.SYSTEM.DIHEDRAL>
0

>  <SCORE.SYSTEM.SOLV>
0

>  <SCORE.SYSTEM.norm>
0

>  <SCORE.heavy>
20

>  <SCORE.norm>
0.13829

>  <RMSD>
26.495

$$$$
1nyi_lig
 OpenBabel11021811403D
libRbt.so/2013.1/901 2013/11/27
 20 22  0  0  0  0  0  0  0  0999 V2000
   22.8704   -3.5016   14.2068 C   0  0  0  0  0  0  0  0  0  0  0  0
   23.0092   -4.8849   14.5315 O   0  0  0  0  0  0  0  0  0  0  0  0
   23.9563   -2.6810   14.8669 C   0  0  1  0  0  0  0  0  0  0  0  0
   23.8474   -2.8283   16.3086 O   0  0  0  0  0  0  0  0  0  0  0  0
   25.3562   -3.1636   14.5037 C   0  0  1  0  0  0  0  0  0  0  0  0
   25.8569   -2.4953   13.3449 O   0  0  0  0  0  0  0  0  0  0  0  0
   26.1444   -2.8553   15.7751 C   0  0  1  0  0  0  0  0  0  0  0  0
   26.5140   -1.4889   15.8849 O   0  0  0  0  0  0  0  0  0  0  0  0
   25.1104   -3.2074   16.8424 C   0  0  2  0  0  0  0  0  0  0  0  0
   25.6220   -6.2866   20.9345 N   0  0  0  0  0  0  0  0  0  0  0  0
   25.7594   -4.9226   20.8455 C   0  0  1  0  0  0  0  0  0  0  0  0
   26.0711   -4.3017   21.9841 N   0  0  0  0  0  0  0  0  0  0  0  0
   25.6065   -4.2222   19.7253 N   0  0  0  0  0  0  0  0  0  0  0  0
   25.3031   -5.0148   18.6563 C   0  0  1  0  0  0  0  0  0  0  0  0
   25.1441   -6.3894   18.6452 C   0  0  1  0  0  0  0  0  0  0  0  0
   25.3028   -7.1148   19.8588 C   0  0  0  0  0  0  0  0  0  0  0  0
   25.1990   -8.3334   20.0480 O   0  0  0  0  0  0  0  0  0  0  0  0
   24.8217   -6.8329   17.3691 N   0  0  0  0  0  0  0  0  0  0  0  0
   24.7985   -5.7483   16.6444 C   0  0  0  0  0  0  0  0  0  0  0  0
   25.0872   -4.5995   17.3478 N   0  0  1  0  0  0  0  0  0  0  0  0
  2  1  1  0  0  0  0
  3  1  1  6  0  0  0
  3  4  1  0  0  0  0
  3  5  1  0  0  0  0
  5  6  1  6  0  0  0
  5  7  1  0  0  0  0
  7  8  1  6  0  0  0
  7  9  1  0  0  0  0
  9  4  1  6  0  0  0
  9 20  1  0  0  0  0
 10 11  1  0  0  0  0
 11 12  1  6  0  0  0
 11 13  1  0  0  0  0
 14 13  1  1  0  0  0
 15 14  1  0  0  0  0
 15 16  1  1  0  0  0
 16 10  1  0  0  0  0
 16 17  2  0  0  0  0
 18 15  1  0  0  0  0
 19 18  1  0  0  0  0
 20 14  1  0  0  0  0
 20 19  1  1  0  0  0
M  END
>  <CHROM.1>
-60.73217332,-118.20588692,25.05613927,-4.51888248,17.35546363,1.81987118
-1.05942813,-0.83257580

>  <Name>
1nyi_lig

>  <RI>
0

>  <Rbt.Current_Directory>
/home/itssahil/PROJECTS/Mol_Feturizer/New_Systems/rnas/1nyi

>  <Rbt.Executable>
rbdock ($Id: //depot/dev/client3/rdock/2013.1/src/exe/rbdock.cxx#4 $)

>  <Rbt.Library>
libRbt.so (2013.1, Build901 2013/11/27)

>  <Rbt.Parameter_File>
/export/apps/rDock/src/rDock_2013.1_src/data/scripts/dock_solv.prm

>  <Rbt.Receptor>
prm/blind_docking_100.prm

>  <SCORE>
2.45867

>  <SCORE.INTER>
-3.23876

>  <SCORE.INTER.CONST>
1

>  <SCORE.INTER.POLAR>
-1.32575

>  <SCORE.INTER.ROT>
2

>  <SCORE.INTER.SOLV>
16.0497

>  <SCORE.INTER.VDW>
-8.02325

>  <SCORE.INTER.norm>
-0.161938

>  <SCORE.INTRA>
-1.51832

>  <SCORE.INTRA.DIHEDRAL>
-2.50314

>  <SCORE.INTRA.DIHEDRAL.0>
3.72394

>  <SCORE.INTRA.POLAR>
0

>  <SCORE.INTRA.POLAR.0>
0

>  <SCORE.INTRA.REPUL>
0

>  <SCORE.INTRA.REPUL.0>
0

>  <SCORE.INTRA.SOLV>
0.128653

>  <SCORE.INTRA.SOLV.lig_0>
-49.4697

>  <SCORE.INTRA.VDW>
-0.331075

>  <SCORE.INTRA.VDW.0>
-0.896538

>  <SCORE.INTRA.norm>
-0.075916

>  <SCORE.RESTR>
7.21575

>  <SCORE.RESTR.CAVITY>
7.21575

>  <SCORE.RESTR.norm>
0.360788

>  <SCORE.SYSTEM>
0

>  <SCORE.SYSTEM.CONST>
0

>  <SCORE.SYSTEM.DIHEDRAL>
0

>  <SCORE.SYSTEM.SOLV>
0

>  <SCORE.SYSTEM.norm>
0

>  <SCORE.heavy>
20

>  <SCORE.norm>
0.122934

>  <RMSD>
26.500

$$$$
1nyi_lig
 OpenBabel11021811403D
libRbt.so/2013.1/901 2013/11/27
 20 22  0  0  0  0  0  0  0  0999 V2000
   22.9921   -3.4971   14.1684 C   0  0  0  0  0  0  0  0  0  0  0  0
   21.7452   -2.8021   14.1764 O   0  0  0  0  0  0  0  0  0  0  0  0
   24.0693   -2.6803   14.8471 C   0  0  1  0  0  0  0  0  0  0  0  0
   23.9317   -2.8226   16.2868 O   0  0  0  0  0  0  0  0  0  0  0  0
   25.4734   -3.1712   14.5125 C   0  0  1  0  0  0  0  0  0  0  0  0
   26.0000   -2.5090   13.3617 O   0  0  0  0  0  0  0  0  0  0  0  0
   26.2384   -2.8633   15.7981 C   0  0  1  0  0  0  0  0  0  0  0  0
   26.6131   -1.4986   15.9111 O   0  0  0  0  0  0  0  0  0  0  0  0
   25.1820   -3.2067   16.8461 C   0  0  2  0  0  0  0  0  0  0  0  0
   25.6067   -6.2771   20.9548 N   0  0  0  0  0  0  0  0  0  0  0  0
   25.7542   -4.9143   20.8642 C   0  0  1  0  0  0  0  0  0  0  0  0
   26.0512   -4.2921   22.0060 N   0  0  0  0  0  0  0  0  0  0  0  0
   25.6243   -4.2162   19.7397 N   0  0  0  0  0  0  0  0  0  0  0  0
   25.3334   -5.0101   18.6680 C   0  0  1  0  0  0  0  0  0  0  0  0
   25.1658   -6.3836   18.6582 C   0  0  1  0  0  0  0  0  0  0  0  0
   25.2999   -7.1065   19.8763 C   0  0  0  0  0  0  0  0  0  0  0  0
   25.1852   -8.3239   20.0672 O   0  0  0  0  0  0  0  0  0  0  0  0
   24.8616   -6.8288   17.3782 N   0  0  0  0  0  0  0  0  0  0  0  0
   24.8572   -5.7463   16.6502 C   0  0  0  0  0  0  0  0  0  0  0  0
   25.1417   -4.5972   17.3550 N   0  0  1  0  0  0  0  0  0  0  0  0
  2  1  1  0  0  0  0
  3  1  1  6  0  0  0
  3  4  1  0  0  0  0
  3  5  1  0  0  0  0
  5  6  1  6  0  0  0
  5  7  1  0  0  0  0
  7  8  1  6  0  0  0
  7  9  1  0  0  0  0
  9  4  1  6  0  0  0
  9 20  1  0  0  0  0
 10 11  1  0  0  0  0
 11 12  1  6  0  0  0
 11 13  1  0  0  0  0
 14 13  1  1  0  0  0
 15 14  1  0  0  0  0
 15 16  1  1  0  0  0
 16 10  1  0  0  0  0
 16 17  2  0  0  0  0
 18 15  1  0  0  0  0
 19 18  1  0  0  0  0
 20 14  1  0  0  0  0
 20 19  1  1  0  0  0
M  END
>  <CHROM.1>
79.82043332,-118.38685158,25.03522516,-4.39841041,17.34304507,1.83365874
-0.92375605,-0.81473312

>  <Name>
1nyi_lig

>  <RI>
0

>  <Rbt.Current_Directory>
/home/itssahil/PROJECTS/Mol_Feturizer/New_Systems/rnas/1nyi

>  <Rbt.Executable>
rbdock ($Id: //depot/dev/client3/rdock/2013.1/src/exe/rbdock.cxx#4 $)

>  <Rbt.Library>
libRbt.so (2013.1, Build901 2013/11/27)

>  <Rbt.Parameter_File>
/export/apps/rDock/src/rDock_2013.1_src/data/scripts/dock_solv.prm

>  <Rbt.Receptor>
prm/blind_docking_100.prm

>  <SCORE>
3.30241

>  <SCORE.INTER>
-1.95925

>  <SCORE.INTER.CONST>
1

>  <SCORE.INTER.POLAR>
-1.38458

>  <SCORE.INTER.ROT>
2

>  <SCORE.INTER.SOLV>
16.6171

>  <SCORE.INTER.VDW>
-7.16328

>  <SCORE.INTER.norm>
-0.0979625

>  <SCORE.INTRA>
-1.50725

>  <SCORE.INTRA.DIHEDRAL>
-1.19962

>  <SCORE.INTRA.DIHEDRAL.0>
3.72394

>  <SCORE.INTRA.POLAR>
0

>  <SCORE.INTRA.POLAR.0>
0

>  <SCORE.INTRA.REPUL>
0

>  <SCORE.INTRA.REPUL.0>
0

>  <SCORE.INTRA.SOLV>
-0.951858

>  <SCORE.INTRA.SOLV.lig_0>
-49.4697

>  <SCORE.INTRA.VDW>
-0.431509

>  <SCORE.INTRA.VDW.0>
-0.896538

>  <SCORE.INTRA.norm>
-0.0753623

>  <SCORE.RESTR>
6.76891

>  <SCORE.RESTR.CAVITY>
6.76891

>  <SCORE.RESTR.norm>
0.338445

>  <SCORE.SYSTEM>
0

>  <SCORE.SYSTEM.CONST>
0

>  <SCORE.SYSTEM.DIHEDRAL>
0

>  <SCORE.SYSTEM.SOLV>
0

>  <SCORE.SYSTEM.norm>
0

>  <SCORE.heavy>
20

>  <SCORE.norm>
0.165121

>  <RMSD>
26.502

$$$$
1nyi_lig
 OpenBabel11021811403D
libRbt.so/2013.1/901 2013/11/27
 20 22  0  0  0  0  0  0  0  0999 V2000
   22.9922   -3.4909   14.1627 C   0  0  0  0  0  0  0  0  0  0  0  0
   21.7418   -2.8027   14.1898 O   0  0  0  0  0  0  0  0  0  0  0  0
   24.0708   -2.6770   14.8427 C   0  0  1  0  0  0  0  0  0  0  0  0
   23.9341   -2.8228   16.2822 O   0  0  0  0  0  0  0  0  0  0  0  0
   25.4741   -3.1686   14.5059 C   0  0  1  0  0  0  0  0  0  0  0  0
   26.0006   -2.5041   13.3563 O   0  0  0  0  0  0  0  0  0  0  0  0
   26.2404   -2.8648   15.7916 C   0  0  1  0  0  0  0  0  0  0  0  0
   26.6167   -1.5008   15.9078 O   0  0  0  0  0  0  0  0  0  0  0  0
   25.1845   -3.2098   16.8395 C   0  0  2  0  0  0  0  0  0  0  0  0
   25.6492   -6.2950   20.9327 N   0  0  0  0  0  0  0  0  0  0  0  0
   25.8037   -4.9328   20.8440 C   0  0  1  0  0  0  0  0  0  0  0  0
   26.1207   -4.3158   21.9833 N   0  0  0  0  0  0  0  0  0  0  0  0
   25.6619   -4.2306   19.7235 N   0  0  0  0  0  0  0  0  0  0  0  0
   25.3509   -5.0195   18.6539 C   0  0  1  0  0  0  0  0  0  0  0  0
   25.1749   -6.3919   18.6424 C   0  0  1  0  0  0  0  0  0  0  0  0
   25.3221   -7.1192   19.8564 C   0  0  0  0  0  0  0  0  0  0  0  0
   25.2028   -8.3365   20.0454 O   0  0  0  0  0  0  0  0  0  0  0  0
   24.8498   -6.8314   17.3656 N   0  0  0  0  0  0  0  0  0  0  0  0
   24.8415   -5.7467   16.6409 C   0  0  0  0  0  0  0  0  0  0  0  0
   25.1430   -4.6015   17.3449 N   0  0  1  0  0  0  0  0  0  0  0  0
  2  1  1  0  0  0  0
  3  1  1  6  0  0  0
  3  4  1  0  0  0  0
  3  5  1  0  0  0  0
  5  6  1  6  0  0  0
  5  7  1  0  0  0  0
  7  8  1  6  0  0  0
  7  9  1  0  0  0  0
  9  4  1  6  0  0  0
  9 20  1  0  0  0  0
 10 11  1  0  0  0  0
 11 12  1  6  0  0  0
 11 13  1  0  0  0  0
 14 13  1  1  0  0  0
 15 14  1  0  0  0  0
 15 16  1  1  0  0  0
 16 10  1  0  0  0  0
 16 17  2  0  0  0  0
 18 15  1  0  0  0  0
 19 18  1  0  0  0  0
 20 14  1  0  0  0  0
 20 19  1  1  0  0  0
M  END
>  <CHROM.1>
79.01679723,-119.21375270,25.04733748,-4.40400200,17.33261784,1.83890132
-0.91257817,-0.80877851

>  <Name>
1nyi_lig

>  <RI>
0

>  <Rbt.Current_Directory>
/home/itssahil/PROJECTS/Mol_Feturizer/New_Systems/rnas/1nyi

>  <Rbt.Executable>
rbdock ($Id: //depot/dev/client3/rdock/2013.1/src/exe/rbdock.cxx#4 $)

>  <Rbt.Library>
libRbt.so (2013.1, Build901 2013/11/27)

>  <Rbt.Parameter_File>
/export/apps/rDock/src/rDock_2013.1_src/data/scripts/dock_solv.prm

>  <Rbt.Receptor>
prm/blind_docking_100.prm

>  <SCORE>
2.92514

>  <SCORE.INTER>
-2.36705

>  <SCORE.INTER.CONST>
1

>  <SCORE.INTER.POLAR>
-1.39194

>  <SCORE.INTER.ROT>
2

>  <SCORE.INTER.SOLV>
16.3953

>  <SCORE.INTER.VDW>
-7.33666

>  <SCORE.INTER.norm>
-0.118353

>  <SCORE.INTRA>
-1.55293

>  <SCORE.INTRA.DIHEDRAL>
-1.28998

>  <SCORE.INTRA.DIHEDRAL.0>
3.72394

>  <SCORE.INTRA.POLAR>
0

>  <SCORE.INTRA.POLAR.0>
0

>  <SCORE.INTRA.REPUL>
0

>  <SCORE.INTRA.REPUL.0>
0

>  <SCORE.INTRA.SOLV>
-0.94945

>  <SCORE.INTRA.SOLV.lig_0>
-49.4697

>  <SCORE.INTRA.VDW>
-0.433219

>  <SCORE.INTRA.VDW.0>
-0.896538

>  <SCORE.INTRA.norm>
-0.0776466

>  <SCORE.RESTR>
6.84512

>  <SCORE.RESTR.CAVITY>
6.84512

>  <SCORE.RESTR.norm>
0.342256

>  <SCORE.SYSTEM>
0

>  <SCORE.SYSTEM.CONST>
0

>  <SCORE.SYSTEM.DIHEDRAL>
0

>  <SCORE.SYSTEM.SOLV>
0

>  <SCORE.SYSTEM.norm>
0

>  <SCORE.heavy>
20

>  <SCORE.norm>
0.146257

>  <RMSD>
26.512

$$$$
1nyi_lig
 OpenBabel11021811403D
libRbt.so/2013.1/901 2013/11/27
 20 22  0  0  0  0  0  0  0  0999 V2000
   26.9702   -5.5164   21.1810 C   0  0  0  0  0  0  0  0  0  0  0  0
   27.5918   -4.3825   21.7857 O   0  0  0  0  0  0  0  0  0  0  0  0
   25.5414   -5.2056   20.7936 C   0  0  1  0  0  0  0  0  0  0  0  0
   25.5455   -4.1930   19.7510 O   0  0  0  0  0  0  0  0  0  0  0  0
   24.8210   -6.4111   20.2002 C   0  0  1  0  0  0  0  0  0  0  0  0
   24.1533   -7.1714   21.2084 O   0  0  0  0  0  0  0  0  0  0  0  0
   23.8713   -5.7590   19.1974 C   0  0  1  0  0  0  0  0  0  0  0  0
   22.7096   -5.2123   19.8034 O   0  0  0  0  0  0  0  0  0  0  0  0
   24.7570   -4.6397   18.6544 C   0  0  2  0  0  0  0  0  0  0  0  0
   26.7357   -2.8569   14.2504 N   0  0  0  0  0  0  0  0  0  0  0  0
   25.8979   -2.2369   15.1454 C   0  0  1  0  0  0  0  0  0  0  0  0
   25.5429   -0.9904   14.8305 N   0  0  0  0  0  0  0  0  0  0  0  0
   25.4407   -2.7977   16.2612 N   0  0  0  0  0  0  0  0  0  0  0  0
   25.8914   -4.0762   16.4205 C   0  0  1  0  0  0  0  0  0  0  0  0
   26.7328   -4.7836   15.5800 C   0  0  1  0  0  0  0  0  0  0  0  0
   27.2166   -4.1577   14.3974 C   0  0  0  0  0  0  0  0  0  0  0  0
   27.9711   -4.6214   13.5329 O   0  0  0  0  0  0  0  0  0  0  0  0
   26.9776   -6.0523   16.0895 N   0  0  0  0  0  0  0  0  0  0  0  0
   26.2921   -6.0948   17.1987 C   0  0  0  0  0  0  0  0  0  0  0  0
   25.5968   -4.9371   17.4711 N   0  0  1  0  0  0  0  0  0  0  0  0
  2  1  1  0  0  0  0
  3  1  1  6  0  0  0
  3  4  1  0  0  0  0
  3  5  1  0  0  0  0
  5  6  1  1  0  0  0
  5  7  1  0  0  0  0
  7  8  1  1  0  0  0
  7  9  1  0  0  0  0
  9  4  1  1  0  0  0
  9 20  1  0  0  0  0
 10 11  1  0  0  0  0
 11 12  1  6  0  0  0
 11 13  1  0  0  0  0
 14 13  1  1  0  0  0
 15 14  1  0  0  0  0
 15 16  1  1  0  0  0
 16 10  1  0  0  0  0
 16 17  2  0  0  0  0
 18 15  1  0  0  0  0
 19 18  1  0  0  0  0
 20 14  1  0  0  0  0
 20 19  1  1  0  0  0
M  END
>  <CHROM.1>
65.51414230,-94.00597188,25.80641188,-4.62317350,17.75770326,-1.86083373
0.62208743,-1.03490793

>  <Name>
1nyi_lig

>  <RI>
0

>  <Rbt.Current_Directory>
/home/itssahil/PROJECTS/Mol_Feturizer/New_Systems/rnas/1nyi

>  <Rbt.Executable>
rbdock ($Id: //depot/dev/client3/rdock/2013.1/src/exe/rbdock.cxx#4 $)

>  <Rbt.Library>
libRbt.so (2013.1, Build901 2013/11/27)

>  <Rbt.Parameter_File>
/export/apps/rDock/src/rDock_2013.1_src/data/scripts/dock_solv.prm

>  <Rbt.Receptor>
prm/blind_docking_80.prm

>  <SCORE>
-11.1047

>  <SCORE.INTER>
-10.8244

>  <SCORE.INTER.CONST>
1

>  <SCORE.INTER.POLAR>
-1.23965

>  <SCORE.INTER.ROT>
2

>  <SCORE.INTER.SOLV>
13.4559

>  <SCORE.INTER.VDW>
-12.5028

>  <SCORE.INTER.norm>
-0.541221

>  <SCORE.INTRA>
-1.98303

>  <SCORE.INTRA.DIHEDRAL>
-2.47197

>  <SCORE.INTRA.DIHEDRAL.0>
3.72394

>  <SCORE.INTRA.POLAR>
0

>  <SCORE.INTRA.POLAR.0>
0

>  <SCORE.INTRA.REPUL>
0

>  <SCORE.INTRA.REPUL.0>
0

>  <SCORE.INTRA.SOLV>
-0.854284

>  <SCORE.INTRA.SOLV.lig_0>
-49.4697

>  <SCORE.INTRA.VDW>
-0.3199

>  <SCORE.INTRA.VDW.0>
-0.896538

>  <SCORE.INTRA.norm>
-0.0991514

>  <SCORE.RESTR>
1.70277

>  <SCORE.RESTR.CAVITY>
1.70277

>  <SCORE.RESTR.norm>
0.0851383

>  <SCORE.SYSTEM>
0

>  <SCORE.SYSTEM.CONST>
0

>  <SCORE.SYSTEM.DIHEDRAL>
0

>  <SCORE.SYSTEM.SOLV>
0

>  <SCORE.SYSTEM.norm>
0

>  <SCORE.heavy>
20

>  <SCORE.norm>
-0.555234

>  <RMSD>
26.523

$$$$
1nyi_lig
 OpenBabel11021811403D
libRbt.so/2013.1/901 2013/11/27
 20 22  0  0  0  0  0  0  0  0999 V2000
   22.8620   -3.5239   14.2412 C   0  0  0  0  0  0  0  0  0  0  0  0
   22.7975   -3.2643   12.8389 O   0  0  0  0  0  0  0  0  0  0  0  0
   23.9483   -2.6976   14.8934 C   0  0  1  0  0  0  0  0  0  0  0  0
   23.8501   -2.8445   16.3359 O   0  0  0  0  0  0  0  0  0  0  0  0
   25.3480   -3.1734   14.5208 C   0  0  1  0  0  0  0  0  0  0  0  0
   25.8373   -2.5032   13.3581 O   0  0  0  0  0  0  0  0  0  0  0  0
   26.1435   -2.8605   15.7865 C   0  0  1  0  0  0  0  0  0  0  0  0
   26.5071   -1.4923   15.8930 O   0  0  0  0  0  0  0  0  0  0  0  0
   25.1186   -3.2171   16.8611 C   0  0  2  0  0  0  0  0  0  0  0  0
   25.6439   -6.2891   20.9569 N   0  0  0  0  0  0  0  0  0  0  0  0
   25.7698   -4.9241   20.8674 C   0  0  1  0  0  0  0  0  0  0  0  0
   26.0726   -4.2998   22.0065 N   0  0  0  0  0  0  0  0  0  0  0  0
   25.6145   -4.2257   19.7463 N   0  0  0  0  0  0  0  0  0  0  0  0
   25.3212   -5.0217   18.6768 C   0  0  1  0  0  0  0  0  0  0  0  0
   25.1741   -6.3976   18.6661 C   0  0  1  0  0  0  0  0  0  0  0  0
   25.3353   -7.1208   19.8807 C   0  0  0  0  0  0  0  0  0  0  0  0
   25.2414   -8.3402   20.0704 O   0  0  0  0  0  0  0  0  0  0  0  0
   24.8596   -6.8446   17.3893 N   0  0  0  0  0  0  0  0  0  0  0  0
   24.8293   -5.7608   16.6638 C   0  0  0  0  0  0  0  0  0  0  0  0
   25.1059   -4.6090   17.3673 N   0  0  1  0  0  0  0  0  0  0  0  0
  2  1  1  0  0  0  0
  3  1  1  6  0  0  0
  3  4  1  0  0  0  0
  3  5  1  0  0  0  0
  5  6  1  6  0  0  0
  5  7  1  0  0  0  0
  7  8  1  6  0  0  0
  7  9  1  0  0  0  0
  9  4  1  6  0  0  0
  9 20  1  0  0  0  0
 10 11  1  0  0  0  0
 11 12  1  6  0  0  0
 11 13  1  0  0  0  0
 14 13  1  1  0  0  0
 15 14  1  0  0  0  0
 15 16  1  1  0  0  0
 16 10  1  0  0  0  0
 16 17  2  0  0  0  0
 18 15  1  0  0  0  0
 19 18  1  0  0  0  0
 20 14  1  0  0  0  0
 20 19  1  1  0  0  0
M  END
>  <CHROM.1>
171.78548410,-117.59103122,25.05434353,-4.43457578,17.27844338,1.88825592
-1.06362453,-0.78461180

>  <Name>
1nyi_lig

>  <RI>
0

>  <Rbt.Current_Directory>
/home/itssahil/PROJECTS/Mol_Feturizer/New_Systems/rnas/1nyi

>  <Rbt.Executable>
rbdock ($Id: //depot/dev/client3/rdock/2013.1/src/exe/rbdock.cxx#4 $)

>  <Rbt.Library>
libRbt.so (2013.1, Build901 2013/11/27)

>  <Rbt.Parameter_File>
/export/apps/rDock/src/rDock_2013.1_src/data/scripts/dock_solv.prm

>  <Rbt.Receptor>
prm/blind_docking_100.prm

>  <SCORE>
2.64685

>  <SCORE.INTER>
-3.17447

>  <SCORE.INTER.CONST>
1

>  <SCORE.INTER.POLAR>
-1.33307

>  <SCORE.INTER.ROT>
2

>  <SCORE.INTER.SOLV>
15.3667

>  <SCORE.INTER.VDW>
-7.72832

>  <SCORE.INTER.norm>
-0.158723

>  <SCORE.INTRA>
-1.9282

>  <SCORE.INTRA.DIHEDRAL>
-2.27634

>  <SCORE.INTRA.DIHEDRAL.0>
3.72394

>  <SCORE.INTRA.POLAR>
0

>  <SCORE.INTRA.POLAR.0>
0

>  <SCORE.INTRA.REPUL>
0

>  <SCORE.INTRA.REPUL.0>
0

>  <SCORE.INTRA.SOLV>
-0.693096

>  <SCORE.INTRA.SOLV.lig_0>
-49.4697

>  <SCORE.INTRA.VDW>
-0.443484

>  <SCORE.INTRA.VDW.0>
-0.896538

>  <SCORE.INTRA.norm>
-0.09641

>  <SCORE.RESTR>
7.74951

>  <SCORE.RESTR.CAVITY>
7.74951

>  <SCORE.RESTR.norm>
0.387476

>  <SCORE.SYSTEM>
0

>  <SCORE.SYSTEM.CONST>
0

>  <SCORE.SYSTEM.DIHEDRAL>
0

>  <SCORE.SYSTEM.SOLV>
0

>  <SCORE.SYSTEM.norm>
0

>  <SCORE.heavy>
20

>  <SCORE.norm>
0.132342

>  <RMSD>
26.566

$$$$
1nyi_lig
 OpenBabel11021811403D
libRbt.so/2013.1/901 2013/11/27
 20 22  0  0  0  0  0  0  0  0999 V2000
   22.8639   -3.5061   14.2403 C   0  0  0  0  0  0  0  0  0  0  0  0
   22.8151   -3.2628   12.8345 O   0  0  0  0  0  0  0  0  0  0  0  0
   23.9546   -2.6854   14.8922 C   0  0  1  0  0  0  0  0  0  0  0  0
   23.8563   -2.8323   16.3348 O   0  0  0  0  0  0  0  0  0  0  0  0
   25.3518   -3.1680   14.5189 C   0  0  1  0  0  0  0  0  0  0  0  0
   25.8439   -2.5000   13.3562 O   0  0  0  0  0  0  0  0  0  0  0  0
   26.1493   -2.8595   15.7843 C   0  0  1  0  0  0  0  0  0  0  0  0
   26.5198   -1.4931   15.8911 O   0  0  0  0  0  0  0  0  0  0  0  0
   25.1232   -3.2113   16.8592 C   0  0  2  0  0  0  0  0  0  0  0  0
   25.6371   -6.2873   20.9535 N   0  0  0  0  0  0  0  0  0  0  0  0
   25.7700   -4.9229   20.8643 C   0  0  1  0  0  0  0  0  0  0  0  0
   26.0773   -4.3005   22.0033 N   0  0  0  0  0  0  0  0  0  0  0  0
   25.6170   -4.2234   19.7436 N   0  0  0  0  0  0  0  0  0  0  0  0
   25.3184   -5.0175   18.6742 C   0  0  1  0  0  0  0  0  0  0  0  0
   25.1641   -6.3926   18.6633 C   0  0  1  0  0  0  0  0  0  0  0  0
   25.3229   -7.1170   19.8775 C   0  0  0  0  0  0  0  0  0  0  0  0
   25.2228   -8.3359   20.0669 O   0  0  0  0  0  0  0  0  0  0  0  0
   24.8458   -6.8376   17.3867 N   0  0  0  0  0  0  0  0  0  0  0  0
   24.8204   -5.7534   16.6616 C   0  0  0  0  0  0  0  0  0  0  0  0
   25.1038   -4.6033   17.3651 N   0  0  1  0  0  0  0  0  0  0  0  0
  2  1  1  0  0  0  0
  3  1  1  6  0  0  0
  3  4  1  0  0  0  0
  3  5  1  0  0  0  0
  5  6  1  6  0  0  0
  5  7  1  0  0  0  0
  7  8  1  6  0  0  0
  7  9  1  0  0  0  0
  9  4  1  6  0  0  0
  9 20  1  0  0  0  0
 10 11  1  0  0  0  0
 11 12  1  6  0  0  0
 11 13  1  0  0  0  0
 14 13  1  1  0  0  0
 15 14  1  0  0  0  0
 15 16  1  1  0  0  0
 16 10  1  0  0  0  0
 16 17  2  0  0  0  0
 18 15  1  0  0  0  0
 19 18  1  0  0  0  0
 20 14  1  0  0  0  0
 20 19  1  1  0  0  0
M  END
>  <CHROM.1>
172.77098199,-117.63380747,25.05446716,-4.42957570,17.27597550,1.88171460
-1.06074435,-0.79037524

>  <Name>
1nyi_lig

>  <RI>
0

>  <Rbt.Current_Directory>
/home/itssahil/PROJECTS/Mol_Feturizer/New_Systems/rnas/1nyi

>  <Rbt.Executable>
rbdock ($Id: //depot/dev/client3/rdock/2013.1/src/exe/rbdock.cxx#4 $)

>  <Rbt.Library>
libRbt.so (2013.1, Build901 2013/11/27)

>  <Rbt.Parameter_File>
/export/apps/rDock/src/rDock_2013.1_src/data/scripts/dock_solv.prm

>  <Rbt.Receptor>
prm/blind_docking_100.prm

>  <SCORE>
2.83222

>  <SCORE.INTER>
-2.91761

>  <SCORE.INTER.CONST>
1

>  <SCORE.INTER.POLAR>
-1.3372

>  <SCORE.INTER.ROT>
2

>  <SCORE.INTER.SOLV>
15.3964

>  <SCORE.INTER.VDW>
-7.55321

>  <SCORE.INTER.norm>
-0.14588

>  <SCORE.INTRA>
-1.94831

>  <SCORE.INTRA.DIHEDRAL>
-2.32842

>  <SCORE.INTRA.DIHEDRAL.0>
3.72394

>  <SCORE.INTRA.POLAR>
0

>  <SCORE.INTRA.POLAR.0>
0

>  <SCORE.INTRA.REPUL>
0

>  <SCORE.INTRA.REPUL.0>
0

>  <SCORE.INTRA.SOLV>
-0.687879

>  <SCORE.INTRA.SOLV.lig_0>
-49.4697

>  <SCORE.INTRA.VDW>
-0.440167

>  <SCORE.INTRA.VDW.0>
-0.896538

>  <SCORE.INTRA.norm>
-0.0974157

>  <SCORE.RESTR>
7.69814

>  <SCORE.RESTR.CAVITY>
7.69814

>  <SCORE.RESTR.norm>
0.384907

>  <SCORE.SYSTEM>
0

>  <SCORE.SYSTEM.CONST>
0

>  <SCORE.SYSTEM.DIHEDRAL>
0

>  <SCORE.SYSTEM.SOLV>
0

>  <SCORE.SYSTEM.norm>
0

>  <SCORE.heavy>
20

>  <SCORE.norm>
0.141611

>  <RMSD>
26.567

$$$$
1nyi_lig
 OpenBabel11021811403D
libRbt.so/2013.1/901 2013/11/27
 20 22  0  0  0  0  0  0  0  0999 V2000
   22.8698   -3.4880   14.2439 C   0  0  0  0  0  0  0  0  0  0  0  0
   22.7717   -3.1949   12.8502 O   0  0  0  0  0  0  0  0  0  0  0  0
   23.9676   -2.6727   14.8907 C   0  0  1  0  0  0  0  0  0  0  0  0
   23.8751   -2.8188   16.3337 O   0  0  0  0  0  0  0  0  0  0  0  0
   25.3606   -3.1627   14.5111 C   0  0  1  0  0  0  0  0  0  0  0  0
   25.8509   -2.4974   13.3460 O   0  0  0  0  0  0  0  0  0  0  0  0
   26.1654   -2.8579   15.7729 C   0  0  1  0  0  0  0  0  0  0  0  0
   26.5434   -1.4935   15.8776 O   0  0  0  0  0  0  0  0  0  0  0  0
   25.1424   -3.2042   16.8525 C   0  0  2  0  0  0  0  0  0  0  0  0
   25.6277   -6.2793   20.9510 N   0  0  0  0  0  0  0  0  0  0  0  0
   25.7630   -4.9151   20.8620 C   0  0  1  0  0  0  0  0  0  0  0  0
   26.0643   -4.2926   22.0026 N   0  0  0  0  0  0  0  0  0  0  0  0
   25.6176   -4.2158   19.7402 N   0  0  0  0  0  0  0  0  0  0  0  0
   25.3244   -5.0099   18.6693 C   0  0  1  0  0  0  0  0  0  0  0  0
   25.1683   -6.3848   18.6580 C   0  0  1  0  0  0  0  0  0  0  0  0
   25.3189   -7.1090   19.8734 C   0  0  0  0  0  0  0  0  0  0  0  0
   25.2161   -8.3277   20.0628 O   0  0  0  0  0  0  0  0  0  0  0  0
   24.8571   -6.8299   17.3797 N   0  0  0  0  0  0  0  0  0  0  0  0
   24.8374   -5.7460   16.6540 C   0  0  0  0  0  0  0  0  0  0  0  0
   25.1181   -4.5960   17.3588 N   0  0  1  0  0  0  0  0  0  0  0  0
  2  1  1  0  0  0  0
  3  1  1  6  0  0  0
  3  4  1  0  0  0  0
  3  5  1  0  0  0  0
  5  6  1  6  0  0  0
  5  7  1  0  0  0  0
  7  8  1  6  0  0  0
  7  9  1  0  0  0  0
  9  4  1  6  0  0  0
  9 20  1  0  0  0  0
 10 11  1  0  0  0  0
 11 12  1  6  0  0  0
 11 13  1  0  0  0  0
 14 13  1  1  0  0  0
 15 14  1  0  0  0  0
 15 16  1  1  0  0  0
 16 10  1  0  0  0  0
 16 17  2  0  0  0  0
 18 15  1  0  0  0  0
 19 18  1  0  0  0  0
 20 14  1  0  0  0  0
 20 19  1  1  0  0  0
M  END
>  <CHROM.1>
169.86758328,-116.99161646,25.05836547,-4.41852572,17.27202043,1.87716730
-1.05659036,-0.79314173

>  <Name>
1nyi_lig

>  <RI>
0

>  <Rbt.Current_Directory>
/home/itssahil/PROJECTS/Mol_Feturizer/New_Systems/rnas/1nyi

>  <Rbt.Executable>
rbdock ($Id: //depot/dev/client3/rdock/2013.1/src/exe/rbdock.cxx#4 $)

>  <Rbt.Library>
libRbt.so (2013.1, Build901 2013/11/27)

>  <Rbt.Parameter_File>
/export/apps/rDock/src/rDock_2013.1_src/data/scripts/dock_solv.prm

>  <Rbt.Receptor>
prm/blind_docking_100.prm

>  <SCORE>
3.02114

>  <SCORE.INTER>
-2.7587

>  <SCORE.INTER.CONST>
1

>  <SCORE.INTER.POLAR>
-1.35908

>  <SCORE.INTER.ROT>
2

>  <SCORE.INTER.SOLV>
15.4234

>  <SCORE.INTER.VDW>
-7.38333

>  <SCORE.INTER.norm>
-0.137935

>  <SCORE.INTRA>
-1.87907

>  <SCORE.INTRA.DIHEDRAL>
-2.15923

>  <SCORE.INTRA.DIHEDRAL.0>
3.72394

>  <SCORE.INTRA.POLAR>
0

>  <SCORE.INTRA.POLAR.0>
0

>  <SCORE.INTRA.REPUL>
0

>  <SCORE.INTRA.REPUL.0>
0

>  <SCORE.INTRA.SOLV>
-0.703159

>  <SCORE.INTRA.SOLV.lig_0>
-49.4697

>  <SCORE.INTRA.VDW>
-0.447869

>  <SCORE.INTRA.VDW.0>
-0.896538

>  <SCORE.INTRA.norm>
-0.0939533

>  <SCORE.RESTR>
7.65891

>  <SCORE.RESTR.CAVITY>
7.65891

>  <SCORE.RESTR.norm>
0.382946

>  <SCORE.SYSTEM>
0

>  <SCORE.SYSTEM.CONST>
0

>  <SCORE.SYSTEM.DIHEDRAL>
0

>  <SCORE.SYSTEM.SOLV>
0

>  <SCORE.SYSTEM.norm>
0

>  <SCORE.heavy>
20

>  <SCORE.norm>
0.151057

>  <RMSD>
26.570

$$$$
1nyi_lig
 OpenBabel11021811403D
libRbt.so/2013.1/901 2013/11/27
 20 22  0  0  0  0  0  0  0  0999 V2000
   24.6671   -5.4128   20.9265 C   0  0  0  0  0  0  0  0  0  0  0  0
   24.9108   -5.2852   22.3273 O   0  0  0  0  0  0  0  0  0  0  0  0
   25.8720   -5.9939   20.2202 C   0  0  1  0  0  0  0  0  0  0  0  0
   25.5183   -6.2745   18.8387 O   0  0  0  0  0  0  0  0  0  0  0  0
   27.0417   -5.0179   20.1604 C   0  0  1  0  0  0  0  0  0  0  0  0
   27.9046   -5.1640   21.2893 O   0  0  0  0  0  0  0  0  0  0  0  0
   27.7031   -5.3869   18.8341 C   0  0  1  0  0  0  0  0  0  0  0  0
   28.5190   -6.5455   18.9207 O   0  0  0  0  0  0  0  0  0  0  0  0
   26.4741   -5.6726   17.9739 C   0  0  2  0  0  0  0  0  0  0  0  0
   27.0227   -2.3992   14.0404 N   0  0  0  0  0  0  0  0  0  0  0  0
   27.8784   -3.3754   14.4898 C   0  0  1  0  0  0  0  0  0  0  0  0
   29.0197   -3.4957   13.8100 N   0  0  0  0  0  0  0  0  0  0  0  0
   27.6351   -4.1699   15.5283 N   0  0  0  0  0  0  0  0  0  0  0  0
   26.4316   -3.9025   16.1140 C   0  0  1  0  0  0  0  0  0  0  0  0
   25.5055   -2.9459   15.7371 C   0  0  1  0  0  0  0  0  0  0  0  0
   25.7848   -2.1152   14.6164 C   0  0  0  0  0  0  0  0  0  0  0  0
   25.0875   -1.2154   14.1305 O   0  0  0  0  0  0  0  0  0  0  0  0
   24.3940   -2.9885   16.5690 N   0  0  0  0  0  0  0  0  0  0  0  0
   24.6610   -3.9410   17.4195 C   0  0  0  0  0  0  0  0  0  0  0  0
   25.8833   -4.5439   17.2183 N   0  0  1  0  0  0  0  0  0  0  0  0
  2  1  1  0  0  0  0
  3  1  1  1  0  0  0
  3  4  1  0  0  0  0
  3  5  1  0  0  0  0
  5  6  1  1  0  0  0
  5  7  1  0  0  0  0
  7  8  1  1  0  0  0
  7  9  1  0  0  0  0
  9  4  1  1  0  0  0
  9 20  1  0  0  0  0
 10 11  1  0  0  0  0
 11 12  1  1  0  0  0
 11 13  1  0  0  0  0
 14 13  1  6  0  0  0
 15 14  1  0  0  0  0
 15 16  1  6  0  0  0
 16 10  1  0  0  0  0
 16 17  2  0  0  0  0
 18 15  1  0  0  0  0
 19 18  1  0  0  0  0
 20 14  1  0  0  0  0
 20 19  1  6  0  0  0
M  END
>  <CHROM.1>
172.33911843,-166.56366475,26.39203020,-4.32132973,17.53221237,1.63168569
-0.39428582,2.04567996

>  <Name>
1nyi_lig

>  <RI>
0

>  <Rbt.Current_Directory>
/home/itssahil/PROJECTS/Mol_Feturizer/New_Systems/rnas/1nyi

>  <Rbt.Executable>
rbdock ($Id: //depot/dev/client3/rdock/2013.1/src/exe/rbdock.cxx#4 $)

>  <Rbt.Library>
libRbt.so (2013.1, Build901 2013/11/27)

>  <Rbt.Parameter_File>
/export/apps/rDock/src/rDock_2013.1_src/data/scripts/dock_solv.prm

>  <Rbt.Receptor>
prm/blind_docking_80.prm

>  <SCORE>
-9.47253

>  <SCORE.INTER>
-8.96108

>  <SCORE.INTER.CONST>
1

>  <SCORE.INTER.POLAR>
-1.31473

>  <SCORE.INTER.ROT>
2

>  <SCORE.INTER.SOLV>
14.6484

>  <SCORE.INTER.VDW>
-11.4077

>  <SCORE.INTER.norm>
-0.448054

>  <SCORE.INTRA>
-1.70384

>  <SCORE.INTRA.DIHEDRAL>
-2.25085

>  <SCORE.INTRA.DIHEDRAL.0>
3.72394

>  <SCORE.INTRA.POLAR>
0

>  <SCORE.INTRA.POLAR.0>
0

>  <SCORE.INTRA.REPUL>
0

>  <SCORE.INTRA.REPUL.0>
0

>  <SCORE.INTRA.SOLV>
-0.510921

>  <SCORE.INTRA.SOLV.lig_0>
-49.4697

>  <SCORE.INTRA.VDW>
-0.322961

>  <SCORE.INTRA.VDW.0>
-0.896538

>  <SCORE.INTRA.norm>
-0.0851922

>  <SCORE.RESTR>
1.1924

>  <SCORE.RESTR.CAVITY>
1.1924

>  <SCORE.RESTR.norm>
0.0596198

>  <SCORE.SYSTEM>
0

>  <SCORE.SYSTEM.CONST>
0

>  <SCORE.SYSTEM.DIHEDRAL>
0

>  <SCORE.SYSTEM.SOLV>
0

>  <SCORE.SYSTEM.norm>
0

>  <SCORE.heavy>
20

>  <SCORE.norm>
-0.473626

>  <RMSD>
26.627

$$$$
1nyi_lig
 OpenBabel11021811403D
libRbt.so/2013.1/901 2013/11/27
 20 22  0  0  0  0  0  0  0  0999 V2000
   28.2324   -3.3792   14.0934 C   0  0  0  0  0  0  0  0  0  0  0  0
   28.7619   -2.1183   13.6838 O   0  0  0  0  0  0  0  0  0  0  0  0
   26.7504   -3.2750   14.3782 C   0  0  1  0  0  0  0  0  0  0  0  0
   26.2642   -4.5699   14.8243 O   0  0  0  0  0  0  0  0  0  0  0  0
   26.4395   -2.3013   15.5095 C   0  0  1  0  0  0  0  0  0  0  0  0
   26.2171   -0.9791   15.0169 O   0  0  0  0  0  0  0  0  0  0  0  0
   25.2034   -2.9315   16.1479 C   0  0  1  0  0  0  0  0  0  0  0  0
   24.0078   -2.6657   15.4299 O   0  0  0  0  0  0  0  0  0  0  0  0
   25.5573   -4.4137   16.0489 C   0  0  2  0  0  0  0  0  0  0  0  0
   25.2140   -6.7483   20.6228 N   0  0  0  0  0  0  0  0  0  0  0  0
   24.2167   -6.2533   19.8181 C   0  0  1  0  0  0  0  0  0  0  0  0
   22.9764   -6.3966   20.2874 N   0  0  0  0  0  0  0  0  0  0  0  0
   24.4205   -5.6601   18.6454 N   0  0  0  0  0  0  0  0  0  0  0  0
   25.7455   -5.5863   18.3258 C   0  0  1  0  0  0  0  0  0  0  0  0
   26.8177   -6.0530   19.0657 C   0  0  1  0  0  0  0  0  0  0  0  0
   26.5726   -6.6931   20.3124 C   0  0  0  0  0  0  0  0  0  0  0  0
   27.3911   -7.1733   21.1068 O   0  0  0  0  0  0  0  0  0  0  0  0
   28.0125   -5.8075   18.4014 N   0  0  0  0  0  0  0  0  0  0  0  0
   27.6547   -5.2047   17.3012 C   0  0  0  0  0  0  0  0  0  0  0  0
   26.2944   -5.0240   17.1795 N   0  0  1  0  0  0  0  0  0  0  0  0
  2  1  1  0  0  0  0
  3  1  1  1  0  0  0
  3  4  1  0  0  0  0
  3  5  1  0  0  0  0
  5  6  1  6  0  0  0
  5  7  1  0  0  0  0
  7  8  1  6  0  0  0
  7  9  1  0  0  0  0
  9  4  1  6  0  0  0
  9 20  1  0  0  0  0
 10 11  1  0  0  0  0
 11 12  1  1  0  0  0
 11 13  1  0  0  0  0
 14 13  1  6  0  0  0
 15 14  1  0  0  0  0
 15 16  1  6  0  0  0
 16 10  1  0  0  0  0
 16 17  2  0  0  0  0
 18 15  1  0  0  0  0
 19 18  1  0  0  0  0
 20 14  1  0  0  0  0
 20 19  1  6  0  0  0
M  END
>  <CHROM.1>
-178.51220901,-149.68022125,26.15636893,-4.61248377,17.24904295,-1.37491602
-0.19059643,2.23315911

>  <Name>
1nyi_lig

>  <RI>
0

>  <Rbt.Current_Directory>
/home/itssahil/PROJECTS/Mol_Feturizer/New_Systems/rnas/1nyi

>  <Rbt.Executable>
rbdock ($Id: //depot/dev/client3/rdock/2013.1/src/exe/rbdock.cxx#4 $)

>  <Rbt.Library>
libRbt.so (2013.1, Build901 2013/11/27)

>  <Rbt.Parameter_File>
/export/apps/rDock/src/rDock_2013.1_src/data/scripts/dock_solv.prm

>  <Rbt.Receptor>
prm/blind_docking_80.prm

>  <SCORE>
-7.39516

>  <SCORE.INTER>
-6.42264

>  <SCORE.INTER.CONST>
1

>  <SCORE.INTER.POLAR>
-1.15485

>  <SCORE.INTER.ROT>
2

>  <SCORE.INTER.SOLV>
15.2469

>  <SCORE.INTER.VDW>
-10.4479

>  <SCORE.INTER.norm>
-0.321132

>  <SCORE.INTRA>
-1.8689

>  <SCORE.INTRA.DIHEDRAL>
-2.40676

>  <SCORE.INTRA.DIHEDRAL.0>
3.72394

>  <SCORE.INTRA.POLAR>
0

>  <SCORE.INTRA.POLAR.0>
0

>  <SCORE.INTRA.REPUL>
0

>  <SCORE.INTRA.REPUL.0>
0

>  <SCORE.INTRA.SOLV>
-0.587265

>  <SCORE.INTRA.SOLV.lig_0>
-49.4697

>  <SCORE.INTRA.VDW>
-0.37189

>  <SCORE.INTRA.VDW.0>
-0.896538

>  <SCORE.INTRA.norm>
-0.0934452

>  <SCORE.RESTR>
0.896385

>  <SCORE.RESTR.CAVITY>
0.896385

>  <SCORE.RESTR.norm>
0.0448192

>  <SCORE.SYSTEM>
0

>  <SCORE.SYSTEM.CONST>
0

>  <SCORE.SYSTEM.DIHEDRAL>
0

>  <SCORE.SYSTEM.SOLV>
0

>  <SCORE.SYSTEM.norm>
0

>  <SCORE.heavy>
20

>  <SCORE.norm>
-0.369758

>  <RMSD>
26.629

$$$$
1nyi_lig
 OpenBabel11021811403D
libRbt.so/2013.1/901 2013/11/27
 20 22  0  0  0  0  0  0  0  0999 V2000
   20.2949   11.4942   27.1659 C   0  0  0  0  0  0  0  0  0  0  0  0
   20.9958   10.3916   26.5906 O   0  0  0  0  0  0  0  0  0  0  0  0
   20.3648   12.7072   26.2648 C   0  0  1  0  0  0  0  0  0  0  0  0
   21.6794   12.7602   25.6473 O   0  0  0  0  0  0  0  0  0  0  0  0
   19.3669   12.6391   25.1141 C   0  0  1  0  0  0  0  0  0  0  0  0
   18.1202   13.2414   25.4652 O   0  0  0  0  0  0  0  0  0  0  0  0
   20.1082   13.3742   23.9993 C   0  0  1  0  0  0  0  0  0  0  0  0
   20.0476   14.7869   24.1262 O   0  0  0  0  0  0  0  0  0  0  0  0
   21.5354   12.8858   24.2376 C   0  0  2  0  0  0  0  0  0  0  0  0
   23.5389   10.8791   19.9425 N   0  0  0  0  0  0  0  0  0  0  0  0
   23.2247   12.1847   20.2323 C   0  0  1  0  0  0  0  0  0  0  0  0
   23.4738   13.0640   19.2608 N   0  0  0  0  0  0  0  0  0  0  0  0
   22.7030   12.5954   21.3846 N   0  0  0  0  0  0  0  0  0  0  0  0
   22.5016   11.5660   22.2580 C   0  0  1  0  0  0  0  0  0  0  0  0
   22.7840   10.2259   22.0600 C   0  0  1  0  0  0  0  0  0  0  0  0
   23.3514    9.8132   20.8222 C   0  0  0  0  0  0  0  0  0  0  0  0
   23.6721    8.6732   20.4629 O   0  0  0  0  0  0  0  0  0  0  0  0
   22.4539    9.4859   23.1880 N   0  0  0  0  0  0  0  0  0  0  0  0
   21.9818   10.3660   24.0273 C   0  0  0  0  0  0  0  0  0  0  0  0
   21.9688   11.6540   23.5385 N   0  0  1  0  0  0  0  0  0  0  0  0
  2  1  1  0  0  0  0
  3  1  1  1  0  0  0
  3  4  1  0  0  0  0
  3  5  1  0  0  0  0
  5  6  1  1  0  0  0
  5  7  1  0  0  0  0
  7  8  1  1  0  0  0
  7  9  1  0  0  0  0
  9  4  1  1  0  0  0
  9 20  1  0  0  0  0
 10 11  1  0  0  0  0
 11 12  1  6  0  0  0
 11 13  1  0  0  0  0
 14 13  1  1  0  0  0
 15 14  1  0  0  0  0
 15 16  1  1  0  0  0
 16 10  1  0  0  0  0
 16 17  2  0  0  0  0
 18 15  1  0  0  0  0
 19 18  1  0  0  0  0
 20 14  1  0  0  0  0
 20 19  1  1  0  0  0
M  END
>  <CHROM.1>
-37.33022596,-150.72641365,21.67536728,11.74917691,23.34466472,-2.80872663
0.98894736,-0.72812933

>  <Name>
1nyi_lig

>  <RI>
0

>  <Rbt.Current_Directory>
/home/itssahil/PROJECTS/Mol_Feturizer/New_Systems/rnas/1nyi

>  <Rbt.Executable>
rbdock ($Id: //depot/dev/client3/rdock/2013.1/src/exe/rbdock.cxx#4 $)

>  <Rbt.Library>
libRbt.so (2013.1, Build901 2013/11/27)

>  <Rbt.Parameter_File>
/export/apps/rDock/src/rDock_2013.1_src/data/scripts/dock_solv.prm

>  <Rbt.Receptor>
prm/blind_docking_40.prm

>  <SCORE>
-1.56424

>  <SCORE.INTER>
-4.48075

>  <SCORE.INTER.CONST>
1

>  <SCORE.INTER.POLAR>
0

>  <SCORE.INTER.ROT>
2

>  <SCORE.INTER.SOLV>
8.51257

>  <SCORE.INTER.VDW>
-10.758

>  <SCORE.INTER.norm>
-0.224037

>  <SCORE.INTRA>
-0.0400291

>  <SCORE.INTRA.DIHEDRAL>
-0.761382

>  <SCORE.INTRA.DIHEDRAL.0>
3.72394

>  <SCORE.INTRA.POLAR>
0

>  <SCORE.INTRA.POLAR.0>
0

>  <SCORE.INTRA.REPUL>
0

>  <SCORE.INTRA.REPUL.0>
0

>  <SCORE.INTRA.SOLV>
0.18445

>  <SCORE.INTRA.SOLV.lig_0>
-49.4697

>  <SCORE.INTRA.VDW>
0.248437

>  <SCORE.INTRA.VDW.0>
-0.896538

>  <SCORE.INTRA.norm>
-0.00200146

>  <SCORE.RESTR>
2.95654

>  <SCORE.RESTR.CAVITY>
2.95654

>  <SCORE.RESTR.norm>
0.147827

>  <SCORE.SYSTEM>
0

>  <SCORE.SYSTEM.CONST>
0

>  <SCORE.SYSTEM.DIHEDRAL>
0

>  <SCORE.SYSTEM.SOLV>
0

>  <SCORE.SYSTEM.norm>
0

>  <SCORE.heavy>
20

>  <SCORE.norm>
-0.0782118

>  <RMSD>
26.641

$$$$
1nyi_lig
 OpenBabel11021811403D
libRbt.so/2013.1/901 2013/11/27
 20 22  0  0  0  0  0  0  0  0999 V2000
   20.2126   13.9855   23.6544 C   0  0  0  0  0  0  0  0  0  0  0  0
   18.8760   14.0838   23.1625 O   0  0  0  0  0  0  0  0  0  0  0  0
   20.2957   12.9969   24.7964 C   0  0  1  0  0  0  0  0  0  0  0  0
   19.9129   11.6819   24.3100 O   0  0  0  0  0  0  0  0  0  0  0  0
   21.7135   12.8447   25.3359 C   0  0  1  0  0  0  0  0  0  0  0  0
   21.9713   13.7634   26.3988 O   0  0  0  0  0  0  0  0  0  0  0  0
   21.7376   11.3817   25.7735 C   0  0  1  0  0  0  0  0  0  0  0  0
   21.1088   11.1640   27.0277 O   0  0  0  0  0  0  0  0  0  0  0  0
   20.9191   10.7379   24.6565 C   0  0  2  0  0  0  0  0  0  0  0  0
   23.3764   12.0480   20.3282 N   0  0  0  0  0  0  0  0  0  0  0  0
   22.7500   12.8478   21.2530 C   0  0  1  0  0  0  0  0  0  0  0  0
   22.7809   14.1561   20.9949 N   0  0  0  0  0  0  0  0  0  0  0  0
   22.1374   12.3988   22.3447 N   0  0  0  0  0  0  0  0  0  0  0  0
   22.1901   11.0385   22.4455 C   0  0  1  0  0  0  0  0  0  0  0  0
   22.7936   10.1519   21.5711 C   0  0  1  0  0  0  0  0  0  0  0  0
   23.4514   10.6581   20.4156 C   0  0  0  0  0  0  0  0  0  0  0  0
   24.0439   10.0308   19.5285 O   0  0  0  0  0  0  0  0  0  0  0  0
   22.6490    8.8465   22.0231 N   0  0  0  0  0  0  0  0  0  0  0  0
   21.9711    8.9597   23.1319 C   0  0  0  0  0  0  0  0  0  0  0  0
   21.6451   10.2579   23.4580 N   0  0  1  0  0  0  0  0  0  0  0  0
  2  1  1  0  0  0  0
  3  1  1  6  0  0  0
  3  4  1  0  0  0  0
  3  5  1  0  0  0  0
  5  6  1  1  0  0  0
  5  7  1  0  0  0  0
  7  8  1  1  0  0  0
  7  9  1  0  0  0  0
  9  4  1  6  0  0  0
  9 20  1  0  0  0  0
 10 11  1  0  0  0  0
 11 12  1  6  0  0  0
 11 13  1  0  0  0  0
 14 13  1  1  0  0  0
 15 14  1  0  0  0  0
 15 16  1  1  0  0  0
 16 10  1  0  0  0  0
 16 17  2  0  0  0  0
 18 15  1  0  0  0  0
 19 18  1  0  0  0  0
 20 14  1  0  0  0  0
 20 19  1  1  0  0  0
M  END
>  <CHROM.1>
61.98522138,48.72554539,21.79370962,11.72446738,23.16988694,2.89131923,-1.10149546
2.47927693

>  <Name>
1nyi_lig

>  <RI>
0

>  <Rbt.Current_Directory>
/home/itssahil/PROJECTS/Mol_Feturizer/New_Systems/rnas/1nyi

>  <Rbt.Executable>
rbdock ($Id: //depot/dev/client3/rdock/2013.1/src/exe/rbdock.cxx#4 $)

>  <Rbt.Library>
libRbt.so (2013.1, Build901 2013/11/27)

>  <Rbt.Parameter_File>
/export/apps/rDock/src/rDock_2013.1_src/data/scripts/dock_solv.prm

>  <Rbt.Receptor>
prm/blind_docking_40.prm

>  <SCORE>
-2.46124

>  <SCORE.INTER>
-4.31396

>  <SCORE.INTER.CONST>
1

>  <SCORE.INTER.POLAR>
0

>  <SCORE.INTER.ROT>
2

>  <SCORE.INTER.SOLV>
10.721

>  <SCORE.INTER.VDW>
-11.383

>  <SCORE.INTER.norm>
-0.215698

>  <SCORE.INTRA>
-1.34233

>  <SCORE.INTRA.DIHEDRAL>
-2.53973

>  <SCORE.INTRA.DIHEDRAL.0>
3.72394

>  <SCORE.INTRA.POLAR>
0

>  <SCORE.INTRA.POLAR.0>
0

>  <SCORE.INTRA.REPUL>
0

>  <SCORE.INTRA.REPUL.0>
0

>  <SCORE.INTRA.SOLV>
1.72814

>  <SCORE.INTRA.SOLV.lig_0>
-49.4697

>  <SCORE.INTRA.VDW>
-0.936537

>  <SCORE.INTRA.VDW.0>
-0.896538

>  <SCORE.INTRA.norm>
-0.0671165

>  <SCORE.RESTR>
3.19505

>  <SCORE.RESTR.CAVITY>
3.19505

>  <SCORE.RESTR.norm>
0.159753

>  <SCORE.SYSTEM>
0

>  <SCORE.SYSTEM.CONST>
0

>  <SCORE.SYSTEM.DIHEDRAL>
0

>  <SCORE.SYSTEM.SOLV>
0

>  <SCORE.SYSTEM.norm>
0

>  <SCORE.heavy>
20

>  <SCORE.norm>
-0.123062

>  <RMSD>
26.656

$$$$
1nyi_lig
 OpenBabel11021811403D
libRbt.so/2013.1/901 2013/11/27
 20 22  0  0  0  0  0  0  0  0999 V2000
   20.2890   14.1264   23.5637 C   0  0  0  0  0  0  0  0  0  0  0  0
   20.5923   15.4464   24.0147 O   0  0  0  0  0  0  0  0  0  0  0  0
   20.2772   13.1508   24.7197 C   0  0  1  0  0  0  0  0  0  0  0  0
   19.8506   11.8493   24.2335 O   0  0  0  0  0  0  0  0  0  0  0  0
   21.6628   12.9376   25.3189 C   0  0  1  0  0  0  0  0  0  0  0  0
   21.9220   13.8572   26.3807 O   0  0  0  0  0  0  0  0  0  0  0  0
   21.5975   11.4812   25.7744 C   0  0  1  0  0  0  0  0  0  0  0  0
   20.9084   11.3116   27.0041 O   0  0  0  0  0  0  0  0  0  0  0  0
   20.7944   10.8625   24.6323 C   0  0  2  0  0  0  0  0  0  0  0  0
   23.4215   11.9904   20.3527 N   0  0  0  0  0  0  0  0  0  0  0  0
   22.7889   12.8311   21.2360 C   0  0  1  0  0  0  0  0  0  0  0  0
   22.8642   14.1307   20.9455 N   0  0  0  0  0  0  0  0  0  0  0  0
   22.1302   12.4279   22.3187 N   0  0  0  0  0  0  0  0  0  0  0  0
   22.1419   11.0699   22.4561 C   0  0  1  0  0  0  0  0  0  0  0  0
   22.7477   10.1444   21.6248 C   0  0  1  0  0  0  0  0  0  0  0  0
   23.4552   10.6018   20.4783 C   0  0  0  0  0  0  0  0  0  0  0  0
   24.0576    9.9353   19.6271 O   0  0  0  0  0  0  0  0  0  0  0  0
   22.5530    8.8558   22.1053 N   0  0  0  0  0  0  0  0  0  0  0  0
   21.8439    9.0167   23.1885 C   0  0  0  0  0  0  0  0  0  0  0  0
   21.5440   10.3315   23.4704 N   0  0  1  0  0  0  0  0  0  0  0  0
  2  1  1  0  0  0  0
  3  1  1  6  0  0  0
  3  4  1  0  0  0  0
  3  5  1  0  0  0  0
  5  6  1  1  0  0  0
  5  7  1  0  0  0  0
  7  8  1  1  0  0  0
  7  9  1  0  0  0  0
  9  4  1  6  0  0  0
  9 20  1  0  0  0  0
 10 11  1  0  0  0  0
 11 12  1  6  0  0  0
 11 13  1  0  0  0  0
 14 13  1  1  0  0  0
 15 14  1  0  0  0  0
 15 16  1  1  0  0  0
 16 10  1  0  0  0  0
 16 17  2  0  0  0  0
 18 15  1  0  0  0  0
 19 18  1  0  0  0  0
 20 14  1  0  0  0  0
 20 19  1  1  0  0  0
M  END
>  <CHROM.1>
175.05323730,47.18539964,21.85023101,11.85084657,23.21719377,-2.95573043
-1.14610646,2.86439292

>  <Name>
1nyi_lig

>  <RI>
0

>  <Rbt.Current_Directory>
/home/itssahil/PROJECTS/Mol_Feturizer/New_Systems/rnas/1nyi

>  <Rbt.Executable>
rbdock ($Id: //depot/dev/client3/rdock/2013.1/src/exe/rbdock.cxx#4 $)

>  <Rbt.Library>
libRbt.so (2013.1, Build901 2013/11/27)

>  <Rbt.Parameter_File>
/export/apps/rDock/src/rDock_2013.1_src/data/scripts/dock_solv.prm

>  <Rbt.Receptor>
prm/blind_docking_40.prm

>  <SCORE>
-2.62719

>  <SCORE.INTER>
-4.16755

>  <SCORE.INTER.CONST>
1

>  <SCORE.INTER.POLAR>
0

>  <SCORE.INTER.ROT>
2

>  <SCORE.INTER.SOLV>
11.3722

>  <SCORE.INTER.VDW>
-11.5024

>  <SCORE.INTER.norm>
-0.208378

>  <SCORE.INTRA>
-1.05016

>  <SCORE.INTRA.DIHEDRAL>
-2.47848

>  <SCORE.INTRA.DIHEDRAL.0>
3.72394

>  <SCORE.INTRA.POLAR>
0

>  <SCORE.INTRA.POLAR.0>
0

>  <SCORE.INTRA.REPUL>
0

>  <SCORE.INTRA.REPUL.0>
0

>  <SCORE.INTRA.SOLV>
2.16671

>  <SCORE.INTRA.SOLV.lig_0>
-49.4697

>  <SCORE.INTRA.VDW>
-0.894275

>  <SCORE.INTRA.VDW.0>
-0.896538

>  <SCORE.INTRA.norm>
-0.0525079

>  <SCORE.RESTR>
2.59052

>  <SCORE.RESTR.CAVITY>
2.59052

>  <SCORE.RESTR.norm>
0.129526

>  <SCORE.SYSTEM>
0

>  <SCORE.SYSTEM.CONST>
0

>  <SCORE.SYSTEM.DIHEDRAL>
0

>  <SCORE.SYSTEM.SOLV>
0

>  <SCORE.SYSTEM.norm>
0

>  <SCORE.heavy>
20

>  <SCORE.norm>
-0.131359

>  <RMSD>
26.679

$$$$
1nyi_lig
 OpenBabel11021811403D
libRbt.so/2013.1/901 2013/11/27
 20 22  0  0  0  0  0  0  0  0999 V2000
   22.6122   13.0006   20.9373 C   0  0  0  0  0  0  0  0  0  0  0  0
   23.6927   13.9316   20.9995 O   0  0  0  0  0  0  0  0  0  0  0  0
   23.1076   11.5853   21.1360 C   0  0  1  0  0  0  0  0  0  0  0  0
   23.5518   11.4302   22.5111 O   0  0  0  0  0  0  0  0  0  0  0  0
   22.0091   10.5475   20.9338 C   0  0  1  0  0  0  0  0  0  0  0  0
   21.9493   10.1051   19.5770 O   0  0  0  0  0  0  0  0  0  0  0  0
   22.4152    9.4512   21.9166 C   0  0  1  0  0  0  0  0  0  0  0  0
   23.4563    8.6199   21.4261 O   0  0  0  0  0  0  0  0  0  0  0  0
   22.9213   10.2922   23.0865 C   0  0  2  0  0  0  0  0  0  0  0  0
   19.6858   13.9236   24.7700 N   0  0  0  0  0  0  0  0  0  0  0  0
   20.5239   13.9373   23.6816 C   0  0  1  0  0  0  0  0  0  0  0  0
   20.4985   15.0535   22.9517 N   0  0  0  0  0  0  0  0  0  0  0  0
   21.3277   12.9351   23.3377 N   0  0  0  0  0  0  0  0  0  0  0  0
   21.2368   11.8798   24.1987 C   0  0  1  0  0  0  0  0  0  0  0  0
   20.4276   11.7714   25.3159 C   0  0  1  0  0  0  0  0  0  0  0  0
   19.5690   12.8535   25.6567 C   0  0  0  0  0  0  0  0  0  0  0  0
   18.7794   12.9420   26.6056 O   0  0  0  0  0  0  0  0  0  0  0  0
   20.6042   10.5374   25.9283 N   0  0  0  0  0  0  0  0  0  0  0  0
   21.5003    9.9361   25.1953 C   0  0  0  0  0  0  0  0  0  0  0  0
   21.9435   10.6852   24.1274 N   0  0  1  0  0  0  0  0  0  0  0  0
  2  1  1  0  0  0  0
  3  1  1  1  0  0  0
  3  4  1  0  0  0  0
  3  5  1  0  0  0  0
  5  6  1  6  0  0  0
  5  7  1  0  0  0  0
  7  8  1  6  0  0  0
  7  9  1  0  0  0  0
  9  4  1  6  0  0  0
  9 20  1  0  0  0  0
 10 11  1  0  0  0  0
 11 12  1  1  0  0  0
 11 13  1  0  0  0  0
 14 13  1  6  0  0  0
 15 14  1  0  0  0  0
 15 16  1  6  0  0  0
 16 10  1  0  0  0  0
 16 17  2  0  0  0  0
 18 15  1  0  0  0  0
 19 18  1  0  0  0  0
 20 14  1  0  0  0  0
 20 19  1  6  0  0  0
M  END
>  <CHROM.1>
68.87812118,27.62869779,21.62436841,11.76056787,23.17001695,-0.03574373,1.00856263
-0.42748084

>  <Name>
1nyi_lig

>  <RI>
0

>  <Rbt.Current_Directory>
/home/itssahil/PROJECTS/Mol_Feturizer/New_Systems/rnas/1nyi

>  <Rbt.Executable>
rbdock ($Id: //depot/dev/client3/rdock/2013.1/src/exe/rbdock.cxx#4 $)

>  <Rbt.Library>
libRbt.so (2013.1, Build901 2013/11/27)

>  <Rbt.Parameter_File>
/export/apps/rDock/src/rDock_2013.1_src/data/scripts/dock_solv.prm

>  <Rbt.Receptor>
prm/blind_docking_40.prm

>  <SCORE>
0.4355

>  <SCORE.INTER>
-1.88262

>  <SCORE.INTER.CONST>
1

>  <SCORE.INTER.POLAR>
0

>  <SCORE.INTER.ROT>
2

>  <SCORE.INTER.SOLV>
7.37395

>  <SCORE.INTER.VDW>
-8.64639

>  <SCORE.INTER.norm>
-0.0941309

>  <SCORE.INTRA>
-0.434483

>  <SCORE.INTRA.DIHEDRAL>
-2.30123

>  <SCORE.INTRA.DIHEDRAL.0>
3.72394

>  <SCORE.INTRA.POLAR>
0

>  <SCORE.INTRA.POLAR.0>
0

>  <SCORE.INTRA.REPUL>
0

>  <SCORE.INTRA.REPUL.0>
0

>  <SCORE.INTRA.SOLV>
2.19533

>  <SCORE.INTRA.SOLV.lig_0>
-49.4697

>  <SCORE.INTRA.VDW>
-0.381535

>  <SCORE.INTRA.VDW.0>
-0.896538

>  <SCORE.INTRA.norm>
-0.0217242

>  <SCORE.RESTR>
2.7526

>  <SCORE.RESTR.CAVITY>
2.7526

>  <SCORE.RESTR.norm>
0.13763

>  <SCORE.SYSTEM>
0

>  <SCORE.SYSTEM.CONST>
0

>  <SCORE.SYSTEM.DIHEDRAL>
0

>  <SCORE.SYSTEM.SOLV>
0

>  <SCORE.SYSTEM.norm>
0

>  <SCORE.heavy>
20

>  <SCORE.norm>
0.021775

>  <RMSD>
26.682

$$$$
1nyi_lig
 OpenBabel11021811403D
libRbt.so/2013.1/901 2013/11/27
 20 22  0  0  0  0  0  0  0  0999 V2000
   22.5776   12.9813   20.9043 C   0  0  0  0  0  0  0  0  0  0  0  0
   23.6319   13.9388   21.0018 O   0  0  0  0  0  0  0  0  0  0  0  0
   23.1016   11.5785   21.1182 C   0  0  1  0  0  0  0  0  0  0  0  0
   23.5426   11.4454   22.4966 O   0  0  0  0  0  0  0  0  0  0  0  0
   22.0259   10.5161   20.9210 C   0  0  1  0  0  0  0  0  0  0  0  0
   21.9814   10.0600   19.5681 O   0  0  0  0  0  0  0  0  0  0  0  0
   22.4503    9.4377   21.9157 C   0  0  1  0  0  0  0  0  0  0  0  0
   23.5107    8.6238   21.4376 O   0  0  0  0  0  0  0  0  0  0  0  0
   22.9334   10.2998   23.0800 C   0  0  2  0  0  0  0  0  0  0  0  0
   19.6682   13.9084   24.7549 N   0  0  0  0  0  0  0  0  0  0  0  0
   20.5182   13.9330   23.6761 C   0  0  1  0  0  0  0  0  0  0  0  0
   20.4974   15.0546   22.9545 N   0  0  0  0  0  0  0  0  0  0  0  0
   21.3289   12.9359   23.3336 N   0  0  0  0  0  0  0  0  0  0  0  0
   21.2318   11.8737   24.1854 C   0  0  1  0  0  0  0  0  0  0  0  0
   20.4105   11.7544   25.2927 C   0  0  1  0  0  0  0  0  0  0  0  0
   19.5449   12.8313   25.6322 C   0  0  0  0  0  0  0  0  0  0  0  0
   18.7445   12.9102   26.5729 O   0  0  0  0  0  0  0  0  0  0  0  0
   20.5842   10.5163   25.8977 N   0  0  0  0  0  0  0  0  0  0  0  0
   21.4902    9.9233   25.1701 C   0  0  0  0  0  0  0  0  0  0  0  0
   21.9429   10.6819   24.1129 N   0  0  1  0  0  0  0  0  0  0  0  0
  2  1  1  0  0  0  0
  3  1  1  1  0  0  0
  3  4  1  0  0  0  0
  3  5  1  0  0  0  0
  5  6  1  6  0  0  0
  5  7  1  0  0  0  0
  7  8  1  6  0  0  0
  7  9  1  0  0  0  0
  9  4  1  6  0  0  0
  9 20  1  0  0  0  0
 10 11  1  0  0  0  0
 11 12  1  1  0  0  0
 11 13  1  0  0  0  0
 14 13  1  6  0  0  0
 15 14  1  0  0  0  0
 15 16  1  6  0  0  0
 16 10  1  0  0  0  0
 16 17  2  0  0  0  0
 18 15  1  0  0  0  0
 19 18  1  0  0  0  0
 20 14  1  0  0  0  0
 20 19  1  6  0  0  0
M  END
>  <CHROM.1>
67.15801118,26.17044693,21.61956189,11.74995645,23.15689363,-0.03641463,1.00326847
-0.43260242

>  <Name>
1nyi_lig

>  <RI>
0

>  <Rbt.Current_Directory>
/home/itssahil/PROJECTS/Mol_Feturizer/New_Systems/rnas/1nyi

>  <Rbt.Executable>
rbdock ($Id: //depot/dev/client3/rdock/2013.1/src/exe/rbdock.cxx#4 $)

>  <Rbt.Library>
libRbt.so (2013.1, Build901 2013/11/27)

>  <Rbt.Parameter_File>
/export/apps/rDock/src/rDock_2013.1_src/data/scripts/dock_solv.prm

>  <Rbt.Receptor>
prm/blind_docking_40.prm

>  <SCORE>
0.319992

>  <SCORE.INTER>
-1.96735

>  <SCORE.INTER.CONST>
1

>  <SCORE.INTER.POLAR>
0

>  <SCORE.INTER.ROT>
2

>  <SCORE.INTER.SOLV>
7.20298

>  <SCORE.INTER.VDW>
-8.64589

>  <SCORE.INTER.norm>
-0.0983673

>  <SCORE.INTRA>
-0.494612

>  <SCORE.INTRA.DIHEDRAL>
-2.3973

>  <SCORE.INTRA.DIHEDRAL.0>
3.72394

>  <SCORE.INTRA.POLAR>
0

>  <SCORE.INTRA.POLAR.0>
0

>  <SCORE.INTRA.REPUL>
0

>  <SCORE.INTRA.REPUL.0>
0

>  <SCORE.INTRA.SOLV>
2.24424

>  <SCORE.INTRA.SOLV.lig_0>
-49.4697

>  <SCORE.INTRA.VDW>
-0.418082

>  <SCORE.INTRA.VDW.0>
-0.896538

>  <SCORE.INTRA.norm>
-0.0247306

>  <SCORE.RESTR>
2.78195

>  <SCORE.RESTR.CAVITY>
2.78195

>  <SCORE.RESTR.norm>
0.139098

>  <SCORE.SYSTEM>
0

>  <SCORE.SYSTEM.CONST>
0

>  <SCORE.SYSTEM.DIHEDRAL>
0

>  <SCORE.SYSTEM.SOLV>
0

>  <SCORE.SYSTEM.norm>
0

>  <SCORE.heavy>
20

>  <SCORE.norm>
0.0159996

>  <RMSD>
26.685

$$$$
1nyi_lig
 OpenBabel11021811403D
libRbt.so/2013.1/901 2013/11/27
 20 22  0  0  0  0  0  0  0  0999 V2000
   27.0817   -5.0529   20.9409 C   0  0  0  0  0  0  0  0  0  0  0  0
   27.2184   -5.5071   22.2874 O   0  0  0  0  0  0  0  0  0  0  0  0
   25.6234   -4.9321   20.5577 C   0  0  1  0  0  0  0  0  0  0  0  0
   25.4911   -3.9243   19.5189 O   0  0  0  0  0  0  0  0  0  0  0  0
   25.0670   -6.2202   19.9613 C   0  0  1  0  0  0  0  0  0  0  0  0
   24.5082   -7.0654   20.9681 O   0  0  0  0  0  0  0  0  0  0  0  0
   24.0369   -5.6957   18.9631 C   0  0  1  0  0  0  0  0  0  0  0  0
   22.8147   -5.3094   19.5736 O   0  0  0  0  0  0  0  0  0  0  0  0
   24.7656   -4.4674   18.4224 C   0  0  2  0  0  0  0  0  0  0  0  0
   26.7270   -2.3049   14.1838 N   0  0  0  0  0  0  0  0  0  0  0  0
   25.8505   -1.7838   15.1043 C   0  0  1  0  0  0  0  0  0  0  0  0
   25.4462   -0.5348   14.8686 N   0  0  0  0  0  0  0  0  0  0  0  0
   25.4023   -2.4385   16.1716 N   0  0  0  0  0  0  0  0  0  0  0  0
   25.9059   -3.7047   16.2516 C   0  0  1  0  0  0  0  0  0  0  0  0
   26.7890   -4.3165   15.3795 C   0  0  1  0  0  0  0  0  0  0  0  0
   27.2619   -3.5912   14.2505 C   0  0  0  0  0  0  0  0  0  0  0  0
   28.0480   -3.9622   13.3695 O   0  0  0  0  0  0  0  0  0  0  0  0
   27.0815   -5.6056   15.8059 N   0  0  0  0  0  0  0  0  0  0  0  0
   26.3829   -5.7530   16.8978 C   0  0  0  0  0  0  0  0  0  0  0  0
   25.6342   -4.6471   17.2361 N   0  0  1  0  0  0  0  0  0  0  0  0
  2  1  1  0  0  0  0
  3  1  1  6  0  0  0
  3  4  1  0  0  0  0
  3  5  1  0  0  0  0
  5  6  1  1  0  0  0
  5  7  1  0  0  0  0
  7  8  1  1  0  0  0
  7  9  1  0  0  0  0
  9  4  1  1  0  0  0
  9 20  1  0  0  0  0
 10 11  1  0  0  0  0
 11 12  1  6  0  0  0
 11 13  1  0  0  0  0
 14 13  1  1  0  0  0
 15 14  1  0  0  0  0
 15 16  1  1  0  0  0
 16 10  1  0  0  0  0
 16 17  2  0  0  0  0
 18 15  1  0  0  0  0
 19 18  1  0  0  0  0
 20 14  1  0  0  0  0
 20 19  1  1  0  0  0
M  END
>  <CHROM.1>
153.05873407,-87.60174500,25.84883787,-4.37252503,17.60947730,-1.81470088
0.62968666,-0.98887062

>  <Name>
1nyi_lig

>  <RI>
0

>  <Rbt.Current_Directory>
/home/itssahil/PROJECTS/Mol_Feturizer/New_Systems/rnas/1nyi

>  <Rbt.Executable>
rbdock ($Id: //depot/dev/client3/rdock/2013.1/src/exe/rbdock.cxx#4 $)

>  <Rbt.Library>
libRbt.so (2013.1, Build901 2013/11/27)

>  <Rbt.Parameter_File>
/export/apps/rDock/src/rDock_2013.1_src/data/scripts/dock_solv.prm

>  <Rbt.Receptor>
prm/blind_docking_100.prm

>  <SCORE>
2.16117

>  <SCORE.INTER>
-3.16327

>  <SCORE.INTER.CONST>
1

>  <SCORE.INTER.POLAR>
-0.418397

>  <SCORE.INTER.ROT>
2

>  <SCORE.INTER.SOLV>
13.5679

>  <SCORE.INTER.VDW>
-10.1702

>  <SCORE.INTER.norm>
-0.158163

>  <SCORE.INTRA>
-0.878163

>  <SCORE.INTRA.DIHEDRAL>
-0.406143

>  <SCORE.INTRA.DIHEDRAL.0>
3.72394

>  <SCORE.INTRA.POLAR>
0

>  <SCORE.INTRA.POLAR.0>
0

>  <SCORE.INTRA.REPUL>
0

>  <SCORE.INTRA.REPUL.0>
0

>  <SCORE.INTRA.SOLV>
-0.705509

>  <SCORE.INTRA.SOLV.lig_0>
-49.4697

>  <SCORE.INTRA.VDW>
-0.322337

>  <SCORE.INTRA.VDW.0>
-0.896538

>  <SCORE.INTRA.norm>
-0.0439082

>  <SCORE.RESTR>
6.2026

>  <SCORE.RESTR.CAVITY>
6.2026

>  <SCORE.RESTR.norm>
0.31013

>  <SCORE.SYSTEM>
0

>  <SCORE.SYSTEM.CONST>
0

>  <SCORE.SYSTEM.DIHEDRAL>
0

>  <SCORE.SYSTEM.SOLV>
0

>  <SCORE.SYSTEM.norm>
0

>  <SCORE.heavy>
20

>  <SCORE.norm>
0.108059

>  <RMSD>
26.693

$$$$
1nyi_lig
 OpenBabel11021811403D
libRbt.so/2013.1/901 2013/11/27
 20 22  0  0  0  0  0  0  0  0999 V2000
   20.2238   14.0847   23.5798 C   0  0  0  0  0  0  0  0  0  0  0  0
   20.4888   15.4110   24.0369 O   0  0  0  0  0  0  0  0  0  0  0  0
   20.2599   13.1010   24.7283 C   0  0  1  0  0  0  0  0  0  0  0  0
   19.8541   11.7932   24.2415 O   0  0  0  0  0  0  0  0  0  0  0  0
   21.6627   12.9168   25.2965 C   0  0  1  0  0  0  0  0  0  0  0  0
   21.9225   13.8349   26.3594 O   0  0  0  0  0  0  0  0  0  0  0  0
   21.6417   11.4562   25.7422 C   0  0  1  0  0  0  0  0  0  0  0  0
   20.9833   11.2614   26.9849 O   0  0  0  0  0  0  0  0  0  0  0  0
   20.8294   10.8265   24.6127 C   0  0  2  0  0  0  0  0  0  0  0  0
   23.4127   12.0505   20.3329 N   0  0  0  0  0  0  0  0  0  0  0  0
   22.7899   12.8711   21.2417 C   0  0  1  0  0  0  0  0  0  0  0  0
   22.8630   14.1770   20.9801 N   0  0  0  0  0  0  0  0  0  0  0  0
   22.1422   12.4436   22.3217 N   0  0  0  0  0  0  0  0  0  0  0  0
   22.1543   11.0828   22.4279 C   0  0  1  0  0  0  0  0  0  0  0  0
   22.7508   10.1763   21.5694 C   0  0  1  0  0  0  0  0  0  0  0  0
   23.4466   10.6594   20.4263 C   0  0  0  0  0  0  0  0  0  0  0  0
   24.0396   10.0122   19.5539 O   0  0  0  0  0  0  0  0  0  0  0  0
   22.5601    8.8772   22.0224 N   0  0  0  0  0  0  0  0  0  0  0  0
   21.8625    9.0136   23.1163 C   0  0  0  0  0  0  0  0  0  0  0  0
   21.5665   10.3218   23.4313 N   0  0  1  0  0  0  0  0  0  0  0  0
  2  1  1  0  0  0  0
  3  1  1  6  0  0  0
  3  4  1  0  0  0  0
  3  5  1  0  0  0  0
  5  6  1  1  0  0  0
  5  7  1  0  0  0  0
  7  8  1  1  0  0  0
  7  9  1  0  0  0  0
  9  4  1  6  0  0  0
  9 20  1  0  0  0  0
 10 11  1  0  0  0  0
 11 12  1  6  0  0  0
 11 13  1  0  0  0  0
 14 13  1  1  0  0  0
 15 14  1  0  0  0  0
 15 16  1  1  0  0  0
 16 10  1  0  0  0  0
 16 17  2  0  0  0  0
 18 15  1  0  0  0  0
 19 18  1  0  0  0  0
 20 14  1  0  0  0  0
 20 19  1  1  0  0  0
M  END
>  <CHROM.1>
174.33234255,48.95891612,21.85030480,11.85062903,23.19557090,-2.98151586
-1.14742204,2.85170068

>  <Name>
1nyi_lig

>  <RI>
0

>  <Rbt.Current_Directory>
/home/itssahil/PROJECTS/Mol_Feturizer/New_Systems/rnas/1nyi

>  <Rbt.Executable>
rbdock ($Id: //depot/dev/client3/rdock/2013.1/src/exe/rbdock.cxx#4 $)

>  <Rbt.Library>
libRbt.so (2013.1, Build901 2013/11/27)

>  <Rbt.Parameter_File>
/export/apps/rDock/src/rDock_2013.1_src/data/scripts/dock_solv.prm

>  <Rbt.Receptor>
prm/blind_docking_40.prm

>  <SCORE>
-2.95808

>  <SCORE.INTER>
-4.49941

>  <SCORE.INTER.CONST>
1

>  <SCORE.INTER.POLAR>
0

>  <SCORE.INTER.ROT>
2

>  <SCORE.INTER.SOLV>
11.2775

>  <SCORE.INTER.VDW>
-11.6921

>  <SCORE.INTER.norm>
-0.224971

>  <SCORE.INTRA>
-1.13704

>  <SCORE.INTRA.DIHEDRAL>
-2.44588

>  <SCORE.INTRA.DIHEDRAL.0>
3.72394

>  <SCORE.INTRA.POLAR>
0

>  <SCORE.INTRA.POLAR.0>
0

>  <SCORE.INTRA.REPUL>
0

>  <SCORE.INTRA.REPUL.0>
0

>  <SCORE.INTRA.SOLV>
2.12029

>  <SCORE.INTRA.SOLV.lig_0>
-49.4697

>  <SCORE.INTRA.VDW>
-0.974245

>  <SCORE.INTRA.VDW.0>
-0.896538

>  <SCORE.INTRA.norm>
-0.0568519

>  <SCORE.RESTR>
2.67837

>  <SCORE.RESTR.CAVITY>
2.67837

>  <SCORE.RESTR.norm>
0.133919

>  <SCORE.SYSTEM>
0

>  <SCORE.SYSTEM.CONST>
0

>  <SCORE.SYSTEM.DIHEDRAL>
0

>  <SCORE.SYSTEM.SOLV>
0

>  <SCORE.SYSTEM.norm>
0

>  <SCORE.heavy>
20

>  <SCORE.norm>
-0.147904

>  <RMSD>
26.698

$$$$
1nyi_lig
 OpenBabel11021811403D
libRbt.so/2013.1/901 2013/11/27
 20 22  0  0  0  0  0  0  0  0999 V2000
   20.1900   14.0439   23.5957 C   0  0  0  0  0  0  0  0  0  0  0  0
   20.3850   15.3779   24.0651 O   0  0  0  0  0  0  0  0  0  0  0  0
   20.2432   13.0562   24.7402 C   0  0  1  0  0  0  0  0  0  0  0  0
   19.8651   11.7425   24.2467 O   0  0  0  0  0  0  0  0  0  0  0  0
   21.6481   12.8979   25.3110 C   0  0  1  0  0  0  0  0  0  0  0  0
   21.8868   13.8165   26.3785 O   0  0  0  0  0  0  0  0  0  0  0  0
   21.6556   11.4352   25.7504 C   0  0  1  0  0  0  0  0  0  0  0  0
   20.9983   11.2219   26.9906 O   0  0  0  0  0  0  0  0  0  0  0  0
   20.8589   10.7941   24.6163 C   0  0  2  0  0  0  0  0  0  0  0  0
   23.3606   12.0845   20.3076 N   0  0  0  0  0  0  0  0  0  0  0  0
   22.7099   12.8869   21.2130 C   0  0  1  0  0  0  0  0  0  0  0  0
   22.7264   14.1922   20.9389 N   0  0  0  0  0  0  0  0  0  0  0  0
   22.0877   12.4430   22.3013 N   0  0  0  0  0  0  0  0  0  0  0  0
   22.1577   11.0849   22.4201 C   0  0  1  0  0  0  0  0  0  0  0  0
   22.7861   10.1960   21.5659 C   0  0  1  0  0  0  0  0  0  0  0  0
   23.4536   10.6970   20.4137 C   0  0  0  0  0  0  0  0  0  0  0  0
   24.0676   10.0670   19.5432 O   0  0  0  0  0  0  0  0  0  0  0  0
   22.6531    8.8945   22.0322 N   0  0  0  0  0  0  0  0  0  0  0  0
   21.9575    9.0120   23.1296 C   0  0  0  0  0  0  0  0  0  0  0  0
   21.6089   10.3095   23.4345 N   0  0  1  0  0  0  0  0  0  0  0  0
  2  1  1  0  0  0  0
  3  1  1  6  0  0  0
  3  4  1  0  0  0  0
  3  5  1  0  0  0  0
  5  6  1  1  0  0  0
  5  7  1  0  0  0  0
  7  8  1  1  0  0  0
  7  9  1  0  0  0  0
  9  4  1  6  0  0  0
  9 20  1  0  0  0  0
 10 11  1  0  0  0  0
 11 12  1  6  0  0  0
 11 13  1  0  0  0  0
 14 13  1  1  0  0  0
 15 14  1  0  0  0  0
 15 16  1  1  0  0  0
 16 10  1  0  0  0  0
 16 17  2  0  0  0  0
 18 15  1  0  0  0  0
 19 18  1  0  0  0  0
 20 14  1  0  0  0  0
 20 19  1  1  0  0  0
M  END
>  <CHROM.1>
172.49693061,47.39671383,21.84206963,11.84416588,23.19543766,-3.07316789
-1.14736647,2.76608223

>  <Name>
1nyi_lig

>  <RI>
0

>  <Rbt.Current_Directory>
/home/itssahil/PROJECTS/Mol_Feturizer/New_Systems/rnas/1nyi

>  <Rbt.Executable>
rbdock ($Id: //depot/dev/client3/rdock/2013.1/src/exe/rbdock.cxx#4 $)

>  <Rbt.Library>
libRbt.so (2013.1, Build901 2013/11/27)

>  <Rbt.Parameter_File>
/export/apps/rDock/src/rDock_2013.1_src/data/scripts/dock_solv.prm

>  <Rbt.Receptor>
prm/blind_docking_40.prm

>  <SCORE>
-3.23231

>  <SCORE.INTER>
-4.98134

>  <SCORE.INTER.CONST>
1

>  <SCORE.INTER.POLAR>
0

>  <SCORE.INTER.ROT>
2

>  <SCORE.INTER.SOLV>
10.9467

>  <SCORE.INTER.VDW>
-11.9031

>  <SCORE.INTER.norm>
-0.249067

>  <SCORE.INTRA>
-1.04071

>  <SCORE.INTRA.DIHEDRAL>
-2.36796

>  <SCORE.INTRA.DIHEDRAL.0>
3.72394

>  <SCORE.INTRA.POLAR>
0

>  <SCORE.INTRA.POLAR.0>
0

>  <SCORE.INTRA.REPUL>
0

>  <SCORE.INTRA.REPUL.0>
0

>  <SCORE.INTRA.SOLV>
2.1031

>  <SCORE.INTRA.SOLV.lig_0>
-49.4697

>  <SCORE.INTRA.VDW>
-0.908276

>  <SCORE.INTRA.VDW.0>
-0.896538

>  <SCORE.INTRA.norm>
-0.0520353

>  <SCORE.RESTR>
2.78973

>  <SCORE.RESTR.CAVITY>
2.78973

>  <SCORE.RESTR.norm>
0.139487

>  <SCORE.SYSTEM>
0

>  <SCORE.SYSTEM.CONST>
0

>  <SCORE.SYSTEM.DIHEDRAL>
0

>  <SCORE.SYSTEM.SOLV>
0

>  <SCORE.SYSTEM.norm>
0

>  <SCORE.heavy>
20

>  <SCORE.norm>
-0.161616

>  <RMSD>
26.700

$$$$
1nyi_lig
 OpenBabel11021811403D
libRbt.so/2013.1/901 2013/11/27
 20 22  0  0  0  0  0  0  0  0999 V2000
   22.0901    7.9983   21.4093 C   0  0  0  0  0  0  0  0  0  0  0  0
   21.0375    7.4071   20.6474 O   0  0  0  0  0  0  0  0  0  0  0  0
   22.3913    9.3971   20.9185 C   0  0  1  0  0  0  0  0  0  0  0  0
   21.2623   10.2583   21.2280 O   0  0  0  0  0  0  0  0  0  0  0  0
   23.5932   10.0174   21.6222 C   0  0  1  0  0  0  0  0  0  0  0  0
   24.8085    9.7443   20.9231 O   0  0  0  0  0  0  0  0  0  0  0  0
   23.2232   11.4990   21.6485 C   0  0  1  0  0  0  0  0  0  0  0  0
   23.4579   12.1547   20.4113 O   0  0  0  0  0  0  0  0  0  0  0  0
   21.7231   11.4121   21.9209 C   0  0  2  0  0  0  0  0  0  0  0  0
   18.9343   13.7824   25.5393 N   0  0  0  0  0  0  0  0  0  0  0  0
   19.1502   14.1388   24.2303 C   0  0  1  0  0  0  0  0  0  0  0  0
   18.5511   15.2632   23.8353 N   0  0  0  0  0  0  0  0  0  0  0  0
   19.8989   13.4476   23.3756 N   0  0  0  0  0  0  0  0  0  0  0  0
   20.4452   12.3354   23.9480 C   0  0  1  0  0  0  0  0  0  0  0  0
   20.2879   11.8946   25.2502 C   0  0  1  0  0  0  0  0  0  0  0  0
   19.4735   12.6463   26.1423 C   0  0  0  0  0  0  0  0  0  0  0  0
   19.2130   12.4144   27.3297 O   0  0  0  0  0  0  0  0  0  0  0  0
   20.9883   10.7124   25.4530 N   0  0  0  0  0  0  0  0  0  0  0  0
   21.5505   10.4662   24.3018 C   0  0  0  0  0  0  0  0  0  0  0  0
   21.2776   11.4075   23.3335 N   0  0  1  0  0  0  0  0  0  0  0  0
  2  1  1  0  0  0  0
  3  1  1  1  0  0  0
  3  4  1  0  0  0  0
  3  5  1  0  0  0  0
  5  6  1  6  0  0  0
  5  7  1  0  0  0  0
  7  8  1  6  0  0  0
  7  9  1  0  0  0  0
  9  4  1  1  0  0  0
  9 20  1  0  0  0  0
 10 11  1  0  0  0  0
 11 12  1  1  0  0  0
 11 13  1  0  0  0  0
 14 13  1  6  0  0  0
 15 14  1  0  0  0  0
 15 16  1  6  0  0  0
 16 10  1  0  0  0  0
 16 17  2  0  0  0  0
 18 15  1  0  0  0  0
 19 18  1  0  0  0  0
 20 14  1  0  0  0  0
 20 19  1  6  0  0  0
M  END
>  <CHROM.1>
68.12261594,-117.51082824,21.19865474,11.37189776,23.12393114,0.35867256
-0.98203326,2.84650223

>  <Name>
1nyi_lig

>  <RI>
0

>  <Rbt.Current_Directory>
/home/itssahil/PROJECTS/Mol_Feturizer/New_Systems/rnas/1nyi

>  <Rbt.Executable>
rbdock ($Id: //depot/dev/client3/rdock/2013.1/src/exe/rbdock.cxx#4 $)

>  <Rbt.Library>
libRbt.so (2013.1, Build901 2013/11/27)

>  <Rbt.Parameter_File>
/export/apps/rDock/src/rDock_2013.1_src/data/scripts/dock_solv.prm

>  <Rbt.Receptor>
prm/blind_docking_40.prm

>  <SCORE>
2.32562

>  <SCORE.INTER>
0.280045

>  <SCORE.INTER.CONST>
1

>  <SCORE.INTER.POLAR>
0

>  <SCORE.INTER.ROT>
2

>  <SCORE.INTER.SOLV>
5.78123

>  <SCORE.INTER.VDW>
-6.67371

>  <SCORE.INTER.norm>
0.0140022

>  <SCORE.INTRA>
-2.0166

>  <SCORE.INTRA.DIHEDRAL>
-2.26662

>  <SCORE.INTRA.DIHEDRAL.0>
3.72394

>  <SCORE.INTRA.POLAR>
0

>  <SCORE.INTRA.POLAR.0>
0

>  <SCORE.INTRA.REPUL>
0

>  <SCORE.INTRA.REPUL.0>
0

>  <SCORE.INTRA.SOLV>
-0.912223

>  <SCORE.INTRA.SOLV.lig_0>
-49.4697

>  <SCORE.INTRA.VDW>
-0.427181

>  <SCORE.INTRA.VDW.0>
-0.896538

>  <SCORE.INTRA.norm>
-0.10083

>  <SCORE.RESTR>
4.06218

>  <SCORE.RESTR.CAVITY>
4.06218

>  <SCORE.RESTR.norm>
0.203109

>  <SCORE.SYSTEM>
0

>  <SCORE.SYSTEM.CONST>
0

>  <SCORE.SYSTEM.DIHEDRAL>
0

>  <SCORE.SYSTEM.SOLV>
0

>  <SCORE.SYSTEM.norm>
0

>  <SCORE.heavy>
20

>  <SCORE.norm>
0.116281

>  <RMSD>
26.707

$$$$
1nyi_lig
 OpenBabel11021811403D
libRbt.so/2013.1/901 2013/11/27
 20 22  0  0  0  0  0  0  0  0999 V2000
   23.0295   -6.1633   19.8346 C   0  0  0  0  0  0  0  0  0  0  0  0
   22.6838   -4.7931   19.6317 O   0  0  0  0  0  0  0  0  0  0  0  0
   24.5235   -6.3664   19.7127 C   0  0  1  0  0  0  0  0  0  0  0  0
   24.8863   -6.3619   18.3054 O   0  0  0  0  0  0  0  0  0  0  0  0
   25.3213   -5.2352   20.3518 C   0  0  1  0  0  0  0  0  0  0  0  0
   25.6147   -5.5101   21.7225 O   0  0  0  0  0  0  0  0  0  0  0  0
   26.5614   -5.1716   19.4625 C   0  0  1  0  0  0  0  0  0  0  0  0
   27.5170   -6.1771   19.7648 O   0  0  0  0  0  0  0  0  0  0  0  0
   25.9409   -5.4314   18.0915 C   0  0  2  0  0  0  0  0  0  0  0  0
   26.9516   -2.1970   14.2178 N   0  0  0  0  0  0  0  0  0  0  0  0
   27.7069   -3.2340   14.7091 C   0  0  1  0  0  0  0  0  0  0  0  0
   28.8738   -3.4352   14.0951 N   0  0  0  0  0  0  0  0  0  0  0  0
   27.3471   -4.0112   15.7265 N   0  0  0  0  0  0  0  0  0  0  0  0
   26.1343   -3.6583   16.2440 C   0  0  1  0  0  0  0  0  0  0  0  0
   25.3033   -2.6360   15.8209 C   0  0  1  0  0  0  0  0  0  0  0  0
   25.7063   -1.8250   14.7236 C   0  0  0  0  0  0  0  0  0  0  0  0
   25.1054   -0.8758   14.2045 O   0  0  0  0  0  0  0  0  0  0  0  0
   24.1455   -2.5996   16.5873 N   0  0  0  0  0  0  0  0  0  0  0  0
   24.2932   -3.5711   17.4454 C   0  0  0  0  0  0  0  0  0  0  0  0
   25.4781   -4.2609   17.3107 N   0  0  1  0  0  0  0  0  0  0  0  0
  2  1  1  0  0  0  0
  3  1  1  6  0  0  0
  3  4  1  0  0  0  0
  3  5  1  0  0  0  0
  5  6  1  1  0  0  0
  5  7  1  0  0  0  0
  7  8  1  1  0  0  0
  7  9  1  0  0  0  0
  9  4  1  1  0  0  0
  9 20  1  0  0  0  0
 10 11  1  0  0  0  0
 11 12  1  1  0  0  0
 11 13  1  0  0  0  0
 14 13  1  6  0  0  0
 15 14  1  0  0  0  0
 15 16  1  6  0  0  0
 16 10  1  0  0  0  0
 16 17  2  0  0  0  0
 18 15  1  0  0  0  0
 19 18  1  0  0  0  0
 20 14  1  0  0  0  0
 20 19  1  6  0  0  0
M  END
>  <CHROM.1>
-77.20933174,-135.38081670,25.63135431,-4.20381317,17.45516227,1.84923509
-0.29364908,2.20672559

>  <Name>
1nyi_lig

>  <RI>
0

>  <Rbt.Current_Directory>
/home/itssahil/PROJECTS/Mol_Feturizer/New_Systems/rnas/1nyi

>  <Rbt.Executable>
rbdock ($Id: //depot/dev/client3/rdock/2013.1/src/exe/rbdock.cxx#4 $)

>  <Rbt.Library>
libRbt.so (2013.1, Build901 2013/11/27)

>  <Rbt.Parameter_File>
/export/apps/rDock/src/rDock_2013.1_src/data/scripts/dock_solv.prm

>  <Rbt.Receptor>
prm/blind_docking_100.prm

>  <SCORE>
0.94074

>  <SCORE.INTER>
-2.18356

>  <SCORE.INTER.CONST>
1

>  <SCORE.INTER.POLAR>
-0.936083

>  <SCORE.INTER.ROT>
2

>  <SCORE.INTER.SOLV>
17.1677

>  <SCORE.INTER.VDW>
-8.99132

>  <SCORE.INTER.norm>
-0.109178

>  <SCORE.INTRA>
-0.894003

>  <SCORE.INTRA.DIHEDRAL>
-1.45736

>  <SCORE.INTRA.DIHEDRAL.0>
3.72394

>  <SCORE.INTRA.POLAR>
0

>  <SCORE.INTRA.POLAR.0>
0

>  <SCORE.INTRA.REPUL>
0

>  <SCORE.INTRA.REPUL.0>
0

>  <SCORE.INTRA.SOLV>
0.0741999

>  <SCORE.INTRA.SOLV.lig_0>
-49.4697

>  <SCORE.INTRA.VDW>
-0.202424

>  <SCORE.INTRA.VDW.0>
-0.896538

>  <SCORE.INTRA.norm>
-0.0447002

>  <SCORE.RESTR>
4.01831

>  <SCORE.RESTR.CAVITY>
4.01831

>  <SCORE.RESTR.norm>
0.200915

>  <SCORE.SYSTEM>
0

>  <SCORE.SYSTEM.CONST>
0

>  <SCORE.SYSTEM.DIHEDRAL>
0

>  <SCORE.SYSTEM.SOLV>
0

>  <SCORE.SYSTEM.norm>
0

>  <SCORE.heavy>
20

>  <SCORE.norm>
0.047037

>  <RMSD>
26.718

$$$$
1nyi_lig
 OpenBabel11021811403D
libRbt.so/2013.1/901 2013/11/27
 20 22  0  0  0  0  0  0  0  0999 V2000
   20.2894   14.1773   23.5897 C   0  0  0  0  0  0  0  0  0  0  0  0
   20.6100   15.4847   24.0650 O   0  0  0  0  0  0  0  0  0  0  0  0
   20.2725   13.1793   24.7263 C   0  0  1  0  0  0  0  0  0  0  0  0
   19.8333   11.8914   24.2159 O   0  0  0  0  0  0  0  0  0  0  0  0
   21.6579   12.9426   25.3171 C   0  0  1  0  0  0  0  0  0  0  0  0
   21.9279   13.8389   26.3960 O   0  0  0  0  0  0  0  0  0  0  0  0
   21.5813   11.4781   25.7441 C   0  0  1  0  0  0  0  0  0  0  0  0
   20.8943   11.2902   26.9722 O   0  0  0  0  0  0  0  0  0  0  0  0
   20.7698   10.8889   24.5924 C   0  0  2  0  0  0  0  0  0  0  0  0
   23.4028   12.0785   20.3332 N   0  0  0  0  0  0  0  0  0  0  0  0
   22.7811   12.9072   21.2354 C   0  0  1  0  0  0  0  0  0  0  0  0
   22.8705   14.2118   20.9726 N   0  0  0  0  0  0  0  0  0  0  0  0
   22.1195   12.4883   22.3104 N   0  0  0  0  0  0  0  0  0  0  0  0
   22.1162   11.1276   22.4188 C   0  0  1  0  0  0  0  0  0  0  0  0
   22.7103   10.2134   21.5667 C   0  0  1  0  0  0  0  0  0  0  0  0
   23.4211   10.6873   20.4290 C   0  0  0  0  0  0  0  0  0  0  0  0
   24.0146   10.0325   19.5627 O   0  0  0  0  0  0  0  0  0  0  0  0
   22.5018    8.9172   22.0200 N   0  0  0  0  0  0  0  0  0  0  0  0
   21.7963    9.0628   23.1076 C   0  0  0  0  0  0  0  0  0  0  0  0
   21.5116   10.3745   23.4181 N   0  0  1  0  0  0  0  0  0  0  0  0
  2  1  1  0  0  0  0
  3  1  1  6  0  0  0
  3  4  1  0  0  0  0
  3  5  1  0  0  0  0
  5  6  1  1  0  0  0
  5  7  1  0  0  0  0
  7  8  1  1  0  0  0
  7  9  1  0  0  0  0
  9  4  1  6  0  0  0
  9 20  1  0  0  0  0
 10 11  1  0  0  0  0
 11 12  1  6  0  0  0
 11 13  1  0  0  0  0
 14 13  1  1  0  0  0
 15 14  1  0  0  0  0
 15 16  1  1  0  0  0
 16 10  1  0  0  0  0
 16 17  2  0  0  0  0
 18 15  1  0  0  0  0
 19 18  1  0  0  0  0
 20 14  1  0  0  0  0
 20 19  1  1  0  0  0
M  END
>  <CHROM.1>
175.26127320,47.38076365,21.83258917,11.89583619,23.19524965,-2.93183416
-1.14972637,2.90657994

>  <Name>
1nyi_lig

>  <RI>
0

>  <Rbt.Current_Directory>
/home/itssahil/PROJECTS/Mol_Feturizer/New_Systems/rnas/1nyi

>  <Rbt.Executable>
rbdock ($Id: //depot/dev/client3/rdock/2013.1/src/exe/rbdock.cxx#4 $)

>  <Rbt.Library>
libRbt.so (2013.1, Build901 2013/11/27)

>  <Rbt.Parameter_File>
/export/apps/rDock/src/rDock_2013.1_src/data/scripts/dock_solv.prm

>  <Rbt.Receptor>
prm/blind_docking_40.prm

>  <SCORE>
-2.5274

>  <SCORE.INTER>
-4.0021

>  <SCORE.INTER.CONST>
1

>  <SCORE.INTER.POLAR>
0

>  <SCORE.INTER.ROT>
2

>  <SCORE.INTER.SOLV>
11.205

>  <SCORE.INTER.VDW>
-11.3364

>  <SCORE.INTER.norm>
-0.200105

>  <SCORE.INTRA>
-1.0607

>  <SCORE.INTRA.DIHEDRAL>
-2.48478

>  <SCORE.INTRA.DIHEDRAL.0>
3.72394

>  <SCORE.INTRA.POLAR>
0

>  <SCORE.INTRA.POLAR.0>
0

>  <SCORE.INTRA.REPUL>
0

>  <SCORE.INTRA.REPUL.0>
0

>  <SCORE.INTRA.SOLV>
2.16897

>  <SCORE.INTRA.SOLV.lig_0>
-49.4697

>  <SCORE.INTRA.VDW>
-0.902797

>  <SCORE.INTRA.VDW.0>
-0.896538

>  <SCORE.INTRA.norm>
-0.0530351

>  <SCORE.RESTR>
2.53541

>  <SCORE.RESTR.CAVITY>
2.53541

>  <SCORE.RESTR.norm>
0.12677

>  <SCORE.SYSTEM>
0

>  <SCORE.SYSTEM.CONST>
0

>  <SCORE.SYSTEM.DIHEDRAL>
0

>  <SCORE.SYSTEM.SOLV>
0

>  <SCORE.SYSTEM.norm>
0

>  <SCORE.heavy>
20

>  <SCORE.norm>
-0.12637

>  <RMSD>
26.728

$$$$
1nyi_lig
 OpenBabel11021811403D
libRbt.so/2013.1/901 2013/11/27
 20 22  0  0  0  0  0  0  0  0999 V2000
   20.2744   14.1809   23.5889 C   0  0  0  0  0  0  0  0  0  0  0  0
   20.6043   15.4871   24.0611 O   0  0  0  0  0  0  0  0  0  0  0  0
   20.2603   13.1838   24.7263 C   0  0  1  0  0  0  0  0  0  0  0  0
   19.8238   11.8944   24.2171 O   0  0  0  0  0  0  0  0  0  0  0  0
   21.6466   12.9505   25.3166 C   0  0  1  0  0  0  0  0  0  0  0  0
   21.9152   13.8483   26.3946 O   0  0  0  0  0  0  0  0  0  0  0  0
   21.5735   11.4863   25.7447 C   0  0  1  0  0  0  0  0  0  0  0  0
   20.8876   11.2978   26.9734 O   0  0  0  0  0  0  0  0  0  0  0  0
   20.7627   10.8943   24.5940 C   0  0  2  0  0  0  0  0  0  0  0  0
   23.4037   12.0868   20.3405 N   0  0  0  0  0  0  0  0  0  0  0  0
   22.7825   12.9149   21.2434 C   0  0  1  0  0  0  0  0  0  0  0  0
   22.8748   14.2199   20.9832 N   0  0  0  0  0  0  0  0  0  0  0  0
   22.1186   12.4954   22.3167 N   0  0  0  0  0  0  0  0  0  0  0  0
   22.1125   11.1345   22.4225 C   0  0  1  0  0  0  0  0  0  0  0  0
   22.7059   10.2207   21.5696 C   0  0  1  0  0  0  0  0  0  0  0  0
   23.4191   10.6953   20.4337 C   0  0  0  0  0  0  0  0  0  0  0  0
   24.0125   10.0409   19.5669 O   0  0  0  0  0  0  0  0  0  0  0  0
   22.4942    8.9240   22.0200 N   0  0  0  0  0  0  0  0  0  0  0  0
   21.7875    9.0690   23.1071 C   0  0  0  0  0  0  0  0  0  0  0  0
   21.5051   10.3806   23.4197 N   0  0  1  0  0  0  0  0  0  0  0  0
  2  1  1  0  0  0  0
  3  1  1  6  0  0  0
  3  4  1  0  0  0  0
  3  5  1  0  0  0  0
  5  6  1  1  0  0  0
  5  7  1  0  0  0  0
  7  8  1  1  0  0  0
  7  9  1  0  0  0  0
  9  4  1  6  0  0  0
  9 20  1  0  0  0  0
 10 11  1  0  0  0  0
 11 12  1  6  0  0  0
 11 13  1  0  0  0  0
 14 13  1  1  0  0  0
 15 14  1  0  0  0  0
 15 16  1  1  0  0  0
 16 10  1  0  0  0  0
 16 17  2  0  0  0  0
 18 15  1  0  0  0  0
 19 18  1  0  0  0  0
 20 14  1  0  0  0  0
 20 19  1  1  0  0  0
M  END
>  <CHROM.1>
175.79023571,47.68594311,21.82666095,11.90245012,23.19748395,-2.92826035
-1.14766426,2.91044423

>  <Name>
1nyi_lig

>  <RI>
0

>  <Rbt.Current_Directory>
/home/itssahil/PROJECTS/Mol_Feturizer/New_Systems/rnas/1nyi

>  <Rbt.Executable>
rbdock ($Id: //depot/dev/client3/rdock/2013.1/src/exe/rbdock.cxx#4 $)

>  <Rbt.Library>
libRbt.so (2013.1, Build901 2013/11/27)

>  <Rbt.Parameter_File>
/export/apps/rDock/src/rDock_2013.1_src/data/scripts/dock_solv.prm

>  <Rbt.Receptor>
prm/blind_docking_40.prm

>  <SCORE>
-2.46238

>  <SCORE.INTER>
-3.90348

>  <SCORE.INTER.CONST>
1

>  <SCORE.INTER.POLAR>
0

>  <SCORE.INTER.ROT>
2

>  <SCORE.INTER.SOLV>
11.196

>  <SCORE.INTER.VDW>
-11.2677

>  <SCORE.INTER.norm>
-0.195174

>  <SCORE.INTRA>
-1.07689

>  <SCORE.INTRA.DIHEDRAL>
-2.50009

>  <SCORE.INTRA.DIHEDRAL.0>
3.72394

>  <SCORE.INTRA.POLAR>
0

>  <SCORE.INTRA.POLAR.0>
0

>  <SCORE.INTRA.REPUL>
0

>  <SCORE.INTRA.REPUL.0>
0

>  <SCORE.INTRA.SOLV>
2.17728

>  <SCORE.INTRA.SOLV.lig_0>
-49.4697

>  <SCORE.INTRA.VDW>
-0.915485

>  <SCORE.INTRA.VDW.0>
-0.896538

>  <SCORE.INTRA.norm>
-0.0538444

>  <SCORE.RESTR>
2.51799

>  <SCORE.RESTR.CAVITY>
2.51799

>  <SCORE.RESTR.norm>
0.1259

>  <SCORE.SYSTEM>
0

>  <SCORE.SYSTEM.CONST>
0

>  <SCORE.SYSTEM.DIHEDRAL>
0

>  <SCORE.SYSTEM.SOLV>
0

>  <SCORE.SYSTEM.norm>
0

>  <SCORE.heavy>
20

>  <SCORE.norm>
-0.123119

>  <RMSD>
26.731

$$$$
1nyi_lig
 OpenBabel11021811403D
libRbt.so/2013.1/901 2013/11/27
 20 22  0  0  0  0  0  0  0  0999 V2000
   20.2703   14.1755   23.5787 C   0  0  0  0  0  0  0  0  0  0  0  0
   20.5987   15.4824   24.0501 O   0  0  0  0  0  0  0  0  0  0  0  0
   20.2552   13.1795   24.7170 C   0  0  1  0  0  0  0  0  0  0  0  0
   19.8209   11.8892   24.2084 O   0  0  0  0  0  0  0  0  0  0  0  0
   21.6407   12.9482   25.3099 C   0  0  1  0  0  0  0  0  0  0  0  0
   21.9066   13.8473   26.3874 O   0  0  0  0  0  0  0  0  0  0  0  0
   21.5684   11.4843   25.7393 C   0  0  1  0  0  0  0  0  0  0  0  0
   20.8806   11.2963   26.9669 O   0  0  0  0  0  0  0  0  0  0  0  0
   20.7601   10.8904   24.5877 C   0  0  2  0  0  0  0  0  0  0  0  0
   23.4138   12.0815   20.3418 N   0  0  0  0  0  0  0  0  0  0  0  0
   22.7912   12.9101   21.2434 C   0  0  1  0  0  0  0  0  0  0  0  0
   22.8858   14.2150   20.9841 N   0  0  0  0  0  0  0  0  0  0  0  0
   22.1240   12.4908   22.3148 N   0  0  0  0  0  0  0  0  0  0  0  0
   22.1159   11.1299   22.4200 C   0  0  1  0  0  0  0  0  0  0  0  0
   22.7104   10.2158   21.5681 C   0  0  1  0  0  0  0  0  0  0  0  0
   23.4273   10.6900   20.4344 C   0  0  0  0  0  0  0  0  0  0  0  0
   24.0221   10.0353   19.5689 O   0  0  0  0  0  0  0  0  0  0  0  0
   22.4960    8.9191   22.0175 N   0  0  0  0  0  0  0  0  0  0  0  0
   21.7867    9.0645   23.1027 C   0  0  0  0  0  0  0  0  0  0  0  0
   21.5049   10.3763   23.4151 N   0  0  1  0  0  0  0  0  0  0  0  0
  2  1  1  0  0  0  0
  3  1  1  6  0  0  0
  3  4  1  0  0  0  0
  3  5  1  0  0  0  0
  5  6  1  1  0  0  0
  5  7  1  0  0  0  0
  7  8  1  1  0  0  0
  7  9  1  0  0  0  0
  9  4  1  6  0  0  0
  9 20  1  0  0  0  0
 10 11  1  0  0  0  0
 11 12  1  6  0  0  0
 11 13  1  0  0  0  0
 14 13  1  1  0  0  0
 15 14  1  0  0  0  0
 15 16  1  1  0  0  0
 16 10  1  0  0  0  0
 16 17  2  0  0  0  0
 18 15  1  0  0  0  0
 19 18  1  0  0  0  0
 20 14  1  0  0  0  0
 20 19  1  1  0  0  0
M  END
>  <CHROM.1>
175.81821731,47.84582888,21.82723888,11.89826625,23.19318891,-2.92556269
-1.14464846,2.91236531

>  <Name>
1nyi_lig

>  <RI>
0

>  <Rbt.Current_Directory>
/home/itssahil/PROJECTS/Mol_Feturizer/New_Systems/rnas/1nyi

>  <Rbt.Executable>
rbdock ($Id: //depot/dev/client3/rdock/2013.1/src/exe/rbdock.cxx#4 $)

>  <Rbt.Library>
libRbt.so (2013.1, Build901 2013/11/27)

>  <Rbt.Parameter_File>
/export/apps/rDock/src/rDock_2013.1_src/data/scripts/dock_solv.prm

>  <Rbt.Receptor>
prm/blind_docking_40.prm

>  <SCORE>
-2.49441

>  <SCORE.INTER>
-3.93412

>  <SCORE.INTER.CONST>
1

>  <SCORE.INTER.POLAR>
0

>  <SCORE.INTER.ROT>
2

>  <SCORE.INTER.SOLV>
11.2065

>  <SCORE.INTER.VDW>
-11.2916

>  <SCORE.INTER.norm>
-0.196706

>  <SCORE.INTRA>
-1.08502

>  <SCORE.INTRA.DIHEDRAL>
-2.50035

>  <SCORE.INTRA.DIHEDRAL.0>
3.72394

>  <SCORE.INTRA.POLAR>
0

>  <SCORE.INTRA.POLAR.0>
0

>  <SCORE.INTRA.REPUL>
0

>  <SCORE.INTRA.REPUL.0>
0

>  <SCORE.INTRA.SOLV>
2.17554

>  <SCORE.INTRA.SOLV.lig_0>
-49.4697

>  <SCORE.INTRA.VDW>
-0.922616

>  <SCORE.INTRA.VDW.0>
-0.896538

>  <SCORE.INTRA.norm>
-0.054251

>  <SCORE.RESTR>
2.52473

>  <SCORE.RESTR.CAVITY>
2.52473

>  <SCORE.RESTR.norm>
0.126236

>  <SCORE.SYSTEM>
0

>  <SCORE.SYSTEM.CONST>
0

>  <SCORE.SYSTEM.DIHEDRAL>
0

>  <SCORE.SYSTEM.SOLV>
0

>  <SCORE.SYSTEM.norm>
0

>  <SCORE.heavy>
20

>  <SCORE.norm>
-0.124721

>  <RMSD>
26.732

$$$$
1nyi_lig
 OpenBabel11021811403D
libRbt.so/2013.1/901 2013/11/27
 20 22  0  0  0  0  0  0  0  0999 V2000
   20.2843   14.1827   23.5878 C   0  0  0  0  0  0  0  0  0  0  0  0
   20.6022   15.4910   24.0626 O   0  0  0  0  0  0  0  0  0  0  0  0
   20.2674   13.1855   24.7250 C   0  0  1  0  0  0  0  0  0  0  0  0
   19.8292   11.8969   24.2153 O   0  0  0  0  0  0  0  0  0  0  0  0
   21.6528   12.9497   25.3165 C   0  0  1  0  0  0  0  0  0  0  0  0
   21.9219   13.8469   26.3949 O   0  0  0  0  0  0  0  0  0  0  0  0
   21.5767   11.4856   25.7444 C   0  0  1  0  0  0  0  0  0  0  0  0
   20.8893   11.2981   26.9724 O   0  0  0  0  0  0  0  0  0  0  0  0
   20.7660   10.8952   24.5928 C   0  0  2  0  0  0  0  0  0  0  0  0
   23.4006   12.0834   20.3342 N   0  0  0  0  0  0  0  0  0  0  0  0
   22.7782   12.9124   21.2357 C   0  0  1  0  0  0  0  0  0  0  0  0
   22.8672   14.2169   20.9722 N   0  0  0  0  0  0  0  0  0  0  0  0
   22.1162   12.4939   22.3106 N   0  0  0  0  0  0  0  0  0  0  0  0
   22.1133   11.1332   22.4197 C   0  0  1  0  0  0  0  0  0  0  0  0
   22.7081   10.2187   21.5684 C   0  0  1  0  0  0  0  0  0  0  0  0
   23.4193   10.6923   20.4307 C   0  0  0  0  0  0  0  0  0  0  0  0
   24.0135   10.0372   19.5650 O   0  0  0  0  0  0  0  0  0  0  0  0
   22.4998    8.9227   22.0222 N   0  0  0  0  0  0  0  0  0  0  0  0
   21.7938    9.0686   23.1094 C   0  0  0  0  0  0  0  0  0  0  0  0
   21.5085   10.3804   23.4191 N   0  0  1  0  0  0  0  0  0  0  0  0
  2  1  1  0  0  0  0
  3  1  1  6  0  0  0
  3  4  1  0  0  0  0
  3  5  1  0  0  0  0
  5  6  1  1  0  0  0
  5  7  1  0  0  0  0
  7  8  1  1  0  0  0
  7  9  1  0  0  0  0
  9  4  1  6  0  0  0
  9 20  1  0  0  0  0
 10 11  1  0  0  0  0
 11 12  1  6  0  0  0
 11 13  1  0  0  0  0
 14 13  1  1  0  0  0
 15 14  1  0  0  0  0
 15 16  1  1  0  0  0
 16 10  1  0  0  0  0
 16 17  2  0  0  0  0
 18 15  1  0  0  0  0
 19 18  1  0  0  0  0
 20 14  1  0  0  0  0
 20 19  1  1  0  0  0
M  END
>  <CHROM.1>
175.18127021,47.39282715,21.82886050,11.90179187,23.19548918,-2.93269853
-1.14911194,2.90508299

>  <Name>
1nyi_lig

>  <RI>
0

>  <Rbt.Current_Directory>
/home/itssahil/PROJECTS/Mol_Feturizer/New_Systems/rnas/1nyi

>  <Rbt.Executable>
rbdock ($Id: //depot/dev/client3/rdock/2013.1/src/exe/rbdock.cxx#4 $)

>  <Rbt.Library>
libRbt.so (2013.1, Build901 2013/11/27)

>  <Rbt.Parameter_File>
/export/apps/rDock/src/rDock_2013.1_src/data/scripts/dock_solv.prm

>  <Rbt.Receptor>
prm/blind_docking_40.prm

>  <SCORE>
-2.4801

>  <SCORE.INTER>
-3.94194

>  <SCORE.INTER.CONST>
1

>  <SCORE.INTER.POLAR>
0

>  <SCORE.INTER.ROT>
2

>  <SCORE.INTER.SOLV>
11.1808

>  <SCORE.INTER.VDW>
-11.2882

>  <SCORE.INTER.norm>
-0.197097

>  <SCORE.INTRA>
-1.06113

>  <SCORE.INTRA.DIHEDRAL>
-2.4821

>  <SCORE.INTRA.DIHEDRAL.0>
3.72394

>  <SCORE.INTRA.POLAR>
0

>  <SCORE.INTRA.POLAR.0>
0

>  <SCORE.INTRA.REPUL>
0

>  <SCORE.INTRA.REPUL.0>
0

>  <SCORE.INTRA.SOLV>
2.16688

>  <SCORE.INTRA.SOLV.lig_0>
-49.4697

>  <SCORE.INTRA.VDW>
-0.903519

>  <SCORE.INTRA.VDW.0>
-0.896538

>  <SCORE.INTRA.norm>
-0.0530565

>  <SCORE.RESTR>
2.52297

>  <SCORE.RESTR.CAVITY>
2.52297

>  <SCORE.RESTR.norm>
0.126148

>  <SCORE.SYSTEM>
0

>  <SCORE.SYSTEM.CONST>
0

>  <SCORE.SYSTEM.DIHEDRAL>
0

>  <SCORE.SYSTEM.SOLV>
0

>  <SCORE.SYSTEM.norm>
0

>  <SCORE.heavy>
20

>  <SCORE.norm>
-0.124005

>  <RMSD>
26.732

$$$$
1nyi_lig
 OpenBabel11021811403D
libRbt.so/2013.1/901 2013/11/27
 20 22  0  0  0  0  0  0  0  0999 V2000
   20.2862   14.1863   23.5852 C   0  0  0  0  0  0  0  0  0  0  0  0
   20.6003   15.4950   24.0612 O   0  0  0  0  0  0  0  0  0  0  0  0
   20.2656   13.1892   24.7226 C   0  0  1  0  0  0  0  0  0  0  0  0
   19.8264   11.9013   24.2121 O   0  0  0  0  0  0  0  0  0  0  0  0
   21.6493   12.9515   25.3169 C   0  0  1  0  0  0  0  0  0  0  0  0
   21.9176   13.8484   26.3957 O   0  0  0  0  0  0  0  0  0  0  0  0
   21.5702   11.4875   25.7449 C   0  0  1  0  0  0  0  0  0  0  0  0
   20.8800   11.3012   26.9715 O   0  0  0  0  0  0  0  0  0  0  0  0
   20.7609   10.8981   24.5917 C   0  0  2  0  0  0  0  0  0  0  0  0
   23.4025   12.0817   20.3361 N   0  0  0  0  0  0  0  0  0  0  0  0
   22.7790   12.9117   21.2359 C   0  0  1  0  0  0  0  0  0  0  0  0
   22.8690   14.2159   20.9715 N   0  0  0  0  0  0  0  0  0  0  0  0
   22.1152   12.4943   22.3101 N   0  0  0  0  0  0  0  0  0  0  0  0
   22.1116   11.1338   22.4204 C   0  0  1  0  0  0  0  0  0  0  0  0
   22.7073   10.2183   21.5708 C   0  0  1  0  0  0  0  0  0  0  0  0
   23.4204   10.6906   20.4339 C   0  0  0  0  0  0  0  0  0  0  0  0
   24.0157   10.0345   19.5696 O   0  0  0  0  0  0  0  0  0  0  0  0
   22.4979    8.9227   22.0254 N   0  0  0  0  0  0  0  0  0  0  0  0
   21.7902    9.0699   23.1115 C   0  0  0  0  0  0  0  0  0  0  0  0
   21.5050   10.3821   23.4196 N   0  0  1  0  0  0  0  0  0  0  0  0
  2  1  1  0  0  0  0
  3  1  1  6  0  0  0
  3  4  1  0  0  0  0
  3  5  1  0  0  0  0
  5  6  1  1  0  0  0
  5  7  1  0  0  0  0
  7  8  1  1  0  0  0
  7  9  1  0  0  0  0
  9  4  1  6  0  0  0
  9 20  1  0  0  0  0
 10 11  1  0  0  0  0
 11 12  1  6  0  0  0
 11 13  1  0  0  0  0
 14 13  1  1  0  0  0
 15 14  1  0  0  0  0
 15 16  1  1  0  0  0
 16 10  1  0  0  0  0
 16 17  2  0  0  0  0
 18 15  1  0  0  0  0
 19 18  1  0  0  0  0
 20 14  1  0  0  0  0
 20 19  1  1  0  0  0
M  END
>  <CHROM.1>
174.96505289,47.31098986,21.82690459,11.90298601,23.19585345,-2.93058045
-1.14803124,2.90640542

>  <Name>
1nyi_lig

>  <RI>
0

>  <Rbt.Current_Directory>
/home/itssahil/PROJECTS/Mol_Feturizer/New_Systems/rnas/1nyi

>  <Rbt.Executable>
rbdock ($Id: //depot/dev/client3/rdock/2013.1/src/exe/rbdock.cxx#4 $)

>  <Rbt.Library>
libRbt.so (2013.1, Build901 2013/11/27)

>  <Rbt.Parameter_File>
/export/apps/rDock/src/rDock_2013.1_src/data/scripts/dock_solv.prm

>  <Rbt.Receptor>
prm/blind_docking_40.prm

>  <SCORE>
-2.45511

>  <SCORE.INTER>
-3.91349

>  <SCORE.INTER.CONST>
1

>  <SCORE.INTER.POLAR>
0

>  <SCORE.INTER.ROT>
2

>  <SCORE.INTER.SOLV>
11.1758

>  <SCORE.INTER.VDW>
-11.2676

>  <SCORE.INTER.norm>
-0.195675

>  <SCORE.INTRA>
-1.0563

>  <SCORE.INTRA.DIHEDRAL>
-2.47502

>  <SCORE.INTRA.DIHEDRAL.0>
3.72394

>  <SCORE.INTRA.POLAR>
0

>  <SCORE.INTRA.POLAR.0>
0

>  <SCORE.INTRA.REPUL>
0

>  <SCORE.INTRA.REPUL.0>
0

>  <SCORE.INTRA.SOLV>
2.16286

>  <SCORE.INTRA.SOLV.lig_0>
-49.4697

>  <SCORE.INTRA.VDW>
-0.900226

>  <SCORE.INTRA.VDW.0>
-0.896538

>  <SCORE.INTRA.norm>
-0.0528152

>  <SCORE.RESTR>
2.51468

>  <SCORE.RESTR.CAVITY>
2.51468

>  <SCORE.RESTR.norm>
0.125734

>  <SCORE.SYSTEM>
0

>  <SCORE.SYSTEM.CONST>
0

>  <SCORE.SYSTEM.DIHEDRAL>
0

>  <SCORE.SYSTEM.SOLV>
0

>  <SCORE.SYSTEM.norm>
0

>  <SCORE.heavy>
20

>  <SCORE.norm>
-0.122756

>  <RMSD>
26.733

$$$$
1nyi_lig
 OpenBabel11021811403D
libRbt.so/2013.1/901 2013/11/27
 20 22  0  0  0  0  0  0  0  0999 V2000
   20.2823   14.1710   23.5613 C   0  0  0  0  0  0  0  0  0  0  0  0
   20.5630   15.4866   24.0394 O   0  0  0  0  0  0  0  0  0  0  0  0
   20.2640   13.1757   24.7003 C   0  0  1  0  0  0  0  0  0  0  0  0
   19.8255   11.8865   24.1924 O   0  0  0  0  0  0  0  0  0  0  0  0
   21.6487   12.9403   25.2934 C   0  0  1  0  0  0  0  0  0  0  0  0
   21.9174   13.8392   26.3704 O   0  0  0  0  0  0  0  0  0  0  0  0
   21.5716   11.4769   25.7237 C   0  0  1  0  0  0  0  0  0  0  0  0
   20.8831   11.2919   26.9514 O   0  0  0  0  0  0  0  0  0  0  0  0
   20.7615   10.8849   24.5724 C   0  0  2  0  0  0  0  0  0  0  0  0
   23.3891   12.0643   20.3070 N   0  0  0  0  0  0  0  0  0  0  0  0
   22.7648   12.8949   21.2056 C   0  0  1  0  0  0  0  0  0  0  0  0
   22.8495   14.1986   20.9368 N   0  0  0  0  0  0  0  0  0  0  0  0
   22.1050   12.4786   22.2827 N   0  0  0  0  0  0  0  0  0  0  0  0
   22.1065   11.1185   22.3973 C   0  0  1  0  0  0  0  0  0  0  0  0
   22.7035   10.2024   21.5492 C   0  0  1  0  0  0  0  0  0  0  0  0
   23.4123   10.6736   20.4092 C   0  0  0  0  0  0  0  0  0  0  0  0
   24.0079   10.0169   19.5457 O   0  0  0  0  0  0  0  0  0  0  0  0
   22.4997    8.9075   22.0085 N   0  0  0  0  0  0  0  0  0  0  0  0
   21.7940    9.0556   23.0957 C   0  0  0  0  0  0  0  0  0  0  0  0
   21.5048   10.3678   23.4003 N   0  0  1  0  0  0  0  0  0  0  0  0
  2  1  1  0  0  0  0
  3  1  1  6  0  0  0
  3  4  1  0  0  0  0
  3  5  1  0  0  0  0
  5  6  1  1  0  0  0
  5  7  1  0  0  0  0
  7  8  1  1  0  0  0
  7  9  1  0  0  0  0
  9  4  1  6  0  0  0
  9 20  1  0  0  0  0
 10 11  1  0  0  0  0
 11 12  1  6  0  0  0
 11 13  1  0  0  0  0
 14 13  1  1  0  0  0
 15 14  1  0  0  0  0
 15 16  1  1  0  0  0
 16 10  1  0  0  0  0
 16 17  2  0  0  0  0
 18 15  1  0  0  0  0
 19 18  1  0  0  0  0
 20 14  1  0  0  0  0
 20 19  1  1  0  0  0
M  END
>  <CHROM.1>
173.52896994,47.12823987,21.82096688,11.88896512,23.17268494,-2.94222570
-1.14980130,2.89197617

>  <Name>
1nyi_lig

>  <RI>
0

>  <Rbt.Current_Directory>
/home/itssahil/PROJECTS/Mol_Feturizer/New_Systems/rnas/1nyi

>  <Rbt.Executable>
rbdock ($Id: //depot/dev/client3/rdock/2013.1/src/exe/rbdock.cxx#4 $)

>  <Rbt.Library>
libRbt.so (2013.1, Build901 2013/11/27)

>  <Rbt.Parameter_File>
/export/apps/rDock/src/rDock_2013.1_src/data/scripts/dock_solv.prm

>  <Rbt.Receptor>
prm/blind_docking_40.prm

>  <SCORE>
-2.79413

>  <SCORE.INTER>
-4.37303

>  <SCORE.INTER.CONST>
1

>  <SCORE.INTER.POLAR>
0

>  <SCORE.INTER.ROT>
2

>  <SCORE.INTER.SOLV>
10.9407

>  <SCORE.INTER.VDW>
-11.4956

>  <SCORE.INTER.norm>
-0.218652

>  <SCORE.INTRA>
-1.03808

>  <SCORE.INTRA.DIHEDRAL>
-2.41855

>  <SCORE.INTRA.DIHEDRAL.0>
3.72394

>  <SCORE.INTRA.POLAR>
0

>  <SCORE.INTRA.POLAR.0>
0

>  <SCORE.INTRA.REPUL>
0

>  <SCORE.INTRA.REPUL.0>
0

>  <SCORE.INTRA.SOLV>
2.13131

>  <SCORE.INTRA.SOLV.lig_0>
-49.4697

>  <SCORE.INTRA.VDW>
-0.894458

>  <SCORE.INTRA.VDW.0>
-0.896538

>  <SCORE.INTRA.norm>
-0.0519038

>  <SCORE.RESTR>
2.61697

>  <SCORE.RESTR.CAVITY>
2.61697

>  <SCORE.RESTR.norm>
0.130849

>  <SCORE.SYSTEM>
0

>  <SCORE.SYSTEM.CONST>
0

>  <SCORE.SYSTEM.DIHEDRAL>
0

>  <SCORE.SYSTEM.SOLV>
0

>  <SCORE.SYSTEM.norm>
0

>  <SCORE.heavy>
20

>  <SCORE.norm>
-0.139707

>  <RMSD>
26.742

$$$$
1nyi_lig
 OpenBabel11021811403D
libRbt.so/2013.1/901 2013/11/27
 20 22  0  0  0  0  0  0  0  0999 V2000
   27.1007   -5.2014   20.8578 C   0  0  0  0  0  0  0  0  0  0  0  0
   27.5436   -4.2066   21.7810 O   0  0  0  0  0  0  0  0  0  0  0  0
   25.6416   -5.0042   20.5112 C   0  0  1  0  0  0  0  0  0  0  0  0
   25.5320   -3.9515   19.5153 O   0  0  0  0  0  0  0  0  0  0  0  0
   25.0186   -6.2431   19.8775 C   0  0  1  0  0  0  0  0  0  0  0  0
   24.4441   -7.1033   20.8626 O   0  0  0  0  0  0  0  0  0  0  0  0
   23.9923   -5.6366   18.9228 C   0  0  1  0  0  0  0  0  0  0  0  0
   22.8003   -5.2236   19.5740 O   0  0  0  0  0  0  0  0  0  0  0  0
   24.7622   -4.4197   18.4144 C   0  0  2  0  0  0  0  0  0  0  0  0
   26.6388   -2.2079   14.1629 N   0  0  0  0  0  0  0  0  0  0  0  0
   25.7916   -1.6930   15.1138 C   0  0  1  0  0  0  0  0  0  0  0  0
   25.3949   -0.4361   14.9088 N   0  0  0  0  0  0  0  0  0  0  0  0
   25.3635   -2.3606   16.1814 N   0  0  0  0  0  0  0  0  0  0  0  0
   25.8554   -3.6331   16.2279 C   0  0  1  0  0  0  0  0  0  0  0  0
   26.7095   -4.2395   15.3237 C   0  0  1  0  0  0  0  0  0  0  0  0
   27.1614   -3.5006   14.1950 C   0  0  0  0  0  0  0  0  0  0  0  0
   27.9208   -3.8651   13.2884 O   0  0  0  0  0  0  0  0  0  0  0  0
   26.9988   -5.5384   15.7216 N   0  0  0  0  0  0  0  0  0  0  0  0
   26.3265   -5.6966   16.8284 C   0  0  0  0  0  0  0  0  0  0  0  0
   25.5985   -4.5888   17.2037 N   0  0  1  0  0  0  0  0  0  0  0  0
  2  1  1  0  0  0  0
  3  1  1  6  0  0  0
  3  4  1  0  0  0  0
  3  5  1  0  0  0  0
  5  6  1  1  0  0  0
  5  7  1  0  0  0  0
  7  8  1  1  0  0  0
  7  9  1  0  0  0  0
  9  4  1  1  0  0  0
  9 20  1  0  0  0  0
 10 11  1  0  0  0  0
 11 12  1  6  0  0  0
 11 13  1  0  0  0  0
 14 13  1  1  0  0  0
 15 14  1  0  0  0  0
 15 16  1  1  0  0  0
 16 10  1  0  0  0  0
 16 17  2  0  0  0  0
 18 15  1  0  0  0  0
 19 18  1  0  0  0  0
 20 14  1  0  0  0  0
 20 19  1  1  0  0  0
M  END
>  <CHROM.1>
79.97396965,-89.86861401,25.82466363,-4.26106571,17.54402304,-1.85475708
0.77963893,-0.93527350

>  <Name>
1nyi_lig

>  <RI>
0

>  <Rbt.Current_Directory>
/home/itssahil/PROJECTS/Mol_Feturizer/New_Systems/rnas/1nyi

>  <Rbt.Executable>
rbdock ($Id: //depot/dev/client3/rdock/2013.1/src/exe/rbdock.cxx#4 $)

>  <Rbt.Library>
libRbt.so (2013.1, Build901 2013/11/27)

>  <Rbt.Parameter_File>
/export/apps/rDock/src/rDock_2013.1_src/data/scripts/dock_solv.prm

>  <Rbt.Receptor>
prm/blind_docking_100.prm

>  <SCORE>
-1.05094

>  <SCORE.INTER>
-5.83205

>  <SCORE.INTER.CONST>
1

>  <SCORE.INTER.POLAR>
-1.29425

>  <SCORE.INTER.ROT>
2

>  <SCORE.INTER.SOLV>
14.8972

>  <SCORE.INTER.VDW>
-9.47293

>  <SCORE.INTER.norm>
-0.291602

>  <SCORE.INTRA>
-1.37877

>  <SCORE.INTRA.DIHEDRAL>
-1.26668

>  <SCORE.INTRA.DIHEDRAL.0>
3.72394

>  <SCORE.INTRA.POLAR>
0

>  <SCORE.INTRA.POLAR.0>
0

>  <SCORE.INTRA.REPUL>
0

>  <SCORE.INTRA.REPUL.0>
0

>  <SCORE.INTRA.SOLV>
-0.886859

>  <SCORE.INTRA.SOLV.lig_0>
-49.4697

>  <SCORE.INTRA.VDW>
-0.301996

>  <SCORE.INTRA.VDW.0>
-0.896538

>  <SCORE.INTRA.norm>
-0.0689383

>  <SCORE.RESTR>
6.15988

>  <SCORE.RESTR.CAVITY>
6.15988

>  <SCORE.RESTR.norm>
0.307994

>  <SCORE.SYSTEM>
0

>  <SCORE.SYSTEM.CONST>
0

>  <SCORE.SYSTEM.DIHEDRAL>
0

>  <SCORE.SYSTEM.SOLV>
0

>  <SCORE.SYSTEM.norm>
0

>  <SCORE.heavy>
20

>  <SCORE.norm>
-0.0525469

>  <RMSD>
26.743

$$$$
1nyi_lig
 OpenBabel11021811403D
libRbt.so/2013.1/901 2013/11/27
 20 22  0  0  0  0  0  0  0  0999 V2000
   19.8467   14.6613   23.9517 C   0  0  0  0  0  0  0  0  0  0  0  0
   19.8941   15.7351   24.8912 O   0  0  0  0  0  0  0  0  0  0  0  0
   20.0347   13.3298   24.6446 C   0  0  1  0  0  0  0  0  0  0  0  0
   19.8938   12.2651   23.6654 O   0  0  0  0  0  0  0  0  0  0  0  0
   21.4312   13.1700   25.2352 C   0  0  1  0  0  0  0  0  0  0  0  0
   21.4859   13.6344   26.5848 O   0  0  0  0  0  0  0  0  0  0  0  0
   21.6714   11.6682   25.0955 C   0  0  1  0  0  0  0  0  0  0  0  0
   21.0274   10.9040   26.1040 O   0  0  0  0  0  0  0  0  0  0  0  0
   21.0221   11.4019   23.7392 C   0  0  2  0  0  0  0  0  0  0  0  0
   23.5008    8.9012   19.9853 N   0  0  0  0  0  0  0  0  0  0  0  0
   22.7793    8.3987   21.0408 C   0  0  1  0  0  0  0  0  0  0  0  0
   22.7085    7.0683   21.1059 N   0  0  0  0  0  0  0  0  0  0  0  0
   22.1769    9.1435   21.9634 N   0  0  0  0  0  0  0  0  0  0  0  0
   22.3618   10.4793   21.7521 C   0  0  1  0  0  0  0  0  0  0  0  0
   23.0675   11.0797   20.7244 C   0  0  1  0  0  0  0  0  0  0  0  0
   23.6944   10.2611   19.7440 C   0  0  0  0  0  0  0  0  0  0  0  0
   24.3596   10.6087   18.7600 O   0  0  0  0  0  0  0  0  0  0  0  0
   23.0154   12.4629   20.8398 N   0  0  0  0  0  0  0  0  0  0  0  0
   22.3033   12.6728   21.9126 C   0  0  0  0  0  0  0  0  0  0  0  0
   21.8724   11.5202   22.5322 N   0  0  1  0  0  0  0  0  0  0  0  0
  2  1  1  0  0  0  0
  3  1  1  6  0  0  0
  3  4  1  0  0  0  0
  3  5  1  0  0  0  0
  5  6  1  1  0  0  0
  5  7  1  0  0  0  0
  7  8  1  1  0  0  0
  7  9  1  0  0  0  0
  9  4  1  6  0  0  0
  9 20  1  0  0  0  0
 10 11  1  0  0  0  0
 11 12  1  1  0  0  0
 11 13  1  0  0  0  0
 14 13  1  6  0  0  0
 15 14  1  0  0  0  0
 15 16  1  6  0  0  0
 16 10  1  0  0  0  0
 16 17  2  0  0  0  0
 18 15  1  0  0  0  0
 19 18  1  0  0  0  0
 20 14  1  0  0  0  0
 20 19  1  6  0  0  0
M  END
>  <CHROM.1>
176.38572133,-130.70947095,21.87763037,11.52096690,22.76895827,-2.80215634
-1.14209847,2.79484284

>  <Name>
1nyi_lig

>  <RI>
0

>  <Rbt.Current_Directory>
/home/itssahil/PROJECTS/Mol_Feturizer/New_Systems/rnas/1nyi

>  <Rbt.Executable>
rbdock ($Id: //depot/dev/client3/rdock/2013.1/src/exe/rbdock.cxx#4 $)

>  <Rbt.Library>
libRbt.so (2013.1, Build901 2013/11/27)

>  <Rbt.Parameter_File>
/export/apps/rDock/src/rDock_2013.1_src/data/scripts/dock_solv.prm

>  <Rbt.Receptor>
prm/blind_docking_40.prm

>  <SCORE>
-2.33773

>  <SCORE.INTER>
-3.30302

>  <SCORE.INTER.CONST>
1

>  <SCORE.INTER.POLAR>
0

>  <SCORE.INTER.ROT>
2

>  <SCORE.INTER.SOLV>
10.812

>  <SCORE.INTER.VDW>
-10.7393

>  <SCORE.INTER.norm>
-0.165151

>  <SCORE.INTRA>
-1.97997

>  <SCORE.INTRA.DIHEDRAL>
-2.40803

>  <SCORE.INTRA.DIHEDRAL.0>
3.72394

>  <SCORE.INTRA.POLAR>
0

>  <SCORE.INTRA.POLAR.0>
0

>  <SCORE.INTRA.REPUL>
0

>  <SCORE.INTRA.REPUL.0>
0

>  <SCORE.INTRA.SOLV>
-0.666306

>  <SCORE.INTRA.SOLV.lig_0>
-49.4697

>  <SCORE.INTRA.VDW>
-0.442803

>  <SCORE.INTRA.VDW.0>
-0.896538

>  <SCORE.INTRA.norm>
-0.0989986

>  <SCORE.RESTR>
2.94525

>  <SCORE.RESTR.CAVITY>
2.94525

>  <SCORE.RESTR.norm>
0.147263

>  <SCORE.SYSTEM>
0

>  <SCORE.SYSTEM.CONST>
0

>  <SCORE.SYSTEM.DIHEDRAL>
0

>  <SCORE.SYSTEM.SOLV>
0

>  <SCORE.SYSTEM.norm>
0

>  <SCORE.heavy>
20

>  <SCORE.norm>
-0.116887

>  <RMSD>
26.743

$$$$
1nyi_lig
 OpenBabel11021811403D
libRbt.so/2013.1/901 2013/11/27
 20 22  0  0  0  0  0  0  0  0999 V2000
   20.0003   14.7898   23.9236 C   0  0  0  0  0  0  0  0  0  0  0  0
   20.2130   15.8447   24.8617 O   0  0  0  0  0  0  0  0  0  0  0  0
   20.0931   13.4399   24.5999 C   0  0  1  0  0  0  0  0  0  0  0  0
   19.9129   12.3994   23.6014 O   0  0  0  0  0  0  0  0  0  0  0  0
   21.4635   13.1893   25.2195 C   0  0  1  0  0  0  0  0  0  0  0  0
   21.5136   13.6305   26.5771 O   0  0  0  0  0  0  0  0  0  0  0  0
   21.6180   11.6780   25.0621 C   0  0  1  0  0  0  0  0  0  0  0  0
   20.9064   10.9392   26.0437 O   0  0  0  0  0  0  0  0  0  0  0  0
   20.9863   11.4698   23.6874 C   0  0  2  0  0  0  0  0  0  0  0  0
   23.4818    8.8712   20.0121 N   0  0  0  0  0  0  0  0  0  0  0  0
   22.7186    8.3975   21.0514 C   0  0  1  0  0  0  0  0  0  0  0  0
   22.6053    7.0704   21.1220 N   0  0  0  0  0  0  0  0  0  0  0  0
   22.1161    9.1661   21.9542 N   0  0  0  0  0  0  0  0  0  0  0  0
   22.3472   10.4943   21.7404 C   0  0  1  0  0  0  0  0  0  0  0  0
   23.0970   11.0665   20.7279 C   0  0  1  0  0  0  0  0  0  0  0  0
   23.7232   10.2230   19.7684 C   0  0  0  0  0  0  0  0  0  0  0  0
   24.4237   10.5439   18.7999 O   0  0  0  0  0  0  0  0  0  0  0  0
   23.0844   12.4513   20.8344 N   0  0  0  0  0  0  0  0  0  0  0  0
   22.3521   12.6895   21.8874 C   0  0  0  0  0  0  0  0  0  0  0  0
   21.8703   11.5545   22.5020 N   0  0  1  0  0  0  0  0  0  0  0  0
  2  1  1  0  0  0  0
  3  1  1  6  0  0  0
  3  4  1  0  0  0  0
  3  5  1  0  0  0  0
  5  6  1  1  0  0  0
  5  7  1  0  0  0  0
  7  8  1  1  0  0  0
  7  9  1  0  0  0  0
  9  4  1  6  0  0  0
  9 20  1  0  0  0  0
 10 11  1  0  0  0  0
 11 12  1  1  0  0  0
 11 13  1  0  0  0  0
 14 13  1  6  0  0  0
 15 14  1  0  0  0  0
 15 16  1  6  0  0  0
 16 10  1  0  0  0  0
 16 17  2  0  0  0  0
 18 15  1  0  0  0  0
 19 18  1  0  0  0  0
 20 14  1  0  0  0  0
 20 19  1  6  0  0  0
M  END
>  <CHROM.1>
-178.21249789,-132.72997391,21.89869156,11.54905347,22.75370223,-2.67715489
-1.13337278,2.91361539

>  <Name>
1nyi_lig

>  <RI>
0

>  <Rbt.Current_Directory>
/home/itssahil/PROJECTS/Mol_Feturizer/New_Systems/rnas/1nyi

>  <Rbt.Executable>
rbdock ($Id: //depot/dev/client3/rdock/2013.1/src/exe/rbdock.cxx#4 $)

>  <Rbt.Library>
libRbt.so (2013.1, Build901 2013/11/27)

>  <Rbt.Parameter_File>
/export/apps/rDock/src/rDock_2013.1_src/data/scripts/dock_solv.prm

>  <Rbt.Receptor>
prm/blind_docking_40.prm

>  <SCORE>
-2.32036

>  <SCORE.INTER>
-3.23425

>  <SCORE.INTER.CONST>
1

>  <SCORE.INTER.POLAR>
0

>  <SCORE.INTER.ROT>
2

>  <SCORE.INTER.SOLV>
10.7575

>  <SCORE.INTER.VDW>
-10.6753

>  <SCORE.INTER.norm>
-0.161712

>  <SCORE.INTRA>
-1.93864

>  <SCORE.INTRA.DIHEDRAL>
-2.43105

>  <SCORE.INTRA.DIHEDRAL.0>
3.72394

>  <SCORE.INTRA.POLAR>
0

>  <SCORE.INTRA.POLAR.0>
0

>  <SCORE.INTRA.REPUL>
0

>  <SCORE.INTRA.REPUL.0>
0

>  <SCORE.INTRA.SOLV>
-0.63738

>  <SCORE.INTRA.SOLV.lig_0>
-49.4697

>  <SCORE.INTRA.VDW>
-0.404428

>  <SCORE.INTRA.VDW.0>
-0.896538

>  <SCORE.INTRA.norm>
-0.0969321

>  <SCORE.RESTR>
2.85253

>  <SCORE.RESTR.CAVITY>
2.85253

>  <SCORE.RESTR.norm>
0.142626

>  <SCORE.SYSTEM>
0

>  <SCORE.SYSTEM.CONST>
0

>  <SCORE.SYSTEM.DIHEDRAL>
0

>  <SCORE.SYSTEM.SOLV>
0

>  <SCORE.SYSTEM.norm>
0

>  <SCORE.heavy>
20

>  <SCORE.norm>
-0.116018

>  <RMSD>
26.765

$$$$
1nyi_lig
 OpenBabel11021811403D
libRbt.so/2013.1/901 2013/11/27
 20 22  0  0  0  0  0  0  0  0999 V2000
   21.8854    7.6603   23.1312 C   0  0  0  0  0  0  0  0  0  0  0  0
   22.6286    6.8189   24.0130 O   0  0  0  0  0  0  0  0  0  0  0  0
   22.4495    9.0638   23.1217 C   0  0  1  0  0  0  0  0  0  0  0  0
   23.6667    9.0769   22.3276 O   0  0  0  0  0  0  0  0  0  0  0  0
   21.5105   10.0668   22.4608 C   0  0  1  0  0  0  0  0  0  0  0  0
   20.6259   10.6619   23.4114 O   0  0  0  0  0  0  0  0  0  0  0  0
   22.4873   11.0579   21.8313 C   0  0  1  0  0  0  0  0  0  0  0  0
   23.0175   11.9876   22.7642 O   0  0  0  0  0  0  0  0  0  0  0  0
   23.5847   10.1098   21.3528 C   0  0  2  0  0  0  0  0  0  0  0  0
   22.8155    5.9000   18.4936 N   0  0  0  0  0  0  0  0  0  0  0  0
   22.8959    6.0253   19.8592 C   0  0  1  0  0  0  0  0  0  0  0  0
   22.7546    4.8923   20.5488 N   0  0  0  0  0  0  0  0  0  0  0  0
   23.1027    7.1727   20.4990 N   0  0  0  0  0  0  0  0  0  0  0  0
   23.2375    8.2265   19.6419 C   0  0  1  0  0  0  0  0  0  0  0  0
   23.1724    8.2018   18.2599 C   0  0  1  0  0  0  0  0  0  0  0  0
   22.9399    6.9632   17.5995 C   0  0  0  0  0  0  0  0  0  0  0  0
   22.8475    6.7420   16.3854 O   0  0  0  0  0  0  0  0  0  0  0  0
   23.3414    9.4788   17.7407 N   0  0  0  0  0  0  0  0  0  0  0  0
   23.5093   10.2364   18.7894 C   0  0  0  0  0  0  0  0  0  0  0  0
   23.4676    9.5534   19.9851 N   0  0  1  0  0  0  0  0  0  0  0  0
  2  1  1  0  0  0  0
  3  1  1  6  0  0  0
  3  4  1  0  0  0  0
  3  5  1  0  0  0  0
  5  6  1  1  0  0  0
  5  7  1  0  0  0  0
  7  8  1  1  0  0  0
  7  9  1  0  0  0  0
  9  4  1  1  0  0  0
  9 20  1  0  0  0  0
 10 11  1  0  0  0  0
 11 12  1  6  0  0  0
 11 13  1  0  0  0  0
 14 13  1  1  0  0  0
 15 14  1  0  0  0  0
 15 16  1  1  0  0  0
 16 10  1  0  0  0  0
 16 17  2  0  0  0  0
 18 15  1  0  0  0  0
 19 18  1  0  0  0  0
 20 14  1  0  0  0  0
 20 19  1  1  0  0  0
M  END
>  <CHROM.1>
76.33365759,10.29509342,22.78834334,8.51413683,20.66577915,2.36491345,1.38158431
0.21921167

>  <Name>
1nyi_lig

>  <RI>
0

>  <Rbt.Current_Directory>
/home/itssahil/PROJECTS/Mol_Feturizer/New_Systems/rnas/1nyi

>  <Rbt.Executable>
rbdock ($Id: //depot/dev/client3/rdock/2013.1/src/exe/rbdock.cxx#4 $)

>  <Rbt.Library>
libRbt.so (2013.1, Build901 2013/11/27)

>  <Rbt.Parameter_File>
/export/apps/rDock/src/rDock_2013.1_src/data/scripts/dock_solv.prm

>  <Rbt.Receptor>
prm/blind_docking_60.prm

>  <SCORE>
-2.88658

>  <SCORE.INTER>
-4.58229

>  <SCORE.INTER.CONST>
1

>  <SCORE.INTER.POLAR>
0

>  <SCORE.INTER.ROT>
2

>  <SCORE.INTER.SOLV>
10.4352

>  <SCORE.INTER.VDW>
-11.4666

>  <SCORE.INTER.norm>
-0.229115

>  <SCORE.INTRA>
-0.734181

>  <SCORE.INTRA.DIHEDRAL>
-1.62682

>  <SCORE.INTRA.DIHEDRAL.0>
3.72394

>  <SCORE.INTRA.POLAR>
0

>  <SCORE.INTRA.POLAR.0>
0

>  <SCORE.INTRA.REPUL>
0

>  <SCORE.INTRA.REPUL.0>
0

>  <SCORE.INTRA.SOLV>
1.6845

>  <SCORE.INTRA.SOLV.lig_0>
-49.4697

>  <SCORE.INTRA.VDW>
-0.763017

>  <SCORE.INTRA.VDW.0>
-0.896538

>  <SCORE.INTRA.norm>
-0.0367091

>  <SCORE.RESTR>
2.42989

>  <SCORE.RESTR.CAVITY>
2.42989

>  <SCORE.RESTR.norm>
0.121494

>  <SCORE.SYSTEM>
0

>  <SCORE.SYSTEM.CONST>
0

>  <SCORE.SYSTEM.DIHEDRAL>
0

>  <SCORE.SYSTEM.SOLV>
0

>  <SCORE.SYSTEM.norm>
0

>  <SCORE.heavy>
20

>  <SCORE.norm>
-0.144329

>  <RMSD>
26.765

$$$$
1nyi_lig
 OpenBabel11021811403D
libRbt.so/2013.1/901 2013/11/27
 20 22  0  0  0  0  0  0  0  0999 V2000
   22.1660    6.1742   23.7599 C   0  0  0  0  0  0  0  0  0  0  0  0
   20.9762    6.5406   24.4586 O   0  0  0  0  0  0  0  0  0  0  0  0
   21.8754    5.1177   22.7170 C   0  0  1  0  0  0  0  0  0  0  0  0
   21.2770    5.7542   21.5556 O   0  0  0  0  0  0  0  0  0  0  0  0
   23.1398    4.4325   22.2108 C   0  0  1  0  0  0  0  0  0  0  0  0
   23.4533    3.2732   22.9842 O   0  0  0  0  0  0  0  0  0  0  0  0
   22.7795    4.1199   20.7599 C   0  0  1  0  0  0  0  0  0  0  0  0
   21.9582    2.9698   20.6244 O   0  0  0  0  0  0  0  0  0  0  0  0
   21.9928    5.3744   20.3864 C   0  0  2  0  0  0  0  0  0  0  0  0
   23.4521    7.8413   16.1116 N   0  0  0  0  0  0  0  0  0  0  0  0
   22.7151    6.6899   16.2468 C   0  0  1  0  0  0  0  0  0  0  0  0
   22.3177    6.1255   15.1055 N   0  0  0  0  0  0  0  0  0  0  0  0
   22.3957    6.1330   17.4115 N   0  0  0  0  0  0  0  0  0  0  0  0
   22.8928    6.8321   18.4733 C   0  0  1  0  0  0  0  0  0  0  0  0
   23.6414    7.9954   18.4397 C   0  0  1  0  0  0  0  0  0  0  0  0
   23.9612    8.5771   17.1814 C   0  0  0  0  0  0  0  0  0  0  0  0
   24.6107    9.6047   16.9496 O   0  0  0  0  0  0  0  0  0  0  0  0
   23.9480    8.4155   19.7276 N   0  0  0  0  0  0  0  0  0  0  0  0
   23.4006    7.5187   20.5009 C   0  0  0  0  0  0  0  0  0  0  0  0
   22.7453    6.5170   19.8189 N   0  0  1  0  0  0  0  0  0  0  0  0
  2  1  1  0  0  0  0
  3  1  1  1  0  0  0
  3  4  1  0  0  0  0
  3  5  1  0  0  0  0
  5  6  1  1  0  0  0
  5  7  1  0  0  0  0
  7  8  1  1  0  0  0
  7  9  1  0  0  0  0
  9  4  1  1  0  0  0
  9 20  1  0  0  0  0
 10 11  1  0  0  0  0
 11 12  1  6  0  0  0
 11 13  1  0  0  0  0
 14 13  1  1  0  0  0
 15 14  1  0  0  0  0
 15 16  1  1  0  0  0
 16 10  1  0  0  0  0
 16 17  2  0  0  0  0
 18 15  1  0  0  0  0
 19 18  1  0  0  0  0
 20 14  1  0  0  0  0
 20 19  1  1  0  0  0
M  END
>  <CHROM.1>
78.24443610,-139.89663679,22.76651581,6.27287855,19.84164742,-2.36108324
-1.30371080,-1.90048470

>  <Name>
1nyi_lig

>  <RI>
0

>  <Rbt.Current_Directory>
/home/itssahil/PROJECTS/Mol_Feturizer/New_Systems/rnas/1nyi

>  <Rbt.Executable>
rbdock ($Id: //depot/dev/client3/rdock/2013.1/src/exe/rbdock.cxx#4 $)

>  <Rbt.Library>
libRbt.so (2013.1, Build901 2013/11/27)

>  <Rbt.Parameter_File>
/export/apps/rDock/src/rDock_2013.1_src/data/scripts/dock_solv.prm

>  <Rbt.Receptor>
prm/blind_docking_60.prm

>  <SCORE>
1.96493

>  <SCORE.INTER>
1.59523

>  <SCORE.INTER.CONST>
1

>  <SCORE.INTER.POLAR>
0

>  <SCORE.INTER.ROT>
2

>  <SCORE.INTER.SOLV>
12.7144

>  <SCORE.INTER.VDW>
-8.10798

>  <SCORE.INTER.norm>
0.0797614

>  <SCORE.INTRA>
-1.56269

>  <SCORE.INTRA.DIHEDRAL>
-1.30313

>  <SCORE.INTRA.DIHEDRAL.0>
3.72394

>  <SCORE.INTRA.POLAR>
0

>  <SCORE.INTRA.POLAR.0>
0

>  <SCORE.INTRA.REPUL>
0

>  <SCORE.INTRA.REPUL.0>
0

>  <SCORE.INTRA.SOLV>
-0.934515

>  <SCORE.INTRA.SOLV.lig_0>
-49.4697

>  <SCORE.INTRA.VDW>
-0.443868

>  <SCORE.INTRA.VDW.0>
-0.896538

>  <SCORE.INTRA.norm>
-0.0781346

>  <SCORE.RESTR>
1.9324

>  <SCORE.RESTR.CAVITY>
1.9324

>  <SCORE.RESTR.norm>
0.0966198

>  <SCORE.SYSTEM>
0

>  <SCORE.SYSTEM.CONST>
0

>  <SCORE.SYSTEM.DIHEDRAL>
0

>  <SCORE.SYSTEM.SOLV>
0

>  <SCORE.SYSTEM.norm>
0

>  <SCORE.heavy>
20

>  <SCORE.norm>
0.0982466

>  <RMSD>
26.800

$$$$
1nyi_lig
 OpenBabel11021811403D
libRbt.so/2013.1/901 2013/11/27
 20 22  0  0  0  0  0  0  0  0999 V2000
   22.1502    6.1802   23.7562 C   0  0  0  0  0  0  0  0  0  0  0  0
   20.9562    6.5214   24.4604 O   0  0  0  0  0  0  0  0  0  0  0  0
   21.8771    5.1182   22.7142 C   0  0  1  0  0  0  0  0  0  0  0  0
   21.2785    5.7456   21.5478 O   0  0  0  0  0  0  0  0  0  0  0  0
   23.1517    4.4455   22.2169 C   0  0  1  0  0  0  0  0  0  0  0  0
   23.4731    3.2914   22.9948 O   0  0  0  0  0  0  0  0  0  0  0  0
   22.8030    4.1257   20.7647 C   0  0  1  0  0  0  0  0  0  0  0  0
   21.9950    2.9665   20.6271 O   0  0  0  0  0  0  0  0  0  0  0  0
   22.0051    5.3708   20.3837 C   0  0  2  0  0  0  0  0  0  0  0  0
   23.4436    7.8561   16.1125 N   0  0  0  0  0  0  0  0  0  0  0  0
   22.7156    6.6988   16.2460 C   0  0  1  0  0  0  0  0  0  0  0  0
   22.3221    6.1333   15.1039 N   0  0  0  0  0  0  0  0  0  0  0  0
   22.4010    6.1375   17.4099 N   0  0  0  0  0  0  0  0  0  0  0  0
   22.8930    6.8386   18.4727 C   0  0  1  0  0  0  0  0  0  0  0  0
   23.6326    8.0077   18.4408 C   0  0  1  0  0  0  0  0  0  0  0  0
   23.9474    8.5940   17.1833 C   0  0  0  0  0  0  0  0  0  0  0  0
   24.5890    9.6270   16.9530 O   0  0  0  0  0  0  0  0  0  0  0  0
   23.9366    8.4280   19.7293 N   0  0  0  0  0  0  0  0  0  0  0  0
   23.3964    7.5257   20.5013 C   0  0  0  0  0  0  0  0  0  0  0  0
   22.7486    6.5202   19.8178 N   0  0  1  0  0  0  0  0  0  0  0  0
  2  1  1  0  0  0  0
  3  1  1  1  0  0  0
  3  4  1  0  0  0  0
  3  5  1  0  0  0  0
  5  6  1  1  0  0  0
  5  7  1  0  0  0  0
  7  8  1  1  0  0  0
  7  9  1  0  0  0  0
  9  4  1  1  0  0  0
  9 20  1  0  0  0  0
 10 11  1  0  0  0  0
 11 12  1  6  0  0  0
 11 13  1  0  0  0  0
 14 13  1  1  0  0  0
 15 14  1  0  0  0  0
 15 16  1  1  0  0  0
 16 10  1  0  0  0  0
 16 17  2  0  0  0  0
 18 15  1  0  0  0  0
 19 18  1  0  0  0  0
 20 14  1  0  0  0  0
 20 19  1  1  0  0  0
M  END
>  <CHROM.1>
79.08284228,-139.44055260,22.76742112,6.27894637,19.84233076,-2.37700021
-1.31066550,-1.91570984

>  <Name>
1nyi_lig

>  <RI>
0

>  <Rbt.Current_Directory>
/home/itssahil/PROJECTS/Mol_Feturizer/New_Systems/rnas/1nyi

>  <Rbt.Executable>
rbdock ($Id: //depot/dev/client3/rdock/2013.1/src/exe/rbdock.cxx#4 $)

>  <Rbt.Library>
libRbt.so (2013.1, Build901 2013/11/27)

>  <Rbt.Parameter_File>
/export/apps/rDock/src/rDock_2013.1_src/data/scripts/dock_solv.prm

>  <Rbt.Receptor>
prm/blind_docking_60.prm

>  <SCORE>
1.94323

>  <SCORE.INTER>
1.53184

>  <SCORE.INTER.CONST>
1

>  <SCORE.INTER.POLAR>
0

>  <SCORE.INTER.ROT>
2

>  <SCORE.INTER.SOLV>
12.6728

>  <SCORE.INTER.VDW>
-8.13638

>  <SCORE.INTER.norm>
0.0765919

>  <SCORE.INTRA>
-1.51841

>  <SCORE.INTRA.DIHEDRAL>
-1.20833

>  <SCORE.INTRA.DIHEDRAL.0>
3.72394

>  <SCORE.INTRA.POLAR>
0

>  <SCORE.INTRA.POLAR.0>
0

>  <SCORE.INTRA.REPUL>
0

>  <SCORE.INTRA.REPUL.0>
0

>  <SCORE.INTRA.SOLV>
-0.937985

>  <SCORE.INTRA.SOLV.lig_0>
-49.4697

>  <SCORE.INTRA.VDW>
-0.445258

>  <SCORE.INTRA.VDW.0>
-0.896538

>  <SCORE.INTRA.norm>
-0.0759207

>  <SCORE.RESTR>
1.9298

>  <SCORE.RESTR.CAVITY>
1.9298

>  <SCORE.RESTR.norm>
0.0964901

>  <SCORE.SYSTEM>
0

>  <SCORE.SYSTEM.CONST>
0

>  <SCORE.SYSTEM.DIHEDRAL>
0

>  <SCORE.SYSTEM.SOLV>
0

>  <SCORE.SYSTEM.norm>
0

>  <SCORE.heavy>
20

>  <SCORE.norm>
0.0971613

>  <RMSD>
26.801

$$$$
1nyi_lig
 OpenBabel11021811403D
libRbt.so/2013.1/901 2013/11/27
 20 22  0  0  0  0  0  0  0  0999 V2000
   18.3279   12.5433   23.8363 C   0  0  0  0  0  0  0  0  0  0  0  0
   18.8628   12.0348   22.6143 O   0  0  0  0  0  0  0  0  0  0  0  0
   19.4149   12.7020   24.8762 C   0  0  1  0  0  0  0  0  0  0  0  0
   20.0004   11.3999   25.1482 O   0  0  0  0  0  0  0  0  0  0  0  0
   20.5625   13.5816   24.3927 C   0  0  1  0  0  0  0  0  0  0  0  0
   20.3464   14.9542   24.7237 O   0  0  0  0  0  0  0  0  0  0  0  0
   21.7650   12.9638   25.1034 C   0  0  1  0  0  0  0  0  0  0  0  0
   21.8746   13.3608   26.4621 O   0  0  0  0  0  0  0  0  0  0  0  0
   21.4145   11.4800   25.0162 C   0  0  2  0  0  0  0  0  0  0  0  0
   23.3225   11.7630   20.2445 N   0  0  0  0  0  0  0  0  0  0  0  0
   22.9407   12.7732   21.0936 C   0  0  1  0  0  0  0  0  0  0  0  0
   23.0837   14.0099   20.6149 N   0  0  0  0  0  0  0  0  0  0  0  0
   22.4527   12.5847   22.3163 N   0  0  0  0  0  0  0  0  0  0  0  0
   22.3618   11.2616   22.6393 C   0  0  1  0  0  0  0  0  0  0  0  0
   22.7188   10.1773   21.8573 C   0  0  1  0  0  0  0  0  0  0  0  0
   23.2481   10.4057   20.5566 C   0  0  0  0  0  0  0  0  0  0  0  0
   23.6224    9.5746   19.7194 O   0  0  0  0  0  0  0  0  0  0  0  0
   22.4940    8.9886   22.5397 N   0  0  0  0  0  0  0  0  0  0  0  0
   22.0097    9.3621   23.6920 C   0  0  0  0  0  0  0  0  0  0  0  0
   21.8898   10.7273   23.8323 N   0  0  1  0  0  0  0  0  0  0  0  0
  2  1  1  0  0  0  0
  3  1  1  6  0  0  0
  3  4  1  0  0  0  0
  3  5  1  0  0  0  0
  5  6  1  1  0  0  0
  5  7  1  0  0  0  0
  7  8  1  1  0  0  0
  7  9  1  0  0  0  0
  9  4  1  6  0  0  0
  9 20  1  0  0  0  0
 10 11  1  0  0  0  0
 11 12  1  6  0  0  0
 11 13  1  0  0  0  0
 14 13  1  1  0  0  0
 15 14  1  0  0  0  0
 15 16  1  1  0  0  0
 16 10  1  0  0  0  0
 16 17  2  0  0  0  0
 18 15  1  0  0  0  0
 19 18  1  0  0  0  0
 20 14  1  0  0  0  0
 20 19  1  1  0  0  0
M  END
>  <CHROM.1>
-61.22633938,107.19727702,21.60036075,11.85032789,23.09315689,2.86483873
0.99310649,-0.19526822

>  <Name>
1nyi_lig

>  <RI>
0

>  <Rbt.Current_Directory>
/home/itssahil/PROJECTS/Mol_Feturizer/New_Systems/rnas/1nyi

>  <Rbt.Executable>
rbdock ($Id: //depot/dev/client3/rdock/2013.1/src/exe/rbdock.cxx#4 $)

>  <Rbt.Library>
libRbt.so (2013.1, Build901 2013/11/27)

>  <Rbt.Parameter_File>
/export/apps/rDock/src/rDock_2013.1_src/data/scripts/dock_solv.prm

>  <Rbt.Receptor>
prm/blind_docking_40.prm

>  <SCORE>
-2.09273

>  <SCORE.INTER>
-4.51602

>  <SCORE.INTER.CONST>
1

>  <SCORE.INTER.POLAR>
0

>  <SCORE.INTER.ROT>
2

>  <SCORE.INTER.SOLV>
10.1505

>  <SCORE.INTER.VDW>
-11.3275

>  <SCORE.INTER.norm>
-0.225801

>  <SCORE.INTRA>
-1.41093

>  <SCORE.INTRA.DIHEDRAL>
-2.43978

>  <SCORE.INTRA.DIHEDRAL.0>
3.72394

>  <SCORE.INTRA.POLAR>
0

>  <SCORE.INTRA.POLAR.0>
0

>  <SCORE.INTRA.REPUL>
0

>  <SCORE.INTRA.REPUL.0>
0

>  <SCORE.INTRA.SOLV>
1.3864

>  <SCORE.INTRA.SOLV.lig_0>
-49.4697

>  <SCORE.INTRA.VDW>
-0.88424

>  <SCORE.INTRA.VDW.0>
-0.896538

>  <SCORE.INTRA.norm>
-0.0705464

>  <SCORE.RESTR>
3.83421

>  <SCORE.RESTR.CAVITY>
3.83421

>  <SCORE.RESTR.norm>
0.191711

>  <SCORE.SYSTEM>
0

>  <SCORE.SYSTEM.CONST>
0

>  <SCORE.SYSTEM.DIHEDRAL>
0

>  <SCORE.SYSTEM.SOLV>
0

>  <SCORE.SYSTEM.norm>
0

>  <SCORE.heavy>
20

>  <SCORE.norm>
-0.104637

>  <RMSD>
26.813

$$$$
1nyi_lig
 OpenBabel11021811403D
libRbt.so/2013.1/901 2013/11/27
 20 22  0  0  0  0  0  0  0  0999 V2000
   18.3318   12.5455   23.8498 C   0  0  0  0  0  0  0  0  0  0  0  0
   18.8641   12.0623   22.6165 O   0  0  0  0  0  0  0  0  0  0  0  0
   19.4241   12.7014   24.8845 C   0  0  1  0  0  0  0  0  0  0  0  0
   20.0095   11.3982   25.1515 O   0  0  0  0  0  0  0  0  0  0  0  0
   20.5702   13.5806   24.3969 C   0  0  1  0  0  0  0  0  0  0  0  0
   20.3571   14.9529   24.7314 O   0  0  0  0  0  0  0  0  0  0  0  0
   21.7755   12.9603   25.1006 C   0  0  1  0  0  0  0  0  0  0  0  0
   21.8923   13.3549   26.4594 O   0  0  0  0  0  0  0  0  0  0  0  0
   21.4231   11.4770   25.0126 C   0  0  2  0  0  0  0  0  0  0  0  0
   23.3153   11.7662   20.2350 N   0  0  0  0  0  0  0  0  0  0  0  0
   22.9398   12.7755   21.0880 C   0  0  1  0  0  0  0  0  0  0  0  0
   23.0853   14.0130   20.6121 N   0  0  0  0  0  0  0  0  0  0  0  0
   22.4555   12.5854   22.3120 N   0  0  0  0  0  0  0  0  0  0  0  0
   22.3614   11.2618   22.6318 C   0  0  1  0  0  0  0  0  0  0  0  0
   22.7120   10.1783   21.8458 C   0  0  1  0  0  0  0  0  0  0  0  0
   23.2375   10.4084   20.5438 C   0  0  0  0  0  0  0  0  0  0  0  0
   23.6061    9.5783   19.7031 O   0  0  0  0  0  0  0  0  0  0  0  0
   22.4856    8.9886   22.5258 N   0  0  0  0  0  0  0  0  0  0  0  0
   22.0066    9.3607   23.6808 C   0  0  0  0  0  0  0  0  0  0  0  0
   21.8917   10.7259   23.8250 N   0  0  1  0  0  0  0  0  0  0  0  0
  2  1  1  0  0  0  0
  3  1  1  6  0  0  0
  3  4  1  0  0  0  0
  3  5  1  0  0  0  0
  5  6  1  1  0  0  0
  5  7  1  0  0  0  0
  7  8  1  1  0  0  0
  7  9  1  0  0  0  0
  9  4  1  6  0  0  0
  9 20  1  0  0  0  0
 10 11  1  0  0  0  0
 11 12  1  6  0  0  0
 11 13  1  0  0  0  0
 14 13  1  1  0  0  0
 15 14  1  0  0  0  0
 15 16  1  1  0  0  0
 16 10  1  0  0  0  0
 16 17  2  0  0  0  0
 18 15  1  0  0  0  0
 19 18  1  0  0  0  0
 20 14  1  0  0  0  0
 20 19  1  1  0  0  0
M  END
>  <CHROM.1>
-62.31363368,107.36118327,21.60206618,11.85182005,23.08966504,2.86402638
0.99691296,-0.19292604

>  <Name>
1nyi_lig

>  <RI>
0

>  <Rbt.Current_Directory>
/home/itssahil/PROJECTS/Mol_Feturizer/New_Systems/rnas/1nyi

>  <Rbt.Executable>
rbdock ($Id: //depot/dev/client3/rdock/2013.1/src/exe/rbdock.cxx#4 $)

>  <Rbt.Library>
libRbt.so (2013.1, Build901 2013/11/27)

>  <Rbt.Parameter_File>
/export/apps/rDock/src/rDock_2013.1_src/data/scripts/dock_solv.prm

>  <Rbt.Receptor>
prm/blind_docking_40.prm

>  <SCORE>
-2.01101

>  <SCORE.INTER>
-4.43064

>  <SCORE.INTER.CONST>
1

>  <SCORE.INTER.POLAR>
0

>  <SCORE.INTER.ROT>
2

>  <SCORE.INTER.SOLV>
10.1102

>  <SCORE.INTER.VDW>
-11.2572

>  <SCORE.INTER.norm>
-0.221532

>  <SCORE.INTRA>
-1.39549

>  <SCORE.INTRA.DIHEDRAL>
-2.42758

>  <SCORE.INTRA.DIHEDRAL.0>
3.72394

>  <SCORE.INTRA.POLAR>
0

>  <SCORE.INTRA.POLAR.0>
0

>  <SCORE.INTRA.REPUL>
0

>  <SCORE.INTRA.REPUL.0>
0

>  <SCORE.INTRA.SOLV>
1.38071

>  <SCORE.INTRA.SOLV.lig_0>
-49.4697

>  <SCORE.INTRA.VDW>
-0.872053

>  <SCORE.INTRA.VDW.0>
-0.896538

>  <SCORE.INTRA.norm>
-0.0697745

>  <SCORE.RESTR>
3.81512

>  <SCORE.RESTR.CAVITY>
3.81512

>  <SCORE.RESTR.norm>
0.190756

>  <SCORE.SYSTEM>
0

>  <SCORE.SYSTEM.CONST>
0

>  <SCORE.SYSTEM.DIHEDRAL>
0

>  <SCORE.SYSTEM.SOLV>
0

>  <SCORE.SYSTEM.norm>
0

>  <SCORE.heavy>
20

>  <SCORE.norm>
-0.10055

>  <RMSD>
26.816

$$$$
1nyi_lig
 OpenBabel11021811403D
libRbt.so/2013.1/901 2013/11/27
 20 22  0  0  0  0  0  0  0  0999 V2000
   24.4502   -5.3052   20.6961 C   0  0  0  0  0  0  0  0  0  0  0  0
   24.8390   -5.0868   22.0523 O   0  0  0  0  0  0  0  0  0  0  0  0
   25.5611   -5.9745   19.9176 C   0  0  1  0  0  0  0  0  0  0  0  0
   25.1456   -6.1177   18.5323 O   0  0  0  0  0  0  0  0  0  0  0  0
   26.8370   -5.1405   19.8854 C   0  0  1  0  0  0  0  0  0  0  0  0
   27.7015   -5.4626   20.9759 O   0  0  0  0  0  0  0  0  0  0  0  0
   27.4198   -5.4939   18.5186 C   0  0  1  0  0  0  0  0  0  0  0  0
   28.0938   -6.7433   18.5056 O   0  0  0  0  0  0  0  0  0  0  0  0
   26.1465   -5.5748   17.6795 C   0  0  2  0  0  0  0  0  0  0  0  0
   27.0690   -2.0507   14.0438 N   0  0  0  0  0  0  0  0  0  0  0  0
   27.8217   -3.1375   14.4174 C   0  0  1  0  0  0  0  0  0  0  0  0
   28.9589   -3.3078   13.7414 N   0  0  0  0  0  0  0  0  0  0  0  0
   27.4867   -3.9894   15.3821 N   0  0  0  0  0  0  0  0  0  0  0  0
   26.3029   -3.6594   15.9762 C   0  0  1  0  0  0  0  0  0  0  0  0
   25.4770   -2.5915   15.6725 C   0  0  1  0  0  0  0  0  0  0  0  0
   25.8527   -1.7001   14.6292 C   0  0  0  0  0  0  0  0  0  0  0  0
   25.2514   -0.7011   14.2145 O   0  0  0  0  0  0  0  0  0  0  0  0
   24.3516   -2.5983   16.4865 N   0  0  0  0  0  0  0  0  0  0  0  0
   24.5132   -3.6394   17.2557 C   0  0  0  0  0  0  0  0  0  0  0  0
   25.6773   -4.3362   17.0164 N   0  0  1  0  0  0  0  0  0  0  0  0
  2  1  1  0  0  0  0
  3  1  1  1  0  0  0
  3  4  1  0  0  0  0
  3  5  1  0  0  0  0
  5  6  1  1  0  0  0
  5  7  1  0  0  0  0
  7  8  1  1  0  0  0
  7  9  1  0  0  0  0
  9  4  1  1  0  0  0
  9 20  1  0  0  0  0
 10 11  1  0  0  0  0
 11 12  1  1  0  0  0
 11 13  1  0  0  0  0
 14 13  1  6  0  0  0
 15 14  1  0  0  0  0
 15 16  1  6  0  0  0
 16 10  1  0  0  0  0
 16 17  2  0  0  0  0
 18 15  1  0  0  0  0
 19 18  1  0  0  0  0
 20 14  1  0  0  0  0
 20 19  1  6  0  0  0
M  END
>  <CHROM.1>
-177.29155609,-169.46852270,26.24249362,-4.16301103,17.35095708,1.67461725
-0.49150608,2.14007347

>  <Name>
1nyi_lig

>  <RI>
0

>  <Rbt.Current_Directory>
/home/itssahil/PROJECTS/Mol_Feturizer/New_Systems/rnas/1nyi

>  <Rbt.Executable>
rbdock ($Id: //depot/dev/client3/rdock/2013.1/src/exe/rbdock.cxx#4 $)

>  <Rbt.Library>
libRbt.so (2013.1, Build901 2013/11/27)

>  <Rbt.Parameter_File>
/export/apps/rDock/src/rDock_2013.1_src/data/scripts/dock_solv.prm

>  <Rbt.Receptor>
prm/blind_docking_80.prm

>  <SCORE>
-8.99489

>  <SCORE.INTER>
-8.42772

>  <SCORE.INTER.CONST>
1

>  <SCORE.INTER.POLAR>
-1.12211

>  <SCORE.INTER.ROT>
2

>  <SCORE.INTER.SOLV>
14.6141

>  <SCORE.INTER.VDW>
-11.6828

>  <SCORE.INTER.norm>
-0.421386

>  <SCORE.INTRA>
-1.68564

>  <SCORE.INTRA.DIHEDRAL>
-2.43377

>  <SCORE.INTRA.DIHEDRAL.0>
3.72394

>  <SCORE.INTRA.POLAR>
0

>  <SCORE.INTRA.POLAR.0>
0

>  <SCORE.INTRA.REPUL>
0

>  <SCORE.INTRA.REPUL.0>
0

>  <SCORE.INTRA.SOLV>
-0.431717

>  <SCORE.INTRA.SOLV.lig_0>
-49.4697

>  <SCORE.INTRA.VDW>
-0.252895

>  <SCORE.INTRA.VDW.0>
-0.896538

>  <SCORE.INTRA.norm>
-0.084282

>  <SCORE.RESTR>
1.11847

>  <SCORE.RESTR.CAVITY>
1.11847

>  <SCORE.RESTR.norm>
0.0559236

>  <SCORE.SYSTEM>
0

>  <SCORE.SYSTEM.CONST>
0

>  <SCORE.SYSTEM.DIHEDRAL>
0

>  <SCORE.SYSTEM.SOLV>
0

>  <SCORE.SYSTEM.norm>
0

>  <SCORE.heavy>
20

>  <SCORE.norm>
-0.449744

>  <RMSD>
26.819

$$$$
1nyi_lig
 OpenBabel11021811403D
libRbt.so/2013.1/901 2013/11/27
 20 22  0  0  0  0  0  0  0  0999 V2000
   27.2969   -5.0120   20.7104 C   0  0  0  0  0  0  0  0  0  0  0  0
   28.0695   -5.2947   19.5438 O   0  0  0  0  0  0  0  0  0  0  0  0
   25.8174   -5.0353   20.3962 C   0  0  1  0  0  0  0  0  0  0  0  0
   25.5450   -4.0755   19.3395 O   0  0  0  0  0  0  0  0  0  0  0  0
   25.3545   -6.3859   19.8613 C   0  0  1  0  0  0  0  0  0  0  0  0
   24.9230   -7.2474   20.9157 O   0  0  0  0  0  0  0  0  0  0  0  0
   24.2353   -5.9872   18.9015 C   0  0  1  0  0  0  0  0  0  0  0  0
   23.0125   -5.6947   19.5610 O   0  0  0  0  0  0  0  0  0  0  0  0
   24.8222   -4.7148   18.2942 C   0  0  2  0  0  0  0  0  0  0  0  0
   26.7914   -2.3465   14.1708 N   0  0  0  0  0  0  0  0  0  0  0  0
   25.9706   -1.8497   15.1540 C   0  0  1  0  0  0  0  0  0  0  0  0
   25.6320   -0.5661   15.0246 N   0  0  0  0  0  0  0  0  0  0  0  0
   25.5141   -2.5584   16.1827 N   0  0  0  0  0  0  0  0  0  0  0  0
   25.9466   -3.8527   16.1525 C   0  0  1  0  0  0  0  0  0  0  0  0
   26.7702   -4.4437   15.2106 C   0  0  1  0  0  0  0  0  0  0  0  0
   27.2537   -3.6615   14.1249 C   0  0  0  0  0  0  0  0  0  0  0  0
   27.9939   -4.0068   13.1951 O   0  0  0  0  0  0  0  0  0  0  0  0
   26.9999   -5.7756   15.5305 N   0  0  0  0  0  0  0  0  0  0  0  0
   26.3230   -5.9673   16.6292 C   0  0  0  0  0  0  0  0  0  0  0  0
   25.6476   -4.8511   17.0718 N   0  0  1  0  0  0  0  0  0  0  0  0
  2  1  1  0  0  0  0
  3  1  1  6  0  0  0
  3  4  1  0  0  0  0
  3  5  1  0  0  0  0
  5  6  1  1  0  0  0
  5  7  1  0  0  0  0
  7  8  1  1  0  0  0
  7  9  1  0  0  0  0
  9  4  1  1  0  0  0
  9 20  1  0  0  0  0
 10 11  1  0  0  0  0
 11 12  1  6  0  0  0
 11 13  1  0  0  0  0
 14 13  1  1  0  0  0
 15 14  1  0  0  0  0
 15 16  1  1  0  0  0
 16 10  1  0  0  0  0
 16 17  2  0  0  0  0
 18 15  1  0  0  0  0
 19 18  1  0  0  0  0
 20 14  1  0  0  0  0
 20 19  1  1  0  0  0
M  END
>  <CHROM.1>
-57.29307256,-77.22426547,25.99479070,-4.49694051,17.35407766,-1.87281576
0.73976447,-0.87478131

>  <Name>
1nyi_lig

>  <RI>
0

>  <Rbt.Current_Directory>
/home/itssahil/PROJECTS/Mol_Feturizer/New_Systems/rnas/1nyi

>  <Rbt.Executable>
rbdock ($Id: //depot/dev/client3/rdock/2013.1/src/exe/rbdock.cxx#4 $)

>  <Rbt.Library>
libRbt.so (2013.1, Build901 2013/11/27)

>  <Rbt.Parameter_File>
/export/apps/rDock/src/rDock_2013.1_src/data/scripts/dock_solv.prm

>  <Rbt.Receptor>
prm/blind_docking_80.prm

>  <SCORE>
-7.68845

>  <SCORE.INTER>
-6.99066

>  <SCORE.INTER.CONST>
1

>  <SCORE.INTER.POLAR>
-0.471614

>  <SCORE.INTER.ROT>
2

>  <SCORE.INTER.SOLV>
13.2156

>  <SCORE.INTER.VDW>
-12.4269

>  <SCORE.INTER.norm>
-0.349533

>  <SCORE.INTRA>
-1.71029

>  <SCORE.INTRA.DIHEDRAL>
-2.54525

>  <SCORE.INTRA.DIHEDRAL.0>
3.72394

>  <SCORE.INTRA.POLAR>
0

>  <SCORE.INTRA.POLAR.0>
0

>  <SCORE.INTRA.REPUL>
0

>  <SCORE.INTRA.REPUL.0>
0

>  <SCORE.INTRA.SOLV>
0.0936305

>  <SCORE.INTRA.SOLV.lig_0>
-49.4697

>  <SCORE.INTRA.VDW>
-0.484483

>  <SCORE.INTRA.VDW.0>
-0.896538

>  <SCORE.INTRA.norm>
-0.0855146

>  <SCORE.RESTR>
1.01251

>  <SCORE.RESTR.CAVITY>
1.01251

>  <SCORE.RESTR.norm>
0.0506253

>  <SCORE.SYSTEM>
0

>  <SCORE.SYSTEM.CONST>
0

>  <SCORE.SYSTEM.DIHEDRAL>
0

>  <SCORE.SYSTEM.SOLV>
0

>  <SCORE.SYSTEM.norm>
0

>  <SCORE.heavy>
20

>  <SCORE.norm>
-0.384422

>  <RMSD>
26.899

$$$$
1nyi_lig
 OpenBabel11021811403D
libRbt.so/2013.1/901 2013/11/27
 20 22  0  0  0  0  0  0  0  0999 V2000
   27.2717   -4.9770   20.6953 C   0  0  0  0  0  0  0  0  0  0  0  0
   28.0546   -5.2691   19.5379 O   0  0  0  0  0  0  0  0  0  0  0  0
   25.7944   -5.0275   20.3741 C   0  0  1  0  0  0  0  0  0  0  0  0
   25.5107   -4.0777   19.3113 O   0  0  0  0  0  0  0  0  0  0  0  0
   25.3576   -6.3885   19.8436 C   0  0  1  0  0  0  0  0  0  0  0  0
   24.9360   -7.2523   20.9002 O   0  0  0  0  0  0  0  0  0  0  0  0
   24.2365   -6.0139   18.8765 C   0  0  1  0  0  0  0  0  0  0  0  0
   23.0056   -5.7395   19.5286 O   0  0  0  0  0  0  0  0  0  0  0  0
   24.8043   -4.7346   18.2658 C   0  0  2  0  0  0  0  0  0  0  0  0
   26.8050   -2.3367   14.1747 N   0  0  0  0  0  0  0  0  0  0  0  0
   25.9781   -1.8465   15.1561 C   0  0  1  0  0  0  0  0  0  0  0  0
   25.6421   -0.5615   15.0345 N   0  0  0  0  0  0  0  0  0  0  0  0
   25.5135   -2.5626   16.1760 N   0  0  0  0  0  0  0  0  0  0  0  0
   25.9446   -3.8572   16.1387 C   0  0  1  0  0  0  0  0  0  0  0  0
   26.7738   -4.4420   15.1979 C   0  0  1  0  0  0  0  0  0  0  0  0
   27.2659   -3.6520   14.1218 C   0  0  0  0  0  0  0  0  0  0  0  0
   28.0120   -3.9910   13.1944 O   0  0  0  0  0  0  0  0  0  0  0  0
   26.9995   -5.7767   15.5090 N   0  0  0  0  0  0  0  0  0  0  0  0
   26.3148   -5.9760   16.6014 C   0  0  0  0  0  0  0  0  0  0  0  0
   25.6379   -4.8623   17.0481 N   0  0  1  0  0  0  0  0  0  0  0  0
  2  1  1  0  0  0  0
  3  1  1  6  0  0  0
  3  4  1  0  0  0  0
  3  5  1  0  0  0  0
  5  6  1  1  0  0  0
  5  7  1  0  0  0  0
  7  8  1  1  0  0  0
  7  9  1  0  0  0  0
  9  4  1  1  0  0  0
  9 20  1  0  0  0  0
 10 11  1  0  0  0  0
 11 12  1  6  0  0  0
 11 13  1  0  0  0  0
 14 13  1  1  0  0  0
 15 14  1  0  0  0  0
 15 16  1  1  0  0  0
 16 10  1  0  0  0  0
 16 17  2  0  0  0  0
 18 15  1  0  0  0  0
 19 18  1  0  0  0  0
 20 14  1  0  0  0  0
 20 19  1  1  0  0  0
M  END
>  <CHROM.1>
-58.04867157,-75.92317102,25.99160686,-4.49781398,17.33974639,-1.88314913
0.75402458,-0.86126595

>  <Name>
1nyi_lig

>  <RI>
0

>  <Rbt.Current_Directory>
/home/itssahil/PROJECTS/Mol_Feturizer/New_Systems/rnas/1nyi

>  <Rbt.Executable>
rbdock ($Id: //depot/dev/client3/rdock/2013.1/src/exe/rbdock.cxx#4 $)

>  <Rbt.Library>
libRbt.so (2013.1, Build901 2013/11/27)

>  <Rbt.Parameter_File>
/export/apps/rDock/src/rDock_2013.1_src/data/scripts/dock_solv.prm

>  <Rbt.Receptor>
prm/blind_docking_80.prm

>  <SCORE>
-7.69747

>  <SCORE.INTER>
-6.98752

>  <SCORE.INTER.CONST>
1

>  <SCORE.INTER.POLAR>
-0.474143

>  <SCORE.INTER.ROT>
2

>  <SCORE.INTER.SOLV>
13.2732

>  <SCORE.INTER.VDW>
-12.4356

>  <SCORE.INTER.norm>
-0.349376

>  <SCORE.INTRA>
-1.72191

>  <SCORE.INTRA.DIHEDRAL>
-2.5551

>  <SCORE.INTRA.DIHEDRAL.0>
3.72394

>  <SCORE.INTRA.POLAR>
0

>  <SCORE.INTRA.POLAR.0>
0

>  <SCORE.INTRA.REPUL>
0

>  <SCORE.INTRA.REPUL.0>
0

>  <SCORE.INTRA.SOLV>
0.094214

>  <SCORE.INTRA.SOLV.lig_0>
-49.4697

>  <SCORE.INTRA.VDW>
-0.491463

>  <SCORE.INTRA.VDW.0>
-0.896538

>  <SCORE.INTRA.norm>
-0.0860954

>  <SCORE.RESTR>
1.01196

>  <SCORE.RESTR.CAVITY>
1.01196

>  <SCORE.RESTR.norm>
0.0505978

>  <SCORE.SYSTEM>
0

>  <SCORE.SYSTEM.CONST>
0

>  <SCORE.SYSTEM.DIHEDRAL>
0

>  <SCORE.SYSTEM.SOLV>
0

>  <SCORE.SYSTEM.norm>
0

>  <SCORE.heavy>
20

>  <SCORE.norm>
-0.384874

>  <RMSD>
26.913

$$$$
1nyi_lig
 OpenBabel11021811403D
libRbt.so/2013.1/901 2013/11/27
 20 22  0  0  0  0  0  0  0  0999 V2000
   27.3508   -5.2912   20.8556 C   0  0  0  0  0  0  0  0  0  0  0  0
   27.4631   -4.1809   21.7459 O   0  0  0  0  0  0  0  0  0  0  0  0
   25.9488   -5.3951   20.2971 C   0  0  1  0  0  0  0  0  0  0  0  0
   25.7487   -4.3328   19.3257 O   0  0  0  0  0  0  0  0  0  0  0  0
   25.7154   -6.6990   19.5422 C   0  0  1  0  0  0  0  0  0  0  0  0
   25.2143   -7.7215   20.4046 O   0  0  0  0  0  0  0  0  0  0  0  0
   24.7254   -6.2732   18.4600 C   0  0  1  0  0  0  0  0  0  0  0  0
   23.3912   -6.1693   18.9339 O   0  0  0  0  0  0  0  0  0  0  0  0
   25.2673   -4.8895   18.1082 C   0  0  2  0  0  0  0  0  0  0  0  0
   27.1320   -2.1069   14.2006 N   0  0  0  0  0  0  0  0  0  0  0  0
   26.0579   -1.8532   15.0188 C   0  0  1  0  0  0  0  0  0  0  0  0
   25.3992   -0.7211   14.7667 N   0  0  0  0  0  0  0  0  0  0  0  0
   25.6586   -2.6504   16.0056 N   0  0  0  0  0  0  0  0  0  0  0  0
   26.4349   -3.7678   16.1149 C   0  0  1  0  0  0  0  0  0  0  0  0
   27.5312   -4.1106   15.3433 C   0  0  1  0  0  0  0  0  0  0  0  0
   27.9447   -3.2358   14.3002 C   0  0  0  0  0  0  0  0  0  0  0  0
   28.8914   -3.3667   13.5139 O   0  0  0  0  0  0  0  0  0  0  0  0
   28.0697   -5.3177   15.7698 N   0  0  0  0  0  0  0  0  0  0  0  0
   27.3059   -5.6814   16.7629 C   0  0  0  0  0  0  0  0  0  0  0  0
   26.2833   -4.7991   17.0341 N   0  0  1  0  0  0  0  0  0  0  0  0
  2  1  1  0  0  0  0
  3  1  1  6  0  0  0
  3  4  1  0  0  0  0
  3  5  1  0  0  0  0
  5  6  1  1  0  0  0
  5  7  1  0  0  0  0
  7  8  1  1  0  0  0
  7  9  1  0  0  0  0
  9  4  1  1  0  0  0
  9 20  1  0  0  0  0
 10 11  1  0  0  0  0
 11 12  1  6  0  0  0
 11 13  1  0  0  0  0
 14 13  1  1  0  0  0
 15 14  1  0  0  0  0
 15 16  1  1  0  0  0
 16 10  1  0  0  0  0
 16 17  2  0  0  0  0
 18 15  1  0  0  0  0
 19 18  1  0  0  0  0
 20 14  1  0  0  0  0
 20 19  1  1  0  0  0
M  END
>  <CHROM.1>
73.13964581,-91.54859362,26.36776676,-4.45550894,17.39294546,-1.81276543
0.40711394,-0.94240596

>  <Name>
1nyi_lig

>  <RI>
0

>  <Rbt.Current_Directory>
/home/itssahil/PROJECTS/Mol_Feturizer/New_Systems/rnas/1nyi

>  <Rbt.Executable>
rbdock ($Id: //depot/dev/client3/rdock/2013.1/src/exe/rbdock.cxx#4 $)

>  <Rbt.Library>
libRbt.so (2013.1, Build901 2013/11/27)

>  <Rbt.Parameter_File>
/export/apps/rDock/src/rDock_2013.1_src/data/scripts/dock_solv.prm

>  <Rbt.Receptor>
prm/blind_docking_80.prm

>  <SCORE>
-10.4985

>  <SCORE.INTER>
-9.96227

>  <SCORE.INTER.CONST>
1

>  <SCORE.INTER.POLAR>
-1.5398

>  <SCORE.INTER.ROT>
2

>  <SCORE.INTER.SOLV>
14.3334

>  <SCORE.INTER.VDW>
-11.22

>  <SCORE.INTER.norm>
-0.498114

>  <SCORE.INTRA>
-1.73685

>  <SCORE.INTRA.DIHEDRAL>
-1.98064

>  <SCORE.INTRA.DIHEDRAL.0>
3.72394

>  <SCORE.INTRA.POLAR>
0

>  <SCORE.INTRA.POLAR.0>
0

>  <SCORE.INTRA.REPUL>
0

>  <SCORE.INTRA.REPUL.0>
0

>  <SCORE.INTRA.SOLV>
-0.871359

>  <SCORE.INTRA.SOLV.lig_0>
-49.4697

>  <SCORE.INTRA.VDW>
-0.310851

>  <SCORE.INTRA.VDW.0>
-0.896538

>  <SCORE.INTRA.norm>
-0.0868424

>  <SCORE.RESTR>
1.20061

>  <SCORE.RESTR.CAVITY>
1.20061

>  <SCORE.RESTR.norm>
0.0600303

>  <SCORE.SYSTEM>
0

>  <SCORE.SYSTEM.CONST>
0

>  <SCORE.SYSTEM.DIHEDRAL>
0

>  <SCORE.SYSTEM.SOLV>
0

>  <SCORE.SYSTEM.norm>
0

>  <SCORE.heavy>
20

>  <SCORE.norm>
-0.524926

>  <RMSD>
26.913

$$$$
1nyi_lig
 OpenBabel11021811403D
libRbt.so/2013.1/901 2013/11/27
 20 22  0  0  0  0  0  0  0  0999 V2000
   22.1967    7.6885   23.0495 C   0  0  0  0  0  0  0  0  0  0  0  0
   21.4009    7.4950   24.2188 O   0  0  0  0  0  0  0  0  0  0  0  0
   22.6878    9.1165   22.9615 C   0  0  1  0  0  0  0  0  0  0  0  0
   23.8124    9.1722   22.0426 O   0  0  0  0  0  0  0  0  0  0  0  0
   21.6367   10.0621   22.3908 C   0  0  1  0  0  0  0  0  0  0  0  0
   20.8294   10.6323   23.4219 O   0  0  0  0  0  0  0  0  0  0  0  0
   22.4924   11.0862   21.6480 C   0  0  1  0  0  0  0  0  0  0  0  0
   23.0722   12.0567   22.5068 O   0  0  0  0  0  0  0  0  0  0  0  0
   23.5780   10.1819   21.0683 C   0  0  2  0  0  0  0  0  0  0  0  0
   22.6338    5.9005   18.3726 N   0  0  0  0  0  0  0  0  0  0  0  0
   22.8399    6.0551   19.7220 C   0  0  1  0  0  0  0  0  0  0  0  0
   22.7887    4.9337   20.4425 N   0  0  0  0  0  0  0  0  0  0  0  0
   23.0813    7.2191   20.3181 N   0  0  0  0  0  0  0  0  0  0  0  0
   23.1119    8.2577   19.4329 C   0  0  1  0  0  0  0  0  0  0  0  0
   22.9173    8.2036   18.0639 C   0  0  1  0  0  0  0  0  0  0  0  0
   22.6504    6.9475   17.4514 C   0  0  0  0  0  0  0  0  0  0  0  0
   22.4488    6.6999   16.2557 O   0  0  0  0  0  0  0  0  0  0  0  0
   23.0089    9.4729   17.5076 N   0  0  0  0  0  0  0  0  0  0  0  0
   23.2586   10.2549   18.5216 C   0  0  0  0  0  0  0  0  0  0  0  0
   23.3445    9.5956   19.7283 N   0  0  1  0  0  0  0  0  0  0  0  0
  2  1  1  0  0  0  0
  3  1  1  6  0  0  0
  3  4  1  0  0  0  0
  3  5  1  0  0  0  0
  5  6  1  1  0  0  0
  5  7  1  0  0  0  0
  7  8  1  1  0  0  0
  7  9  1  0  0  0  0
  9  4  1  1  0  0  0
  9 20  1  0  0  0  0
 10 11  1  0  0  0  0
 11 12  1  6  0  0  0
 11 13  1  0  0  0  0
 14 13  1  1  0  0  0
 15 14  1  0  0  0  0
 15 16  1  1  0  0  0
 16 10  1  0  0  0  0
 16 17  2  0  0  0  0
 18 15  1  0  0  0  0
 19 18  1  0  0  0  0
 20 14  1  0  0  0  0
 20 19  1  1  0  0  0
M  END
>  <CHROM.1>
161.63743126,11.99407401,22.67493188,8.57550901,20.51395516,2.10151102,1.36670908
0.50870443

>  <Name>
1nyi_lig

>  <RI>
0

>  <Rbt.Current_Directory>
/home/itssahil/PROJECTS/Mol_Feturizer/New_Systems/rnas/1nyi

>  <Rbt.Executable>
rbdock ($Id: //depot/dev/client3/rdock/2013.1/src/exe/rbdock.cxx#4 $)

>  <Rbt.Library>
libRbt.so (2013.1, Build901 2013/11/27)

>  <Rbt.Parameter_File>
/export/apps/rDock/src/rDock_2013.1_src/data/scripts/dock_solv.prm

>  <Rbt.Receptor>
prm/blind_docking_60.prm

>  <SCORE>
-1.50547

>  <SCORE.INTER>
-3.20256

>  <SCORE.INTER.CONST>
1

>  <SCORE.INTER.POLAR>
0

>  <SCORE.INTER.ROT>
2

>  <SCORE.INTER.SOLV>
9.24132

>  <SCORE.INTER.VDW>
-10.1488

>  <SCORE.INTER.norm>
-0.160128

>  <SCORE.INTRA>
-0.673564

>  <SCORE.INTRA.DIHEDRAL>
-1.44336

>  <SCORE.INTRA.DIHEDRAL.0>
3.72394

>  <SCORE.INTRA.POLAR>
0

>  <SCORE.INTRA.POLAR.0>
0

>  <SCORE.INTRA.REPUL>
0

>  <SCORE.INTRA.REPUL.0>
0

>  <SCORE.INTRA.SOLV>
1.405

>  <SCORE.INTRA.SOLV.lig_0>
-49.4697

>  <SCORE.INTRA.VDW>
-0.654383

>  <SCORE.INTRA.VDW.0>
-0.896538

>  <SCORE.INTRA.norm>
-0.0336782

>  <SCORE.RESTR>
2.37065

>  <SCORE.RESTR.CAVITY>
2.37065

>  <SCORE.RESTR.norm>
0.118533

>  <SCORE.SYSTEM>
0

>  <SCORE.SYSTEM.CONST>
0

>  <SCORE.SYSTEM.DIHEDRAL>
0

>  <SCORE.SYSTEM.SOLV>
0

>  <SCORE.SYSTEM.norm>
0

>  <SCORE.heavy>
20

>  <SCORE.norm>
-0.0752733

>  <RMSD>
26.924

$$$$
1nyi_lig
 OpenBabel11021811403D
libRbt.so/2013.1/901 2013/11/27
 20 22  0  0  0  0  0  0  0  0999 V2000
   27.4009   -1.8348   14.1991 C   0  0  0  0  0  0  0  0  0  0  0  0
   26.0374   -1.8879   14.6187 O   0  0  0  0  0  0  0  0  0  0  0  0
   28.1096   -3.1363   14.5024 C   0  0  1  0  0  0  0  0  0  0  0  0
   28.1090   -3.3493   15.9400 O   0  0  0  0  0  0  0  0  0  0  0  0
   27.3973   -4.3435   13.9025 C   0  0  1  0  0  0  0  0  0  0  0  0
   27.8793   -4.6380   12.5905 O   0  0  0  0  0  0  0  0  0  0  0  0
   27.6993   -5.4378   14.9242 C   0  0  1  0  0  0  0  0  0  0  0  0
   29.0012   -5.9867   14.7857 O   0  0  0  0  0  0  0  0  0  0  0  0
   27.5986   -4.6459   16.2261 C   0  0  2  0  0  0  0  0  0  0  0  0
   24.6880   -6.2177   20.1691 N   0  0  0  0  0  0  0  0  0  0  0  0
   25.9778   -6.5613   19.8446 C   0  0  1  0  0  0  0  0  0  0  0  0
   26.5654   -7.4292   20.6695 N   0  0  0  0  0  0  0  0  0  0  0  0
   26.6390   -6.0927   18.7901 N   0  0  0  0  0  0  0  0  0  0  0  0
   25.8860   -5.2285   18.0489 C   0  0  1  0  0  0  0  0  0  0  0  0
   24.5859   -4.8221   18.2925 C   0  0  1  0  0  0  0  0  0  0  0  0
   23.9036   -5.3300   19.4330 C   0  0  0  0  0  0  0  0  0  0  0  0
   22.7522   -5.0854   19.8151 O   0  0  0  0  0  0  0  0  0  0  0  0
   24.1666   -3.9211   17.3221 N   0  0  0  0  0  0  0  0  0  0  0  0
   25.1907   -3.8049   16.5224 C   0  0  0  0  0  0  0  0  0  0  0  0
   26.2754   -4.5716   16.8878 N   0  0  1  0  0  0  0  0  0  0  0  0
  2  1  1  0  0  0  0
  3  1  1  1  0  0  0
  3  4  1  0  0  0  0
  3  5  1  0  0  0  0
  5  6  1  6  0  0  0
  5  7  1  0  0  0  0
  7  8  1  6  0  0  0
  7  9  1  0  0  0  0
  9  4  1  6  0  0  0
  9 20  1  0  0  0  0
 10 11  1  0  0  0  0
 11 12  1  6  0  0  0
 11 13  1  0  0  0  0
 14 13  1  1  0  0  0
 15 14  1  0  0  0  0
 15 16  1  1  0  0  0
 16 10  1  0  0  0  0
 16 17  2  0  0  0  0
 18 15  1  0  0  0  0
 19 18  1  0  0  0  0
 20 14  1  0  0  0  0
 20 19  1  1  0  0  0
M  END
>  <CHROM.1>
-62.20363810,-130.18523087,26.31527245,-4.68886336,16.81726952,1.00284194
0.59288726,-0.85367199

>  <Name>
1nyi_lig

>  <RI>
0

>  <Rbt.Current_Directory>
/home/itssahil/PROJECTS/Mol_Feturizer/New_Systems/rnas/1nyi

>  <Rbt.Executable>
rbdock ($Id: //depot/dev/client3/rdock/2013.1/src/exe/rbdock.cxx#4 $)

>  <Rbt.Library>
libRbt.so (2013.1, Build901 2013/11/27)

>  <Rbt.Parameter_File>
/export/apps/rDock/src/rDock_2013.1_src/data/scripts/dock_solv.prm

>  <Rbt.Receptor>
prm/blind_docking_80.prm

>  <SCORE>
-3.88126

>  <SCORE.INTER>
-3.20421

>  <SCORE.INTER.CONST>
1

>  <SCORE.INTER.POLAR>
-0.143363

>  <SCORE.INTER.ROT>
2

>  <SCORE.INTER.SOLV>
10.4794

>  <SCORE.INTER.VDW>
-10.0847

>  <SCORE.INTER.norm>
-0.16021

>  <SCORE.INTRA>
-1.30037

>  <SCORE.INTRA.DIHEDRAL>
-2.43796

>  <SCORE.INTRA.DIHEDRAL.0>
3.72394

>  <SCORE.INTRA.POLAR>
0

>  <SCORE.INTRA.POLAR.0>
0

>  <SCORE.INTRA.REPUL>
0

>  <SCORE.INTRA.REPUL.0>
0

>  <SCORE.INTRA.SOLV>
0.151692

>  <SCORE.INTRA.SOLV.lig_0>
-49.4697

>  <SCORE.INTRA.VDW>
-0.157234

>  <SCORE.INTRA.VDW.0>
-0.896538

>  <SCORE.INTRA.norm>
-0.0650183

>  <SCORE.RESTR>
0.62332

>  <SCORE.RESTR.CAVITY>
0.62332

>  <SCORE.RESTR.norm>
0.031166

>  <SCORE.SYSTEM>
0

>  <SCORE.SYSTEM.CONST>
0

>  <SCORE.SYSTEM.DIHEDRAL>
0

>  <SCORE.SYSTEM.SOLV>
0

>  <SCORE.SYSTEM.norm>
0

>  <SCORE.heavy>
20

>  <SCORE.norm>
-0.194063

>  <RMSD>
26.925

$$$$
1nyi_lig
 OpenBabel11021811403D
libRbt.so/2013.1/901 2013/11/27
 20 22  0  0  0  0  0  0  0  0999 V2000
   24.7075    8.1344   16.7069 C   0  0  0  0  0  0  0  0  0  0  0  0
   24.2360    9.3943   17.1846 O   0  0  0  0  0  0  0  0  0  0  0  0
   24.1598    7.0005   17.5451 C   0  0  1  0  0  0  0  0  0  0  0  0
   24.6901    7.1127   18.8936 O   0  0  0  0  0  0  0  0  0  0  0  0
   22.6430    7.0588   17.6881 C   0  0  1  0  0  0  0  0  0  0  0  0
   21.9902    6.3211   16.6537 O   0  0  0  0  0  0  0  0  0  0  0  0
   22.4272    6.4765   19.0834 C   0  0  1  0  0  0  0  0  0  0  0  0
   22.4952    5.0588   19.1130 O   0  0  0  0  0  0  0  0  0  0  0  0
   23.6182    7.0755   19.8282 C   0  0  2  0  0  0  0  0  0  0  0  0
   22.0059    9.5646   24.0346 N   0  0  0  0  0  0  0  0  0  0  0  0
   21.9898    8.2195   23.7560 C   0  0  1  0  0  0  0  0  0  0  0  0
   21.4827    7.4412   24.7132 N   0  0  0  0  0  0  0  0  0  0  0  0
   22.4333    7.6798   22.6244 N   0  0  0  0  0  0  0  0  0  0  0  0
   22.9048    8.6186   21.7529 C   0  0  1  0  0  0  0  0  0  0  0  0
   22.9631    9.9883   21.9408 C   0  0  1  0  0  0  0  0  0  0  0  0
   22.4916   10.5403   23.1644 C   0  0  0  0  0  0  0  0  0  0  0  0
   22.4637   11.7268   23.5151 O   0  0  0  0  0  0  0  0  0  0  0  0
   23.5234   10.6094   20.8320 N   0  0  0  0  0  0  0  0  0  0  0  0
   23.7821    9.6317   20.0080 C   0  0  0  0  0  0  0  0  0  0  0  0
   23.4303    8.3888   20.4870 N   0  0  1  0  0  0  0  0  0  0  0  0
  2  1  1  0  0  0  0
  3  1  1  6  0  0  0
  3  4  1  0  0  0  0
  3  5  1  0  0  0  0
  5  6  1  6  0  0  0
  5  7  1  0  0  0  0
  7  8  1  6  0  0  0
  7  9  1  0  0  0  0
  9  4  1  6  0  0  0
  9 20  1  0  0  0  0
 10 11  1  0  0  0  0
 11 12  1  6  0  0  0
 11 13  1  0  0  0  0
 14 13  1  1  0  0  0
 15 14  1  0  0  0  0
 15 16  1  1  0  0  0
 16 10  1  0  0  0  0
 16 17  2  0  0  0  0
 18 15  1  0  0  0  0
 19 18  1  0  0  0  0
 20 14  1  0  0  0  0
 20 19  1  1  0  0  0
M  END
>  <CHROM.1>
-64.98472557,-152.40193559,23.03283375,8.28575099,20.41322068,-1.12189324
1.13723984,0.76001430

>  <Name>
1nyi_lig

>  <RI>
0

>  <Rbt.Current_Directory>
/home/itssahil/PROJECTS/Mol_Feturizer/New_Systems/rnas/1nyi

>  <Rbt.Executable>
rbdock ($Id: //depot/dev/client3/rdock/2013.1/src/exe/rbdock.cxx#4 $)

>  <Rbt.Library>
libRbt.so (2013.1, Build901 2013/11/27)

>  <Rbt.Parameter_File>
/export/apps/rDock/src/rDock_2013.1_src/data/scripts/dock_solv.prm

>  <Rbt.Receptor>
prm/blind_docking_60.prm

>  <SCORE>
-9.83828

>  <SCORE.INTER>
-9.78255

>  <SCORE.INTER.CONST>
1

>  <SCORE.INTER.POLAR>
0

>  <SCORE.INTER.ROT>
2

>  <SCORE.INTER.SOLV>
10.8756

>  <SCORE.INTER.VDW>
-15.0802

>  <SCORE.INTER.norm>
-0.489127

>  <SCORE.INTRA>
-1.24456

>  <SCORE.INTRA.DIHEDRAL>
-2.33378

>  <SCORE.INTRA.DIHEDRAL.0>
3.72394

>  <SCORE.INTRA.POLAR>
0

>  <SCORE.INTRA.POLAR.0>
0

>  <SCORE.INTRA.REPUL>
0

>  <SCORE.INTRA.REPUL.0>
0

>  <SCORE.INTRA.SOLV>
0.20081

>  <SCORE.INTRA.SOLV.lig_0>
-49.4697

>  <SCORE.INTRA.VDW>
-0.178077

>  <SCORE.INTRA.VDW.0>
-0.896538

>  <SCORE.INTRA.norm>
-0.0622282

>  <SCORE.RESTR>
1.18883

>  <SCORE.RESTR.CAVITY>
1.18883

>  <SCORE.RESTR.norm>
0.0594414

>  <SCORE.SYSTEM>
0

>  <SCORE.SYSTEM.CONST>
0

>  <SCORE.SYSTEM.DIHEDRAL>
0

>  <SCORE.SYSTEM.SOLV>
0

>  <SCORE.SYSTEM.norm>
0

>  <SCORE.heavy>
20

>  <SCORE.norm>
-0.491914

>  <RMSD>
26.945

$$$$
1nyi_lig
 OpenBabel11021811403D
libRbt.so/2013.1/901 2013/11/27
 20 22  0  0  0  0  0  0  0  0999 V2000
   24.7132    8.1218   16.7040 C   0  0  0  0  0  0  0  0  0  0  0  0
   24.2543    9.3851   17.1853 O   0  0  0  0  0  0  0  0  0  0  0  0
   24.1570    6.9913   17.5411 C   0  0  1  0  0  0  0  0  0  0  0  0
   24.6886    7.0978   18.8895 O   0  0  0  0  0  0  0  0  0  0  0  0
   22.6407    7.0613   17.6847 C   0  0  1  0  0  0  0  0  0  0  0  0
   21.9818    6.3299   16.6498 O   0  0  0  0  0  0  0  0  0  0  0  0
   22.4209    6.4791   19.0795 C   0  0  1  0  0  0  0  0  0  0  0  0
   22.4779    5.0608   19.1073 O   0  0  0  0  0  0  0  0  0  0  0  0
   23.6169    7.0678   19.8245 C   0  0  2  0  0  0  0  0  0  0  0  0
   21.9803    9.5682   24.0147 N   0  0  0  0  0  0  0  0  0  0  0  0
   21.9474    8.2244   23.7313 C   0  0  1  0  0  0  0  0  0  0  0  0
   21.4139    7.4511   24.6781 N   0  0  0  0  0  0  0  0  0  0  0  0
   22.3995    7.6815   22.6046 N   0  0  0  0  0  0  0  0  0  0  0  0
   22.8986    8.6157   21.7435 C   0  0  1  0  0  0  0  0  0  0  0  0
   22.9753    9.9837   21.9370 C   0  0  1  0  0  0  0  0  0  0  0  0
   22.4941   10.5390   23.1553 C   0  0  0  0  0  0  0  0  0  0  0  0
   22.4793   11.7247   23.5096 O   0  0  0  0  0  0  0  0  0  0  0  0
   23.5618   10.5996   20.8389 N   0  0  0  0  0  0  0  0  0  0  0  0
   23.8177    9.6205   20.0155 C   0  0  0  0  0  0  0  0  0  0  0  0
   23.4395    8.3817   20.4849 N   0  0  1  0  0  0  0  0  0  0  0  0
  2  1  1  0  0  0  0
  3  1  1  6  0  0  0
  3  4  1  0  0  0  0
  3  5  1  0  0  0  0
  5  6  1  6  0  0  0
  5  7  1  0  0  0  0
  7  8  1  6  0  0  0
  7  9  1  0  0  0  0
  9  4  1  6  0  0  0
  9 20  1  0  0  0  0
 10 11  1  0  0  0  0
 11 12  1  6  0  0  0
 11 13  1  0  0  0  0
 14 13  1  1  0  0  0
 15 14  1  0  0  0  0
 15 16  1  1  0  0  0
 16 10  1  0  0  0  0
 16 17  2  0  0  0  0
 18 15  1  0  0  0  0
 19 18  1  0  0  0  0
 20 14  1  0  0  0  0
 20 19  1  1  0  0  0
M  END
>  <CHROM.1>
-64.84773479,-153.39889895,23.02909674,8.28287896,20.40607802,-1.13080041
1.12107568,0.76930527

>  <Name>
1nyi_lig

>  <RI>
0

>  <Rbt.Current_Directory>
/home/itssahil/PROJECTS/Mol_Feturizer/New_Systems/rnas/1nyi

>  <Rbt.Executable>
rbdock ($Id: //depot/dev/client3/rdock/2013.1/src/exe/rbdock.cxx#4 $)

>  <Rbt.Library>
libRbt.so (2013.1, Build901 2013/11/27)

>  <Rbt.Parameter_File>
/export/apps/rDock/src/rDock_2013.1_src/data/scripts/dock_solv.prm

>  <Rbt.Receptor>
prm/blind_docking_60.prm

>  <SCORE>
-9.82938

>  <SCORE.INTER>
-9.77185

>  <SCORE.INTER.CONST>
1

>  <SCORE.INTER.POLAR>
0

>  <SCORE.INTER.ROT>
2

>  <SCORE.INTER.SOLV>
10.8099

>  <SCORE.INTER.VDW>
-15.0512

>  <SCORE.INTER.norm>
-0.488592

>  <SCORE.INTRA>
-1.25144

>  <SCORE.INTRA.DIHEDRAL>
-2.33944

>  <SCORE.INTRA.DIHEDRAL.0>
3.72394

>  <SCORE.INTRA.POLAR>
0

>  <SCORE.INTRA.POLAR.0>
0

>  <SCORE.INTRA.REPUL>
0

>  <SCORE.INTRA.REPUL.0>
0

>  <SCORE.INTRA.SOLV>
0.205096

>  <SCORE.INTRA.SOLV.lig_0>
-49.4697

>  <SCORE.INTRA.VDW>
-0.184266

>  <SCORE.INTRA.VDW.0>
-0.896538

>  <SCORE.INTRA.norm>
-0.0625719

>  <SCORE.RESTR>
1.19391

>  <SCORE.RESTR.CAVITY>
1.19391

>  <SCORE.RESTR.norm>
0.0596953

>  <SCORE.SYSTEM>
0

>  <SCORE.SYSTEM.CONST>
0

>  <SCORE.SYSTEM.DIHEDRAL>
0

>  <SCORE.SYSTEM.SOLV>
0

>  <SCORE.SYSTEM.norm>
0

>  <SCORE.heavy>
20

>  <SCORE.norm>
-0.491469

>  <RMSD>
26.951

$$$$
1nyi_lig
 OpenBabel11021811403D
libRbt.so/2013.1/901 2013/11/27
 20 22  0  0  0  0  0  0  0  0999 V2000
   24.7250    8.1505   16.7025 C   0  0  0  0  0  0  0  0  0  0  0  0
   24.3016    9.4134   17.2162 O   0  0  0  0  0  0  0  0  0  0  0  0
   24.1756    7.0163   17.5391 C   0  0  1  0  0  0  0  0  0  0  0  0
   24.7050    7.1264   18.8881 O   0  0  0  0  0  0  0  0  0  0  0  0
   22.6587    7.0761   17.6812 C   0  0  1  0  0  0  0  0  0  0  0  0
   22.0058    6.3401   16.6456 O   0  0  0  0  0  0  0  0  0  0  0  0
   22.4413    6.4924   19.0757 C   0  0  1  0  0  0  0  0  0  0  0  0
   22.5079    5.0746   19.1038 O   0  0  0  0  0  0  0  0  0  0  0  0
   23.6326    7.0893   19.8220 C   0  0  2  0  0  0  0  0  0  0  0  0
   22.0054    9.5766   24.0237 N   0  0  0  0  0  0  0  0  0  0  0  0
   21.9860    8.2320   23.7426 C   0  0  1  0  0  0  0  0  0  0  0  0
   21.4708    7.4539   24.6955 N   0  0  0  0  0  0  0  0  0  0  0  0
   22.4340    7.6928   22.6125 N   0  0  0  0  0  0  0  0  0  0  0  0
   22.9138    8.6315   21.7454 C   0  0  1  0  0  0  0  0  0  0  0  0
   22.9759   10.0007   21.9361 C   0  0  1  0  0  0  0  0  0  0  0  0
   22.4995   10.5521   23.1581 C   0  0  0  0  0  0  0  0  0  0  0  0
   22.4738   11.7380   23.5108 O   0  0  0  0  0  0  0  0  0  0  0  0
   23.5446   10.6217   20.8316 N   0  0  0  0  0  0  0  0  0  0  0  0
   23.8046    9.6445   20.0073 C   0  0  0  0  0  0  0  0  0  0  0  0
   23.4457    8.4020   20.4821 N   0  0  1  0  0  0  0  0  0  0  0  0
  2  1  1  0  0  0  0
  3  1  1  6  0  0  0
  3  4  1  0  0  0  0
  3  5  1  0  0  0  0
  5  6  1  6  0  0  0
  5  7  1  0  0  0  0
  7  8  1  6  0  0  0
  7  9  1  0  0  0  0
  9  4  1  6  0  0  0
  9 20  1  0  0  0  0
 10 11  1  0  0  0  0
 11 12  1  6  0  0  0
 11 13  1  0  0  0  0
 14 13  1  1  0  0  0
 15 14  1  0  0  0  0
 15 16  1  1  0  0  0
 16 10  1  0  0  0  0
 16 17  2  0  0  0  0
 18 15  1  0  0  0  0
 19 18  1  0  0  0  0
 20 14  1  0  0  0  0
 20 19  1  1  0  0  0
M  END
>  <CHROM.1>
-62.46361111,-152.72411382,23.04678872,8.29998276,20.40825727,-1.12266349
1.12860693,0.76184137

>  <Name>
1nyi_lig

>  <RI>
0

>  <Rbt.Current_Directory>
/home/itssahil/PROJECTS/Mol_Feturizer/New_Systems/rnas/1nyi

>  <Rbt.Executable>
rbdock ($Id: //depot/dev/client3/rdock/2013.1/src/exe/rbdock.cxx#4 $)

>  <Rbt.Library>
libRbt.so (2013.1, Build901 2013/11/27)

>  <Rbt.Parameter_File>
/export/apps/rDock/src/rDock_2013.1_src/data/scripts/dock_solv.prm

>  <Rbt.Receptor>
prm/blind_docking_60.prm

>  <SCORE>
-9.79346

>  <SCORE.INTER>
-9.74896

>  <SCORE.INTER.CONST>
1

>  <SCORE.INTER.POLAR>
0

>  <SCORE.INTER.ROT>
2

>  <SCORE.INTER.SOLV>
10.9306

>  <SCORE.INTER.VDW>
-15.0762

>  <SCORE.INTER.norm>
-0.487448

>  <SCORE.INTRA>
-1.23096

>  <SCORE.INTRA.DIHEDRAL>
-2.39862

>  <SCORE.INTRA.DIHEDRAL.0>
3.72394

>  <SCORE.INTRA.POLAR>
0

>  <SCORE.INTRA.POLAR.0>
0

>  <SCORE.INTRA.REPUL>
0

>  <SCORE.INTRA.REPUL.0>
0

>  <SCORE.INTRA.SOLV>
0.213314

>  <SCORE.INTRA.SOLV.lig_0>
-49.4697

>  <SCORE.INTRA.VDW>
-0.138307

>  <SCORE.INTRA.VDW.0>
-0.896538

>  <SCORE.INTRA.norm>
-0.0615481

>  <SCORE.RESTR>
1.18646

>  <SCORE.RESTR.CAVITY>
1.18646

>  <SCORE.RESTR.norm>
0.0593231

>  <SCORE.SYSTEM>
0

>  <SCORE.SYSTEM.CONST>
0

>  <SCORE.SYSTEM.DIHEDRAL>
0

>  <SCORE.SYSTEM.SOLV>
0

>  <SCORE.SYSTEM.norm>
0

>  <SCORE.heavy>
20

>  <SCORE.norm>
-0.489673

>  <RMSD>
26.954

$$$$
1nyi_lig
 OpenBabel11021811403D
libRbt.so/2013.1/901 2013/11/27
 20 22  0  0  0  0  0  0  0  0999 V2000
   23.6421   -5.3431   20.3398 C   0  0  0  0  0  0  0  0  0  0  0  0
   22.4378   -5.7654   19.6999 O   0  0  0  0  0  0  0  0  0  0  0  0
   24.8505   -5.9768   19.6870 C   0  0  1  0  0  0  0  0  0  0  0  0
   24.6462   -6.0092   18.2485 O   0  0  0  0  0  0  0  0  0  0  0  0
   26.1251   -5.1700   19.9084 C   0  0  1  0  0  0  0  0  0  0  0  0
   26.8129   -5.5895   21.0879 O   0  0  0  0  0  0  0  0  0  0  0  0
   26.9029   -5.4344   18.6208 C   0  0  1  0  0  0  0  0  0  0  0  0
   27.5587   -6.6936   18.6138 O   0  0  0  0  0  0  0  0  0  0  0  0
   25.7691   -5.4266   17.5978 C   0  0  2  0  0  0  0  0  0  0  0  0
   27.0912   -1.8432   14.1481 N   0  0  0  0  0  0  0  0  0  0  0  0
   27.7486   -2.9951   14.5062 C   0  0  1  0  0  0  0  0  0  0  0  0
   28.8983   -3.2215   13.8691 N   0  0  0  0  0  0  0  0  0  0  0  0
   27.3138   -3.8564   15.4215 N   0  0  0  0  0  0  0  0  0  0  0  0
   26.1324   -3.4643   15.9816 C   0  0  1  0  0  0  0  0  0  0  0  0
   25.3977   -2.3287   15.6896 C   0  0  1  0  0  0  0  0  0  0  0  0
   25.8792   -1.4279   14.6991 C   0  0  0  0  0  0  0  0  0  0  0  0
   25.3681   -0.3730   14.3022 O   0  0  0  0  0  0  0  0  0  0  0  0
   24.2413   -2.2848   16.4577 N   0  0  0  0  0  0  0  0  0  0  0  0
   24.2963   -3.3633   17.1896 C   0  0  0  0  0  0  0  0  0  0  0  0
   25.4172   -4.1330   16.9679 N   0  0  1  0  0  0  0  0  0  0  0  0
  2  1  1  0  0  0  0
  3  1  1  1  0  0  0
  3  4  1  0  0  0  0
  3  5  1  0  0  0  0
  5  6  1  1  0  0  0
  5  7  1  0  0  0  0
  7  8  1  1  0  0  0
  7  9  1  0  0  0  0
  9  4  1  1  0  0  0
  9 20  1  0  0  0  0
 10 11  1  0  0  0  0
 11 12  1  1  0  0  0
 11 13  1  0  0  0  0
 14 13  1  6  0  0  0
 15 14  1  0  0  0  0
 15 16  1  6  0  0  0
 16 10  1  0  0  0  0
 16 17  2  0  0  0  0
 18 15  1  0  0  0  0
 19 18  1  0  0  0  0
 20 14  1  0  0  0  0
 20 19  1  6  0  0  0
M  END
>  <CHROM.1>
39.24814319,-162.13893670,25.80195050,-4.07473930,17.20656729,1.83318501
-0.34376963,2.28319383

>  <Name>
1nyi_lig

>  <RI>
0

>  <Rbt.Current_Directory>
/home/itssahil/PROJECTS/Mol_Feturizer/New_Systems/rnas/1nyi

>  <Rbt.Executable>
rbdock ($Id: //depot/dev/client3/rdock/2013.1/src/exe/rbdock.cxx#4 $)

>  <Rbt.Library>
libRbt.so (2013.1, Build901 2013/11/27)

>  <Rbt.Parameter_File>
/export/apps/rDock/src/rDock_2013.1_src/data/scripts/dock_solv.prm

>  <Rbt.Receptor>
prm/blind_docking_100.prm

>  <SCORE>
-0.46738

>  <SCORE.INTER>
-4.84986

>  <SCORE.INTER.CONST>
1

>  <SCORE.INTER.POLAR>
-0.908973

>  <SCORE.INTER.ROT>
2

>  <SCORE.INTER.SOLV>
16.5972

>  <SCORE.INTER.VDW>
-10.6691

>  <SCORE.INTER.norm>
-0.242493

>  <SCORE.INTRA>
-1.03621

>  <SCORE.INTRA.DIHEDRAL>
-1.05359

>  <SCORE.INTRA.DIHEDRAL.0>
3.72394

>  <SCORE.INTRA.POLAR>
0

>  <SCORE.INTRA.POLAR.0>
0

>  <SCORE.INTRA.REPUL>
0

>  <SCORE.INTRA.REPUL.0>
0

>  <SCORE.INTRA.SOLV>
-0.558072

>  <SCORE.INTRA.SOLV.lig_0>
-49.4697

>  <SCORE.INTRA.VDW>
-0.230376

>  <SCORE.INTRA.VDW.0>
-0.896538

>  <SCORE.INTRA.norm>
-0.0518104

>  <SCORE.RESTR>
5.41868

>  <SCORE.RESTR.CAVITY>
5.41868

>  <SCORE.RESTR.norm>
0.270934

>  <SCORE.SYSTEM>
0

>  <SCORE.SYSTEM.CONST>
0

>  <SCORE.SYSTEM.DIHEDRAL>
0

>  <SCORE.SYSTEM.SOLV>
0

>  <SCORE.SYSTEM.norm>
0

>  <SCORE.heavy>
20

>  <SCORE.norm>
-0.023369

>  <RMSD>
26.964

$$$$
1nyi_lig
 OpenBabel11021811403D
libRbt.so/2013.1/901 2013/11/27
 20 22  0  0  0  0  0  0  0  0999 V2000
   24.8033    8.2425   16.7335 C   0  0  0  0  0  0  0  0  0  0  0  0
   24.3670    9.4990   17.2521 O   0  0  0  0  0  0  0  0  0  0  0  0
   24.2249    7.0978   17.5356 C   0  0  1  0  0  0  0  0  0  0  0  0
   24.7229    7.1786   18.8985 O   0  0  0  0  0  0  0  0  0  0  0  0
   22.7057    7.1679   17.6427 C   0  0  1  0  0  0  0  0  0  0  0  0
   22.0718    6.4567   16.5784 O   0  0  0  0  0  0  0  0  0  0  0  0
   22.4504    6.5605   19.0206 C   0  0  1  0  0  0  0  0  0  0  0  0
   22.5047    5.1419   19.0238 O   0  0  0  0  0  0  0  0  0  0  0  0
   23.6282    7.1334   19.8058 C   0  0  2  0  0  0  0  0  0  0  0  0
   21.9935    9.5504   24.0455 N   0  0  0  0  0  0  0  0  0  0  0  0
   21.9796    8.2102   23.7442 C   0  0  1  0  0  0  0  0  0  0  0  0
   21.4683    7.4156   24.6857 N   0  0  0  0  0  0  0  0  0  0  0  0
   22.4291    7.6898   22.6059 N   0  0  0  0  0  0  0  0  0  0  0  0
   22.9043    8.6435   21.7527 C   0  0  1  0  0  0  0  0  0  0  0  0
   22.9607   10.0099   21.9638 C   0  0  1  0  0  0  0  0  0  0  0  0
   22.4828   10.5409   23.1942 C   0  0  0  0  0  0  0  0  0  0  0  0
   22.4523   11.7213   23.5647 O   0  0  0  0  0  0  0  0  0  0  0  0
   23.5260   10.6499   20.8684 N   0  0  0  0  0  0  0  0  0  0  0  0
   23.7895    9.6862   20.0294 C   0  0  0  0  0  0  0  0  0  0  0  0
   23.4362    8.4353   20.4857 N   0  0  1  0  0  0  0  0  0  0  0  0
  2  1  1  0  0  0  0
  3  1  1  6  0  0  0
  3  4  1  0  0  0  0
  3  5  1  0  0  0  0
  5  6  1  6  0  0  0
  5  7  1  0  0  0  0
  7  8  1  6  0  0  0
  7  9  1  0  0  0  0
  9  4  1  6  0  0  0
  9 20  1  0  0  0  0
 10 11  1  0  0  0  0
 11 12  1  6  0  0  0
 11 13  1  0  0  0  0
 14 13  1  1  0  0  0
 15 14  1  0  0  0  0
 15 16  1  1  0  0  0
 16 10  1  0  0  0  0
 16 17  2  0  0  0  0
 18 15  1  0  0  0  0
 19 18  1  0  0  0  0
 20 14  1  0  0  0  0
 20 19  1  1  0  0  0
M  END
>  <CHROM.1>
-63.05660040,-151.13610785,23.05717439,8.33642332,20.40849749,-1.10555609
1.12385439,0.76463588

>  <Name>
1nyi_lig

>  <RI>
0

>  <Rbt.Current_Directory>
/home/itssahil/PROJECTS/Mol_Feturizer/New_Systems/rnas/1nyi

>  <Rbt.Executable>
rbdock ($Id: //depot/dev/client3/rdock/2013.1/src/exe/rbdock.cxx#4 $)

>  <Rbt.Library>
libRbt.so (2013.1, Build901 2013/11/27)

>  <Rbt.Parameter_File>
/export/apps/rDock/src/rDock_2013.1_src/data/scripts/dock_solv.prm

>  <Rbt.Receptor>
prm/blind_docking_60.prm

>  <SCORE>
-9.8173

>  <SCORE.INTER>
-9.78822

>  <SCORE.INTER.CONST>
1

>  <SCORE.INTER.POLAR>
0

>  <SCORE.INTER.ROT>
2

>  <SCORE.INTER.SOLV>
10.7698

>  <SCORE.INTER.VDW>
-15.0487

>  <SCORE.INTER.norm>
-0.489411

>  <SCORE.INTRA>
-1.22631

>  <SCORE.INTRA.DIHEDRAL>
-2.38624

>  <SCORE.INTRA.DIHEDRAL.0>
3.72394

>  <SCORE.INTRA.POLAR>
0

>  <SCORE.INTRA.POLAR.0>
0

>  <SCORE.INTRA.REPUL>
0

>  <SCORE.INTRA.REPUL.0>
0

>  <SCORE.INTRA.SOLV>
0.204736

>  <SCORE.INTRA.SOLV.lig_0>
-49.4697

>  <SCORE.INTRA.VDW>
-0.135556

>  <SCORE.INTRA.VDW.0>
-0.896538

>  <SCORE.INTRA.norm>
-0.0613153

>  <SCORE.RESTR>
1.19722

>  <SCORE.RESTR.CAVITY>
1.19722

>  <SCORE.RESTR.norm>
0.0598612

>  <SCORE.SYSTEM>
0

>  <SCORE.SYSTEM.CONST>
0

>  <SCORE.SYSTEM.DIHEDRAL>
0

>  <SCORE.SYSTEM.SOLV>
0

>  <SCORE.SYSTEM.norm>
0

>  <SCORE.heavy>
20

>  <SCORE.norm>
-0.490865

>  <RMSD>
26.964

$$$$
1nyi_lig
 OpenBabel11021811403D
libRbt.so/2013.1/901 2013/11/27
 20 22  0  0  0  0  0  0  0  0999 V2000
   23.6011   -5.3418   20.3217 C   0  0  0  0  0  0  0  0  0  0  0  0
   22.4138   -5.7979   19.6734 O   0  0  0  0  0  0  0  0  0  0  0  0
   24.8299   -5.9654   19.6978 C   0  0  1  0  0  0  0  0  0  0  0  0
   24.6517   -6.0172   18.2564 O   0  0  0  0  0  0  0  0  0  0  0  0
   26.0887   -5.1377   19.9321 C   0  0  1  0  0  0  0  0  0  0  0  0
   26.7613   -5.5336   21.1284 O   0  0  0  0  0  0  0  0  0  0  0  0
   26.8929   -5.4056   18.6617 C   0  0  1  0  0  0  0  0  0  0  0  0
   27.5667   -6.6552   18.6810 O   0  0  0  0  0  0  0  0  0  0  0  0
   25.7776   -5.4260   17.6188 C   0  0  2  0  0  0  0  0  0  0  0  0
   27.0760   -1.8964   14.1052 N   0  0  0  0  0  0  0  0  0  0  0  0
   27.7393   -3.0390   14.4815 C   0  0  1  0  0  0  0  0  0  0  0  0
   28.8886   -3.2712   13.8457 N   0  0  0  0  0  0  0  0  0  0  0  0
   27.3104   -3.8865   15.4124 N   0  0  0  0  0  0  0  0  0  0  0  0
   26.1284   -3.4901   15.9684 C   0  0  1  0  0  0  0  0  0  0  0  0
   25.3880   -2.3629   15.6586 C   0  0  1  0  0  0  0  0  0  0  0  0
   25.8633   -1.4771   14.6518 C   0  0  0  0  0  0  0  0  0  0  0  0
   25.3466   -0.4314   14.2380 O   0  0  0  0  0  0  0  0  0  0  0  0
   24.2332   -2.3110   16.4285 N   0  0  0  0  0  0  0  0  0  0  0  0
   24.2946   -3.3766   17.1786 C   0  0  0  0  0  0  0  0  0  0  0  0
   25.4184   -4.1450   16.9676 N   0  0  1  0  0  0  0  0  0  0  0  0
  2  1  1  0  0  0  0
  3  1  1  1  0  0  0
  3  4  1  0  0  0  0
  3  5  1  0  0  0  0
  5  6  1  1  0  0  0
  5  7  1  0  0  0  0
  7  8  1  1  0  0  0
  7  9  1  0  0  0  0
  9  4  1  1  0  0  0
  9 20  1  0  0  0  0
 10 11  1  0  0  0  0
 11 12  1  1  0  0  0
 11 13  1  0  0  0  0
 14 13  1  6  0  0  0
 15 14  1  0  0  0  0
 15 16  1  6  0  0  0
 16 10  1  0  0  0  0
 16 17  2  0  0  0  0
 18 15  1  0  0  0  0
 19 18  1  0  0  0  0
 20 14  1  0  0  0  0
 20 19  1  6  0  0  0
M  END
>  <CHROM.1>
39.76261233,-160.82520804,25.78886256,-4.08765211,17.20056562,1.83362787
-0.33364414,2.26771443

>  <Name>
1nyi_lig

>  <RI>
0

>  <Rbt.Current_Directory>
/home/itssahil/PROJECTS/Mol_Feturizer/New_Systems/rnas/1nyi

>  <Rbt.Executable>
rbdock ($Id: //depot/dev/client3/rdock/2013.1/src/exe/rbdock.cxx#4 $)

>  <Rbt.Library>
libRbt.so (2013.1, Build901 2013/11/27)

>  <Rbt.Parameter_File>
/export/apps/rDock/src/rDock_2013.1_src/data/scripts/dock_solv.prm

>  <Rbt.Receptor>
prm/blind_docking_100.prm

>  <SCORE>
-0.222059

>  <SCORE.INTER>
-4.50416

>  <SCORE.INTER.CONST>
1

>  <SCORE.INTER.POLAR>
-0.9011

>  <SCORE.INTER.ROT>
2

>  <SCORE.INTER.SOLV>
16.399

>  <SCORE.INTER.VDW>
-10.3988

>  <SCORE.INTER.norm>
-0.225208

>  <SCORE.INTRA>
-1.08246

>  <SCORE.INTRA.DIHEDRAL>
-1.11162

>  <SCORE.INTRA.DIHEDRAL.0>
3.72394

>  <SCORE.INTRA.POLAR>
0

>  <SCORE.INTRA.POLAR.0>
0

>  <SCORE.INTRA.REPUL>
0

>  <SCORE.INTRA.REPUL.0>
0

>  <SCORE.INTRA.SOLV>
-0.573775

>  <SCORE.INTRA.SOLV.lig_0>
-49.4697

>  <SCORE.INTRA.VDW>
-0.239768

>  <SCORE.INTRA.VDW.0>
-0.896538

>  <SCORE.INTRA.norm>
-0.0541232

>  <SCORE.RESTR>
5.36457

>  <SCORE.RESTR.CAVITY>
5.36457

>  <SCORE.RESTR.norm>
0.268228

>  <SCORE.SYSTEM>
0

>  <SCORE.SYSTEM.CONST>
0

>  <SCORE.SYSTEM.DIHEDRAL>
0

>  <SCORE.SYSTEM.SOLV>
0

>  <SCORE.SYSTEM.norm>
0

>  <SCORE.heavy>
20

>  <SCORE.norm>
-0.0111029

>  <RMSD>
26.969

$$$$
1nyi_lig
 OpenBabel11021811403D
libRbt.so/2013.1/901 2013/11/27
 20 22  0  0  0  0  0  0  0  0999 V2000
   23.6365   -5.3607   20.3160 C   0  0  0  0  0  0  0  0  0  0  0  0
   22.4389   -5.8151   19.6856 O   0  0  0  0  0  0  0  0  0  0  0  0
   24.8548   -5.9870   19.6744 C   0  0  1  0  0  0  0  0  0  0  0  0
   24.6607   -6.0275   18.2346 O   0  0  0  0  0  0  0  0  0  0  0  0
   26.1209   -5.1682   19.9008 C   0  0  1  0  0  0  0  0  0  0  0  0
   26.8041   -5.5765   21.0869 O   0  0  0  0  0  0  0  0  0  0  0  0
   26.9097   -5.4317   18.6199 C   0  0  1  0  0  0  0  0  0  0  0  0
   27.5763   -6.6853   18.6230 O   0  0  0  0  0  0  0  0  0  0  0  0
   25.7830   -5.4382   17.5890 C   0  0  2  0  0  0  0  0  0  0  0  0
   27.0743   -1.8817   14.1001 N   0  0  0  0  0  0  0  0  0  0  0  0
   27.7362   -3.0294   14.4631 C   0  0  1  0  0  0  0  0  0  0  0  0
   28.8817   -3.2593   13.8196 N   0  0  0  0  0  0  0  0  0  0  0  0
   27.3094   -3.8838   15.3886 N   0  0  0  0  0  0  0  0  0  0  0  0
   26.1314   -3.4889   15.9539 C   0  0  1  0  0  0  0  0  0  0  0  0
   25.3927   -2.3570   15.6577 C   0  0  1  0  0  0  0  0  0  0  0  0
   25.8656   -1.4638   14.6563 C   0  0  0  0  0  0  0  0  0  0  0  0
   25.3498   -0.4131   14.2542 O   0  0  0  0  0  0  0  0  0  0  0  0
   24.2418   -2.3086   16.4337 N   0  0  0  0  0  0  0  0  0  0  0  0
   24.3038   -3.3809   17.1742 C   0  0  0  0  0  0  0  0  0  0  0  0
   25.4244   -4.1505   16.9509 N   0  0  1  0  0  0  0  0  0  0  0  0
  2  1  1  0  0  0  0
  3  1  1  1  0  0  0
  3  4  1  0  0  0  0
  3  5  1  0  0  0  0
  5  6  1  1  0  0  0
  5  7  1  0  0  0  0
  7  8  1  1  0  0  0
  7  9  1  0  0  0  0
  9  4  1  1  0  0  0
  9 20  1  0  0  0  0
 10 11  1  0  0  0  0
 11 12  1  1  0  0  0
 11 13  1  0  0  0  0
 14 13  1  6  0  0  0
 15 14  1  0  0  0  0
 15 16  1  6  0  0  0
 16 10  1  0  0  0  0
 16 17  2  0  0  0  0
 18 15  1  0  0  0  0
 19 18  1  0  0  0  0
 20 14  1  0  0  0  0
 20 19  1  6  0  0  0
M  END
>  <CHROM.1>
40.31033295,-161.21632556,25.80041466,-4.09501654,17.18425776,1.83027457
-0.34128480,2.27495805

>  <Name>
1nyi_lig

>  <RI>
0

>  <Rbt.Current_Directory>
/home/itssahil/PROJECTS/Mol_Feturizer/New_Systems/rnas/1nyi

>  <Rbt.Executable>
rbdock ($Id: //depot/dev/client3/rdock/2013.1/src/exe/rbdock.cxx#4 $)

>  <Rbt.Library>
libRbt.so (2013.1, Build901 2013/11/27)

>  <Rbt.Parameter_File>
/export/apps/rDock/src/rDock_2013.1_src/data/scripts/dock_solv.prm

>  <Rbt.Receptor>
prm/blind_docking_100.prm

>  <SCORE>
-0.909907

>  <SCORE.INTER>
-5.31444

>  <SCORE.INTER.CONST>
1

>  <SCORE.INTER.POLAR>
-0.891817

>  <SCORE.INTER.ROT>
2

>  <SCORE.INTER.SOLV>
16.2395

>  <SCORE.INTER.VDW>
-10.9167

>  <SCORE.INTER.norm>
-0.265722

>  <SCORE.INTRA>
-1.11794

>  <SCORE.INTRA.DIHEDRAL>
-1.17739

>  <SCORE.INTRA.DIHEDRAL.0>
3.72394

>  <SCORE.INTRA.POLAR>
0

>  <SCORE.INTRA.POLAR.0>
0

>  <SCORE.INTRA.REPUL>
0

>  <SCORE.INTRA.REPUL.0>
0

>  <SCORE.INTRA.SOLV>
-0.573994

>  <SCORE.INTRA.SOLV.lig_0>
-49.4697

>  <SCORE.INTRA.VDW>
-0.242252

>  <SCORE.INTRA.VDW.0>
-0.896538

>  <SCORE.INTRA.norm>
-0.0558971

>  <SCORE.RESTR>
5.52248

>  <SCORE.RESTR.CAVITY>
5.52248

>  <SCORE.RESTR.norm>
0.276124

>  <SCORE.SYSTEM>
0

>  <SCORE.SYSTEM.CONST>
0

>  <SCORE.SYSTEM.DIHEDRAL>
0

>  <SCORE.SYSTEM.SOLV>
0

>  <SCORE.SYSTEM.norm>
0

>  <SCORE.heavy>
20

>  <SCORE.norm>
-0.0454953

>  <RMSD>
26.986

$$$$
1nyi_lig
 OpenBabel11021811403D
libRbt.so/2013.1/901 2013/11/27
 20 22  0  0  0  0  0  0  0  0999 V2000
   24.7047    8.0858   16.7148 C   0  0  0  0  0  0  0  0  0  0  0  0
   24.0831    8.1015   15.4297 O   0  0  0  0  0  0  0  0  0  0  0  0
   24.1604    6.9582   17.5635 C   0  0  1  0  0  0  0  0  0  0  0  0
   24.7009    7.0767   18.9074 O   0  0  0  0  0  0  0  0  0  0  0  0
   22.6449    7.0211   17.7173 C   0  0  1  0  0  0  0  0  0  0  0  0
   21.9826    6.2791   16.6921 O   0  0  0  0  0  0  0  0  0  0  0  0
   22.4379    6.4474   19.1175 C   0  0  1  0  0  0  0  0  0  0  0  0
   22.5026    5.0296   19.1547 O   0  0  0  0  0  0  0  0  0  0  0  0
   23.6359    7.0476   19.8501 C   0  0  2  0  0  0  0  0  0  0  0  0
   21.9904    9.5702   24.0235 N   0  0  0  0  0  0  0  0  0  0  0  0
   21.9595    8.2248   23.7478 C   0  0  1  0  0  0  0  0  0  0  0  0
   21.4254    7.4563   24.6982 N   0  0  0  0  0  0  0  0  0  0  0  0
   22.4138    7.6759   22.6248 N   0  0  0  0  0  0  0  0  0  0  0  0
   22.9132    8.6057   21.7592 C   0  0  1  0  0  0  0  0  0  0  0  0
   22.9881    9.9748   21.9449 C   0  0  1  0  0  0  0  0  0  0  0  0
   22.5045   10.5366   23.1593 C   0  0  0  0  0  0  0  0  0  0  0  0
   22.4879   11.7243   23.5068 O   0  0  0  0  0  0  0  0  0  0  0  0
   23.5755   10.5850   20.8441 N   0  0  0  0  0  0  0  0  0  0  0  0
   23.8337    9.6016   20.0267 C   0  0  0  0  0  0  0  0  0  0  0  0
   23.4562    8.3651   20.5027 N   0  0  1  0  0  0  0  0  0  0  0  0
  2  1  1  0  0  0  0
  3  1  1  6  0  0  0
  3  4  1  0  0  0  0
  3  5  1  0  0  0  0
  5  6  1  6  0  0  0
  5  7  1  0  0  0  0
  7  8  1  6  0  0  0
  7  9  1  0  0  0  0
  9  4  1  6  0  0  0
  9 20  1  0  0  0  0
 10 11  1  0  0  0  0
 11 12  1  6  0  0  0
 11 13  1  0  0  0  0
 14 13  1  1  0  0  0
 15 14  1  0  0  0  0
 15 16  1  1  0  0  0
 16 10  1  0  0  0  0
 16 17  2  0  0  0  0
 18 15  1  0  0  0  0
 19 18  1  0  0  0  0
 20 14  1  0  0  0  0
 20 19  1  1  0  0  0
M  END
>  <CHROM.1>
-173.31238888,-153.94532787,23.02997173,8.19299911,20.32435288,-1.12838722
1.14159756,0.77870918

>  <Name>
1nyi_lig

>  <RI>
0

>  <Rbt.Current_Directory>
/home/itssahil/PROJECTS/Mol_Feturizer/New_Systems/rnas/1nyi

>  <Rbt.Executable>
rbdock ($Id: //depot/dev/client3/rdock/2013.1/src/exe/rbdock.cxx#4 $)

>  <Rbt.Library>
libRbt.so (2013.1, Build901 2013/11/27)

>  <Rbt.Parameter_File>
/export/apps/rDock/src/rDock_2013.1_src/data/scripts/dock_solv.prm

>  <Rbt.Receptor>
prm/blind_docking_60.prm

>  <SCORE>
-10.099

>  <SCORE.INTER>
-9.70599

>  <SCORE.INTER.CONST>
1

>  <SCORE.INTER.POLAR>
0

>  <SCORE.INTER.ROT>
2

>  <SCORE.INTER.SOLV>
11.1732

>  <SCORE.INTER.VDW>
-15.1284

>  <SCORE.INTER.norm>
-0.485299

>  <SCORE.INTRA>
-1.69998

>  <SCORE.INTRA.DIHEDRAL>
-2.25412

>  <SCORE.INTRA.DIHEDRAL.0>
3.72394

>  <SCORE.INTRA.POLAR>
0

>  <SCORE.INTRA.POLAR.0>
0

>  <SCORE.INTRA.REPUL>
0

>  <SCORE.INTRA.REPUL.0>
0

>  <SCORE.INTRA.SOLV>
-0.537764

>  <SCORE.INTRA.SOLV.lig_0>
-49.4697

>  <SCORE.INTRA.VDW>
-0.304033

>  <SCORE.INTRA.VDW.0>
-0.896538

>  <SCORE.INTRA.norm>
-0.0849989

>  <SCORE.RESTR>
1.30692

>  <SCORE.RESTR.CAVITY>
1.30692

>  <SCORE.RESTR.norm>
0.0653459

>  <SCORE.SYSTEM>
0

>  <SCORE.SYSTEM.CONST>
0

>  <SCORE.SYSTEM.DIHEDRAL>
0

>  <SCORE.SYSTEM.SOLV>
0

>  <SCORE.SYSTEM.norm>
0

>  <SCORE.heavy>
20

>  <SCORE.norm>
-0.504952

>  <RMSD>
26.992

$$$$
1nyi_lig
 OpenBabel11021811403D
libRbt.so/2013.1/901 2013/11/27
 20 22  0  0  0  0  0  0  0  0999 V2000
   24.1973    8.7613   16.6221 C   0  0  0  0  0  0  0  0  0  0  0  0
   25.5868    8.9700   16.3697 O   0  0  0  0  0  0  0  0  0  0  0  0
   23.9829    7.5312   17.4759 C   0  0  1  0  0  0  0  0  0  0  0  0
   24.6818    7.7062   18.7381 O   0  0  0  0  0  0  0  0  0  0  0  0
   22.5172    7.3187   17.8376 C   0  0  1  0  0  0  0  0  0  0  0  0
   21.8528    6.4998   16.8741 O   0  0  0  0  0  0  0  0  0  0  0  0
   22.6151    6.6779   19.2205 C   0  0  1  0  0  0  0  0  0  0  0  0
   22.9280    5.2939   19.1732 O   0  0  0  0  0  0  0  0  0  0  0  0
   23.7840    7.4610   19.8140 C   0  0  2  0  0  0  0  0  0  0  0  0
   21.9376    9.5160   24.1565 N   0  0  0  0  0  0  0  0  0  0  0  0
   22.0449    8.1958   23.7919 C   0  0  1  0  0  0  0  0  0  0  0  0
   21.6074    7.3144   24.6924 N   0  0  0  0  0  0  0  0  0  0  0  0
   22.5395    7.7730   22.6321 N   0  0  0  0  0  0  0  0  0  0  0  0
   22.9267    8.8052   21.8271 C   0  0  1  0  0  0  0  0  0  0  0  0
   22.8594   10.1595   22.1032 C   0  0  1  0  0  0  0  0  0  0  0  0
   22.3355   10.5860   23.3553 C   0  0  0  0  0  0  0  0  0  0  0  0
   22.1986   11.7399   23.7812 O   0  0  0  0  0  0  0  0  0  0  0  0
   23.3646   10.8993   21.0418 N   0  0  0  0  0  0  0  0  0  0  0  0
   23.7141   10.0045   20.1591 C   0  0  0  0  0  0  0  0  0  0  0  0
   23.4752    8.7064   20.5541 N   0  0  1  0  0  0  0  0  0  0  0  0
  2  1  1  0  0  0  0
  3  1  1  6  0  0  0
  3  4  1  0  0  0  0
  3  5  1  0  0  0  0
  5  6  1  6  0  0  0
  5  7  1  0  0  0  0
  7  8  1  6  0  0  0
  7  9  1  0  0  0  0
  9  4  1  6  0  0  0
  9 20  1  0  0  0  0
 10 11  1  0  0  0  0
 11 12  1  6  0  0  0
 11 13  1  0  0  0  0
 14 13  1  1  0  0  0
 15 14  1  0  0  0  0
 15 16  1  1  0  0  0
 16 10  1  0  0  0  0
 16 17  2  0  0  0  0
 18 15  1  0  0  0  0
 19 18  1  0  0  0  0
 20 14  1  0  0  0  0
 20 19  1  1  0  0  0
M  END
>  <CHROM.1>
59.56480640,-162.60374435,23.07897858,8.47688110,20.44180238,-1.02239534
1.11608377,0.74518710

>  <Name>
1nyi_lig

>  <RI>
0

>  <Rbt.Current_Directory>
/home/itssahil/PROJECTS/Mol_Feturizer/New_Systems/rnas/1nyi

>  <Rbt.Executable>
rbdock ($Id: //depot/dev/client3/rdock/2013.1/src/exe/rbdock.cxx#4 $)

>  <Rbt.Library>
libRbt.so (2013.1, Build901 2013/11/27)

>  <Rbt.Parameter_File>
/export/apps/rDock/src/rDock_2013.1_src/data/scripts/dock_solv.prm

>  <Rbt.Receptor>
prm/blind_docking_60.prm

>  <SCORE>
-7.96006

>  <SCORE.INTER>
-7.74861

>  <SCORE.INTER.CONST>
1

>  <SCORE.INTER.POLAR>
0

>  <SCORE.INTER.ROT>
2

>  <SCORE.INTER.SOLV>
10.118

>  <SCORE.INTER.VDW>
-13.4717

>  <SCORE.INTER.norm>
-0.387431

>  <SCORE.INTRA>
-1.8926

>  <SCORE.INTRA.DIHEDRAL>
-2.43795

>  <SCORE.INTRA.DIHEDRAL.0>
3.72394

>  <SCORE.INTRA.POLAR>
0

>  <SCORE.INTRA.POLAR.0>
0

>  <SCORE.INTRA.REPUL>
0

>  <SCORE.INTRA.REPUL.0>
0

>  <SCORE.INTRA.SOLV>
-0.694727

>  <SCORE.INTRA.SOLV.lig_0>
-49.4697

>  <SCORE.INTRA.VDW>
-0.32626

>  <SCORE.INTRA.VDW.0>
-0.896538

>  <SCORE.INTRA.norm>
-0.0946298

>  <SCORE.RESTR>
1.68115

>  <SCORE.RESTR.CAVITY>
1.68115

>  <SCORE.RESTR.norm>
0.0840574

>  <SCORE.SYSTEM>
0

>  <SCORE.SYSTEM.CONST>
0

>  <SCORE.SYSTEM.DIHEDRAL>
0

>  <SCORE.SYSTEM.SOLV>
0

>  <SCORE.SYSTEM.norm>
0

>  <SCORE.heavy>
20

>  <SCORE.norm>
-0.398003

>  <RMSD>
26.995

$$$$
1nyi_lig
 OpenBabel11021811403D
libRbt.so/2013.1/901 2013/11/27
 20 22  0  0  0  0  0  0  0  0999 V2000
   24.6851    8.1054   16.7034 C   0  0  0  0  0  0  0  0  0  0  0  0
   24.0491    8.1171   15.4254 O   0  0  0  0  0  0  0  0  0  0  0  0
   24.1587    6.9734   17.5576 C   0  0  1  0  0  0  0  0  0  0  0  0
   24.7048    7.1015   18.8983 O   0  0  0  0  0  0  0  0  0  0  0  0
   22.6433    7.0189   17.7192 C   0  0  1  0  0  0  0  0  0  0  0  0
   21.9845    6.2667   16.6992 O   0  0  0  0  0  0  0  0  0  0  0  0
   22.4505    6.4460   19.1218 C   0  0  1  0  0  0  0  0  0  0  0  0
   22.5322    5.0292   19.1619 O   0  0  0  0  0  0  0  0  0  0  0  0
   23.6452    7.0620   19.8467 C   0  0  2  0  0  0  0  0  0  0  0  0
   22.0078    9.5736   24.0299 N   0  0  0  0  0  0  0  0  0  0  0  0
   21.9933    8.2270   23.7585 C   0  0  1  0  0  0  0  0  0  0  0  0
   21.4805    7.4539   24.7168 N   0  0  0  0  0  0  0  0  0  0  0  0
   22.4436    7.6812   22.6324 N   0  0  0  0  0  0  0  0  0  0  0  0
   22.9203    8.6154   21.7587 C   0  0  1  0  0  0  0  0  0  0  0  0
   22.9774    9.9861   21.9395 C   0  0  1  0  0  0  0  0  0  0  0  0
   22.4986   10.5446   23.1574 C   0  0  0  0  0  0  0  0  0  0  0  0
   22.4686   11.7330   23.5015 O   0  0  0  0  0  0  0  0  0  0  0  0
   23.5442   10.6013   20.8307 N   0  0  0  0  0  0  0  0  0  0  0  0
   23.8079    9.6191   20.0136 C   0  0  0  0  0  0  0  0  0  0  0  0
   23.4534    8.3788   20.4972 N   0  0  1  0  0  0  0  0  0  0  0  0
  2  1  1  0  0  0  0
  3  1  1  6  0  0  0
  3  4  1  0  0  0  0
  3  5  1  0  0  0  0
  5  6  1  6  0  0  0
  5  7  1  0  0  0  0
  7  8  1  6  0  0  0
  7  9  1  0  0  0  0
  9  4  1  6  0  0  0
  9 20  1  0  0  0  0
 10 11  1  0  0  0  0
 11 12  1  6  0  0  0
 11 13  1  0  0  0  0
 14 13  1  1  0  0  0
 15 14  1  0  0  0  0
 15 16  1  1  0  0  0
 16 10  1  0  0  0  0
 16 17  2  0  0  0  0
 18 15  1  0  0  0  0
 19 18  1  0  0  0  0
 20 14  1  0  0  0  0
 20 19  1  1  0  0  0
M  END
>  <CHROM.1>
-172.86226969,-153.60078685,23.03208660,8.20134454,20.32357944,-1.11809093
1.15785971,0.76694287

>  <Name>
1nyi_lig

>  <RI>
0

>  <Rbt.Current_Directory>
/home/itssahil/PROJECTS/Mol_Feturizer/New_Systems/rnas/1nyi

>  <Rbt.Executable>
rbdock ($Id: //depot/dev/client3/rdock/2013.1/src/exe/rbdock.cxx#4 $)

>  <Rbt.Library>
libRbt.so (2013.1, Build901 2013/11/27)

>  <Rbt.Parameter_File>
/export/apps/rDock/src/rDock_2013.1_src/data/scripts/dock_solv.prm

>  <Rbt.Receptor>
prm/blind_docking_60.prm

>  <SCORE>
-10.0897

>  <SCORE.INTER>
-9.69761

>  <SCORE.INTER.CONST>
1

>  <SCORE.INTER.POLAR>
0

>  <SCORE.INTER.ROT>
2

>  <SCORE.INTER.SOLV>
11.184

>  <SCORE.INTER.VDW>
-15.1264

>  <SCORE.INTER.norm>
-0.484881

>  <SCORE.INTRA>
-1.68565

>  <SCORE.INTRA.DIHEDRAL>
-2.23145

>  <SCORE.INTRA.DIHEDRAL.0>
3.72394

>  <SCORE.INTRA.POLAR>
0

>  <SCORE.INTRA.POLAR.0>
0

>  <SCORE.INTRA.REPUL>
0

>  <SCORE.INTRA.REPUL.0>
0

>  <SCORE.INTRA.SOLV>
-0.537593

>  <SCORE.INTRA.SOLV.lig_0>
-49.4697

>  <SCORE.INTRA.VDW>
-0.30113

>  <SCORE.INTRA.VDW.0>
-0.896538

>  <SCORE.INTRA.norm>
-0.0842825

>  <SCORE.RESTR>
1.29351

>  <SCORE.RESTR.CAVITY>
1.29351

>  <SCORE.RESTR.norm>
0.0646757

>  <SCORE.SYSTEM>
0

>  <SCORE.SYSTEM.CONST>
0

>  <SCORE.SYSTEM.DIHEDRAL>
0

>  <SCORE.SYSTEM.SOLV>
0

>  <SCORE.SYSTEM.norm>
0

>  <SCORE.heavy>
20

>  <SCORE.norm>
-0.504487

>  <RMSD>
26.996

$$$$
1nyi_lig
 OpenBabel11021811403D
libRbt.so/2013.1/901 2013/11/27
 20 22  0  0  0  0  0  0  0  0999 V2000
   24.1107    8.7670   16.6018 C   0  0  0  0  0  0  0  0  0  0  0  0
   25.4974    9.0005   16.3562 O   0  0  0  0  0  0  0  0  0  0  0  0
   23.9144    7.5344   17.4565 C   0  0  1  0  0  0  0  0  0  0  0  0
   24.6362    7.7077   18.7059 O   0  0  0  0  0  0  0  0  0  0  0  0
   22.4559    7.3184   17.8448 C   0  0  1  0  0  0  0  0  0  0  0  0
   21.7753    6.5006   16.8918 O   0  0  0  0  0  0  0  0  0  0  0  0
   22.5806    6.6745   19.2241 C   0  0  1  0  0  0  0  0  0  0  0  0
   22.8950    5.2912   19.1677 O   0  0  0  0  0  0  0  0  0  0  0  0
   23.7590    7.4583   19.7977 C   0  0  2  0  0  0  0  0  0  0  0  0
   21.9676    9.4997   24.1696 N   0  0  0  0  0  0  0  0  0  0  0  0
   22.0675    8.1808   23.7984 C   0  0  1  0  0  0  0  0  0  0  0  0
   21.6382    7.2967   24.7002 N   0  0  0  0  0  0  0  0  0  0  0  0
   22.5477    7.7616   22.6312 N   0  0  0  0  0  0  0  0  0  0  0  0
   22.9281    8.7962   21.8261 C   0  0  1  0  0  0  0  0  0  0  0  0
   22.8673   10.1495   22.1084 C   0  0  1  0  0  0  0  0  0  0  0  0
   22.3589   10.5720   23.3683 C   0  0  0  0  0  0  0  0  0  0  0  0
   22.2296   11.7245   23.8005 O   0  0  0  0  0  0  0  0  0  0  0  0
   23.3621   10.8925   21.0444 N   0  0  0  0  0  0  0  0  0  0  0  0
   23.6992   10.0005   20.1541 C   0  0  0  0  0  0  0  0  0  0  0  0
   23.4617    8.7013   20.5464 N   0  0  1  0  0  0  0  0  0  0  0  0
  2  1  1  0  0  0  0
  3  1  1  6  0  0  0
  3  4  1  0  0  0  0
  3  5  1  0  0  0  0
  5  6  1  6  0  0  0
  5  7  1  0  0  0  0
  7  8  1  6  0  0  0
  7  9  1  0  0  0  0
  9  4  1  6  0  0  0
  9 20  1  0  0  0  0
 10 11  1  0  0  0  0
 11 12  1  6  0  0  0
 11 13  1  0  0  0  0
 14 13  1  1  0  0  0
 15 14  1  0  0  0  0
 15 16  1  1  0  0  0
 16 10  1  0  0  0  0
 16 17  2  0  0  0  0
 18 15  1  0  0  0  0
 19 18  1  0  0  0  0
 20 14  1  0  0  0  0
 20 19  1  1  0  0  0
M  END
>  <CHROM.1>
57.90416127,-163.08307205,23.05806727,8.47262360,20.44037356,-1.04782589
1.12532280,0.77095599

>  <Name>
1nyi_lig

>  <RI>
0

>  <Rbt.Current_Directory>
/home/itssahil/PROJECTS/Mol_Feturizer/New_Systems/rnas/1nyi

>  <Rbt.Executable>
rbdock ($Id: //depot/dev/client3/rdock/2013.1/src/exe/rbdock.cxx#4 $)

>  <Rbt.Library>
libRbt.so (2013.1, Build901 2013/11/27)

>  <Rbt.Parameter_File>
/export/apps/rDock/src/rDock_2013.1_src/data/scripts/dock_solv.prm

>  <Rbt.Receptor>
prm/blind_docking_60.prm

>  <SCORE>
-7.90975

>  <SCORE.INTER>
-7.70148

>  <SCORE.INTER.CONST>
1

>  <SCORE.INTER.POLAR>
0

>  <SCORE.INTER.ROT>
2

>  <SCORE.INTER.SOLV>
10.0521

>  <SCORE.INTER.VDW>
-13.4184

>  <SCORE.INTER.norm>
-0.385074

>  <SCORE.INTRA>
-1.87303

>  <SCORE.INTRA.DIHEDRAL>
-2.42595

>  <SCORE.INTRA.DIHEDRAL.0>
3.72394

>  <SCORE.INTRA.POLAR>
0

>  <SCORE.INTRA.POLAR.0>
0

>  <SCORE.INTRA.REPUL>
0

>  <SCORE.INTRA.REPUL.0>
0

>  <SCORE.INTRA.SOLV>
-0.679259

>  <SCORE.INTRA.SOLV.lig_0>
-49.4697

>  <SCORE.INTRA.VDW>
-0.320424

>  <SCORE.INTRA.VDW.0>
-0.896538

>  <SCORE.INTRA.norm>
-0.0936514

>  <SCORE.RESTR>
1.66476

>  <SCORE.RESTR.CAVITY>
1.66476

>  <SCORE.RESTR.norm>
0.0832379

>  <SCORE.SYSTEM>
0

>  <SCORE.SYSTEM.CONST>
0

>  <SCORE.SYSTEM.DIHEDRAL>
0

>  <SCORE.SYSTEM.SOLV>
0

>  <SCORE.SYSTEM.norm>
0

>  <SCORE.heavy>
20

>  <SCORE.norm>
-0.395488

>  <RMSD>
26.997

$$$$
1nyi_lig
 OpenBabel11021811403D
libRbt.so/2013.1/901 2013/11/27
 20 22  0  0  0  0  0  0  0  0999 V2000
   24.6860    8.1105   16.7058 C   0  0  0  0  0  0  0  0  0  0  0  0
   24.0548    8.1226   15.4253 O   0  0  0  0  0  0  0  0  0  0  0  0
   24.1572    6.9773   17.5570 C   0  0  1  0  0  0  0  0  0  0  0  0
   24.6985    7.1046   18.8998 O   0  0  0  0  0  0  0  0  0  0  0  0
   22.6413    7.0217   17.7134 C   0  0  1  0  0  0  0  0  0  0  0  0
   21.9866    6.2700   16.6903 O   0  0  0  0  0  0  0  0  0  0  0  0
   22.4439    6.4473   19.1147 C   0  0  1  0  0  0  0  0  0  0  0  0
   22.5264    5.0306   19.1538 O   0  0  0  0  0  0  0  0  0  0  0  0
   23.6356    7.0635   19.8443 C   0  0  2  0  0  0  0  0  0  0  0  0
   21.9998    9.5690   24.0319 N   0  0  0  0  0  0  0  0  0  0  0  0
   21.9897    8.2223   23.7605 C   0  0  1  0  0  0  0  0  0  0  0  0
   21.4822    7.4473   24.7202 N   0  0  0  0  0  0  0  0  0  0  0  0
   22.4390    7.6782   22.6332 N   0  0  0  0  0  0  0  0  0  0  0  0
   22.9100    8.6142   21.7583 C   0  0  1  0  0  0  0  0  0  0  0  0
   22.9625    9.9851   21.9390 C   0  0  1  0  0  0  0  0  0  0  0  0
   22.4848   10.5418   23.1581 C   0  0  0  0  0  0  0  0  0  0  0  0
   22.4513   11.7301   23.5023 O   0  0  0  0  0  0  0  0  0  0  0  0
   23.5241   10.6023   20.8288 N   0  0  0  0  0  0  0  0  0  0  0  0
   23.7893    9.6211   20.0109 C   0  0  0  0  0  0  0  0  0  0  0  0
   23.4406    8.3795   20.4955 N   0  0  1  0  0  0  0  0  0  0  0  0
  2  1  1  0  0  0  0
  3  1  1  6  0  0  0
  3  4  1  0  0  0  0
  3  5  1  0  0  0  0
  5  6  1  6  0  0  0
  5  7  1  0  0  0  0
  7  8  1  6  0  0  0
  7  9  1  0  0  0  0
  9  4  1  6  0  0  0
  9 20  1  0  0  0  0
 10 11  1  0  0  0  0
 11 12  1  6  0  0  0
 11 13  1  0  0  0  0
 14 13  1  1  0  0  0
 15 14  1  0  0  0  0
 15 16  1  1  0  0  0
 16 10  1  0  0  0  0
 16 17  2  0  0  0  0
 18 15  1  0  0  0  0
 19 18  1  0  0  0  0
 20 14  1  0  0  0  0
 20 19  1  1  0  0  0
M  END
>  <CHROM.1>
-172.88382227,-153.20521034,23.02495066,8.20166265,20.32219889,-1.11228731
1.16002269,0.76247701

>  <Name>
1nyi_lig

>  <RI>
0

>  <Rbt.Current_Directory>
/home/itssahil/PROJECTS/Mol_Feturizer/New_Systems/rnas/1nyi

>  <Rbt.Executable>
rbdock ($Id: //depot/dev/client3/rdock/2013.1/src/exe/rbdock.cxx#4 $)

>  <Rbt.Library>
libRbt.so (2013.1, Build901 2013/11/27)

>  <Rbt.Parameter_File>
/export/apps/rDock/src/rDock_2013.1_src/data/scripts/dock_solv.prm

>  <Rbt.Receptor>
prm/blind_docking_60.prm

>  <SCORE>
-10.1451

>  <SCORE.INTER>
-9.76364

>  <SCORE.INTER.CONST>
1

>  <SCORE.INTER.POLAR>
0

>  <SCORE.INTER.ROT>
2

>  <SCORE.INTER.SOLV>
11.0924

>  <SCORE.INTER.VDW>
-15.1399

>  <SCORE.INTER.norm>
-0.488182

>  <SCORE.INTRA>
-1.68942

>  <SCORE.INTRA.DIHEDRAL>
-2.2321

>  <SCORE.INTRA.DIHEDRAL.0>
3.72394

>  <SCORE.INTRA.POLAR>
0

>  <SCORE.INTRA.POLAR.0>
0

>  <SCORE.INTRA.REPUL>
0

>  <SCORE.INTRA.REPUL.0>
0

>  <SCORE.INTRA.SOLV>
-0.539933

>  <SCORE.INTRA.SOLV.lig_0>
-49.4697

>  <SCORE.INTRA.VDW>
-0.3034

>  <SCORE.INTRA.VDW.0>
-0.896538

>  <SCORE.INTRA.norm>
-0.0844708

>  <SCORE.RESTR>
1.30795

>  <SCORE.RESTR.CAVITY>
1.30795

>  <SCORE.RESTR.norm>
0.0653976

>  <SCORE.SYSTEM>
0

>  <SCORE.SYSTEM.CONST>
0

>  <SCORE.SYSTEM.DIHEDRAL>
0

>  <SCORE.SYSTEM.SOLV>
0

>  <SCORE.SYSTEM.norm>
0

>  <SCORE.heavy>
20

>  <SCORE.norm>
-0.507255

>  <RMSD>
26.997

$$$$
1nyi_lig
 OpenBabel11021811403D
libRbt.so/2013.1/901 2013/11/27
 20 22  0  0  0  0  0  0  0  0999 V2000
   24.1855    8.7775   16.6130 C   0  0  0  0  0  0  0  0  0  0  0  0
   25.5747    8.9703   16.3466 O   0  0  0  0  0  0  0  0  0  0  0  0
   23.9648    7.5435   17.4595 C   0  0  1  0  0  0  0  0  0  0  0  0
   24.6648    7.7072   18.7225 O   0  0  0  0  0  0  0  0  0  0  0  0
   22.4980    7.3366   17.8203 C   0  0  1  0  0  0  0  0  0  0  0  0
   21.8291    6.5271   16.8521 O   0  0  0  0  0  0  0  0  0  0  0  0
   22.5928    6.6871   19.1993 C   0  0  1  0  0  0  0  0  0  0  0  0
   22.8983    5.3017   19.1437 O   0  0  0  0  0  0  0  0  0  0  0  0
   23.7660    7.4604   19.7972 C   0  0  2  0  0  0  0  0  0  0  0  0
   21.9498    9.4990   24.1601 N   0  0  0  0  0  0  0  0  0  0  0  0
   22.0524    8.1803   23.7889 C   0  0  1  0  0  0  0  0  0  0  0  0
   21.6188    7.2956   24.6880 N   0  0  0  0  0  0  0  0  0  0  0  0
   22.5392    7.7618   22.6242 N   0  0  0  0  0  0  0  0  0  0  0  0
   22.9233    8.7970   21.8216 C   0  0  1  0  0  0  0  0  0  0  0  0
   22.8603   10.1501   22.1041 C   0  0  1  0  0  0  0  0  0  0  0  0
   22.3448   10.5719   23.3614 C   0  0  0  0  0  0  0  0  0  0  0  0
   22.2125   11.7241   23.7933 O   0  0  0  0  0  0  0  0  0  0  0  0
   23.3604   10.8938   21.0431 N   0  0  0  0  0  0  0  0  0  0  0  0
   23.7028   10.0024   20.1543 C   0  0  0  0  0  0  0  0  0  0  0  0
   23.4640    8.7030   20.5448 N   0  0  1  0  0  0  0  0  0  0  0  0
  2  1  1  0  0  0  0
  3  1  1  6  0  0  0
  3  4  1  0  0  0  0
  3  5  1  0  0  0  0
  5  6  1  6  0  0  0
  5  7  1  0  0  0  0
  7  8  1  6  0  0  0
  7  9  1  0  0  0  0
  9  4  1  6  0  0  0
  9 20  1  0  0  0  0
 10 11  1  0  0  0  0
 11 12  1  6  0  0  0
 11 13  1  0  0  0  0
 14 13  1  1  0  0  0
 15 14  1  0  0  0  0
 15 16  1  1  0  0  0
 16 10  1  0  0  0  0
 16 17  2  0  0  0  0
 18 15  1  0  0  0  0
 19 18  1  0  0  0  0
 20 14  1  0  0  0  0
 20 19  1  1  0  0  0
M  END
>  <CHROM.1>
60.33833476,-162.20520507,23.07135218,8.47563266,20.43243490,-1.03262957
1.11696198,0.75992573

>  <Name>
1nyi_lig

>  <RI>
0

>  <Rbt.Current_Directory>
/home/itssahil/PROJECTS/Mol_Feturizer/New_Systems/rnas/1nyi

>  <Rbt.Executable>
rbdock ($Id: //depot/dev/client3/rdock/2013.1/src/exe/rbdock.cxx#4 $)

>  <Rbt.Library>
libRbt.so (2013.1, Build901 2013/11/27)

>  <Rbt.Parameter_File>
/export/apps/rDock/src/rDock_2013.1_src/data/scripts/dock_solv.prm

>  <Rbt.Receptor>
prm/blind_docking_60.prm

>  <SCORE>
-7.97857

>  <SCORE.INTER>
-7.76444

>  <SCORE.INTER.CONST>
1

>  <SCORE.INTER.POLAR>
0

>  <SCORE.INTER.ROT>
2

>  <SCORE.INTER.SOLV>
10.052

>  <SCORE.INTER.VDW>
-13.4603

>  <SCORE.INTER.norm>
-0.388222

>  <SCORE.INTRA>
-1.89937

>  <SCORE.INTRA.DIHEDRAL>
-2.43627

>  <SCORE.INTRA.DIHEDRAL.0>
3.72394

>  <SCORE.INTRA.POLAR>
0

>  <SCORE.INTRA.POLAR.0>
0

>  <SCORE.INTRA.REPUL>
0

>  <SCORE.INTRA.REPUL.0>
0

>  <SCORE.INTRA.SOLV>
-0.703483

>  <SCORE.INTRA.SOLV.lig_0>
-49.4697

>  <SCORE.INTRA.VDW>
-0.329492

>  <SCORE.INTRA.VDW.0>
-0.896538

>  <SCORE.INTRA.norm>
-0.0949685

>  <SCORE.RESTR>
1.68524

>  <SCORE.RESTR.CAVITY>
1.68524

>  <SCORE.RESTR.norm>
0.084262

>  <SCORE.SYSTEM>
0

>  <SCORE.SYSTEM.CONST>
0

>  <SCORE.SYSTEM.DIHEDRAL>
0

>  <SCORE.SYSTEM.SOLV>
0

>  <SCORE.SYSTEM.norm>
0

>  <SCORE.heavy>
20

>  <SCORE.norm>
-0.398929

>  <RMSD>
27.003

$$$$
1nyi_lig
 OpenBabel11021811403D
libRbt.so/2013.1/901 2013/11/27
 20 22  0  0  0  0  0  0  0  0999 V2000
   24.6874    8.1045   16.6988 C   0  0  0  0  0  0  0  0  0  0  0  0
   24.0555    8.1139   15.4186 O   0  0  0  0  0  0  0  0  0  0  0  0
   24.1590    6.9733   17.5528 C   0  0  1  0  0  0  0  0  0  0  0  0
   24.7038    7.1015   18.8941 O   0  0  0  0  0  0  0  0  0  0  0  0
   22.6435    7.0202   17.7128 C   0  0  1  0  0  0  0  0  0  0  0  0
   21.9851    6.2682   16.6924 O   0  0  0  0  0  0  0  0  0  0  0  0
   22.4487    6.4481   19.1154 C   0  0  1  0  0  0  0  0  0  0  0  0
   22.5291    5.0312   19.1562 O   0  0  0  0  0  0  0  0  0  0  0  0
   23.6431    7.0633   19.8413 C   0  0  2  0  0  0  0  0  0  0  0  0
   22.0059    9.5781   24.0227 N   0  0  0  0  0  0  0  0  0  0  0  0
   21.9909    8.2313   23.7521 C   0  0  1  0  0  0  0  0  0  0  0  0
   21.4775    7.4590   24.7107 N   0  0  0  0  0  0  0  0  0  0  0  0
   22.4412    7.6847   22.6264 N   0  0  0  0  0  0  0  0  0  0  0  0
   22.9185    8.6182   21.7523 C   0  0  1  0  0  0  0  0  0  0  0  0
   22.9762    9.9890   21.9324 C   0  0  1  0  0  0  0  0  0  0  0  0
   22.4974   10.5483   23.1498 C   0  0  0  0  0  0  0  0  0  0  0  0
   22.4678   11.7370   23.4932 O   0  0  0  0  0  0  0  0  0  0  0  0
   23.5435   10.6032   20.8234 N   0  0  0  0  0  0  0  0  0  0  0  0
   23.8070    9.6205   20.0069 C   0  0  0  0  0  0  0  0  0  0  0  0
   23.4517    8.3806   20.4911 N   0  0  1  0  0  0  0  0  0  0  0  0
  2  1  1  0  0  0  0
  3  1  1  6  0  0  0
  3  4  1  0  0  0  0
  3  5  1  0  0  0  0
  5  6  1  6  0  0  0
  5  7  1  0  0  0  0
  7  8  1  6  0  0  0
  7  9  1  0  0  0  0
  9  4  1  6  0  0  0
  9 20  1  0  0  0  0
 10 11  1  0  0  0  0
 11 12  1  6  0  0  0
 11 13  1  0  0  0  0
 14 13  1  1  0  0  0
 15 14  1  0  0  0  0
 15 16  1  1  0  0  0
 16 10  1  0  0  0  0
 16 17  2  0  0  0  0
 18 15  1  0  0  0  0
 19 18  1  0  0  0  0
 20 14  1  0  0  0  0
 20 19  1  1  0  0  0
M  END
>  <CHROM.1>
-173.02807732,-153.54577350,23.03131877,8.20328563,20.31726324,-1.11800014
1.15686760,0.76643330

>  <Name>
1nyi_lig

>  <RI>
0

>  <Rbt.Current_Directory>
/home/itssahil/PROJECTS/Mol_Feturizer/New_Systems/rnas/1nyi

>  <Rbt.Executable>
rbdock ($Id: //depot/dev/client3/rdock/2013.1/src/exe/rbdock.cxx#4 $)

>  <Rbt.Library>
libRbt.so (2013.1, Build901 2013/11/27)

>  <Rbt.Parameter_File>
/export/apps/rDock/src/rDock_2013.1_src/data/scripts/dock_solv.prm

>  <Rbt.Receptor>
prm/blind_docking_60.prm

>  <SCORE>
-10.1179

>  <SCORE.INTER>
-9.72704

>  <SCORE.INTER.CONST>
1

>  <SCORE.INTER.POLAR>
0

>  <SCORE.INTER.ROT>
2

>  <SCORE.INTER.SOLV>
11.1656

>  <SCORE.INTER.VDW>
-15.1399

>  <SCORE.INTER.norm>
-0.486352

>  <SCORE.INTRA>
-1.69236

>  <SCORE.INTRA.DIHEDRAL>
-2.23974

>  <SCORE.INTRA.DIHEDRAL.0>
3.72394

>  <SCORE.INTRA.POLAR>
0

>  <SCORE.INTRA.POLAR.0>
0

>  <SCORE.INTRA.REPUL>
0

>  <SCORE.INTRA.REPUL.0>
0

>  <SCORE.INTRA.SOLV>
-0.538683

>  <SCORE.INTRA.SOLV.lig_0>
-49.4697

>  <SCORE.INTRA.VDW>
-0.303152

>  <SCORE.INTRA.VDW.0>
-0.896538

>  <SCORE.INTRA.norm>
-0.0846182

>  <SCORE.RESTR>
1.30146

>  <SCORE.RESTR.CAVITY>
1.30146

>  <SCORE.RESTR.norm>
0.0650731

>  <SCORE.SYSTEM>
0

>  <SCORE.SYSTEM.CONST>
0

>  <SCORE.SYSTEM.DIHEDRAL>
0

>  <SCORE.SYSTEM.SOLV>
0

>  <SCORE.SYSTEM.norm>
0

>  <SCORE.heavy>
20

>  <SCORE.norm>
-0.505897

>  <RMSD>
27.003

$$$$
1nyi_lig
 OpenBabel11021811403D
libRbt.so/2013.1/901 2013/11/27
 20 22  0  0  0  0  0  0  0  0999 V2000
   26.5934   -4.9242   20.9408 C   0  0  0  0  0  0  0  0  0  0  0  0
   26.6486   -5.5933   22.2007 O   0  0  0  0  0  0  0  0  0  0  0  0
   25.3742   -5.3534   20.1550 C   0  0  1  0  0  0  0  0  0  0  0  0
   25.0998   -4.3595   19.1308 O   0  0  0  0  0  0  0  0  0  0  0  0
   25.5900   -6.6675   19.4126 C   0  0  1  0  0  0  0  0  0  0  0  0
   25.2036   -7.7889   20.2085 O   0  0  0  0  0  0  0  0  0  0  0  0
   24.7301   -6.4787   18.1646 C   0  0  1  0  0  0  0  0  0  0  0  0
   23.3478   -6.7007   18.4006 O   0  0  0  0  0  0  0  0  0  0  0  0
   24.9819   -5.0021   17.8672 C   0  0  2  0  0  0  0  0  0  0  0  0
   26.5783   -2.2540   13.8189 N   0  0  0  0  0  0  0  0  0  0  0  0
   25.3260   -2.3392   14.3774 C   0  0  1  0  0  0  0  0  0  0  0  0
   24.3830   -1.6036   13.7868 N   0  0  0  0  0  0  0  0  0  0  0  0
   25.0214   -3.0908   15.4314 N   0  0  0  0  0  0  0  0  0  0  0  0
   26.0987   -3.7855   15.9007 C   0  0  1  0  0  0  0  0  0  0  0  0
   27.3922   -3.7664   15.4096 C   0  0  1  0  0  0  0  0  0  0  0  0
   27.6949   -2.9461   14.2871 C   0  0  0  0  0  0  0  0  0  0  0  0
   28.7805   -2.7954   13.7125 O   0  0  0  0  0  0  0  0  0  0  0  0
   28.2129   -4.5946   16.1644 N   0  0  0  0  0  0  0  0  0  0  0  0
   27.4219   -5.0952   17.0730 C   0  0  0  0  0  0  0  0  0  0  0  0
   26.1177   -4.6610   16.9798 N   0  0  1  0  0  0  0  0  0  0  0  0
  2  1  1  0  0  0  0
  3  1  1  6  0  0  0
  3  4  1  0  0  0  0
  3  5  1  0  0  0  0
  5  6  1  1  0  0  0
  5  7  1  0  0  0  0
  7  8  1  1  0  0  0
  7  9  1  0  0  0  0
  9  4  1  1  0  0  0
  9 20  1  0  0  0  0
 10 11  1  0  0  0  0
 11 12  1  6  0  0  0
 11 13  1  0  0  0  0
 14 13  1  1  0  0  0
 15 14  1  0  0  0  0
 15 16  1  1  0  0  0
 16 10  1  0  0  0  0
 16 17  2  0  0  0  0
 18 15  1  0  0  0  0
 19 18  1  0  0  0  0
 20 14  1  0  0  0  0
 20 19  1  1  0  0  0
M  END
>  <CHROM.1>
160.70282112,-104.58484358,26.02013266,-4.52806803,17.24327079,-1.74442270
-0.10889452,-1.06062163

>  <Name>
1nyi_lig

>  <RI>
0

>  <Rbt.Current_Directory>
/home/itssahil/PROJECTS/Mol_Feturizer/New_Systems/rnas/1nyi

>  <Rbt.Executable>
rbdock ($Id: //depot/dev/client3/rdock/2013.1/src/exe/rbdock.cxx#4 $)

>  <Rbt.Library>
libRbt.so (2013.1, Build901 2013/11/27)

>  <Rbt.Parameter_File>
/export/apps/rDock/src/rDock_2013.1_src/data/scripts/dock_solv.prm

>  <Rbt.Receptor>
prm/blind_docking_100.prm

>  <SCORE>
1.40796

>  <SCORE.INTER>
-5.37768

>  <SCORE.INTER.CONST>
1

>  <SCORE.INTER.POLAR>
-0.836171

>  <SCORE.INTER.ROT>
2

>  <SCORE.INTER.SOLV>
10.9467

>  <SCORE.INTER.VDW>
-9.38013

>  <SCORE.INTER.norm>
-0.268884

>  <SCORE.INTRA>
-1.45267

>  <SCORE.INTRA.DIHEDRAL>
-1.34939

>  <SCORE.INTRA.DIHEDRAL.0>
3.72394

>  <SCORE.INTRA.POLAR>
0

>  <SCORE.INTRA.POLAR.0>
0

>  <SCORE.INTRA.REPUL>
0

>  <SCORE.INTRA.REPUL.0>
0

>  <SCORE.INTRA.SOLV>
-0.731754

>  <SCORE.INTRA.SOLV.lig_0>
-49.4697

>  <SCORE.INTRA.VDW>
-0.412092

>  <SCORE.INTRA.VDW.0>
-0.896538

>  <SCORE.INTRA.norm>
-0.0726333

>  <SCORE.RESTR>
8.2383

>  <SCORE.RESTR.CAVITY>
8.2383

>  <SCORE.RESTR.norm>
0.411915

>  <SCORE.SYSTEM>
0

>  <SCORE.SYSTEM.CONST>
0

>  <SCORE.SYSTEM.DIHEDRAL>
0

>  <SCORE.SYSTEM.SOLV>
0

>  <SCORE.SYSTEM.norm>
0

>  <SCORE.heavy>
20

>  <SCORE.norm>
0.070398

>  <RMSD>
27.070

$$$$
1nyi_lig
 OpenBabel11021811403D
libRbt.so/2013.1/901 2013/11/27
 20 22  0  0  0  0  0  0  0  0999 V2000
   24.0620   -5.4847   20.2825 C   0  0  0  0  0  0  0  0  0  0  0  0
   22.8510   -6.0990   19.8421 O   0  0  0  0  0  0  0  0  0  0  0  0
   25.2568   -6.0713   19.5636 C   0  0  1  0  0  0  0  0  0  0  0  0
   24.9812   -6.0991   18.1369 O   0  0  0  0  0  0  0  0  0  0  0  0
   26.5128   -5.2228   19.7286 C   0  0  1  0  0  0  0  0  0  0  0  0
   27.2731   -5.6279   20.8678 O   0  0  0  0  0  0  0  0  0  0  0  0
   27.2330   -5.4500   18.4010 C   0  0  1  0  0  0  0  0  0  0  0  0
   27.9300   -6.6858   18.3488 O   0  0  0  0  0  0  0  0  0  0  0  0
   26.0494   -5.4730   17.4363 C   0  0  2  0  0  0  0  0  0  0  0  0
   27.1046   -1.7892   14.0005 N   0  0  0  0  0  0  0  0  0  0  0  0
   27.8218   -2.9165   14.3201 C   0  0  1  0  0  0  0  0  0  0  0  0
   28.9588   -3.0844   13.6432 N   0  0  0  0  0  0  0  0  0  0  0  0
   27.4541   -3.8082   15.2357 N   0  0  0  0  0  0  0  0  0  0  0  0
   26.2759   -3.4750   15.8391 C   0  0  1  0  0  0  0  0  0  0  0  0
   25.4844   -2.3681   15.5878 C   0  0  1  0  0  0  0  0  0  0  0  0
   25.8946   -1.4340   14.5962 C   0  0  0  0  0  0  0  0  0  0  0  0
   25.3264   -0.3967   14.2317 O   0  0  0  0  0  0  0  0  0  0  0  0
   24.3529   -2.3846   16.3931 N   0  0  0  0  0  0  0  0  0  0  0  0
   24.4775   -3.4697   17.1065 C   0  0  0  0  0  0  0  0  0  0  0  0
   25.6224   -4.1873   16.8376 N   0  0  1  0  0  0  0  0  0  0  0  0
  2  1  1  0  0  0  0
  3  1  1  1  0  0  0
  3  4  1  0  0  0  0
  3  5  1  0  0  0  0
  5  6  1  1  0  0  0
  5  7  1  0  0  0  0
  7  8  1  1  0  0  0
  7  9  1  0  0  0  0
  9  4  1  1  0  0  0
  9 20  1  0  0  0  0
 10 11  1  0  0  0  0
 11 12  1  1  0  0  0
 11 13  1  0  0  0  0
 14 13  1  6  0  0  0
 15 14  1  0  0  0  0
 15 16  1  6  0  0  0
 16 10  1  0  0  0  0
 16 17  2  0  0  0  0
 18 15  1  0  0  0  0
 19 18  1  0  0  0  0
 20 14  1  0  0  0  0
 20 19  1  6  0  0  0
M  END
>  <CHROM.1>
48.33804671,-163.33236871,26.02559007,-4.11867438,17.07614714,1.77590509
-0.33893918,2.27771832

>  <Name>
1nyi_lig

>  <RI>
0

>  <Rbt.Current_Directory>
/home/itssahil/PROJECTS/Mol_Feturizer/New_Systems/rnas/1nyi

>  <Rbt.Executable>
rbdock ($Id: //depot/dev/client3/rdock/2013.1/src/exe/rbdock.cxx#4 $)

>  <Rbt.Library>
libRbt.so (2013.1, Build901 2013/11/27)

>  <Rbt.Parameter_File>
/export/apps/rDock/src/rDock_2013.1_src/data/scripts/dock_solv.prm

>  <Rbt.Receptor>
prm/blind_docking_80.prm

>  <SCORE>
-8.94961

>  <SCORE.INTER>
-8.37315

>  <SCORE.INTER.CONST>
1

>  <SCORE.INTER.POLAR>
-1.0019

>  <SCORE.INTER.ROT>
2

>  <SCORE.INTER.SOLV>
15.4702

>  <SCORE.INTER.VDW>
-12.3325

>  <SCORE.INTER.norm>
-0.418658

>  <SCORE.INTRA>
-1.57727

>  <SCORE.INTRA.DIHEDRAL>
-1.97785

>  <SCORE.INTRA.DIHEDRAL.0>
3.72394

>  <SCORE.INTRA.POLAR>
0

>  <SCORE.INTRA.POLAR.0>
0

>  <SCORE.INTRA.REPUL>
0

>  <SCORE.INTRA.REPUL.0>
0

>  <SCORE.INTRA.SOLV>
-0.6111

>  <SCORE.INTRA.SOLV.lig_0>
-49.4697

>  <SCORE.INTRA.VDW>
-0.282797

>  <SCORE.INTRA.VDW.0>
-0.896538

>  <SCORE.INTRA.norm>
-0.0788635

>  <SCORE.RESTR>
1.00081

>  <SCORE.RESTR.CAVITY>
1.00081

>  <SCORE.RESTR.norm>
0.0500404

>  <SCORE.SYSTEM>
0

>  <SCORE.SYSTEM.CONST>
0

>  <SCORE.SYSTEM.DIHEDRAL>
0

>  <SCORE.SYSTEM.SOLV>
0

>  <SCORE.SYSTEM.norm>
0

>  <SCORE.heavy>
20

>  <SCORE.norm>
-0.447481

>  <RMSD>
27.094

$$$$
1nyi_lig
 OpenBabel11021811403D
libRbt.so/2013.1/901 2013/11/27
 20 22  0  0  0  0  0  0  0  0999 V2000
   23.9202   -5.4582   20.2419 C   0  0  0  0  0  0  0  0  0  0  0  0
   22.7019   -6.0141   19.7472 O   0  0  0  0  0  0  0  0  0  0  0  0
   25.1143   -6.0643   19.5386 C   0  0  1  0  0  0  0  0  0  0  0  0
   24.8572   -6.0871   18.1083 O   0  0  0  0  0  0  0  0  0  0  0  0
   26.3820   -5.2371   19.7205 C   0  0  1  0  0  0  0  0  0  0  0  0
   27.1204   -5.6552   20.8695 O   0  0  0  0  0  0  0  0  0  0  0  0
   27.1159   -5.4758   18.4025 C   0  0  1  0  0  0  0  0  0  0  0  0
   27.7927   -6.7230   18.3588 O   0  0  0  0  0  0  0  0  0  0  0  0
   25.9449   -5.4787   17.4223 C   0  0  2  0  0  0  0  0  0  0  0  0
   27.0812   -1.8353   13.9692 N   0  0  0  0  0  0  0  0  0  0  0  0
   27.7721   -2.9778   14.2926 C   0  0  1  0  0  0  0  0  0  0  0  0
   28.9038   -3.1753   13.6147 N   0  0  0  0  0  0  0  0  0  0  0  0
   27.3849   -3.8567   15.2125 N   0  0  0  0  0  0  0  0  0  0  0  0
   26.2159   -3.4933   15.8162 C   0  0  1  0  0  0  0  0  0  0  0  0
   25.4502   -2.3692   15.5613 C   0  0  1  0  0  0  0  0  0  0  0  0
   25.8808   -1.4492   14.5651 C   0  0  0  0  0  0  0  0  0  0  0  0
   25.3366   -0.4004   14.1971 O   0  0  0  0  0  0  0  0  0  0  0  0
   24.3199   -2.3556   16.3683 N   0  0  0  0  0  0  0  0  0  0  0  0
   24.4200   -3.4403   17.0862 C   0  0  0  0  0  0  0  0  0  0  0  0
   25.5473   -4.1858   16.8187 N   0  0  1  0  0  0  0  0  0  0  0  0
  2  1  1  0  0  0  0
  3  1  1  1  0  0  0
  3  4  1  0  0  0  0
  3  5  1  0  0  0  0
  5  6  1  1  0  0  0
  5  7  1  0  0  0  0
  7  8  1  1  0  0  0
  7  9  1  0  0  0  0
  9  4  1  1  0  0  0
  9 20  1  0  0  0  0
 10 11  1  0  0  0  0
 11 12  1  1  0  0  0
 11 13  1  0  0  0  0
 14 13  1  6  0  0  0
 15 14  1  0  0  0  0
 15 16  1  6  0  0  0
 16 10  1  0  0  0  0
 16 17  2  0  0  0  0
 18 15  1  0  0  0  0
 19 18  1  0  0  0  0
 20 14  1  0  0  0  0
 20 19  1  6  0  0  0
M  END
>  <CHROM.1>
46.02641976,-162.36520090,25.94130462,-4.12815620,17.05145705,1.79421681
-0.35183096,2.28079401

>  <Name>
1nyi_lig

>  <RI>
0

>  <Rbt.Current_Directory>
/home/itssahil/PROJECTS/Mol_Feturizer/New_Systems/rnas/1nyi

>  <Rbt.Executable>
rbdock ($Id: //depot/dev/client3/rdock/2013.1/src/exe/rbdock.cxx#4 $)

>  <Rbt.Library>
libRbt.so (2013.1, Build901 2013/11/27)

>  <Rbt.Parameter_File>
/export/apps/rDock/src/rDock_2013.1_src/data/scripts/dock_solv.prm

>  <Rbt.Receptor>
prm/blind_docking_80.prm

>  <SCORE>
-8.86339

>  <SCORE.INTER>
-8.37636

>  <SCORE.INTER.CONST>
1

>  <SCORE.INTER.POLAR>
-0.871855

>  <SCORE.INTER.ROT>
2

>  <SCORE.INTER.SOLV>
15.1462

>  <SCORE.INTER.VDW>
-12.6601

>  <SCORE.INTER.norm>
-0.418818

>  <SCORE.INTRA>
-1.46633

>  <SCORE.INTRA.DIHEDRAL>
-1.77964

>  <SCORE.INTRA.DIHEDRAL.0>
3.72394

>  <SCORE.INTRA.POLAR>
0

>  <SCORE.INTRA.POLAR.0>
0

>  <SCORE.INTRA.REPUL>
0

>  <SCORE.INTRA.REPUL.0>
0

>  <SCORE.INTRA.SOLV>
-0.603612

>  <SCORE.INTRA.SOLV.lig_0>
-49.4697

>  <SCORE.INTRA.VDW>
-0.274706

>  <SCORE.INTRA.VDW.0>
-0.896538

>  <SCORE.INTRA.norm>
-0.0733167

>  <SCORE.RESTR>
0.979302

>  <SCORE.RESTR.CAVITY>
0.979302

>  <SCORE.RESTR.norm>
0.0489651

>  <SCORE.SYSTEM>
0

>  <SCORE.SYSTEM.CONST>
0

>  <SCORE.SYSTEM.DIHEDRAL>
0

>  <SCORE.SYSTEM.SOLV>
0

>  <SCORE.SYSTEM.norm>
0

>  <SCORE.heavy>
20

>  <SCORE.norm>
-0.44317

>  <RMSD>
27.118

$$$$
1nyi_lig
 OpenBabel11021811403D
libRbt.so/2013.1/901 2013/11/27
 20 22  0  0  0  0  0  0  0  0999 V2000
   27.2735   -2.0136   13.7798 C   0  0  0  0  0  0  0  0  0  0  0  0
   27.9726   -0.8165   14.1205 O   0  0  0  0  0  0  0  0  0  0  0  0
   28.0613   -3.2357   14.1970 C   0  0  1  0  0  0  0  0  0  0  0  0
   28.0886   -3.3058   15.6484 O   0  0  0  0  0  0  0  0  0  0  0  0
   27.4155   -4.5353   13.7296 C   0  0  1  0  0  0  0  0  0  0  0  0
   27.9002   -4.9291   12.4450 O   0  0  0  0  0  0  0  0  0  0  0  0
   27.7927   -5.5043   14.8483 C   0  0  1  0  0  0  0  0  0  0  0  0
   29.1234   -5.9877   14.7426 O   0  0  0  0  0  0  0  0  0  0  0  0
   27.6590   -4.5954   16.0681 C   0  0  2  0  0  0  0  0  0  0  0  0
   24.7901   -6.2092   20.0246 N   0  0  0  0  0  0  0  0  0  0  0  0
   26.0793   -6.5430   19.6874 C   0  0  1  0  0  0  0  0  0  0  0  0
   26.6787   -7.4125   20.5021 N   0  0  0  0  0  0  0  0  0  0  0  0
   26.7291   -6.0639   18.6306 N   0  0  0  0  0  0  0  0  0  0  0  0
   25.9649   -5.1996   17.9010 C   0  0  1  0  0  0  0  0  0  0  0  0
   24.6644   -4.8025   18.1576 C   0  0  1  0  0  0  0  0  0  0  0  0
   23.9945   -5.3216   19.3004 C   0  0  0  0  0  0  0  0  0  0  0  0
   22.8448   -5.0864   19.6934 O   0  0  0  0  0  0  0  0  0  0  0  0
   24.2318   -3.8981   17.1964 N   0  0  0  0  0  0  0  0  0  0  0  0
   25.2487   -3.7707   16.3891 C   0  0  0  0  0  0  0  0  0  0  0  0
   26.3409   -4.5331   16.7409 N   0  0  1  0  0  0  0  0  0  0  0  0
  2  1  1  0  0  0  0
  3  1  1  1  0  0  0
  3  4  1  0  0  0  0
  3  5  1  0  0  0  0
  5  6  1  6  0  0  0
  5  7  1  0  0  0  0
  7  8  1  6  0  0  0
  7  9  1  0  0  0  0
  9  4  1  6  0  0  0
  9 20  1  0  0  0  0
 10 11  1  0  0  0  0
 11 12  1  6  0  0  0
 11 13  1  0  0  0  0
 14 13  1  1  0  0  0
 15 14  1  0  0  0  0
 15 16  1  1  0  0  0
 16 10  1  0  0  0  0
 16 17  2  0  0  0  0
 18 15  1  0  0  0  0
 19 18  1  0  0  0  0
 20 14  1  0  0  0  0
 20 19  1  1  0  0  0
M  END
>  <CHROM.1>
68.58935085,-136.90224101,26.47746596,-4.65432810,16.63107343,0.95358400
0.66954244,-0.74930918

>  <Name>
1nyi_lig

>  <RI>
0

>  <Rbt.Current_Directory>
/home/itssahil/PROJECTS/Mol_Feturizer/New_Systems/rnas/1nyi

>  <Rbt.Executable>
rbdock ($Id: //depot/dev/client3/rdock/2013.1/src/exe/rbdock.cxx#4 $)

>  <Rbt.Library>
libRbt.so (2013.1, Build901 2013/11/27)

>  <Rbt.Parameter_File>
/export/apps/rDock/src/rDock_2013.1_src/data/scripts/dock_solv.prm

>  <Rbt.Receptor>
prm/blind_docking_80.prm

>  <SCORE>
-3.56309

>  <SCORE.INTER>
-2.24345

>  <SCORE.INTER.CONST>
1

>  <SCORE.INTER.POLAR>
0

>  <SCORE.INTER.ROT>
2

>  <SCORE.INTER.SOLV>
10.7729

>  <SCORE.INTER.VDW>
-10.0199

>  <SCORE.INTER.norm>
-0.112172

>  <SCORE.INTRA>
-1.98704

>  <SCORE.INTRA.DIHEDRAL>
-2.16335

>  <SCORE.INTRA.DIHEDRAL.0>
3.72394

>  <SCORE.INTRA.POLAR>
0

>  <SCORE.INTRA.POLAR.0>
0

>  <SCORE.INTRA.REPUL>
0

>  <SCORE.INTRA.REPUL.0>
0

>  <SCORE.INTRA.SOLV>
-0.904684

>  <SCORE.INTRA.SOLV.lig_0>
-49.4697

>  <SCORE.INTRA.VDW>
-0.453026

>  <SCORE.INTRA.VDW.0>
-0.896538

>  <SCORE.INTRA.norm>
-0.0993522

>  <SCORE.RESTR>
0.667404

>  <SCORE.RESTR.CAVITY>
0.667404

>  <SCORE.RESTR.norm>
0.0333702

>  <SCORE.SYSTEM>
0

>  <SCORE.SYSTEM.CONST>
0

>  <SCORE.SYSTEM.DIHEDRAL>
0

>  <SCORE.SYSTEM.SOLV>
0

>  <SCORE.SYSTEM.norm>
0

>  <SCORE.heavy>
20

>  <SCORE.norm>
-0.178154

>  <RMSD>
27.120

$$$$
1nyi_lig
 OpenBabel11021811403D
libRbt.so/2013.1/901 2013/11/27
 20 22  0  0  0  0  0  0  0  0999 V2000
   25.6567   -0.1058   13.9439 C   0  0  0  0  0  0  0  0  0  0  0  0
   25.9356    1.0166   14.7809 O   0  0  0  0  0  0  0  0  0  0  0  0
   26.7289   -1.1634   14.0847 C   0  0  1  0  0  0  0  0  0  0  0  0
   26.9371   -1.4381   15.4966 O   0  0  0  0  0  0  0  0  0  0  0  0
   26.3248   -2.4929   13.4572 C   0  0  1  0  0  0  0  0  0  0  0  0
   26.7311   -2.5723   12.0901 O   0  0  0  0  0  0  0  0  0  0  0  0
   27.0253   -3.5039   14.3625 C   0  0  1  0  0  0  0  0  0  0  0  0
   28.4072   -3.6499   14.0714 O   0  0  0  0  0  0  0  0  0  0  0  0
   26.8427   -2.8390   15.7251 C   0  0  2  0  0  0  0  0  0  0  0  0
   24.8786   -5.5433   19.6390 N   0  0  0  0  0  0  0  0  0  0  0  0
   26.1657   -5.5097   19.1599 C   0  0  1  0  0  0  0  0  0  0  0  0
   27.0369   -6.2910   19.7999 N   0  0  0  0  0  0  0  0  0  0  0  0
   26.5664   -4.7698   18.1300 N   0  0  0  0  0  0  0  0  0  0  0  0
   25.5465   -4.0436   17.5862 C   0  0  1  0  0  0  0  0  0  0  0  0
   24.2251   -4.0100   17.9953 C   0  0  1  0  0  0  0  0  0  0  0  0
   23.8235   -4.8030   19.1062 C   0  0  0  0  0  0  0  0  0  0  0  0
   22.7004   -4.9035   19.6162 O   0  0  0  0  0  0  0  0  0  0  0  0
   23.4909   -3.1375   17.2022 N   0  0  0  0  0  0  0  0  0  0  0  0
   24.3558   -2.6740   16.3425 C   0  0  0  0  0  0  0  0  0  0  0  0
   25.6277   -3.1789   16.5012 N   0  0  1  0  0  0  0  0  0  0  0  0
  2  1  1  0  0  0  0
  3  1  1  1  0  0  0
  3  4  1  0  0  0  0
  3  5  1  0  0  0  0
  5  6  1  6  0  0  0
  5  7  1  0  0  0  0
  7  8  1  6  0  0  0
  7  9  1  0  0  0  0
  9  4  1  6  0  0  0
  9 20  1  0  0  0  0
 10 11  1  0  0  0  0
 11 12  1  6  0  0  0
 11 13  1  0  0  0  0
 14 13  1  1  0  0  0
 15 14  1  0  0  0  0
 15 16  1  1  0  0  0
 16 10  1  0  0  0  0
 16 17  2  0  0  0  0
 18 15  1  0  0  0  0
 19 18  1  0  0  0  0
 20 14  1  0  0  0  0
 20 19  1  1  0  0  0
M  END
>  <CHROM.1>
50.29720582,-134.61451022,25.76864614,-3.23305888,16.40137460,1.24101232
0.58525262,-0.78022246

>  <Name>
1nyi_lig

>  <RI>
0

>  <Rbt.Current_Directory>
/home/itssahil/PROJECTS/Mol_Feturizer/New_Systems/rnas/1nyi

>  <Rbt.Executable>
rbdock ($Id: //depot/dev/client3/rdock/2013.1/src/exe/rbdock.cxx#4 $)

>  <Rbt.Library>
libRbt.so (2013.1, Build901 2013/11/27)

>  <Rbt.Parameter_File>
/export/apps/rDock/src/rDock_2013.1_src/data/scripts/dock_solv.prm

>  <Rbt.Receptor>
prm/blind_docking_100.prm

>  <SCORE>
20.3518

>  <SCORE.INTER>
18.983

>  <SCORE.INTER.CONST>
1

>  <SCORE.INTER.POLAR>
-0.302503

>  <SCORE.INTER.ROT>
2

>  <SCORE.INTER.SOLV>
14.8941

>  <SCORE.INTER.VDW>
3.76567

>  <SCORE.INTER.norm>
0.949152

>  <SCORE.INTRA>
-1.88581

>  <SCORE.INTRA.DIHEDRAL>
-2.11647

>  <SCORE.INTRA.DIHEDRAL.0>
3.72394

>  <SCORE.INTRA.POLAR>
0

>  <SCORE.INTRA.POLAR.0>
0

>  <SCORE.INTRA.REPUL>
0

>  <SCORE.INTRA.REPUL.0>
0

>  <SCORE.INTRA.SOLV>
-0.791384

>  <SCORE.INTRA.SOLV.lig_0>
-49.4697

>  <SCORE.INTRA.VDW>
-0.431881

>  <SCORE.INTRA.VDW.0>
-0.896538

>  <SCORE.INTRA.norm>
-0.0942905

>  <SCORE.RESTR>
3.25461

>  <SCORE.RESTR.CAVITY>
3.25461

>  <SCORE.RESTR.norm>
0.162731

>  <SCORE.SYSTEM>
0

>  <SCORE.SYSTEM.CONST>
0

>  <SCORE.SYSTEM.DIHEDRAL>
0

>  <SCORE.SYSTEM.SOLV>
0

>  <SCORE.SYSTEM.norm>
0

>  <SCORE.heavy>
20

>  <SCORE.norm>
1.01759

>  <RMSD>
27.330

$$$$
1nyi_lig
 OpenBabel11021811403D
libRbt.so/2013.1/901 2013/11/27
 20 22  0  0  0  0  0  0  0  0999 V2000
   25.1651    8.9999   16.4662 C   0  0  0  0  0  0  0  0  0  0  0  0
   24.6631    9.8862   17.4664 O   0  0  0  0  0  0  0  0  0  0  0  0
   24.2529    7.8051   16.2972 C   0  0  1  0  0  0  0  0  0  0  0  0
   24.3571    6.9624   17.4767 O   0  0  0  0  0  0  0  0  0  0  0  0
   22.7839    8.2007   16.1968 C   0  0  1  0  0  0  0  0  0  0  0  0
   22.3912    8.4184   14.8408 O   0  0  0  0  0  0  0  0  0  0  0  0
   22.0835    7.0123   16.8524 C   0  0  1  0  0  0  0  0  0  0  0  0
   21.9640    5.8903   15.9907 O   0  0  0  0  0  0  0  0  0  0  0  0
   23.0556    6.7014   17.9883 C   0  0  2  0  0  0  0  0  0  0  0  0
   22.2019    6.1288   23.0314 N   0  0  0  0  0  0  0  0  0  0  0  0
   22.3253    5.1727   22.0526 C   0  0  1  0  0  0  0  0  0  0  0  0
   22.2071    3.9100   22.4656 N   0  0  0  0  0  0  0  0  0  0  0  0
   22.5441    5.4352   20.7673 N   0  0  0  0  0  0  0  0  0  0  0  0
   22.6251    6.7750   20.5189 C   0  0  1  0  0  0  0  0  0  0  0  0
   22.5149    7.8090   21.4318 C   0  0  1  0  0  0  0  0  0  0  0  0
   22.2911    7.5017   22.8028 C   0  0  0  0  0  0  0  0  0  0  0  0
   22.1688    8.2796   23.7575 O   0  0  0  0  0  0  0  0  0  0  0  0
   22.6697    9.0362   20.7999 N   0  0  0  0  0  0  0  0  0  0  0  0
   22.8590    8.7339   19.5450 C   0  0  0  0  0  0  0  0  0  0  0  0
   22.8395    7.3808   19.2866 N   0  0  1  0  0  0  0  0  0  0  0  0
  2  1  1  0  0  0  0
  3  1  1  1  0  0  0
  3  4  1  0  0  0  0
  3  5  1  0  0  0  0
  5  6  1  6  0  0  0
  5  7  1  0  0  0  0
  7  8  1  6  0  0  0
  7  9  1  0  0  0  0
  9  4  1  6  0  0  0
  9 20  1  0  0  0  0
 10 11  1  0  0  0  0
 11 12  1  6  0  0  0
 11 13  1  0  0  0  0
 14 13  1  1  0  0  0
 15 14  1  0  0  0  0
 15 16  1  1  0  0  0
 16 10  1  0  0  0  0
 16 17  2  0  0  0  0
 18 15  1  0  0  0  0
 19 18  1  0  0  0  0
 20 14  1  0  0  0  0
 20 19  1  1  0  0  0
M  END
>  <CHROM.1>
-70.22712465,-115.54654755,22.91235360,7.32727404,19.24052158,-1.02093900
1.23277410,1.29094868

>  <Name>
1nyi_lig

>  <RI>
0

>  <Rbt.Current_Directory>
/home/itssahil/PROJECTS/Mol_Feturizer/New_Systems/rnas/1nyi

>  <Rbt.Executable>
rbdock ($Id: //depot/dev/client3/rdock/2013.1/src/exe/rbdock.cxx#4 $)

>  <Rbt.Library>
libRbt.so (2013.1, Build901 2013/11/27)

>  <Rbt.Parameter_File>
/export/apps/rDock/src/rDock_2013.1_src/data/scripts/dock_solv.prm

>  <Rbt.Receptor>
prm/blind_docking_60.prm

>  <SCORE>
-0.775735

>  <SCORE.INTER>
-1.98629

>  <SCORE.INTER.CONST>
1

>  <SCORE.INTER.POLAR>
0

>  <SCORE.INTER.ROT>
2

>  <SCORE.INTER.SOLV>
8.6613

>  <SCORE.INTER.VDW>
-9.14463

>  <SCORE.INTER.norm>
-0.0993143

>  <SCORE.INTRA>
-1.37515

>  <SCORE.INTRA.DIHEDRAL>
-2.15921

>  <SCORE.INTRA.DIHEDRAL.0>
3.72394

>  <SCORE.INTRA.POLAR>
0

>  <SCORE.INTRA.POLAR.0>
0

>  <SCORE.INTRA.REPUL>
0

>  <SCORE.INTRA.REPUL.0>
0

>  <SCORE.INTRA.SOLV>
0.0898626

>  <SCORE.INTRA.SOLV.lig_0>
-49.4697

>  <SCORE.INTRA.VDW>
-0.340474

>  <SCORE.INTRA.VDW.0>
-0.896538

>  <SCORE.INTRA.norm>
-0.0687574

>  <SCORE.RESTR>
2.5857

>  <SCORE.RESTR.CAVITY>
2.5857

>  <SCORE.RESTR.norm>
0.129285

>  <SCORE.SYSTEM>
0

>  <SCORE.SYSTEM.CONST>
0

>  <SCORE.SYSTEM.DIHEDRAL>
0

>  <SCORE.SYSTEM.SOLV>
0

>  <SCORE.SYSTEM.norm>
0

>  <SCORE.heavy>
20

>  <SCORE.norm>
-0.0387868

>  <RMSD>
27.388

$$$$
1nyi_lig
 OpenBabel11021811403D
libRbt.so/2013.1/901 2013/11/27
 20 22  0  0  0  0  0  0  0  0999 V2000
   25.7738    0.0965   14.2216 C   0  0  0  0  0  0  0  0  0  0  0  0
   25.5941    0.6083   12.9011 O   0  0  0  0  0  0  0  0  0  0  0  0
   26.7794   -1.0335   14.2299 C   0  0  1  0  0  0  0  0  0  0  0  0
   27.0094   -1.4494   15.6033 O   0  0  0  0  0  0  0  0  0  0  0  0
   26.2730   -2.2721   13.4992 C   0  0  1  0  0  0  0  0  0  0  0  0
   26.6345   -2.2500   12.1175 O   0  0  0  0  0  0  0  0  0  0  0  0
   26.9325   -3.4034   14.2852 C   0  0  1  0  0  0  0  0  0  0  0  0
   28.2933   -3.6066   13.9353 O   0  0  0  0  0  0  0  0  0  0  0  0
   26.8316   -2.8569   15.7077 C   0  0  2  0  0  0  0  0  0  0  0  0
   24.8804   -5.5463   19.6382 N   0  0  0  0  0  0  0  0  0  0  0  0
   26.1651   -5.5175   19.1523 C   0  0  1  0  0  0  0  0  0  0  0  0
   27.0374   -6.2997   19.7897 N   0  0  0  0  0  0  0  0  0  0  0  0
   26.5625   -4.7811   18.1186 N   0  0  0  0  0  0  0  0  0  0  0  0
   25.5418   -4.0534   17.5784 C   0  0  1  0  0  0  0  0  0  0  0  0
   24.2226   -4.0151   17.9942 C   0  0  1  0  0  0  0  0  0  0  0  0
   23.8247   -4.8044   19.1091 C   0  0  0  0  0  0  0  0  0  0  0  0
   22.7039   -4.9005   19.6252 O   0  0  0  0  0  0  0  0  0  0  0  0
   23.4868   -3.1426   17.2029 N   0  0  0  0  0  0  0  0  0  0  0  0
   24.3484   -2.6835   16.3376 C   0  0  0  0  0  0  0  0  0  0  0  0
   25.6198   -3.1916   16.4909 N   0  0  1  0  0  0  0  0  0  0  0  0
  2  1  1  0  0  0  0
  3  1  1  1  0  0  0
  3  4  1  0  0  0  0
  3  5  1  0  0  0  0
  5  6  1  6  0  0  0
  5  7  1  0  0  0  0
  7  8  1  6  0  0  0
  7  9  1  0  0  0  0
  9  4  1  6  0  0  0
  9 20  1  0  0  0  0
 10 11  1  0  0  0  0
 11 12  1  6  0  0  0
 11 13  1  0  0  0  0
 14 13  1  1  0  0  0
 15 14  1  0  0  0  0
 15 16  1  1  0  0  0
 16 10  1  0  0  0  0
 16 17  2  0  0  0  0
 18 15  1  0  0  0  0
 19 18  1  0  0  0  0
 20 14  1  0  0  0  0
 20 19  1  1  0  0  0
M  END
>  <CHROM.1>
175.47986658,-128.05679081,25.74117513,-3.20943381,16.31045576,1.30161861
0.47249373,-0.84777055

>  <Name>
1nyi_lig

>  <RI>
0

>  <Rbt.Current_Directory>
/home/itssahil/PROJECTS/Mol_Feturizer/New_Systems/rnas/1nyi

>  <Rbt.Executable>
rbdock ($Id: //depot/dev/client3/rdock/2013.1/src/exe/rbdock.cxx#4 $)

>  <Rbt.Library>
libRbt.so (2013.1, Build901 2013/11/27)

>  <Rbt.Parameter_File>
/export/apps/rDock/src/rDock_2013.1_src/data/scripts/dock_solv.prm

>  <Rbt.Receptor>
prm/blind_docking_100.prm

>  <SCORE>
20.9509

>  <SCORE.INTER>
19.6136

>  <SCORE.INTER.CONST>
1

>  <SCORE.INTER.POLAR>
-0.308804

>  <SCORE.INTER.ROT>
2

>  <SCORE.INTER.SOLV>
13.4446

>  <SCORE.INTER.VDW>
4.69018

>  <SCORE.INTER.norm>
0.980678

>  <SCORE.INTRA>
-1.98385

>  <SCORE.INTRA.DIHEDRAL>
-2.39279

>  <SCORE.INTRA.DIHEDRAL.0>
3.72394

>  <SCORE.INTRA.POLAR>
0

>  <SCORE.INTRA.POLAR.0>
0

>  <SCORE.INTRA.REPUL>
0

>  <SCORE.INTRA.REPUL.0>
0

>  <SCORE.INTRA.SOLV>
-0.672539

>  <SCORE.INTRA.SOLV.lig_0>
-49.4697

>  <SCORE.INTRA.VDW>
-0.451185

>  <SCORE.INTRA.VDW.0>
-0.896538

>  <SCORE.INTRA.norm>
-0.0991924

>  <SCORE.RESTR>
3.32115

>  <SCORE.RESTR.CAVITY>
3.32115

>  <SCORE.RESTR.norm>
0.166058

>  <SCORE.SYSTEM>
0

>  <SCORE.SYSTEM.CONST>
0

>  <SCORE.SYSTEM.DIHEDRAL>
0

>  <SCORE.SYSTEM.SOLV>
0

>  <SCORE.SYSTEM.norm>
0

>  <SCORE.heavy>
20

>  <SCORE.norm>
1.04754

>  <RMSD>
27.410

$$$$
1nyi_lig
 OpenBabel11021811403D
libRbt.so/2013.1/901 2013/11/27
 20 22  0  0  0  0  0  0  0  0999 V2000
   25.5745   -0.6377   14.6688 C   0  0  0  0  0  0  0  0  0  0  0  0
   25.4682    0.1272   13.4682 O   0  0  0  0  0  0  0  0  0  0  0  0
   26.8701   -1.4179   14.6984 C   0  0  1  0  0  0  0  0  0  0  0  0
   26.9845   -2.0928   15.9805 O   0  0  0  0  0  0  0  0  0  0  0  0
   26.9145   -2.5178   13.6436 C   0  0  1  0  0  0  0  0  0  0  0  0
   27.4785   -2.0470   12.4186 O   0  0  0  0  0  0  0  0  0  0  0  0
   27.7561   -3.5911   14.3309 C   0  0  1  0  0  0  0  0  0  0  0  0
   29.1495   -3.3234   14.2827 O   0  0  0  0  0  0  0  0  0  0  0  0
   27.2479   -3.4742   15.7662 C   0  0  2  0  0  0  0  0  0  0  0  0
   24.9960   -6.1759   19.5237 N   0  0  0  0  0  0  0  0  0  0  0  0
   26.1931   -5.5021   19.5297 C   0  0  1  0  0  0  0  0  0  0  0  0
   26.8747   -5.5531   20.6751 N   0  0  0  0  0  0  0  0  0  0  0  0
   26.6854   -4.8329   18.4912 N   0  0  0  0  0  0  0  0  0  0  0  0
   25.8674   -4.8952   17.4002 C   0  0  1  0  0  0  0  0  0  0  0  0
   24.6498   -5.5444   17.2964 C   0  0  1  0  0  0  0  0  0  0  0  0
   24.1399   -6.2448   18.4249 C   0  0  0  0  0  0  0  0  0  0  0  0
   23.0806   -6.8767   18.5263 O   0  0  0  0  0  0  0  0  0  0  0  0
   24.1082   -5.3659   16.0299 N   0  0  0  0  0  0  0  0  0  0  0  0
   24.9876   -4.6362   15.4003 C   0  0  0  0  0  0  0  0  0  0  0  0
   26.0910   -4.3117   16.1588 N   0  0  1  0  0  0  0  0  0  0  0  0
  2  1  1  0  0  0  0
  3  1  1  1  0  0  0
  3  4  1  0  0  0  0
  3  5  1  0  0  0  0
  5  6  1  6  0  0  0
  5  7  1  0  0  0  0
  7  8  1  1  0  0  0
  7  9  1  0  0  0  0
  9  4  1  6  0  0  0
  9 20  1  0  0  0  0
 10 11  1  0  0  0  0
 11 12  1  6  0  0  0
 11 13  1  0  0  0  0
 14 13  1  1  0  0  0
 15 14  1  0  0  0  0
 15 16  1  1  0  0  0
 16 10  1  0  0  0  0
 16 17  2  0  0  0  0
 18 15  1  0  0  0  0
 19 18  1  0  0  0  0
 20 14  1  0  0  0  0
 20 19  1  1  0  0  0
M  END
>  <CHROM.1>
175.42762608,-91.90353595,26.07179530,-3.89246612,16.27700832,1.28185675
-0.20343522,-0.92936847

>  <Name>
1nyi_lig

>  <RI>
0

>  <Rbt.Current_Directory>
/home/itssahil/PROJECTS/Mol_Feturizer/New_Systems/rnas/1nyi

>  <Rbt.Executable>
rbdock ($Id: //depot/dev/client3/rdock/2013.1/src/exe/rbdock.cxx#4 $)

>  <Rbt.Library>
libRbt.so (2013.1, Build901 2013/11/27)

>  <Rbt.Parameter_File>
/export/apps/rDock/src/rDock_2013.1_src/data/scripts/dock_solv.prm

>  <Rbt.Receptor>
prm/blind_docking_100.prm

>  <SCORE>
6.01369

>  <SCORE.INTER>
2.19988

>  <SCORE.INTER.CONST>
1

>  <SCORE.INTER.POLAR>
-0.941098

>  <SCORE.INTER.ROT>
2

>  <SCORE.INTER.SOLV>
12.3473

>  <SCORE.INTER.VDW>
-4.44552

>  <SCORE.INTER.norm>
0.109994

>  <SCORE.INTRA>
-1.86294

>  <SCORE.INTRA.DIHEDRAL>
-2.51745

>  <SCORE.INTRA.DIHEDRAL.0>
3.72394

>  <SCORE.INTRA.POLAR>
0

>  <SCORE.INTRA.POLAR.0>
0

>  <SCORE.INTRA.REPUL>
0

>  <SCORE.INTRA.REPUL.0>
0

>  <SCORE.INTRA.SOLV>
-0.616395

>  <SCORE.INTRA.SOLV.lig_0>
-49.4697

>  <SCORE.INTRA.VDW>
-0.296015

>  <SCORE.INTRA.VDW.0>
-0.896538

>  <SCORE.INTRA.norm>
-0.0931469

>  <SCORE.RESTR>
5.67675

>  <SCORE.RESTR.CAVITY>
5.67675

>  <SCORE.RESTR.norm>
0.283837

>  <SCORE.SYSTEM>
0

>  <SCORE.SYSTEM.CONST>
0

>  <SCORE.SYSTEM.DIHEDRAL>
0

>  <SCORE.SYSTEM.SOLV>
0

>  <SCORE.SYSTEM.norm>
0

>  <SCORE.heavy>
20

>  <SCORE.norm>
0.300684

>  <RMSD>
27.419

$$$$
1nyi_lig
 OpenBabel11021811403D
libRbt.so/2013.1/901 2013/11/27
 20 22  0  0  0  0  0  0  0  0999 V2000
   25.6945   -0.1918   13.8804 C   0  0  0  0  0  0  0  0  0  0  0  0
   25.4865    0.0850   12.4954 O   0  0  0  0  0  0  0  0  0  0  0  0
   26.7753   -1.2338   14.0658 C   0  0  1  0  0  0  0  0  0  0  0  0
   26.9615   -1.4717   15.4874 O   0  0  0  0  0  0  0  0  0  0  0  0
   26.3964   -2.5825   13.4642 C   0  0  1  0  0  0  0  0  0  0  0  0
   26.8276   -2.6907   12.1067 O   0  0  0  0  0  0  0  0  0  0  0  0
   27.0916   -3.5634   14.4061 C   0  0  1  0  0  0  0  0  0  0  0  0
   28.4798   -3.7012   14.1427 O   0  0  0  0  0  0  0  0  0  0  0  0
   26.8778   -2.8676   15.7486 C   0  0  2  0  0  0  0  0  0  0  0  0
   24.8653   -5.5362   19.6623 N   0  0  0  0  0  0  0  0  0  0  0  0
   26.1587   -5.5052   19.2002 C   0  0  1  0  0  0  0  0  0  0  0  0
   27.0224   -6.2786   19.8597 N   0  0  0  0  0  0  0  0  0  0  0  0
   26.5722   -4.7748   18.1686 N   0  0  0  0  0  0  0  0  0  0  0  0
   25.5586   -4.0558   17.6039 C   0  0  1  0  0  0  0  0  0  0  0  0
   24.2316   -4.0203   17.9948 C   0  0  1  0  0  0  0  0  0  0  0  0
   23.8164   -4.8030   19.1079 C   0  0  0  0  0  0  0  0  0  0  0  0
   22.6866   -4.9003   19.6037 O   0  0  0  0  0  0  0  0  0  0  0  0
   23.5069   -3.1570   17.1832 N   0  0  0  0  0  0  0  0  0  0  0  0
   24.3826   -2.7006   16.3307 C   0  0  0  0  0  0  0  0  0  0  0  0
   25.6530   -3.2018   16.5116 N   0  0  1  0  0  0  0  0  0  0  0  0
  2  1  1  0  0  0  0
  3  1  1  1  0  0  0
  3  4  1  0  0  0  0
  3  5  1  0  0  0  0
  5  6  1  6  0  0  0
  5  7  1  0  0  0  0
  7  8  1  6  0  0  0
  7  9  1  0  0  0  0
  9  4  1  6  0  0  0
  9 20  1  0  0  0  0
 10 11  1  0  0  0  0
 11 12  1  6  0  0  0
 11 13  1  0  0  0  0
 14 13  1  1  0  0  0
 15 14  1  0  0  0  0
 15 16  1  1  0  0  0
 16 10  1  0  0  0  0
 16 17  2  0  0  0  0
 18 15  1  0  0  0  0
 19 18  1  0  0  0  0
 20 14  1  0  0  0  0
 20 19  1  1  0  0  0
M  END
>  <CHROM.1>
179.39495709,-135.62638892,25.76788669,-3.31676898,16.28225764,1.29851511
0.43411906,-0.90513189

>  <Name>
1nyi_lig

>  <RI>
0

>  <Rbt.Current_Directory>
/home/itssahil/PROJECTS/Mol_Feturizer/New_Systems/rnas/1nyi

>  <Rbt.Executable>
rbdock ($Id: //depot/dev/client3/rdock/2013.1/src/exe/rbdock.cxx#4 $)

>  <Rbt.Library>
libRbt.so (2013.1, Build901 2013/11/27)

>  <Rbt.Parameter_File>
/export/apps/rDock/src/rDock_2013.1_src/data/scripts/dock_solv.prm

>  <Rbt.Receptor>
prm/blind_docking_100.prm

>  <SCORE>
21.2797

>  <SCORE.INTER>
19.9909

>  <SCORE.INTER.CONST>
1

>  <SCORE.INTER.POLAR>
-0.306123

>  <SCORE.INTER.ROT>
2

>  <SCORE.INTER.SOLV>
13.2491

>  <SCORE.INTER.VDW>
4.99797

>  <SCORE.INTER.norm>
0.999544

>  <SCORE.INTRA>
-1.97152

>  <SCORE.INTRA.DIHEDRAL>
-2.43451

>  <SCORE.INTRA.DIHEDRAL.0>
3.72394

>  <SCORE.INTRA.POLAR>
0

>  <SCORE.INTRA.POLAR.0>
0

>  <SCORE.INTRA.REPUL>
0

>  <SCORE.INTRA.REPUL.0>
0

>  <SCORE.INTRA.SOLV>
-0.646751

>  <SCORE.INTRA.SOLV.lig_0>
-49.4697

>  <SCORE.INTRA.VDW>
-0.43089

>  <SCORE.INTRA.VDW.0>
-0.896538

>  <SCORE.INTRA.norm>
-0.0985762

>  <SCORE.RESTR>
3.26035

>  <SCORE.RESTR.CAVITY>
3.26035

>  <SCORE.RESTR.norm>
0.163018

>  <SCORE.SYSTEM>
0

>  <SCORE.SYSTEM.CONST>
0

>  <SCORE.SYSTEM.DIHEDRAL>
0

>  <SCORE.SYSTEM.SOLV>
0

>  <SCORE.SYSTEM.norm>
0

>  <SCORE.heavy>
20

>  <SCORE.norm>
1.06399

>  <RMSD>
27.439

$$$$
1nyi_lig
 OpenBabel11021811403D
libRbt.so/2013.1/901 2013/11/27
 20 22  0  0  0  0  0  0  0  0999 V2000
   25.9395    0.4407   14.7678 C   0  0  0  0  0  0  0  0  0  0  0  0
   25.3261    1.0986   13.6592 O   0  0  0  0  0  0  0  0  0  0  0  0
   26.6271   -0.8323   14.3263 C   0  0  1  0  0  0  0  0  0  0  0  0
   26.9779   -1.6105   15.5025 O   0  0  0  0  0  0  0  0  0  0  0  0
   25.7192   -1.7276   13.4904 C   0  0  1  0  0  0  0  0  0  0  0  0
   25.8365   -1.4379   12.0966 O   0  0  0  0  0  0  0  0  0  0  0  0
   26.2073   -3.1249   13.8672 C   0  0  1  0  0  0  0  0  0  0  0  0
   27.3988   -3.5004   13.1927 O   0  0  0  0  0  0  0  0  0  0  0  0
   26.4839   -2.9367   15.3572 C   0  0  2  0  0  0  0  0  0  0  0  0
   24.8170   -5.8134   19.2859 N   0  0  0  0  0  0  0  0  0  0  0  0
   25.9978   -5.8888   18.5878 C   0  0  1  0  0  0  0  0  0  0  0  0
   26.8379   -6.8465   18.9829 N   0  0  0  0  0  0  0  0  0  0  0  0
   26.3274   -5.0889   17.5777 N   0  0  0  0  0  0  0  0  0  0  0  0
   25.3501   -4.1779   17.2985 C   0  0  1  0  0  0  0  0  0  0  0  0
   24.1341   -4.0235   17.9405 C   0  0  1  0  0  0  0  0  0  0  0  0
   23.8093   -4.8852   19.0251 C   0  0  0  0  0  0  0  0  0  0  0  0
   22.7836   -4.9005   19.7174 O   0  0  0  0  0  0  0  0  0  0  0  0
   23.4158   -2.9755   17.3796 N   0  0  0  0  0  0  0  0  0  0  0  0
   24.1853   -2.5278   16.4260 C   0  0  0  0  0  0  0  0  0  0  0  0
   25.3774   -3.2075   16.3039 N   0  0  1  0  0  0  0  0  0  0  0  0
  2  1  1  0  0  0  0
  3  1  1  1  0  0  0
  3  4  1  0  0  0  0
  3  5  1  0  0  0  0
  5  6  1  6  0  0  0
  5  7  1  0  0  0  0
  7  8  1  6  0  0  0
  7  9  1  0  0  0  0
  9  4  1  6  0  0  0
  9 20  1  0  0  0  0
 10 11  1  0  0  0  0
 11 12  1  6  0  0  0
 11 13  1  0  0  0  0
 14 13  1  1  0  0  0
 15 14  1  0  0  0  0
 15 16  1  1  0  0  0
 16 10  1  0  0  0  0
 16 17  2  0  0  0  0
 18 15  1  0  0  0  0
 19 18  1  0  0  0  0
 20 14  1  0  0  0  0
 20 19  1  1  0  0  0
M  END
>  <CHROM.1>
-167.64806785,-119.40834667,25.48834600,-3.14493175,16.17945534,1.31644892
0.69378095,-0.70507500

>  <Name>
1nyi_lig

>  <RI>
0

>  <Rbt.Current_Directory>
/home/itssahil/PROJECTS/Mol_Feturizer/New_Systems/rnas/1nyi

>  <Rbt.Executable>
rbdock ($Id: //depot/dev/client3/rdock/2013.1/src/exe/rbdock.cxx#4 $)

>  <Rbt.Library>
libRbt.so (2013.1, Build901 2013/11/27)

>  <Rbt.Parameter_File>
/export/apps/rDock/src/rDock_2013.1_src/data/scripts/dock_solv.prm

>  <Rbt.Receptor>
prm/blind_docking_100.prm

>  <SCORE>
7.96289

>  <SCORE.INTER>
4.92579

>  <SCORE.INTER.CONST>
1

>  <SCORE.INTER.POLAR>
-0.132239

>  <SCORE.INTER.ROT>
2

>  <SCORE.INTER.SOLV>
12.8712

>  <SCORE.INTER.VDW>
-5.49907

>  <SCORE.INTER.norm>
0.24629

>  <SCORE.INTRA>
-1.5591

>  <SCORE.INTRA.DIHEDRAL>
-1.95897

>  <SCORE.INTRA.DIHEDRAL.0>
3.72394

>  <SCORE.INTRA.POLAR>
0

>  <SCORE.INTRA.POLAR.0>
0

>  <SCORE.INTRA.REPUL>
0

>  <SCORE.INTRA.REPUL.0>
0

>  <SCORE.INTRA.SOLV>
-0.592357

>  <SCORE.INTRA.SOLV.lig_0>
-49.4697

>  <SCORE.INTRA.VDW>
-0.283434

>  <SCORE.INTRA.VDW.0>
-0.896538

>  <SCORE.INTRA.norm>
-0.0779548

>  <SCORE.RESTR>
4.59619

>  <SCORE.RESTR.CAVITY>
4.59619

>  <SCORE.RESTR.norm>
0.22981

>  <SCORE.SYSTEM>
0

>  <SCORE.SYSTEM.CONST>
0

>  <SCORE.SYSTEM.DIHEDRAL>
0

>  <SCORE.SYSTEM.SOLV>
0

>  <SCORE.SYSTEM.norm>
0

>  <SCORE.heavy>
20

>  <SCORE.norm>
0.398144

>  <RMSD>
27.542

$$$$
1nyi_lig
 OpenBabel11021811403D
libRbt.so/2013.1/901 2013/11/27
 20 22  0  0  0  0  0  0  0  0999 V2000
   25.9344    0.4519   14.7710 C   0  0  0  0  0  0  0  0  0  0  0  0
   25.3311    1.1203   13.6631 O   0  0  0  0  0  0  0  0  0  0  0  0
   26.6190   -0.8212   14.3252 C   0  0  1  0  0  0  0  0  0  0  0  0
   26.9731   -1.6016   15.4990 O   0  0  0  0  0  0  0  0  0  0  0  0
   25.7071   -1.7142   13.4912 C   0  0  1  0  0  0  0  0  0  0  0  0
   25.8196   -1.4226   12.0975 O   0  0  0  0  0  0  0  0  0  0  0  0
   26.1949   -3.1127   13.8642 C   0  0  1  0  0  0  0  0  0  0  0  0
   27.3835   -3.4885   13.1849 O   0  0  0  0  0  0  0  0  0  0  0  0
   26.4771   -2.9269   15.3535 C   0  0  2  0  0  0  0  0  0  0  0  0
   24.8147   -5.8179   19.2736 N   0  0  0  0  0  0  0  0  0  0  0  0
   25.9919   -5.8949   18.5697 C   0  0  1  0  0  0  0  0  0  0  0  0
   26.8293   -6.8588   18.9555 N   0  0  0  0  0  0  0  0  0  0  0  0
   26.3207   -5.0910   17.5626 N   0  0  0  0  0  0  0  0  0  0  0  0
   25.3464   -4.1737   17.2930 C   0  0  1  0  0  0  0  0  0  0  0  0
   24.1341   -4.0174   17.9415 C   0  0  1  0  0  0  0  0  0  0  0  0
   23.8102   -4.8836   19.0227 C   0  0  0  0  0  0  0  0  0  0  0  0
   22.7876   -4.8980   19.7197 O   0  0  0  0  0  0  0  0  0  0  0  0
   23.4181   -2.9628   17.3898 N   0  0  0  0  0  0  0  0  0  0  0  0
   24.1854   -2.5134   16.4352 C   0  0  0  0  0  0  0  0  0  0  0  0
   25.3737   -3.1980   16.3037 N   0  0  1  0  0  0  0  0  0  0  0  0
  2  1  1  0  0  0  0
  3  1  1  1  0  0  0
  3  4  1  0  0  0  0
  3  5  1  0  0  0  0
  5  6  1  6  0  0  0
  5  7  1  0  0  0  0
  7  8  1  6  0  0  0
  7  9  1  0  0  0  0
  9  4  1  6  0  0  0
  9 20  1  0  0  0  0
 10 11  1  0  0  0  0
 11 12  1  6  0  0  0
 11 13  1  0  0  0  0
 14 13  1  1  0  0  0
 15 14  1  0  0  0  0
 15 16  1  1  0  0  0
 16 10  1  0  0  0  0
 16 17  2  0  0  0  0
 18 15  1  0  0  0  0
 19 18  1  0  0  0  0
 20 14  1  0  0  0  0
 20 19  1  1  0  0  0
M  END
>  <CHROM.1>
-168.32989270,-119.72705299,25.48333066,-3.13765463,16.17613635,1.31634879
0.70020996,-0.70074859

>  <Name>
1nyi_lig

>  <RI>
0

>  <Rbt.Current_Directory>
/home/itssahil/PROJECTS/Mol_Feturizer/New_Systems/rnas/1nyi

>  <Rbt.Executable>
rbdock ($Id: //depot/dev/client3/rdock/2013.1/src/exe/rbdock.cxx#4 $)

>  <Rbt.Library>
libRbt.so (2013.1, Build901 2013/11/27)

>  <Rbt.Parameter_File>
/export/apps/rDock/src/rDock_2013.1_src/data/scripts/dock_solv.prm

>  <Rbt.Receptor>
prm/blind_docking_100.prm

>  <SCORE>
7.86637

>  <SCORE.INTER>
4.84055

>  <SCORE.INTER.CONST>
1

>  <SCORE.INTER.POLAR>
-0.124517

>  <SCORE.INTER.ROT>
2

>  <SCORE.INTER.SOLV>
12.8874

>  <SCORE.INTER.VDW>
-5.58703

>  <SCORE.INTER.norm>
0.242027

>  <SCORE.INTRA>
-1.59716

>  <SCORE.INTRA.DIHEDRAL>
-2.01305

>  <SCORE.INTRA.DIHEDRAL.0>
3.72394

>  <SCORE.INTRA.POLAR>
0

>  <SCORE.INTRA.POLAR.0>
0

>  <SCORE.INTRA.REPUL>
0

>  <SCORE.INTRA.REPUL.0>
0

>  <SCORE.INTRA.SOLV>
-0.595395

>  <SCORE.INTRA.SOLV.lig_0>
-49.4697

>  <SCORE.INTRA.VDW>
-0.292941

>  <SCORE.INTRA.VDW.0>
-0.896538

>  <SCORE.INTRA.norm>
-0.0798581

>  <SCORE.RESTR>
4.62299

>  <SCORE.RESTR.CAVITY>
4.62299

>  <SCORE.RESTR.norm>
0.231149

>  <SCORE.SYSTEM>
0

>  <SCORE.SYSTEM.CONST>
0

>  <SCORE.SYSTEM.DIHEDRAL>
0

>  <SCORE.SYSTEM.SOLV>
0

>  <SCORE.SYSTEM.norm>
0

>  <SCORE.heavy>
20

>  <SCORE.norm>
0.393319

>  <RMSD>
27.546

$$$$
1nyi_lig
 OpenBabel11021811403D
libRbt.so/2013.1/901 2013/11/27
 20 22  0  0  0  0  0  0  0  0999 V2000
   25.9302    0.4520   14.7691 C   0  0  0  0  0  0  0  0  0  0  0  0
   25.3151    1.1123   13.6629 O   0  0  0  0  0  0  0  0  0  0  0  0
   26.6170   -0.8202   14.3239 C   0  0  1  0  0  0  0  0  0  0  0  0
   26.9709   -1.6002   15.4979 O   0  0  0  0  0  0  0  0  0  0  0  0
   25.7071   -1.7143   13.4888 C   0  0  1  0  0  0  0  0  0  0  0  0
   25.8208   -1.4223   12.0952 O   0  0  0  0  0  0  0  0  0  0  0  0
   26.1965   -3.1121   13.8621 C   0  0  1  0  0  0  0  0  0  0  0  0
   27.3863   -3.4863   13.1840 O   0  0  0  0  0  0  0  0  0  0  0  0
   26.4768   -2.9262   15.3518 C   0  0  2  0  0  0  0  0  0  0  0  0
   24.8186   -5.8127   19.2769 N   0  0  0  0  0  0  0  0  0  0  0  0
   25.9973   -5.8871   18.5753 C   0  0  1  0  0  0  0  0  0  0  0  0
   26.8377   -6.8467   18.9652 N   0  0  0  0  0  0  0  0  0  0  0  0
   26.3248   -5.0847   17.5665 N   0  0  0  0  0  0  0  0  0  0  0  0
   25.3475   -4.1719   17.2927 C   0  0  1  0  0  0  0  0  0  0  0  0
   24.1334   -4.0184   17.9387 C   0  0  1  0  0  0  0  0  0  0  0  0
   23.8109   -4.8829   19.0217 C   0  0  0  0  0  0  0  0  0  0  0  0
   22.7872   -4.8992   19.7169 O   0  0  0  0  0  0  0  0  0  0  0  0
   23.4145   -2.9681   17.3828 N   0  0  0  0  0  0  0  0  0  0  0  0
   24.1817   -2.5183   16.4283 C   0  0  0  0  0  0  0  0  0  0  0  0
   25.3728   -3.1988   16.3008 N   0  0  1  0  0  0  0  0  0  0  0  0
  2  1  1  0  0  0  0
  3  1  1  1  0  0  0
  3  4  1  0  0  0  0
  3  5  1  0  0  0  0
  5  6  1  6  0  0  0
  5  7  1  0  0  0  0
  7  8  1  6  0  0  0
  7  9  1  0  0  0  0
  9  4  1  6  0  0  0
  9 20  1  0  0  0  0
 10 11  1  0  0  0  0
 11 12  1  6  0  0  0
 11 13  1  0  0  0  0
 14 13  1  1  0  0  0
 15 14  1  0  0  0  0
 15 16  1  1  0  0  0
 16 10  1  0  0  0  0
 16 17  2  0  0  0  0
 18 15  1  0  0  0  0
 19 18  1  0  0  0  0
 20 14  1  0  0  0  0
 20 19  1  1  0  0  0
M  END
>  <CHROM.1>
-167.71301365,-119.50819796,25.48297290,-3.13678722,16.17535517,1.31829602
0.69638265,-0.70388363

>  <Name>
1nyi_lig

>  <RI>
0

>  <Rbt.Current_Directory>
/home/itssahil/PROJECTS/Mol_Feturizer/New_Systems/rnas/1nyi

>  <Rbt.Executable>
rbdock ($Id: //depot/dev/client3/rdock/2013.1/src/exe/rbdock.cxx#4 $)

>  <Rbt.Library>
libRbt.so (2013.1, Build901 2013/11/27)

>  <Rbt.Parameter_File>
/export/apps/rDock/src/rDock_2013.1_src/data/scripts/dock_solv.prm

>  <Rbt.Receptor>
prm/blind_docking_100.prm

>  <SCORE>
7.89662

>  <SCORE.INTER>
4.84818

>  <SCORE.INTER.CONST>
1

>  <SCORE.INTER.POLAR>
-0.129719

>  <SCORE.INTER.ROT>
2

>  <SCORE.INTER.SOLV>
12.8968

>  <SCORE.INTER.VDW>
-5.56774

>  <SCORE.INTER.norm>
0.242409

>  <SCORE.INTRA>
-1.56274

>  <SCORE.INTRA.DIHEDRAL>
-1.96392

>  <SCORE.INTRA.DIHEDRAL.0>
3.72394

>  <SCORE.INTRA.POLAR>
0

>  <SCORE.INTRA.POLAR.0>
0

>  <SCORE.INTRA.REPUL>
0

>  <SCORE.INTRA.REPUL.0>
0

>  <SCORE.INTRA.SOLV>
-0.592655

>  <SCORE.INTRA.SOLV.lig_0>
-49.4697

>  <SCORE.INTRA.VDW>
-0.284454

>  <SCORE.INTRA.VDW.0>
-0.896538

>  <SCORE.INTRA.norm>
-0.0781371

>  <SCORE.RESTR>
4.61117

>  <SCORE.RESTR.CAVITY>
4.61117

>  <SCORE.RESTR.norm>
0.230559

>  <SCORE.SYSTEM>
0

>  <SCORE.SYSTEM.CONST>
0

>  <SCORE.SYSTEM.DIHEDRAL>
0

>  <SCORE.SYSTEM.SOLV>
0

>  <SCORE.SYSTEM.norm>
0

>  <SCORE.heavy>
20

>  <SCORE.norm>
0.394831

>  <RMSD>
27.547

$$$$
1nyi_lig
 OpenBabel11021811403D
libRbt.so/2013.1/901 2013/11/27
 20 22  0  0  0  0  0  0  0  0999 V2000
   21.4454    6.9995   16.0485 C   0  0  0  0  0  0  0  0  0  0  0  0
   21.8428    6.1370   14.9826 O   0  0  0  0  0  0  0  0  0  0  0  0
   22.5070    8.0413   16.3237 C   0  0  1  0  0  0  0  0  0  0  0  0
   22.1414    8.7820   17.5195 O   0  0  0  0  0  0  0  0  0  0  0  0
   23.8699    7.4240   16.6167 C   0  0  1  0  0  0  0  0  0  0  0  0
   24.6414    7.2667   15.4249 O   0  0  0  0  0  0  0  0  0  0  0  0
   24.4703    8.4208   17.6061 C   0  0  1  0  0  0  0  0  0  0  0  0
   24.9970    9.5806   16.9792 O   0  0  0  0  0  0  0  0  0  0  0  0
   23.2356    8.7828   18.4286 C   0  0  2  0  0  0  0  0  0  0  0  0
   22.1422    8.7963   23.4579 N   0  0  0  0  0  0  0  0  0  0  0  0
   22.4053    9.8516   22.6187 C   0  0  1  0  0  0  0  0  0  0  0  0
   22.3738   11.0581   23.1866 N   0  0  0  0  0  0  0  0  0  0  0  0
   22.6816    9.7325   21.3232 N   0  0  0  0  0  0  0  0  0  0  0  0
   22.6849    8.4309   20.9121 C   0  0  1  0  0  0  0  0  0  0  0  0
   22.4335    7.3054   21.6768 C   0  0  1  0  0  0  0  0  0  0  0  0
   22.1302    7.4602   23.0582 C   0  0  0  0  0  0  0  0  0  0  0  0
   21.8771    6.5843   23.8950 O   0  0  0  0  0  0  0  0  0  0  0  0
   22.5135    6.1584   20.8976 N   0  0  0  0  0  0  0  0  0  0  0  0
   22.8119    6.5956   19.7053 C   0  0  0  0  0  0  0  0  0  0  0  0
   22.9417    7.9650   19.6281 N   0  0  1  0  0  0  0  0  0  0  0  0
  2  1  1  0  0  0  0
  3  1  1  1  0  0  0
  3  4  1  0  0  0  0
  3  5  1  0  0  0  0
  5  6  1  6  0  0  0
  5  7  1  0  0  0  0
  7  8  1  6  0  0  0
  7  9  1  0  0  0  0
  9  4  1  6  0  0  0
  9 20  1  0  0  0  0
 10 11  1  0  0  0  0
 11 12  1  1  0  0  0
 11 13  1  0  0  0  0
 14 13  1  6  0  0  0
 15 14  1  0  0  0  0
 15 16  1  6  0  0  0
 16 10  1  0  0  0  0
 16 17  2  0  0  0  0
 18 15  1  0  0  0  0
 19 18  1  0  0  0  0
 20 14  1  0  0  0  0
 20 19  1  6  0  0  0
M  END
>  <CHROM.1>
-172.71506511,-107.96834753,22.81552591,8.05242046,19.43541012,1.24112473
-1.13558271,-2.01128122

>  <Name>
1nyi_lig

>  <RI>
0

>  <Rbt.Current_Directory>
/home/itssahil/PROJECTS/Mol_Feturizer/New_Systems/rnas/1nyi

>  <Rbt.Executable>
rbdock ($Id: //depot/dev/client3/rdock/2013.1/src/exe/rbdock.cxx#4 $)

>  <Rbt.Library>
libRbt.so (2013.1, Build901 2013/11/27)

>  <Rbt.Parameter_File>
/export/apps/rDock/src/rDock_2013.1_src/data/scripts/dock_solv.prm

>  <Rbt.Receptor>
prm/blind_docking_60.prm

>  <SCORE>
-1.85153

>  <SCORE.INTER>
-2.70779

>  <SCORE.INTER.CONST>
1

>  <SCORE.INTER.POLAR>
0

>  <SCORE.INTER.ROT>
2

>  <SCORE.INTER.SOLV>
8.62109

>  <SCORE.INTER.VDW>
-9.61222

>  <SCORE.INTER.norm>
-0.135389

>  <SCORE.INTRA>
-1.78674

>  <SCORE.INTRA.DIHEDRAL>
-2.35321

>  <SCORE.INTRA.DIHEDRAL.0>
3.72394

>  <SCORE.INTRA.POLAR>
0

>  <SCORE.INTRA.POLAR.0>
0

>  <SCORE.INTRA.REPUL>
0

>  <SCORE.INTRA.REPUL.0>
0

>  <SCORE.INTRA.SOLV>
-0.605636

>  <SCORE.INTRA.SOLV.lig_0>
-49.4697

>  <SCORE.INTRA.VDW>
-0.307317

>  <SCORE.INTRA.VDW.0>
-0.896538

>  <SCORE.INTRA.norm>
-0.0893371

>  <SCORE.RESTR>
2.643

>  <SCORE.RESTR.CAVITY>
2.643

>  <SCORE.RESTR.norm>
0.13215

>  <SCORE.SYSTEM>
0

>  <SCORE.SYSTEM.CONST>
0

>  <SCORE.SYSTEM.DIHEDRAL>
0

>  <SCORE.SYSTEM.SOLV>
0

>  <SCORE.SYSTEM.norm>
0

>  <SCORE.heavy>
20

>  <SCORE.norm>
-0.0925763

>  <RMSD>
27.664

$$$$
1nyi_lig
 OpenBabel11021811403D
libRbt.so/2013.1/901 2013/11/27
 20 22  0  0  0  0  0  0  0  0999 V2000
   28.4084    0.3647   12.2023 C   0  0  0  0  0  0  0  0  0  0  0  0
   27.2288    0.6375   12.9586 O   0  0  0  0  0  0  0  0  0  0  0  0
   28.7549   -1.1068   12.2555 C   0  0  1  0  0  0  0  0  0  0  0  0
   28.7883   -1.5330   13.6445 O   0  0  0  0  0  0  0  0  0  0  0  0
   27.7048   -1.9796   11.5774 C   0  0  1  0  0  0  0  0  0  0  0  0
   28.0039   -2.1815   10.1953 O   0  0  0  0  0  0  0  0  0  0  0  0
   27.7628   -3.2598   12.4084 C   0  0  1  0  0  0  0  0  0  0  0  0
   28.8552   -4.0990   12.0648 O   0  0  0  0  0  0  0  0  0  0  0  0
   27.9643   -2.6812   13.8072 C   0  0  2  0  0  0  0  0  0  0  0  0
   24.6908   -4.3060   17.4312 N   0  0  0  0  0  0  0  0  0  0  0  0
   25.7723   -4.9490   16.8797 C   0  0  1  0  0  0  0  0  0  0  0  0
   26.0124   -6.1741   17.3495 N   0  0  0  0  0  0  0  0  0  0  0  0
   26.5555   -4.4318   15.9375 N   0  0  0  0  0  0  0  0  0  0  0  0
   26.1596   -3.1798   15.5648 C   0  0  1  0  0  0  0  0  0  0  0  0
   25.0909   -2.4525   16.0585 C   0  0  1  0  0  0  0  0  0  0  0  0
   24.2741   -3.0240   17.0736 C   0  0  0  0  0  0  0  0  0  0  0  0
   23.2866   -2.5337   17.6359 O   0  0  0  0  0  0  0  0  0  0  0  0
   25.0194   -1.2103   15.4411 N   0  0  0  0  0  0  0  0  0  0  0  0
   26.0162   -1.2080   14.5994 C   0  0  0  0  0  0  0  0  0  0  0  0
   26.7561   -2.3701   14.6056 N   0  0  1  0  0  0  0  0  0  0  0  0
  2  1  1  0  0  0  0
  3  1  1  1  0  0  0
  3  4  1  0  0  0  0
  3  5  1  0  0  0  0
  5  6  1  6  0  0  0
  5  7  1  0  0  0  0
  7  8  1  6  0  0  0
  7  9  1  0  0  0  0
  9  4  1  6  0  0  0
  9 20  1  0  0  0  0
 10 11  1  0  0  0  0
 11 12  1  6  0  0  0
 11 13  1  0  0  0  0
 14 13  1  1  0  0  0
 15 14  1  0  0  0  0
 15 16  1  1  0  0  0
 16 10  1  0  0  0  0
 16 17  2  0  0  0  0
 18 15  1  0  0  0  0
 19 18  1  0  0  0  0
 20 14  1  0  0  0  0
 20 19  1  1  0  0  0
M  END
>  <CHROM.1>
-51.77348439,-141.00295196,26.68348755,-2.55236626,14.43400185,0.67486536
0.85835772,-0.37493175

>  <Name>
1nyi_lig

>  <RI>
0

>  <Rbt.Current_Directory>
/home/itssahil/PROJECTS/Mol_Feturizer/New_Systems/rnas/1nyi

>  <Rbt.Executable>
rbdock ($Id: //depot/dev/client3/rdock/2013.1/src/exe/rbdock.cxx#4 $)

>  <Rbt.Library>
libRbt.so (2013.1, Build901 2013/11/27)

>  <Rbt.Parameter_File>
/export/apps/rDock/src/rDock_2013.1_src/data/scripts/dock_solv.prm

>  <Rbt.Receptor>
prm/blind_docking_100.prm

>  <SCORE>
2.63062

>  <SCORE.INTER>
-2.0502

>  <SCORE.INTER.CONST>
1

>  <SCORE.INTER.POLAR>
-0.979541

>  <SCORE.INTER.ROT>
2

>  <SCORE.INTER.SOLV>
10.7649

>  <SCORE.INTER.VDW>
-6.62329

>  <SCORE.INTER.norm>
-0.10251

>  <SCORE.INTRA>
-0.881032

>  <SCORE.INTRA.DIHEDRAL>
-2.17589

>  <SCORE.INTRA.DIHEDRAL.0>
3.72394

>  <SCORE.INTRA.POLAR>
0

>  <SCORE.INTRA.POLAR.0>
0

>  <SCORE.INTRA.REPUL>
0

>  <SCORE.INTRA.REPUL.0>
0

>  <SCORE.INTRA.SOLV>
0.18334

>  <SCORE.INTRA.SOLV.lig_0>
-49.4697

>  <SCORE.INTRA.VDW>
0.115242

>  <SCORE.INTRA.VDW.0>
-0.896538

>  <SCORE.INTRA.norm>
-0.0440516

>  <SCORE.RESTR>
5.56186

>  <SCORE.RESTR.CAVITY>
5.56186

>  <SCORE.RESTR.norm>
0.278093

>  <SCORE.SYSTEM>
0

>  <SCORE.SYSTEM.CONST>
0

>  <SCORE.SYSTEM.DIHEDRAL>
0

>  <SCORE.SYSTEM.SOLV>
0

>  <SCORE.SYSTEM.norm>
0

>  <SCORE.heavy>
20

>  <SCORE.norm>
0.131531

>  <RMSD>
29.349

$$$$
1nyi_lig
 OpenBabel11021811403D
libRbt.so/2013.1/901 2013/11/27
 20 22  0  0  0  0  0  0  0  0999 V2000
   28.4529    0.4597   12.2440 C   0  0  0  0  0  0  0  0  0  0  0  0
   27.2320    0.7207   12.9362 O   0  0  0  0  0  0  0  0  0  0  0  0
   28.7751   -1.0182   12.2572 C   0  0  1  0  0  0  0  0  0  0  0  0
   28.8049   -1.4817   13.6343 O   0  0  0  0  0  0  0  0  0  0  0  0
   27.7088   -1.8552   11.5593 C   0  0  1  0  0  0  0  0  0  0  0  0
   28.0009   -2.0252   10.1715 O   0  0  0  0  0  0  0  0  0  0  0  0
   27.7477   -3.1578   12.3558 C   0  0  1  0  0  0  0  0  0  0  0  0
   28.8251   -4.0055   11.9868 O   0  0  0  0  0  0  0  0  0  0  0  0
   27.9624   -2.6200   13.7689 C   0  0  2  0  0  0  0  0  0  0  0  0
   24.6596   -4.2942   17.3435 N   0  0  0  0  0  0  0  0  0  0  0  0
   25.7271   -4.9410   16.7697 C   0  0  1  0  0  0  0  0  0  0  0  0
   25.9424   -6.1854   17.1990 N   0  0  0  0  0  0  0  0  0  0  0  0
   26.5199   -4.4097   15.8435 N   0  0  0  0  0  0  0  0  0  0  0  0
   26.1495   -3.1383   15.5123 C   0  0  1  0  0  0  0  0  0  0  0  0
   25.0964   -2.4056   16.0311 C   0  0  1  0  0  0  0  0  0  0  0  0
   24.2690   -2.9929   17.0284 C   0  0  0  0  0  0  0  0  0  0  0  0
   23.2924   -2.5010   17.6079 O   0  0  0  0  0  0  0  0  0  0  0  0
   25.0500   -1.1429   15.4545 N   0  0  0  0  0  0  0  0  0  0  0  0
   26.0457   -1.1336   14.6117 C   0  0  0  0  0  0  0  0  0  0  0  0
   26.7616   -2.3102   14.5790 N   0  0  1  0  0  0  0  0  0  0  0  0
  2  1  1  0  0  0  0
  3  1  1  1  0  0  0
  3  4  1  0  0  0  0
  3  5  1  0  0  0  0
  5  6  1  6  0  0  0
  5  7  1  0  0  0  0
  7  8  1  6  0  0  0
  7  9  1  0  0  0  0
  9  4  1  6  0  0  0
  9 20  1  0  0  0  0
 10 11  1  0  0  0  0
 11 12  1  6  0  0  0
 11 13  1  0  0  0  0
 14 13  1  1  0  0  0
 15 14  1  0  0  0  0
 15 16  1  1  0  0  0
 16 10  1  0  0  0  0
 16 17  2  0  0  0  0
 18 15  1  0  0  0  0
 19 18  1  0  0  0  0
 20 14  1  0  0  0  0
 20 19  1  1  0  0  0
M  END
>  <CHROM.1>
-55.61635878,-141.42148466,26.67953607,-2.48953569,14.39457610,0.65574278
0.86412664,-0.33395794

>  <Name>
1nyi_lig

>  <RI>
0

>  <Rbt.Current_Directory>
/home/itssahil/PROJECTS/Mol_Feturizer/New_Systems/rnas/1nyi

>  <Rbt.Executable>
rbdock ($Id: //depot/dev/client3/rdock/2013.1/src/exe/rbdock.cxx#4 $)

>  <Rbt.Library>
libRbt.so (2013.1, Build901 2013/11/27)

>  <Rbt.Parameter_File>
/export/apps/rDock/src/rDock_2013.1_src/data/scripts/dock_solv.prm

>  <Rbt.Receptor>
prm/blind_docking_100.prm

>  <SCORE>
2.36473

>  <SCORE.INTER>
-2.2177

>  <SCORE.INTER.CONST>
1

>  <SCORE.INTER.POLAR>
-0.968982

>  <SCORE.INTER.ROT>
2

>  <SCORE.INTER.SOLV>
10.6657

>  <SCORE.INTER.VDW>
-6.7371

>  <SCORE.INTER.norm>
-0.110885

>  <SCORE.INTRA>
-1.02767

>  <SCORE.INTRA.DIHEDRAL>
-2.34919

>  <SCORE.INTRA.DIHEDRAL.0>
3.72394

>  <SCORE.INTRA.POLAR>
0

>  <SCORE.INTRA.POLAR.0>
0

>  <SCORE.INTRA.REPUL>
0

>  <SCORE.INTRA.REPUL.0>
0

>  <SCORE.INTRA.SOLV>
0.184046

>  <SCORE.INTRA.SOLV.lig_0>
-49.4697

>  <SCORE.INTRA.VDW>
0.0549

>  <SCORE.INTRA.VDW.0>
-0.896538

>  <SCORE.INTRA.norm>
-0.0513836

>  <SCORE.RESTR>
5.6101

>  <SCORE.RESTR.CAVITY>
5.6101

>  <SCORE.RESTR.norm>
0.280505

>  <SCORE.SYSTEM>
0

>  <SCORE.SYSTEM.CONST>
0

>  <SCORE.SYSTEM.DIHEDRAL>
0

>  <SCORE.SYSTEM.SOLV>
0

>  <SCORE.SYSTEM.norm>
0

>  <SCORE.heavy>
20

>  <SCORE.norm>
0.118236

>  <RMSD>
29.389

$$$$
1nyi_lig
 OpenBabel11021811403D
libRbt.so/2013.1/901 2013/11/27
 20 22  0  0  0  0  0  0  0  0999 V2000
   28.4742    0.5308   12.4252 C   0  0  0  0  0  0  0  0  0  0  0  0
   28.4380    1.0953   11.1145 O   0  0  0  0  0  0  0  0  0  0  0  0
   28.7751   -0.9505   12.3664 C   0  0  1  0  0  0  0  0  0  0  0  0
   28.7913   -1.4820   13.7190 O   0  0  0  0  0  0  0  0  0  0  0  0
   27.7006   -1.7363   11.6232 C   0  0  1  0  0  0  0  0  0  0  0  0
   27.9973   -1.8415   10.2300 O   0  0  0  0  0  0  0  0  0  0  0  0
   27.7168   -3.0771   12.3543 C   0  0  1  0  0  0  0  0  0  0  0  0
   28.7838   -3.9211   11.9484 O   0  0  0  0  0  0  0  0  0  0  0  0
   27.9319   -2.6132   13.7933 C   0  0  2  0  0  0  0  0  0  0  0  0
   24.6951   -4.3463   17.3999 N   0  0  0  0  0  0  0  0  0  0  0  0
   25.7713   -4.9721   16.8191 C   0  0  1  0  0  0  0  0  0  0  0  0
   26.0165   -6.2103   17.2501 N   0  0  0  0  0  0  0  0  0  0  0  0
   26.5450   -4.4268   15.8849 N   0  0  0  0  0  0  0  0  0  0  0  0
   26.1449   -3.1646   15.5532 C   0  0  1  0  0  0  0  0  0  0  0  0
   25.0809   -2.4529   16.0786 C   0  0  1  0  0  0  0  0  0  0  0  0
   24.2744   -3.0546   17.0844 C   0  0  0  0  0  0  0  0  0  0  0  0
   23.2923   -2.5818   17.6707 O   0  0  0  0  0  0  0  0  0  0  0  0
   25.0028   -1.1931   15.4989 N   0  0  0  0  0  0  0  0  0  0  0  0
   25.9912   -1.1653   14.6478 C   0  0  0  0  0  0  0  0  0  0  0  0
   26.7316   -2.3265   14.6124 N   0  0  1  0  0  0  0  0  0  0  0  0
  2  1  1  0  0  0  0
  3  1  1  1  0  0  0
  3  4  1  0  0  0  0
  3  5  1  0  0  0  0
  5  6  1  6  0  0  0
  5  7  1  0  0  0  0
  7  8  1  6  0  0  0
  7  9  1  0  0  0  0
  9  4  1  6  0  0  0
  9 20  1  0  0  0  0
 10 11  1  0  0  0  0
 11 12  1  6  0  0  0
 11 13  1  0  0  0  0
 14 13  1  1  0  0  0
 15 14  1  0  0  0  0
 15 16  1  1  0  0  0
 16 10  1  0  0  0  0
 16 17  2  0  0  0  0
 18 15  1  0  0  0  0
 19 18  1  0  0  0  0
 20 14  1  0  0  0  0
 20 19  1  1  0  0  0
M  END
>  <CHROM.1>
-179.55709232,-137.70891463,26.74415089,-2.45840113,14.34044968,0.71958696
0.85019815,-0.36090295

>  <Name>
1nyi_lig

>  <RI>
0

>  <Rbt.Current_Directory>
/home/itssahil/PROJECTS/Mol_Feturizer/New_Systems/rnas/1nyi

>  <Rbt.Executable>
rbdock ($Id: //depot/dev/client3/rdock/2013.1/src/exe/rbdock.cxx#4 $)

>  <Rbt.Library>
libRbt.so (2013.1, Build901 2013/11/27)

>  <Rbt.Parameter_File>
/export/apps/rDock/src/rDock_2013.1_src/data/scripts/dock_solv.prm

>  <Rbt.Receptor>
prm/blind_docking_100.prm

>  <SCORE>
3.07162

>  <SCORE.INTER>
-1.4068

>  <SCORE.INTER.CONST>
1

>  <SCORE.INTER.POLAR>
-0.976364

>  <SCORE.INTER.ROT>
2

>  <SCORE.INTER.SOLV>
10.5297

>  <SCORE.INTER.VDW>
-6.12655

>  <SCORE.INTER.norm>
-0.0703401

>  <SCORE.INTRA>
-1.95103

>  <SCORE.INTRA.DIHEDRAL>
-2.42859

>  <SCORE.INTRA.DIHEDRAL.0>
3.72394

>  <SCORE.INTRA.POLAR>
0

>  <SCORE.INTRA.POLAR.0>
0

>  <SCORE.INTRA.REPUL>
0

>  <SCORE.INTRA.REPUL.0>
0

>  <SCORE.INTRA.SOLV>
-0.639215

>  <SCORE.INTRA.SOLV.lig_0>
-49.4697

>  <SCORE.INTRA.VDW>
-0.417131

>  <SCORE.INTRA.VDW.0>
-0.896538

>  <SCORE.INTRA.norm>
-0.0975517

>  <SCORE.RESTR>
6.42946

>  <SCORE.RESTR.CAVITY>
6.42946

>  <SCORE.RESTR.norm>
0.321473

>  <SCORE.SYSTEM>
0

>  <SCORE.SYSTEM.CONST>
0

>  <SCORE.SYSTEM.DIHEDRAL>
0

>  <SCORE.SYSTEM.SOLV>
0

>  <SCORE.SYSTEM.norm>
0

>  <SCORE.heavy>
20

>  <SCORE.norm>
0.153581

>  <RMSD>
29.438

$$$$
1nyi_lig
 OpenBabel11021811403D
libRbt.so/2013.1/901 2013/11/27
 20 22  0  0  0  0  0  0  0  0999 V2000
   22.9636   -2.7520   14.1486 C   0  0  0  0  0  0  0  0  0  0  0  0
   21.7386   -2.1623   14.5842 O   0  0  0  0  0  0  0  0  0  0  0  0
   23.5508   -3.6350   15.2273 C   0  0  1  0  0  0  0  0  0  0  0  0
   24.5708   -4.4853   14.6367 O   0  0  0  0  0  0  0  0  0  0  0  0
   24.2554   -2.8358   16.3178 C   0  0  1  0  0  0  0  0  0  0  0  0
   23.3629   -2.5003   17.3815 O   0  0  0  0  0  0  0  0  0  0  0  0
   25.3782   -3.7821   16.7379 C   0  0  1  0  0  0  0  0  0  0  0  0
   24.9413   -4.8139   17.6097 O   0  0  0  0  0  0  0  0  0  0  0  0
   25.7749   -4.3697   15.3854 C   0  0  2  0  0  0  0  0  0  0  0  0
   27.3007    0.0664   13.2683 N   0  0  0  0  0  0  0  0  0  0  0  0
   26.1388   -0.2263   13.9403 C   0  0  1  0  0  0  0  0  0  0  0  0
   25.2773    0.7844   14.0642 N   0  0  0  0  0  0  0  0  0  0  0  0
   25.8431   -1.4194   14.4482 N   0  0  0  0  0  0  0  0  0  0  0  0
   26.8269   -2.3377   14.2198 C   0  0  1  0  0  0  0  0  0  0  0  0
   28.0258   -2.1406   13.5575 C   0  0  1  0  0  0  0  0  0  0  0  0
   28.3232   -0.8523   13.0321 C   0  0  0  0  0  0  0  0  0  0  0  0
   29.3327   -0.4840   12.4183 O   0  0  0  0  0  0  0  0  0  0  0  0
   28.7727   -3.3114   13.5420 N   0  0  0  0  0  0  0  0  0  0  0  0
   28.0301   -4.1790   14.1725 C   0  0  0  0  0  0  0  0  0  0  0  0
   26.8270   -3.6711   14.6115 N   0  0  1  0  0  0  0  0  0  0  0  0
  2  1  1  0  0  0  0
  3  1  1  6  0  0  0
  3  4  1  0  0  0  0
  3  5  1  0  0  0  0
  5  6  1  1  0  0  0
  5  7  1  0  0  0  0
  7  8  1  1  0  0  0
  7  9  1  0  0  0  0
  9  4  1  6  0  0  0
  9 20  1  0  0  0  0
 10 11  1  0  0  0  0
 11 12  1  6  0  0  0
 11 13  1  0  0  0  0
 14 13  1  1  0  0  0
 15 14  1  0  0  0  0
 15 16  1  1  0  0  0
 16 10  1  0  0  0  0
 16 17  2  0  0  0  0
 18 15  1  0  0  0  0
 19 18  1  0  0  0  0
 20 14  1  0  0  0  0
 20 19  1  1  0  0  0
M  END
>  <CHROM.1>
164.65146904,67.16603758,25.81001270,-2.47473556,14.69052865,2.53151078,-0.31390028
2.66212844

>  <Name>
1nyi_lig

>  <RI>
0

>  <Rbt.Current_Directory>
/home/itssahil/PROJECTS/Mol_Feturizer/New_Systems/rnas/1nyi

>  <Rbt.Executable>
rbdock ($Id: //depot/dev/client3/rdock/2013.1/src/exe/rbdock.cxx#4 $)

>  <Rbt.Library>
libRbt.so (2013.1, Build901 2013/11/27)

>  <Rbt.Parameter_File>
/export/apps/rDock/src/rDock_2013.1_src/data/scripts/dock_solv.prm

>  <Rbt.Receptor>
prm/blind_docking_60.prm

>  <SCORE>
-2.05248

>  <SCORE.INTER>
-5.12484

>  <SCORE.INTER.CONST>
1

>  <SCORE.INTER.POLAR>
-0.531492

>  <SCORE.INTER.ROT>
2

>  <SCORE.INTER.SOLV>
16.6357

>  <SCORE.INTER.VDW>
-12.1235

>  <SCORE.INTER.norm>
-0.256242

>  <SCORE.INTRA>
-1.24007

>  <SCORE.INTRA.DIHEDRAL>
-1.68897

>  <SCORE.INTRA.DIHEDRAL.0>
3.72394

>  <SCORE.INTRA.POLAR>
0

>  <SCORE.INTRA.POLAR.0>
0

>  <SCORE.INTRA.REPUL>
0

>  <SCORE.INTRA.REPUL.0>
0

>  <SCORE.INTRA.SOLV>
1.51088

>  <SCORE.INTRA.SOLV.lig_0>
-49.4697

>  <SCORE.INTRA.VDW>
-1.15102

>  <SCORE.INTRA.VDW.0>
-0.896538

>  <SCORE.INTRA.norm>
-0.0620033

>  <SCORE.RESTR>
4.31242

>  <SCORE.RESTR.CAVITY>
4.31242

>  <SCORE.RESTR.norm>
0.215621

>  <SCORE.SYSTEM>
0

>  <SCORE.SYSTEM.CONST>
0

>  <SCORE.SYSTEM.DIHEDRAL>
0

>  <SCORE.SYSTEM.SOLV>
0

>  <SCORE.SYSTEM.norm>
0

>  <SCORE.heavy>
20

>  <SCORE.norm>
-0.102624

>  <RMSD>
29.539

$$$$
1nyi_lig
 OpenBabel11021811403D
libRbt.so/2013.1/901 2013/11/27
 20 22  0  0  0  0  0  0  0  0999 V2000
   28.6873   -0.4286   11.5098 C   0  0  0  0  0  0  0  0  0  0  0  0
   29.3866    0.4783   12.3622 O   0  0  0  0  0  0  0  0  0  0  0  0
   28.9582   -1.8621   11.9094 C   0  0  1  0  0  0  0  0  0  0  0  0
   28.9003   -1.9665   13.3578 O   0  0  0  0  0  0  0  0  0  0  0  0
   27.9023   -2.8261   11.3801 C   0  0  1  0  0  0  0  0  0  0  0  0
   28.2608   -3.3439   10.0980 O   0  0  0  0  0  0  0  0  0  0  0  0
   27.8554   -3.8883   12.4766 C   0  0  1  0  0  0  0  0  0  0  0  0
   28.9215   -4.8223   12.3945 O   0  0  0  0  0  0  0  0  0  0  0  0
   28.0139   -3.0181   13.7215 C   0  0  2  0  0  0  0  0  0  0  0  0
   24.4063   -3.7422   17.3200 N   0  0  0  0  0  0  0  0  0  0  0  0
   25.4705   -4.5405   16.9774 C   0  0  1  0  0  0  0  0  0  0  0  0
   25.5897   -5.6696   17.6775 N   0  0  0  0  0  0  0  0  0  0  0  0
   26.3478   -4.2552   16.0196 N   0  0  0  0  0  0  0  0  0  0  0  0
   26.0695   -3.0722   15.3980 C   0  0  1  0  0  0  0  0  0  0  0  0
   25.0278   -2.2028   15.6696 C   0  0  1  0  0  0  0  0  0  0  0  0
   24.1084   -2.5258   16.7062 C   0  0  0  0  0  0  0  0  0  0  0  0
   23.1259   -1.8810   17.0941 O   0  0  0  0  0  0  0  0  0  0  0  0
   25.0871   -1.0945   14.8346 N   0  0  0  0  0  0  0  0  0  0  0  0
   26.1328   -1.3084   14.0845 C   0  0  0  0  0  0  0  0  0  0  0  0
   26.7835   -2.4919   14.3565 N   0  0  1  0  0  0  0  0  0  0  0  0
  2  1  1  0  0  0  0
  3  1  1  1  0  0  0
  3  4  1  0  0  0  0
  3  5  1  0  0  0  0
  5  6  1  6  0  0  0
  5  7  1  0  0  0  0
  7  8  1  6  0  0  0
  7  9  1  0  0  0  0
  9  4  1  6  0  0  0
  9 20  1  0  0  0  0
 10 11  1  0  0  0  0
 11 12  1  6  0  0  0
 11 13  1  0  0  0  0
 14 13  1  1  0  0  0
 15 14  1  0  0  0  0
 15 16  1  1  0  0  0
 16 10  1  0  0  0  0
 16 17  2  0  0  0  0
 18 15  1  0  0  0  0
 19 18  1  0  0  0  0
 20 14  1  0  0  0  0
 20 19  1  1  0  0  0
M  END
>  <CHROM.1>
43.08334166,-143.86149181,26.79775525,-2.70123167,14.21536339,0.42143357
0.84394939,-0.28576419

>  <Name>
1nyi_lig

>  <RI>
0

>  <Rbt.Current_Directory>
/home/itssahil/PROJECTS/Mol_Feturizer/New_Systems/rnas/1nyi

>  <Rbt.Executable>
rbdock ($Id: //depot/dev/client3/rdock/2013.1/src/exe/rbdock.cxx#4 $)

>  <Rbt.Library>
libRbt.so (2013.1, Build901 2013/11/27)

>  <Rbt.Parameter_File>
/export/apps/rDock/src/rDock_2013.1_src/data/scripts/dock_solv.prm

>  <Rbt.Receptor>
prm/blind_docking_100.prm

>  <SCORE>
2.53093

>  <SCORE.INTER>
-1.63184

>  <SCORE.INTER.CONST>
1

>  <SCORE.INTER.POLAR>
-0.781659

>  <SCORE.INTER.ROT>
2

>  <SCORE.INTER.SOLV>
12.6996

>  <SCORE.INTER.VDW>
-7.6489

>  <SCORE.INTER.norm>
-0.081592

>  <SCORE.INTRA>
-1.4328

>  <SCORE.INTRA.DIHEDRAL>
-1.47117

>  <SCORE.INTRA.DIHEDRAL.0>
3.72394

>  <SCORE.INTRA.POLAR>
0

>  <SCORE.INTRA.POLAR.0>
0

>  <SCORE.INTRA.REPUL>
0

>  <SCORE.INTRA.REPUL.0>
0

>  <SCORE.INTRA.SOLV>
-0.709701

>  <SCORE.INTRA.SOLV.lig_0>
-49.4697

>  <SCORE.INTRA.VDW>
-0.342365

>  <SCORE.INTRA.VDW.0>
-0.896538

>  <SCORE.INTRA.norm>
-0.0716399

>  <SCORE.RESTR>
5.59557

>  <SCORE.RESTR.CAVITY>
5.59557

>  <SCORE.RESTR.norm>
0.279778

>  <SCORE.SYSTEM>
0

>  <SCORE.SYSTEM.CONST>
0

>  <SCORE.SYSTEM.DIHEDRAL>
0

>  <SCORE.SYSTEM.SOLV>
0

>  <SCORE.SYSTEM.norm>
0

>  <SCORE.heavy>
20

>  <SCORE.norm>
0.126546

>  <RMSD>
29.602

$$$$
1nyi_lig
 OpenBabel11021811403D
libRbt.so/2013.1/901 2013/11/27
 20 22  0  0  0  0  0  0  0  0999 V2000
   28.6823   -0.4023   11.5210 C   0  0  0  0  0  0  0  0  0  0  0  0
   29.4035    0.4881   12.3727 O   0  0  0  0  0  0  0  0  0  0  0  0
   28.9506   -1.8430   11.8959 C   0  0  1  0  0  0  0  0  0  0  0  0
   28.8925   -1.9722   13.3423 O   0  0  0  0  0  0  0  0  0  0  0  0
   27.8930   -2.7958   11.3500 C   0  0  1  0  0  0  0  0  0  0  0  0
   28.2505   -3.2921   10.0592 O   0  0  0  0  0  0  0  0  0  0  0  0
   27.8442   -3.8766   12.4281 C   0  0  1  0  0  0  0  0  0  0  0  0
   28.9085   -4.8110   12.3299 O   0  0  0  0  0  0  0  0  0  0  0  0
   28.0042   -3.0282   13.6878 C   0  0  2  0  0  0  0  0  0  0  0  0
   24.4357   -3.7711   17.3214 N   0  0  0  0  0  0  0  0  0  0  0  0
   25.5041   -4.5610   16.9723 C   0  0  1  0  0  0  0  0  0  0  0  0
   25.6399   -5.6862   17.6757 N   0  0  0  0  0  0  0  0  0  0  0  0
   26.3702   -4.2715   16.0055 N   0  0  0  0  0  0  0  0  0  0  0  0
   26.0754   -3.0936   15.3819 C   0  0  1  0  0  0  0  0  0  0  0  0
   25.0283   -2.2326   15.6595 C   0  0  1  0  0  0  0  0  0  0  0  0
   24.1212   -2.5599   16.7056 C   0  0  0  0  0  0  0  0  0  0  0  0
   23.1363   -1.9226   17.0998 O   0  0  0  0  0  0  0  0  0  0  0  0
   25.0700   -1.1271   14.8197 N   0  0  0  0  0  0  0  0  0  0  0  0
   26.1109   -1.3344   14.0611 C   0  0  0  0  0  0  0  0  0  0  0  0
   26.7748   -2.5108   14.3318 N   0  0  1  0  0  0  0  0  0  0  0  0
  2  1  1  0  0  0  0
  3  1  1  1  0  0  0
  3  4  1  0  0  0  0
  3  5  1  0  0  0  0
  5  6  1  6  0  0  0
  5  7  1  0  0  0  0
  7  8  1  6  0  0  0
  7  9  1  0  0  0  0
  9  4  1  6  0  0  0
  9 20  1  0  0  0  0
 10 11  1  0  0  0  0
 11 12  1  6  0  0  0
 11 13  1  0  0  0  0
 14 13  1  1  0  0  0
 15 14  1  0  0  0  0
 15 16  1  1  0  0  0
 16 10  1  0  0  0  0
 16 17  2  0  0  0  0
 18 15  1  0  0  0  0
 19 18  1  0  0  0  0
 20 14  1  0  0  0  0
 20 19  1  1  0  0  0
M  END
>  <CHROM.1>
44.19435402,-142.40474016,26.80064498,-2.70781509,14.19892233,0.43119112
0.84737088,-0.28811262

>  <Name>
1nyi_lig

>  <RI>
0

>  <Rbt.Current_Directory>
/home/itssahil/PROJECTS/Mol_Feturizer/New_Systems/rnas/1nyi

>  <Rbt.Executable>
rbdock ($Id: //depot/dev/client3/rdock/2013.1/src/exe/rbdock.cxx#4 $)

>  <Rbt.Library>
libRbt.so (2013.1, Build901 2013/11/27)

>  <Rbt.Parameter_File>
/export/apps/rDock/src/rDock_2013.1_src/data/scripts/dock_solv.prm

>  <Rbt.Receptor>
prm/blind_docking_100.prm

>  <SCORE>
2.15582

>  <SCORE.INTER>
-2.02956

>  <SCORE.INTER.CONST>
1

>  <SCORE.INTER.POLAR>
-0.81756

>  <SCORE.INTER.ROT>
2

>  <SCORE.INTER.SOLV>
12.4846

>  <SCORE.INTER.VDW>
-7.72272

>  <SCORE.INTER.norm>
-0.101478

>  <SCORE.INTRA>
-1.51186

>  <SCORE.INTRA.DIHEDRAL>
-1.58743

>  <SCORE.INTRA.DIHEDRAL.0>
3.72394

>  <SCORE.INTRA.POLAR>
0

>  <SCORE.INTRA.POLAR.0>
0

>  <SCORE.INTRA.REPUL>
0

>  <SCORE.INTRA.REPUL.0>
0

>  <SCORE.INTRA.SOLV>
-0.725524

>  <SCORE.INTRA.SOLV.lig_0>
-49.4697

>  <SCORE.INTRA.VDW>
-0.355385

>  <SCORE.INTRA.VDW.0>
-0.896538

>  <SCORE.INTRA.norm>
-0.075593

>  <SCORE.RESTR>
5.69724

>  <SCORE.RESTR.CAVITY>
5.69724

>  <SCORE.RESTR.norm>
0.284862

>  <SCORE.SYSTEM>
0

>  <SCORE.SYSTEM.CONST>
0

>  <SCORE.SYSTEM.DIHEDRAL>
0

>  <SCORE.SYSTEM.SOLV>
0

>  <SCORE.SYSTEM.norm>
0

>  <SCORE.heavy>
20

>  <SCORE.norm>
0.107791

>  <RMSD>
29.617

$$$$
1nyi_lig
 OpenBabel11021811403D
libRbt.so/2013.1/901 2013/11/27
 20 22  0  0  0  0  0  0  0  0999 V2000
   28.9800   -0.5961   11.7681 C   0  0  0  0  0  0  0  0  0  0  0  0
   29.4682   -0.2631   10.4686 O   0  0  0  0  0  0  0  0  0  0  0  0
   29.0402   -2.0896   12.0007 C   0  0  1  0  0  0  0  0  0  0  0  0
   28.8811   -2.3520   13.4212 O   0  0  0  0  0  0  0  0  0  0  0  0
   27.9040   -2.8352   11.3097 C   0  0  1  0  0  0  0  0  0  0  0  0
   28.2709   -3.2447    9.9914 O   0  0  0  0  0  0  0  0  0  0  0  0
   27.6546   -4.0010   12.2644 C   0  0  1  0  0  0  0  0  0  0  0  0
   28.5953   -5.0540   12.1167 O   0  0  0  0  0  0  0  0  0  0  0  0
   27.8468   -3.3098   13.6125 C   0  0  2  0  0  0  0  0  0  0  0  0
   24.3563   -3.6588   17.3786 N   0  0  0  0  0  0  0  0  0  0  0  0
   25.3825   -4.5137   17.0572 C   0  0  1  0  0  0  0  0  0  0  0  0
   25.4938   -5.5935   17.8323 N   0  0  0  0  0  0  0  0  0  0  0  0
   26.2315   -4.3258   16.0510 N   0  0  0  0  0  0  0  0  0  0  0  0
   25.9657   -3.1815   15.3560 C   0  0  1  0  0  0  0  0  0  0  0  0
   24.9615   -2.2614   15.6007 C   0  0  1  0  0  0  0  0  0  0  0  0
   24.0723   -2.4800   16.6896 C   0  0  0  0  0  0  0  0  0  0  0  0
   23.1247   -1.7775   17.0643 O   0  0  0  0  0  0  0  0  0  0  0  0
   25.0228   -1.2177   14.6863 N   0  0  0  0  0  0  0  0  0  0  0  0
   26.0328   -1.5183   13.9173 C   0  0  0  0  0  0  0  0  0  0  0  0
   26.6574   -2.7001   14.2509 N   0  0  1  0  0  0  0  0  0  0  0  0
  2  1  1  0  0  0  0
  3  1  1  1  0  0  0
  3  4  1  0  0  0  0
  3  5  1  0  0  0  0
  5  6  1  6  0  0  0
  5  7  1  0  0  0  0
  7  8  1  6  0  0  0
  7  9  1  0  0  0  0
  9  4  1  6  0  0  0
  9 20  1  0  0  0  0
 10 11  1  0  0  0  0
 11 12  1  6  0  0  0
 11 13  1  0  0  0  0
 14 13  1  1  0  0  0
 15 14  1  0  0  0  0
 15 16  1  1  0  0  0
 16 10  1  0  0  0  0
 16 17  2  0  0  0  0
 18 15  1  0  0  0  0
 19 18  1  0  0  0  0
 20 14  1  0  0  0  0
 20 19  1  1  0  0  0
M  END
>  <CHROM.1>
165.01141015,-130.44350235,26.74367710,-2.83214761,14.07571111,0.50432036
0.83599020,-0.43268320

>  <Name>
1nyi_lig

>  <RI>
0

>  <Rbt.Current_Directory>
/home/itssahil/PROJECTS/Mol_Feturizer/New_Systems/rnas/1nyi

>  <Rbt.Executable>
rbdock ($Id: //depot/dev/client3/rdock/2013.1/src/exe/rbdock.cxx#4 $)

>  <Rbt.Library>
libRbt.so (2013.1, Build901 2013/11/27)

>  <Rbt.Parameter_File>
/export/apps/rDock/src/rDock_2013.1_src/data/scripts/dock_solv.prm

>  <Rbt.Receptor>
prm/blind_docking_100.prm

>  <SCORE>
2.6076

>  <SCORE.INTER>
-2.06748

>  <SCORE.INTER.CONST>
1

>  <SCORE.INTER.POLAR>
-0.979796

>  <SCORE.INTER.ROT>
2

>  <SCORE.INTER.SOLV>
11.6787

>  <SCORE.INTER.VDW>
-6.93858

>  <SCORE.INTER.norm>
-0.103374

>  <SCORE.INTRA>
-1.69023

>  <SCORE.INTRA.DIHEDRAL>
-1.69947

>  <SCORE.INTRA.DIHEDRAL.0>
3.72394

>  <SCORE.INTRA.POLAR>
0

>  <SCORE.INTRA.POLAR.0>
0

>  <SCORE.INTRA.REPUL>
0

>  <SCORE.INTRA.REPUL.0>
0

>  <SCORE.INTRA.SOLV>
-0.726139

>  <SCORE.INTRA.SOLV.lig_0>
-49.4697

>  <SCORE.INTRA.VDW>
-0.477424

>  <SCORE.INTRA.VDW.0>
-0.896538

>  <SCORE.INTRA.norm>
-0.0845114

>  <SCORE.RESTR>
6.36531

>  <SCORE.RESTR.CAVITY>
6.36531

>  <SCORE.RESTR.norm>
0.318265

>  <SCORE.SYSTEM>
0

>  <SCORE.SYSTEM.CONST>
0

>  <SCORE.SYSTEM.DIHEDRAL>
0

>  <SCORE.SYSTEM.SOLV>
0

>  <SCORE.SYSTEM.norm>
0

>  <SCORE.heavy>
20

>  <SCORE.norm>
0.13038

>  <RMSD>
29.736

$$$$
1nyi_lig
 OpenBabel11021811403D
libRbt.so/2013.1/901 2013/11/27
 20 22  0  0  0  0  0  0  0  0999 V2000
   22.9366   -2.6778   13.8866 C   0  0  0  0  0  0  0  0  0  0  0  0
   21.7068   -2.0999   14.3240 O   0  0  0  0  0  0  0  0  0  0  0  0
   23.6134   -3.4241   15.0149 C   0  0  1  0  0  0  0  0  0  0  0  0
   24.7109   -4.2062   14.4710 O   0  0  0  0  0  0  0  0  0  0  0  0
   24.2388   -2.4878   16.0429 C   0  0  1  0  0  0  0  0  0  0  0  0
   23.3215   -2.1725   17.0914 O   0  0  0  0  0  0  0  0  0  0  0  0
   25.4523   -3.2876   16.5125 C   0  0  1  0  0  0  0  0  0  0  0  0
   25.1242   -4.2973   17.4551 O   0  0  0  0  0  0  0  0  0  0  0  0
   25.9004   -3.9218   15.1976 C   0  0  2  0  0  0  0  0  0  0  0  0
   27.0291    0.5382   12.8904 N   0  0  0  0  0  0  0  0  0  0  0  0
   25.9126    0.1846   13.6083 C   0  0  1  0  0  0  0  0  0  0  0  0
   24.9824    1.1332   13.7271 N   0  0  0  0  0  0  0  0  0  0  0  0
   25.7215   -1.0086   14.1638 N   0  0  0  0  0  0  0  0  0  0  0  0
   26.7636   -1.8597   13.9338 C   0  0  1  0  0  0  0  0  0  0  0  0
   27.9244   -1.5983   13.2274 C   0  0  1  0  0  0  0  0  0  0  0  0
   28.1096   -0.3107   12.6514 C   0  0  0  0  0  0  0  0  0  0  0  0
   29.0704    0.1091   11.9939 O   0  0  0  0  0  0  0  0  0  0  0  0
   28.7555   -2.7112   13.2258 N   0  0  0  0  0  0  0  0  0  0  0  0
   28.0983   -3.6085   13.9076 C   0  0  0  0  0  0  0  0  0  0  0  0
   26.8744   -3.1751   14.3682 N   0  0  1  0  0  0  0  0  0  0  0  0
  2  1  1  0  0  0  0
  3  1  1  6  0  0  0
  3  4  1  0  0  0  0
  3  5  1  0  0  0  0
  5  6  1  1  0  0  0
  5  7  1  0  0  0  0
  7  8  1  1  0  0  0
  7  9  1  0  0  0  0
  9  4  1  6  0  0  0
  9 20  1  0  0  0  0
 10 11  1  0  0  0  0
 11 12  1  6  0  0  0
 11 13  1  0  0  0  0
 14 13  1  1  0  0  0
 15 14  1  0  0  0  0
 15 16  1  1  0  0  0
 16 10  1  0  0  0  0
 16 17  2  0  0  0  0
 18 15  1  0  0  0  0
 19 18  1  0  0  0  0
 20 14  1  0  0  0  0
 20 19  1  1  0  0  0
M  END
>  <CHROM.1>
168.99971280,69.92748725,25.76273187,-2.06656645,14.41110484,2.45272569,-0.29028068
2.61034238

>  <Name>
1nyi_lig

>  <RI>
0

>  <Rbt.Current_Directory>
/home/itssahil/PROJECTS/Mol_Feturizer/New_Systems/rnas/1nyi

>  <Rbt.Executable>
rbdock ($Id: //depot/dev/client3/rdock/2013.1/src/exe/rbdock.cxx#4 $)

>  <Rbt.Library>
libRbt.so (2013.1, Build901 2013/11/27)

>  <Rbt.Parameter_File>
/export/apps/rDock/src/rDock_2013.1_src/data/scripts/dock_solv.prm

>  <Rbt.Receptor>
prm/blind_docking_100.prm

>  <SCORE>
-6.02481

>  <SCORE.INTER>
-8.28429

>  <SCORE.INTER.CONST>
1

>  <SCORE.INTER.POLAR>
-0.845683

>  <SCORE.INTER.ROT>
2

>  <SCORE.INTER.SOLV>
16.0644

>  <SCORE.INTER.VDW>
-12.9921

>  <SCORE.INTER.norm>
-0.414214

>  <SCORE.INTRA>
-1.39204

>  <SCORE.INTRA.DIHEDRAL>
-2.05269

>  <SCORE.INTRA.DIHEDRAL.0>
3.72394

>  <SCORE.INTRA.POLAR>
0

>  <SCORE.INTRA.POLAR.0>
0

>  <SCORE.INTRA.REPUL>
0

>  <SCORE.INTRA.REPUL.0>
0

>  <SCORE.INTRA.SOLV>
1.46662

>  <SCORE.INTRA.SOLV.lig_0>
-49.4697

>  <SCORE.INTRA.VDW>
-1.09901

>  <SCORE.INTRA.VDW.0>
-0.896538

>  <SCORE.INTRA.norm>
-0.0696021

>  <SCORE.RESTR>
3.65152

>  <SCORE.RESTR.CAVITY>
3.65152

>  <SCORE.RESTR.norm>
0.182576

>  <SCORE.SYSTEM>
0

>  <SCORE.SYSTEM.CONST>
0

>  <SCORE.SYSTEM.DIHEDRAL>
0

>  <SCORE.SYSTEM.SOLV>
0

>  <SCORE.SYSTEM.norm>
0

>  <SCORE.heavy>
20

>  <SCORE.norm>
-0.30124

>  <RMSD>
29.844

$$$$
1nyi_lig
 OpenBabel11021811403D
libRbt.so/2013.1/901 2013/11/27
 20 22  0  0  0  0  0  0  0  0999 V2000
   26.4889   -4.7613   15.9336 C   0  0  0  0  0  0  0  0  0  0  0  0
   27.0487   -4.7022   17.2455 O   0  0  0  0  0  0  0  0  0  0  0  0
   25.1370   -4.0839   15.8931 C   0  0  1  0  0  0  0  0  0  0  0  0
   25.2771   -2.7229   16.3833 O   0  0  0  0  0  0  0  0  0  0  0  0
   24.5866   -3.9615   14.4765 C   0  0  1  0  0  0  0  0  0  0  0  0
   23.7884   -5.0926   14.1247 O   0  0  0  0  0  0  0  0  0  0  0  0
   23.7979   -2.6555   14.5478 C   0  0  1  0  0  0  0  0  0  0  0  0
   22.5247   -2.8052   15.1579 O   0  0  0  0  0  0  0  0  0  0  0  0
   24.7131   -1.8197   15.4399 C   0  0  2  0  0  0  0  0  0  0  0  0
   28.8137   -1.8092   12.3296 N   0  0  0  0  0  0  0  0  0  0  0  0
   28.0575   -2.8666   12.7740 C   0  0  1  0  0  0  0  0  0  0  0  0
   28.4387   -4.0681   12.3380 N   0  0  0  0  0  0  0  0  0  0  0  0
   27.0106   -2.7544   13.5865 N   0  0  0  0  0  0  0  0  0  0  0  0
   26.7692   -1.4594   13.9442 C   0  0  1  0  0  0  0  0  0  0  0  0
   27.4697   -0.3325   13.5515 C   0  0  1  0  0  0  0  0  0  0  0  0
   28.5797   -0.4780   12.6735 C   0  0  0  0  0  0  0  0  0  0  0  0
   29.3200    0.4009   12.2141 O   0  0  0  0  0  0  0  0  0  0  0  0
   26.9113    0.8089   14.1122 N   0  0  0  0  0  0  0  0  0  0  0  0
   25.9115    0.3659   14.8235 C   0  0  0  0  0  0  0  0  0  0  0  0
   25.7591   -1.0027   14.7824 N   0  0  1  0  0  0  0  0  0  0  0  0
  2  1  1  0  0  0  0
  3  1  1  6  0  0  0
  3  4  1  0  0  0  0
  3  5  1  0  0  0  0
  5  6  1  1  0  0  0
  5  7  1  0  0  0  0
  7  8  1  1  0  0  0
  7  9  1  0  0  0  0
  9  4  1  1  0  0  0
  9 20  1  0  0  0  0
 10 11  1  0  0  0  0
 11 12  1  1  0  0  0
 11 13  1  0  0  0  0
 14 13  1  6  0  0  0
 15 14  1  0  0  0  0
 15 16  1  6  0  0  0
 16 10  1  0  0  0  0
 16 17  2  0  0  0  0
 18 15  1  0  0  0  0
 19 18  1  0  0  0  0
 20 14  1  0  0  0  0
 20 19  1  6  0  0  0
M  END
>  <CHROM.1>
55.38008952,64.94280067,26.29133866,-2.32341637,14.35206469,-2.44460173,0.50179529
-0.16086273

>  <Name>
1nyi_lig

>  <RI>
0

>  <Rbt.Current_Directory>
/home/itssahil/PROJECTS/Mol_Feturizer/New_Systems/rnas/1nyi

>  <Rbt.Executable>
rbdock ($Id: //depot/dev/client3/rdock/2013.1/src/exe/rbdock.cxx#4 $)

>  <Rbt.Library>
libRbt.so (2013.1, Build901 2013/11/27)

>  <Rbt.Parameter_File>
/export/apps/rDock/src/rDock_2013.1_src/data/scripts/dock_solv.prm

>  <Rbt.Receptor>
prm/blind_docking_100.prm

>  <SCORE>
1.44268

>  <SCORE.INTER>
-3.94676

>  <SCORE.INTER.CONST>
1

>  <SCORE.INTER.POLAR>
-0.889667

>  <SCORE.INTER.ROT>
2

>  <SCORE.INTER.SOLV>
12.1544

>  <SCORE.INTER.VDW>
-8.65042

>  <SCORE.INTER.norm>
-0.197338

>  <SCORE.INTRA>
-1.60178

>  <SCORE.INTRA.DIHEDRAL>
-2.4147

>  <SCORE.INTRA.DIHEDRAL.0>
3.72394

>  <SCORE.INTRA.POLAR>
0

>  <SCORE.INTRA.POLAR.0>
0

>  <SCORE.INTRA.REPUL>
0

>  <SCORE.INTRA.REPUL.0>
0

>  <SCORE.INTRA.SOLV>
1.43437

>  <SCORE.INTRA.SOLV.lig_0>
-49.4697

>  <SCORE.INTRA.VDW>
-1.11162

>  <SCORE.INTRA.VDW.0>
-0.896538

>  <SCORE.INTRA.norm>
-0.0800892

>  <SCORE.RESTR>
6.99122

>  <SCORE.RESTR.CAVITY>
6.99122

>  <SCORE.RESTR.norm>
0.349561

>  <SCORE.SYSTEM>
0

>  <SCORE.SYSTEM.CONST>
0

>  <SCORE.SYSTEM.DIHEDRAL>
0

>  <SCORE.SYSTEM.SOLV>
0

>  <SCORE.SYSTEM.norm>
0

>  <SCORE.heavy>
20

>  <SCORE.norm>
0.0721342

>  <RMSD>
29.857

$$$$
1nyi_lig
 OpenBabel11021811403D
libRbt.so/2013.1/901 2013/11/27
 20 22  0  0  0  0  0  0  0  0999 V2000
   26.5357   -4.6699   16.1813 C   0  0  0  0  0  0  0  0  0  0  0  0
   26.3833   -6.0315   16.5825 O   0  0  0  0  0  0  0  0  0  0  0  0
   25.1906   -3.9875   16.0669 C   0  0  1  0  0  0  0  0  0  0  0  0
   25.3436   -2.5838   16.4111 O   0  0  0  0  0  0  0  0  0  0  0  0
   24.6428   -4.0099   14.6442 C   0  0  1  0  0  0  0  0  0  0  0  0
   23.8339   -5.1640   14.4120 O   0  0  0  0  0  0  0  0  0  0  0  0
   23.8670   -2.6961   14.5758 C   0  0  1  0  0  0  0  0  0  0  0  0
   22.5918   -2.7684   15.1956 O   0  0  0  0  0  0  0  0  0  0  0  0
   24.7894   -1.7798   15.3766 C   0  0  2  0  0  0  0  0  0  0  0  0
   28.8734   -2.1351   12.2647 N   0  0  0  0  0  0  0  0  0  0  0  0
   28.1039   -3.1325   12.8128 C   0  0  1  0  0  0  0  0  0  0  0  0
   28.4648   -4.3764   12.4945 N   0  0  0  0  0  0  0  0  0  0  0  0
   27.0630   -2.9257   13.6144 N   0  0  0  0  0  0  0  0  0  0  0  0
   26.8428   -1.5984   13.8452 C   0  0  1  0  0  0  0  0  0  0  0  0
   27.5580   -0.5260   13.3420 C   0  0  1  0  0  0  0  0  0  0  0  0
   28.6612   -0.7734   12.4782 C   0  0  0  0  0  0  0  0  0  0  0  0
   29.4121    0.0452   11.9326 O   0  0  0  0  0  0  0  0  0  0  0  0
   27.0198    0.6730   13.7909 N   0  0  0  0  0  0  0  0  0  0  0  0
   26.0172    0.3168   14.5458 C   0  0  0  0  0  0  0  0  0  0  0  0
   25.8441   -1.0468   14.6387 N   0  0  1  0  0  0  0  0  0  0  0  0
  2  1  1  0  0  0  0
  3  1  1  6  0  0  0
  3  4  1  0  0  0  0
  3  5  1  0  0  0  0
  5  6  1  1  0  0  0
  5  7  1  0  0  0  0
  7  8  1  1  0  0  0
  7  9  1  0  0  0  0
  9  4  1  1  0  0  0
  9 20  1  0  0  0  0
 10 11  1  0  0  0  0
 11 12  1  1  0  0  0
 11 13  1  0  0  0  0
 14 13  1  6  0  0  0
 15 14  1  0  0  0  0
 15 16  1  6  0  0  0
 16 10  1  0  0  0  0
 16 17  2  0  0  0  0
 18 15  1  0  0  0  0
 19 18  1  0  0  0  0
 20 14  1  0  0  0  0
 20 19  1  6  0  0  0
M  END
>  <CHROM.1>
148.08942635,65.60010638,26.31798000,-2.49844250,14.29305027,-2.41072519
0.52155942,-0.19812088

>  <Name>
1nyi_lig

>  <RI>
0

>  <Rbt.Current_Directory>
/home/itssahil/PROJECTS/Mol_Feturizer/New_Systems/rnas/1nyi

>  <Rbt.Executable>
rbdock ($Id: //depot/dev/client3/rdock/2013.1/src/exe/rbdock.cxx#4 $)

>  <Rbt.Library>
libRbt.so (2013.1, Build901 2013/11/27)

>  <Rbt.Parameter_File>
/export/apps/rDock/src/rDock_2013.1_src/data/scripts/dock_solv.prm

>  <Rbt.Receptor>
prm/blind_docking_100.prm

>  <SCORE>
5.66619

>  <SCORE.INTER>
-1.21396

>  <SCORE.INTER.CONST>
1

>  <SCORE.INTER.POLAR>
-0.271119

>  <SCORE.INTER.ROT>
2

>  <SCORE.INTER.SOLV>
10.8185

>  <SCORE.INTER.VDW>
-8.44508

>  <SCORE.INTER.norm>
-0.0606982

>  <SCORE.INTRA>
-0.220184

>  <SCORE.INTRA.DIHEDRAL>
0.378143

>  <SCORE.INTRA.DIHEDRAL.0>
3.72394

>  <SCORE.INTRA.POLAR>
0

>  <SCORE.INTRA.POLAR.0>
0

>  <SCORE.INTRA.REPUL>
0

>  <SCORE.INTRA.REPUL.0>
0

>  <SCORE.INTRA.SOLV>
1.42809

>  <SCORE.INTRA.SOLV.lig_0>
-49.4697

>  <SCORE.INTRA.VDW>
-1.1233

>  <SCORE.INTRA.VDW.0>
-0.896538

>  <SCORE.INTRA.norm>
-0.0110092

>  <SCORE.RESTR>
7.10034

>  <SCORE.RESTR.CAVITY>
7.10034

>  <SCORE.RESTR.norm>
0.355017

>  <SCORE.SYSTEM>
0

>  <SCORE.SYSTEM.CONST>
0

>  <SCORE.SYSTEM.DIHEDRAL>
0

>  <SCORE.SYSTEM.SOLV>
0

>  <SCORE.SYSTEM.norm>
0

>  <SCORE.heavy>
20

>  <SCORE.norm>
0.28331

>  <RMSD>
29.902

$$$$
1nyi_lig
 OpenBabel11021811403D
libRbt.so/2013.1/901 2013/11/27
 20 22  0  0  0  0  0  0  0  0999 V2000
   26.3934   -4.7593   16.0785 C   0  0  0  0  0  0  0  0  0  0  0  0
   26.9852   -4.6409   17.3722 O   0  0  0  0  0  0  0  0  0  0  0  0
   25.0975   -3.9825   16.0049 C   0  0  1  0  0  0  0  0  0  0  0  0
   25.3680   -2.5858   16.3021 O   0  0  0  0  0  0  0  0  0  0  0  0
   24.4838   -3.9999   14.6094 C   0  0  1  0  0  0  0  0  0  0  0  0
   23.5833   -5.0965   14.4464 O   0  0  0  0  0  0  0  0  0  0  0  0
   23.8031   -2.6345   14.5385 C   0  0  1  0  0  0  0  0  0  0  0  0
   22.5563   -2.5969   15.2166 O   0  0  0  0  0  0  0  0  0  0  0  0
   24.8260   -1.7691   15.2711 C   0  0  2  0  0  0  0  0  0  0  0  0
   28.9381   -2.5139   12.2671 N   0  0  0  0  0  0  0  0  0  0  0  0
   28.1531   -3.4352   12.9168 C   0  0  1  0  0  0  0  0  0  0  0  0
   28.5048   -4.7105   12.7468 N   0  0  0  0  0  0  0  0  0  0  0  0
   27.1061   -3.1289   13.6775 N   0  0  0  0  0  0  0  0  0  0  0  0
   26.8968   -1.7821   13.7526 C   0  0  1  0  0  0  0  0  0  0  0  0
   27.6279   -0.7807   13.1382 C   0  0  1  0  0  0  0  0  0  0  0  0
   28.7374   -1.1348   12.3211 C   0  0  0  0  0  0  0  0  0  0  0  0
   29.5021   -0.3906   11.6941 O   0  0  0  0  0  0  0  0  0  0  0  0
   27.0970    0.4666   13.4410 N   0  0  0  0  0  0  0  0  0  0  0  0
   26.0832    0.2078   14.2202 C   0  0  0  0  0  0  0  0  0  0  0  0
   25.8955   -1.1346   14.4663 N   0  0  1  0  0  0  0  0  0  0  0  0
  2  1  1  0  0  0  0
  3  1  1  6  0  0  0
  3  4  1  0  0  0  0
  3  5  1  0  0  0  0
  5  6  1  1  0  0  0
  5  7  1  0  0  0  0
  7  8  1  1  0  0  0
  7  9  1  0  0  0  0
  9  4  1  1  0  0  0
  9 20  1  0  0  0  0
 10 11  1  0  0  0  0
 11 12  1  1  0  0  0
 11 13  1  0  0  0  0
 14 13  1  6  0  0  0
 15 14  1  0  0  0  0
 15 16  1  6  0  0  0
 16 10  1  0  0  0  0
 16 17  2  0  0  0  0
 18 15  1  0  0  0  0
 19 18  1  0  0  0  0
 20 14  1  0  0  0  0
 20 19  1  6  0  0  0
M  END
>  <CHROM.1>
58.80687443,58.57888843,26.35074398,-2.54650329,14.26308741,-2.49806029,0.47336313
-0.33066872

>  <Name>
1nyi_lig

>  <RI>
0

>  <Rbt.Current_Directory>
/home/itssahil/PROJECTS/Mol_Feturizer/New_Systems/rnas/1nyi

>  <Rbt.Executable>
rbdock ($Id: //depot/dev/client3/rdock/2013.1/src/exe/rbdock.cxx#4 $)

>  <Rbt.Library>
libRbt.so (2013.1, Build901 2013/11/27)

>  <Rbt.Parameter_File>
/export/apps/rDock/src/rDock_2013.1_src/data/scripts/dock_solv.prm

>  <Rbt.Receptor>
prm/blind_docking_100.prm

>  <SCORE>
2.33324

>  <SCORE.INTER>
-2.94898

>  <SCORE.INTER.CONST>
1

>  <SCORE.INTER.POLAR>
-0.716623

>  <SCORE.INTER.ROT>
2

>  <SCORE.INTER.SOLV>
11.2203

>  <SCORE.INTER.VDW>
-8.25069

>  <SCORE.INTER.norm>
-0.147449

>  <SCORE.INTRA>
-1.62698

>  <SCORE.INTRA.DIHEDRAL>
-2.51125

>  <SCORE.INTRA.DIHEDRAL.0>
3.72394

>  <SCORE.INTRA.POLAR>
0

>  <SCORE.INTRA.POLAR.0>
0

>  <SCORE.INTRA.REPUL>
0

>  <SCORE.INTRA.REPUL.0>
0

>  <SCORE.INTRA.SOLV>
1.57217

>  <SCORE.INTRA.SOLV.lig_0>
-49.4697

>  <SCORE.INTRA.VDW>
-1.15744

>  <SCORE.INTRA.VDW.0>
-0.896538

>  <SCORE.INTRA.norm>
-0.0813491

>  <SCORE.RESTR>
6.9092

>  <SCORE.RESTR.CAVITY>
6.9092

>  <SCORE.RESTR.norm>
0.34546

>  <SCORE.SYSTEM>
0

>  <SCORE.SYSTEM.CONST>
0

>  <SCORE.SYSTEM.DIHEDRAL>
0

>  <SCORE.SYSTEM.SOLV>
0

>  <SCORE.SYSTEM.norm>
0

>  <SCORE.heavy>
20

>  <SCORE.norm>
0.116662

>  <RMSD>
29.916

$$$$
1nyi_lig
 OpenBabel11021811403D
libRbt.so/2013.1/901 2013/11/27
 20 22  0  0  0  0  0  0  0  0999 V2000
   28.3605    0.8811   11.9952 C   0  0  0  0  0  0  0  0  0  0  0  0
   28.4764    1.8985   12.9898 O   0  0  0  0  0  0  0  0  0  0  0  0
   28.9023   -0.4360   12.5052 C   0  0  1  0  0  0  0  0  0  0  0  0
   28.2448   -0.7618   13.7596 O   0  0  0  0  0  0  0  0  0  0  0  0
   28.6006   -1.5963   11.5633 C   0  0  1  0  0  0  0  0  0  0  0  0
   29.6475   -1.7833   10.6097 O   0  0  0  0  0  0  0  0  0  0  0  0
   28.4407   -2.7660   12.5323 C   0  0  1  0  0  0  0  0  0  0  0  0
   29.6806   -3.2942   12.9787 O   0  0  0  0  0  0  0  0  0  0  0  0
   27.7151   -2.0801   13.6878 C   0  0  2  0  0  0  0  0  0  0  0  0
   23.3764   -3.1570   16.2383 N   0  0  0  0  0  0  0  0  0  0  0  0
   24.6826   -3.3588   16.6131 C   0  0  1  0  0  0  0  0  0  0  0  0
   24.8560   -3.9151   17.8129 N   0  0  0  0  0  0  0  0  0  0  0  0
   25.7372   -3.0427   15.8670 N   0  0  0  0  0  0  0  0  0  0  0  0
   25.3785   -2.4970   14.6683 C   0  0  1  0  0  0  0  0  0  0  0  0
   24.0983   -2.2547   14.2025 C   0  0  1  0  0  0  0  0  0  0  0  0
   22.9869   -2.5924   15.0240 C   0  0  0  0  0  0  0  0  0  0  0  0
   21.7806   -2.4513   14.7858 O   0  0  0  0  0  0  0  0  0  0  0  0
   24.1397   -1.6731   12.9419 N   0  0  0  0  0  0  0  0  0  0  0  0
   25.4119   -1.5816   12.6679 C   0  0  0  0  0  0  0  0  0  0  0  0
   26.2342   -2.0664   13.6614 N   0  0  1  0  0  0  0  0  0  0  0  0
  2  1  1  0  0  0  0
  3  1  1  6  0  0  0
  3  4  1  0  0  0  0
  3  5  1  0  0  0  0
  5  6  1  6  0  0  0
  5  7  1  0  0  0  0
  7  8  1  1  0  0  0
  7  9  1  0  0  0  0
  9  4  1  6  0  0  0
  9 20  1  0  0  0  0
 10 11  1  0  0  0  0
 11 12  1  6  0  0  0
 11 13  1  0  0  0  0
 14 13  1  1  0  0  0
 15 14  1  0  0  0  0
 15 16  1  1  0  0  0
 16 10  1  0  0  0  0
 16 17  2  0  0  0  0
 18 15  1  0  0  0  0
 19 18  1  0  0  0  0
 20 14  1  0  0  0  0
 20 19  1  1  0  0  0
M  END
>  <CHROM.1>
53.92448774,-110.51201921,26.39279438,-1.89321055,13.82156210,0.62460143
0.25073348,-0.70785888

>  <Name>
1nyi_lig

>  <RI>
0

>  <Rbt.Current_Directory>
/home/itssahil/PROJECTS/Mol_Feturizer/New_Systems/rnas/1nyi

>  <Rbt.Executable>
rbdock ($Id: //depot/dev/client3/rdock/2013.1/src/exe/rbdock.cxx#4 $)

>  <Rbt.Library>
libRbt.so (2013.1, Build901 2013/11/27)

>  <Rbt.Parameter_File>
/export/apps/rDock/src/rDock_2013.1_src/data/scripts/dock_solv.prm

>  <Rbt.Receptor>
prm/blind_docking_100.prm

>  <SCORE>
6.75679

>  <SCORE.INTER>
4.70075

>  <SCORE.INTER.CONST>
1

>  <SCORE.INTER.POLAR>
-0.460244

>  <SCORE.INTER.ROT>
2

>  <SCORE.INTER.SOLV>
16.844

>  <SCORE.INTER.VDW>
-5.88003

>  <SCORE.INTER.norm>
0.235038

>  <SCORE.INTRA>
-2.02096

>  <SCORE.INTRA.DIHEDRAL>
-2.41252

>  <SCORE.INTRA.DIHEDRAL.0>
3.72394

>  <SCORE.INTRA.POLAR>
0

>  <SCORE.INTRA.POLAR.0>
0

>  <SCORE.INTRA.REPUL>
0

>  <SCORE.INTRA.REPUL.0>
0

>  <SCORE.INTRA.SOLV>
-0.854468

>  <SCORE.INTRA.SOLV.lig_0>
-49.4697

>  <SCORE.INTRA.VDW>
-0.387472

>  <SCORE.INTRA.VDW.0>
-0.896538

>  <SCORE.INTRA.norm>
-0.101048

>  <SCORE.RESTR>
4.077

>  <SCORE.RESTR.CAVITY>
4.077

>  <SCORE.RESTR.norm>
0.20385

>  <SCORE.SYSTEM>
0

>  <SCORE.SYSTEM.CONST>
0

>  <SCORE.SYSTEM.DIHEDRAL>
0

>  <SCORE.SYSTEM.SOLV>
0

>  <SCORE.SYSTEM.norm>
0

>  <SCORE.heavy>
20

>  <SCORE.norm>
0.337839

>  <RMSD>
29.992

$$$$
1nyi_lig
 OpenBabel11021811403D
libRbt.so/2013.1/901 2013/11/27
 20 22  0  0  0  0  0  0  0  0999 V2000
   26.0631   -5.1453   16.6958 C   0  0  0  0  0  0  0  0  0  0  0  0
   26.6798   -4.7561   17.9231 O   0  0  0  0  0  0  0  0  0  0  0  0
   25.0682   -4.1021   16.2375 C   0  0  1  0  0  0  0  0  0  0  0  0
   25.7758   -2.8605   15.9728 O   0  0  0  0  0  0  0  0  0  0  0  0
   24.3865   -4.4802   14.9272 C   0  0  1  0  0  0  0  0  0  0  0  0
   23.1827   -5.2144   15.1555 O   0  0  0  0  0  0  0  0  0  0  0  0
   24.1570   -3.1173   14.2772 C   0  0  1  0  0  0  0  0  0  0  0  0
   23.0313   -2.4306   14.8034 O   0  0  0  0  0  0  0  0  0  0  0  0
   25.4439   -2.3952   14.6701 C   0  0  2  0  0  0  0  0  0  0  0  0
   29.0798    0.1519   12.0659 N   0  0  0  0  0  0  0  0  0  0  0  0
   28.0717    0.6399   12.8614 C   0  0  1  0  0  0  0  0  0  0  0  0
   28.0249    1.9678   12.9786 N   0  0  0  0  0  0  0  0  0  0  0  0
   27.1764   -0.1160   13.4905 N   0  0  0  0  0  0  0  0  0  0  0  0
   27.3627   -1.4469   13.2510 C   0  0  1  0  0  0  0  0  0  0  0  0
   28.3429   -2.0330   12.4697 C   0  0  1  0  0  0  0  0  0  0  0  0
   29.2953   -1.2030   11.8153 C   0  0  0  0  0  0  0  0  0  0  0  0
   30.2368   -1.5373   11.0849 O   0  0  0  0  0  0  0  0  0  0  0  0
   28.2157   -3.4160   12.4837 N   0  0  0  0  0  0  0  0  0  0  0  0
   27.1823   -3.6396   13.2478 C   0  0  0  0  0  0  0  0  0  0  0  0
   26.6002   -2.4963   13.7498 N   0  0  1  0  0  0  0  0  0  0  0  0
  2  1  1  0  0  0  0
  3  1  1  6  0  0  0
  3  4  1  0  0  0  0
  3  5  1  0  0  0  0
  5  6  1  1  0  0  0
  5  7  1  0  0  0  0
  7  8  1  1  0  0  0
  7  9  1  0  0  0  0
  9  4  1  1  0  0  0
  9 20  1  0  0  0  0
 10 11  1  0  0  0  0
 11 12  1  6  0  0  0
 11 13  1  0  0  0  0
 14 13  1  1  0  0  0
 15 14  1  0  0  0  0
 15 16  1  1  0  0  0
 16 10  1  0  0  0  0
 16 17  2  0  0  0  0
 18 15  1  0  0  0  0
 19 18  1  0  0  0  0
 20 14  1  0  0  0  0
 20 19  1  1  0  0  0
M  END
>  <CHROM.1>
62.92996200,-107.89551326,26.63227086,-2.42387956,14.05623536,-2.29453996
0.40001204,-0.42595036

>  <Name>
1nyi_lig

>  <RI>
0

>  <Rbt.Current_Directory>
/home/itssahil/PROJECTS/Mol_Feturizer/New_Systems/rnas/1nyi

>  <Rbt.Executable>
rbdock ($Id: //depot/dev/client3/rdock/2013.1/src/exe/rbdock.cxx#4 $)

>  <Rbt.Library>
libRbt.so (2013.1, Build901 2013/11/27)

>  <Rbt.Parameter_File>
/export/apps/rDock/src/rDock_2013.1_src/data/scripts/dock_solv.prm

>  <Rbt.Receptor>
prm/blind_docking_100.prm

>  <SCORE>
1.03885

>  <SCORE.INTER>
-3.75955

>  <SCORE.INTER.CONST>
1

>  <SCORE.INTER.POLAR>
-0.814475

>  <SCORE.INTER.ROT>
2

>  <SCORE.INTER.SOLV>
12.3779

>  <SCORE.INTER.VDW>
-8.85074

>  <SCORE.INTER.norm>
-0.187977

>  <SCORE.INTRA>
-2.08376

>  <SCORE.INTRA.DIHEDRAL>
-2.51499

>  <SCORE.INTRA.DIHEDRAL.0>
3.72394

>  <SCORE.INTRA.POLAR>
0

>  <SCORE.INTRA.POLAR.0>
0

>  <SCORE.INTRA.REPUL>
0

>  <SCORE.INTRA.REPUL.0>
0

>  <SCORE.INTRA.SOLV>
-0.884167

>  <SCORE.INTRA.SOLV.lig_0>
-49.4697

>  <SCORE.INTRA.VDW>
-0.384184

>  <SCORE.INTRA.VDW.0>
-0.896538

>  <SCORE.INTRA.norm>
-0.104188

>  <SCORE.RESTR>
6.88216

>  <SCORE.RESTR.CAVITY>
6.88216

>  <SCORE.RESTR.norm>
0.344108

>  <SCORE.SYSTEM>
0

>  <SCORE.SYSTEM.CONST>
0

>  <SCORE.SYSTEM.DIHEDRAL>
0

>  <SCORE.SYSTEM.SOLV>
0

>  <SCORE.SYSTEM.norm>
0

>  <SCORE.heavy>
20

>  <SCORE.norm>
0.0519425

>  <RMSD>
30.302

$$$$
1nyi_lig
 OpenBabel11021811403D
libRbt.so/2013.1/901 2013/11/27
 20 22  0  0  0  0  0  0  0  0999 V2000
   25.0379   -3.3278   16.2913 C   0  0  0  0  0  0  0  0  0  0  0  0
   23.7705   -3.4488   15.6455 O   0  0  0  0  0  0  0  0  0  0  0  0
   26.1395   -3.9041   15.4297 C   0  0  1  0  0  0  0  0  0  0  0  0
   26.0719   -3.2977   14.1106 O   0  0  0  0  0  0  0  0  0  0  0  0
   27.5300   -3.5815   15.9653 C   0  0  1  0  0  0  0  0  0  0  0  0
   27.9957   -4.5942   16.8585 O   0  0  0  0  0  0  0  0  0  0  0  0
   28.3530   -3.4720   14.6833 C   0  0  1  0  0  0  0  0  0  0  0  0
   28.7215   -4.7339   14.1474 O   0  0  0  0  0  0  0  0  0  0  0  0
   27.3506   -2.7817   13.7609 C   0  0  2  0  0  0  0  0  0  0  0  0
   29.5828    1.4727   11.9152 N   0  0  0  0  0  0  0  0  0  0  0  0
   29.9225    0.1554   11.7244 C   0  0  1  0  0  0  0  0  0  0  0  0
   30.9862   -0.0562   10.9479 N   0  0  0  0  0  0  0  0  0  0  0  0
   29.2716   -0.8746   12.2573 N   0  0  0  0  0  0  0  0  0  0  0  0
   28.2203   -0.4779   13.0323 C   0  0  1  0  0  0  0  0  0  0  0  0
   27.8007    0.8165   13.2840 C   0  0  1  0  0  0  0  0  0  0  0  0
   28.5078    1.9009   12.6939 C   0  0  0  0  0  0  0  0  0  0  0  0
   28.2856    3.1139   12.7975 O   0  0  0  0  0  0  0  0  0  0  0  0
   26.6828    0.8153   14.1082 N   0  0  0  0  0  0  0  0  0  0  0  0
   26.4532   -0.4473   14.3426 C   0  0  0  0  0  0  0  0  0  0  0  0
   27.3459   -1.3008   13.7321 N   0  0  1  0  0  0  0  0  0  0  0  0
  2  1  1  0  0  0  0
  3  1  1  1  0  0  0
  3  4  1  0  0  0  0
  3  5  1  0  0  0  0
  5  6  1  1  0  0  0
  5  7  1  0  0  0  0
  7  8  1  6  0  0  0
  7  9  1  0  0  0  0
  9  4  1  1  0  0  0
  9 20  1  0  0  0  0
 10 11  1  0  0  0  0
 11 12  1  1  0  0  0
 11 13  1  0  0  0  0
 14 13  1  6  0  0  0
 15 14  1  0  0  0  0
 15 16  1  6  0  0  0
 16 10  1  0  0  0  0
 16 17  2  0  0  0  0
 18 15  1  0  0  0  0
 19 18  1  0  0  0  0
 20 14  1  0  0  0  0
 20 19  1  6  0  0  0
M  END
>  <CHROM.1>
52.98115651,-156.91598940,27.66460991,-1.45482532,13.92193522,2.06052268
-0.48659626,2.79996914

>  <Name>
1nyi_lig

>  <RI>
0

>  <Rbt.Current_Directory>
/home/itssahil/PROJECTS/Mol_Feturizer/New_Systems/rnas/1nyi

>  <Rbt.Executable>
rbdock ($Id: //depot/dev/client3/rdock/2013.1/src/exe/rbdock.cxx#4 $)

>  <Rbt.Library>
libRbt.so (2013.1, Build901 2013/11/27)

>  <Rbt.Parameter_File>
/export/apps/rDock/src/rDock_2013.1_src/data/scripts/dock_solv.prm

>  <Rbt.Receptor>
prm/blind_docking_80.prm

>  <SCORE>
-12.4271

>  <SCORE.INTER>
-11.2094

>  <SCORE.INTER.CONST>
1

>  <SCORE.INTER.POLAR>
-0.708765

>  <SCORE.INTER.ROT>
2

>  <SCORE.INTER.SOLV>
15.5799

>  <SCORE.INTER.VDW>
-15.237

>  <SCORE.INTER.norm>
-0.56047

>  <SCORE.INTRA>
-1.84605

>  <SCORE.INTRA.DIHEDRAL>
-2.25584

>  <SCORE.INTRA.DIHEDRAL.0>
3.72394

>  <SCORE.INTRA.POLAR>
0

>  <SCORE.INTRA.POLAR.0>
0

>  <SCORE.INTRA.REPUL>
0

>  <SCORE.INTRA.REPUL.0>
0

>  <SCORE.INTRA.SOLV>
-0.698878

>  <SCORE.INTRA.SOLV.lig_0>
-49.4697

>  <SCORE.INTRA.VDW>
-0.368689

>  <SCORE.INTRA.VDW.0>
-0.896538

>  <SCORE.INTRA.norm>
-0.0923023

>  <SCORE.RESTR>
0.628331

>  <SCORE.RESTR.CAVITY>
0.628331

>  <SCORE.RESTR.norm>
0.0314166

>  <SCORE.SYSTEM>
0

>  <SCORE.SYSTEM.CONST>
0

>  <SCORE.SYSTEM.DIHEDRAL>
0

>  <SCORE.SYSTEM.SOLV>
0

>  <SCORE.SYSTEM.norm>
0

>  <SCORE.heavy>
20

>  <SCORE.norm>
-0.621356

>  <RMSD>
30.446

$$$$
1nyi_lig
 OpenBabel11021811403D
libRbt.so/2013.1/901 2013/11/27
 20 22  0  0  0  0  0  0  0  0999 V2000
   25.6314   -4.7203   16.1647 C   0  0  0  0  0  0  0  0  0  0  0  0
   24.9995   -5.3121   17.2998 O   0  0  0  0  0  0  0  0  0  0  0  0
   25.5781   -3.2106   16.2438 C   0  0  1  0  0  0  0  0  0  0  0  0
   26.9155   -2.6805   16.0375 O   0  0  0  0  0  0  0  0  0  0  0  0
   24.7137   -2.5979   15.1475 C   0  0  1  0  0  0  0  0  0  0  0  0
   23.3572   -2.4513   15.5699 O   0  0  0  0  0  0  0  0  0  0  0  0
   25.4189   -1.2688   14.8847 C   0  0  1  0  0  0  0  0  0  0  0  0
   25.1110   -0.2737   15.8494 O   0  0  0  0  0  0  0  0  0  0  0  0
   26.8803   -1.6924   15.0147 C   0  0  2  0  0  0  0  0  0  0  0  0
   29.5123   -0.3290   10.8072 N   0  0  0  0  0  0  0  0  0  0  0  0
   28.9503    0.4616   11.7800 C   0  0  1  0  0  0  0  0  0  0  0  0
   29.1075    1.7756   11.6132 N   0  0  0  0  0  0  0  0  0  0  0  0
   28.2825   -0.0007   12.8330 N   0  0  0  0  0  0  0  0  0  0  0  0
   28.2059   -1.3636   12.8400 C   0  0  1  0  0  0  0  0  0  0  0  0
   28.7363   -2.2417   11.9114 C   0  0  1  0  0  0  0  0  0  0  0  0
   29.4554   -1.7225   10.7990 C   0  0  0  0  0  0  0  0  0  0  0  0
   29.9993   -2.3413    9.8754 O   0  0  0  0  0  0  0  0  0  0  0  0
   28.4634   -3.5553   12.2708 N   0  0  0  0  0  0  0  0  0  0  0  0
   27.7830   -3.4542   13.3793 C   0  0  0  0  0  0  0  0  0  0  0  0
   27.5755   -2.1562   13.7917 N   0  0  1  0  0  0  0  0  0  0  0  0
  2  1  1  0  0  0  0
  3  1  1  6  0  0  0
  3  4  1  0  0  0  0
  3  5  1  0  0  0  0
  5  6  1  1  0  0  0
  5  7  1  0  0  0  0
  7  8  1  1  0  0  0
  7  9  1  0  0  0  0
  9  4  1  1  0  0  0
  9 20  1  0  0  0  0
 10 11  1  0  0  0  0
 11 12  1  6  0  0  0
 11 13  1  0  0  0  0
 14 13  1  1  0  0  0
 15 14  1  0  0  0  0
 15 16  1  1  0  0  0
 16 10  1  0  0  0  0
 16 17  2  0  0  0  0
 18 15  1  0  0  0  0
 19 18  1  0  0  0  0
 20 14  1  0  0  0  0
 20 19  1  1  0  0  0
M  END
>  <CHROM.1>
128.96883028,-152.12004613,27.18455401,-1.98818736,13.76307029,-2.65522252
0.81687099,-0.15887491

>  <Name>
1nyi_lig

>  <RI>
0

>  <Rbt.Current_Directory>
/home/itssahil/PROJECTS/Mol_Feturizer/New_Systems/rnas/1nyi

>  <Rbt.Executable>
rbdock ($Id: //depot/dev/client3/rdock/2013.1/src/exe/rbdock.cxx#4 $)

>  <Rbt.Library>
libRbt.so (2013.1, Build901 2013/11/27)

>  <Rbt.Parameter_File>
/export/apps/rDock/src/rDock_2013.1_src/data/scripts/dock_solv.prm

>  <Rbt.Receptor>
prm/blind_docking_100.prm

>  <SCORE>
9.64143

>  <SCORE.INTER>
4.75869

>  <SCORE.INTER.CONST>
1

>  <SCORE.INTER.POLAR>
-0.00287374

>  <SCORE.INTER.ROT>
2

>  <SCORE.INTER.SOLV>
11.3111

>  <SCORE.INTER.VDW>
-5.52165

>  <SCORE.INTER.norm>
0.237934

>  <SCORE.INTRA>
0.473861

>  <SCORE.INTRA.DIHEDRAL>
2.52789

>  <SCORE.INTRA.DIHEDRAL.0>
3.72394

>  <SCORE.INTRA.POLAR>
0

>  <SCORE.INTRA.POLAR.0>
0

>  <SCORE.INTRA.REPUL>
0

>  <SCORE.INTRA.REPUL.0>
0

>  <SCORE.INTRA.SOLV>
-0.811858

>  <SCORE.INTRA.SOLV.lig_0>
-49.4697

>  <SCORE.INTRA.VDW>
-0.384154

>  <SCORE.INTRA.VDW.0>
-0.896538

>  <SCORE.INTRA.norm>
0.023693

>  <SCORE.RESTR>
4.40888

>  <SCORE.RESTR.CAVITY>
4.40888

>  <SCORE.RESTR.norm>
0.220444

>  <SCORE.SYSTEM>
0

>  <SCORE.SYSTEM.CONST>
0

>  <SCORE.SYSTEM.DIHEDRAL>
0

>  <SCORE.SYSTEM.SOLV>
0

>  <SCORE.SYSTEM.norm>
0

>  <SCORE.heavy>
20

>  <SCORE.norm>
0.482071

>  <RMSD>
30.585

$$$$
1nyi_lig
 OpenBabel11021811403D
libRbt.so/2013.1/901 2013/11/27
 20 22  0  0  0  0  0  0  0  0999 V2000
   25.6665   -4.6884   16.1674 C   0  0  0  0  0  0  0  0  0  0  0  0
   25.0311   -5.2777   17.3019 O   0  0  0  0  0  0  0  0  0  0  0  0
   25.6064   -3.1786   16.2393 C   0  0  1  0  0  0  0  0  0  0  0  0
   26.9419   -2.6436   16.0338 O   0  0  0  0  0  0  0  0  0  0  0  0
   24.7421   -2.5748   15.1379 C   0  0  1  0  0  0  0  0  0  0  0  0
   23.3838   -2.4321   15.5564 O   0  0  0  0  0  0  0  0  0  0  0  0
   25.4421   -1.2439   14.8707 C   0  0  1  0  0  0  0  0  0  0  0  0
   25.1275   -0.2456   15.8299 O   0  0  0  0  0  0  0  0  0  0  0  0
   26.9050   -1.6605   15.0062 C   0  0  2  0  0  0  0  0  0  0  0  0
   29.5177   -0.3037   10.7846 N   0  0  0  0  0  0  0  0  0  0  0  0
   28.9465    0.4889   11.7504 C   0  0  1  0  0  0  0  0  0  0  0  0
   29.0873    1.8031   11.5714 N   0  0  0  0  0  0  0  0  0  0  0  0
   28.2850    0.0281   12.8081 N   0  0  0  0  0  0  0  0  0  0  0  0
   28.2253   -1.3355   12.8277 C   0  0  1  0  0  0  0  0  0  0  0  0
   28.7660   -2.2156   11.9070 C   0  0  1  0  0  0  0  0  0  0  0  0
   29.4780   -1.6978   10.7893 C   0  0  0  0  0  0  0  0  0  0  0  0
   30.0290   -2.3184    9.8712 O   0  0  0  0  0  0  0  0  0  0  0  0
   28.5096   -3.5290   12.2788 N   0  0  0  0  0  0  0  0  0  0  0  0
   27.8285   -3.4261   13.3867 C   0  0  0  0  0  0  0  0  0  0  0  0
   27.6052   -2.1270   13.7872 N   0  0  1  0  0  0  0  0  0  0  0  0
  2  1  1  0  0  0  0
  3  1  1  6  0  0  0
  3  4  1  0  0  0  0
  3  5  1  0  0  0  0
  5  6  1  1  0  0  0
  5  7  1  0  0  0  0
  7  8  1  1  0  0  0
  7  9  1  0  0  0  0
  9  4  1  1  0  0  0
  9 20  1  0  0  0  0
 10 11  1  0  0  0  0
 11 12  1  6  0  0  0
 11 13  1  0  0  0  0
 14 13  1  1  0  0  0
 15 14  1  0  0  0  0
 15 16  1  1  0  0  0
 16 10  1  0  0  0  0
 16 17  2  0  0  0  0
 18 15  1  0  0  0  0
 19 18  1  0  0  0  0
 20 14  1  0  0  0  0
 20 19  1  1  0  0  0
M  END
>  <CHROM.1>
129.12474311,-152.67825812,27.20710708,-1.96031659,13.75284109,-2.64289997
0.81428429,-0.17576258

>  <Name>
1nyi_lig

>  <RI>
0

>  <Rbt.Current_Directory>
/home/itssahil/PROJECTS/Mol_Feturizer/New_Systems/rnas/1nyi

>  <Rbt.Executable>
rbdock ($Id: //depot/dev/client3/rdock/2013.1/src/exe/rbdock.cxx#4 $)

>  <Rbt.Library>
libRbt.so (2013.1, Build901 2013/11/27)

>  <Rbt.Parameter_File>
/export/apps/rDock/src/rDock_2013.1_src/data/scripts/dock_solv.prm

>  <Rbt.Receptor>
prm/blind_docking_100.prm

>  <SCORE>
9.40208

>  <SCORE.INTER>
4.45356

>  <SCORE.INTER.CONST>
1

>  <SCORE.INTER.POLAR>
-0.000792336

>  <SCORE.INTER.ROT>
2

>  <SCORE.INTER.SOLV>
11.302

>  <SCORE.INTER.VDW>
-5.72899

>  <SCORE.INTER.norm>
0.222678

>  <SCORE.INTRA>
0.473163

>  <SCORE.INTRA.DIHEDRAL>
2.5175

>  <SCORE.INTRA.DIHEDRAL.0>
3.72394

>  <SCORE.INTRA.POLAR>
0

>  <SCORE.INTRA.POLAR.0>
0

>  <SCORE.INTRA.REPUL>
0

>  <SCORE.INTRA.REPUL.0>
0

>  <SCORE.INTRA.SOLV>
-0.808091

>  <SCORE.INTRA.SOLV.lig_0>
-49.4697

>  <SCORE.INTRA.VDW>
-0.381543

>  <SCORE.INTRA.VDW.0>
-0.896538

>  <SCORE.INTRA.norm>
0.0236582

>  <SCORE.RESTR>
4.47536

>  <SCORE.RESTR.CAVITY>
4.47536

>  <SCORE.RESTR.norm>
0.223768

>  <SCORE.SYSTEM>
0

>  <SCORE.SYSTEM.CONST>
0

>  <SCORE.SYSTEM.DIHEDRAL>
0

>  <SCORE.SYSTEM.SOLV>
0

>  <SCORE.SYSTEM.norm>
0

>  <SCORE.heavy>
20

>  <SCORE.norm>
0.470104

>  <RMSD>
30.598

$$$$
1nyi_lig
 OpenBabel11021811403D
libRbt.so/2013.1/901 2013/11/27
 20 22  0  0  0  0  0  0  0  0999 V2000
   27.8288   -3.9396   15.8973 C   0  0  0  0  0  0  0  0  0  0  0  0
   28.5865   -3.4155   14.8068 O   0  0  0  0  0  0  0  0  0  0  0  0
   26.4457   -3.3283   15.9363 C   0  0  1  0  0  0  0  0  0  0  0  0
   26.5716   -1.8819   16.0024 O   0  0  0  0  0  0  0  0  0  0  0  0
   25.6423   -3.6189   14.6735 C   0  0  1  0  0  0  0  0  0  0  0  0
   24.8789   -4.8192   14.8025 O   0  0  0  0  0  0  0  0  0  0  0  0
   24.7858   -2.3615   14.5388 C   0  0  1  0  0  0  0  0  0  0  0  0
   23.6574   -2.3602   15.4003 O   0  0  0  0  0  0  0  0  0  0  0  0
   25.7827   -1.2908   14.9768 C   0  0  2  0  0  0  0  0  0  0  0  0
   28.8987   -2.0846   10.9582 N   0  0  0  0  0  0  0  0  0  0  0  0
   28.2676   -2.9978   11.7675 C   0  0  1  0  0  0  0  0  0  0  0  0
   28.4929   -4.2788   11.4719 N   0  0  0  0  0  0  0  0  0  0  0  0
   27.4793   -2.6791   12.7901 N   0  0  0  0  0  0  0  0  0  0  0  0
   27.3696   -1.3290   12.9582 C   0  0  1  0  0  0  0  0  0  0  0  0
   27.9624   -0.3349   12.1998 C   0  0  1  0  0  0  0  0  0  0  0  0
   28.7932   -0.7017   11.1046 C   0  0  0  0  0  0  0  0  0  0  0  0
   29.4013    0.0347   10.3175 O   0  0  0  0  0  0  0  0  0  0  0  0
   27.5986    0.9202   12.6706 N   0  0  0  0  0  0  0  0  0  0  0  0
   26.8171    0.6727   13.6854 C   0  0  0  0  0  0  0  0  0  0  0  0
   26.6308   -0.6697   13.9334 N   0  0  1  0  0  0  0  0  0  0  0  0
  2  1  1  0  0  0  0
  3  1  1  6  0  0  0
  3  4  1  0  0  0  0
  3  5  1  0  0  0  0
  5  6  1  1  0  0  0
  5  7  1  0  0  0  0
  7  8  1  1  0  0  0
  7  9  1  0  0  0  0
  9  4  1  1  0  0  0
  9 20  1  0  0  0  0
 10 11  1  0  0  0  0
 11 12  1  1  0  0  0
 11 13  1  0  0  0  0
 14 13  1  6  0  0  0
 15 14  1  0  0  0  0
 15 16  1  6  0  0  0
 16 10  1  0  0  0  0
 16 17  2  0  0  0  0
 18 15  1  0  0  0  0
 19 18  1  0  0  0  0
 20 14  1  0  0  0  0
 20 19  1  6  0  0  0
M  END
>  <CHROM.1>
-56.16076561,74.05599215,27.07765256,-2.04514788,13.57976752,-2.52047632
0.81924979,-0.24505296

>  <Name>
1nyi_lig

>  <RI>
0

>  <Rbt.Current_Directory>
/home/itssahil/PROJECTS/Mol_Feturizer/New_Systems/rnas/1nyi

>  <Rbt.Executable>
rbdock ($Id: //depot/dev/client3/rdock/2013.1/src/exe/rbdock.cxx#4 $)

>  <Rbt.Library>
libRbt.so (2013.1, Build901 2013/11/27)

>  <Rbt.Parameter_File>
/export/apps/rDock/src/rDock_2013.1_src/data/scripts/dock_solv.prm

>  <Rbt.Receptor>
prm/blind_docking_100.prm

>  <SCORE>
3.50879

>  <SCORE.INTER>
-2.75935

>  <SCORE.INTER.CONST>
1

>  <SCORE.INTER.POLAR>
0

>  <SCORE.INTER.ROT>
2

>  <SCORE.INTER.SOLV>
8.07121

>  <SCORE.INTER.VDW>
-9.4633

>  <SCORE.INTER.norm>
-0.137968

>  <SCORE.INTRA>
0.103824

>  <SCORE.INTRA.DIHEDRAL>
-2.39284

>  <SCORE.INTRA.DIHEDRAL.0>
3.72394

>  <SCORE.INTRA.POLAR>
0

>  <SCORE.INTRA.POLAR.0>
0

>  <SCORE.INTRA.REPUL>
0

>  <SCORE.INTRA.REPUL.0>
0

>  <SCORE.INTRA.SOLV>
3.3854

>  <SCORE.INTRA.SOLV.lig_0>
-49.4697

>  <SCORE.INTRA.VDW>
-0.392454

>  <SCORE.INTRA.VDW.0>
-0.896538

>  <SCORE.INTRA.norm>
0.00519121

>  <SCORE.RESTR>
6.16431

>  <SCORE.RESTR.CAVITY>
6.16431

>  <SCORE.RESTR.norm>
0.308216

>  <SCORE.SYSTEM>
0

>  <SCORE.SYSTEM.CONST>
0

>  <SCORE.SYSTEM.DIHEDRAL>
0

>  <SCORE.SYSTEM.SOLV>
0

>  <SCORE.SYSTEM.norm>
0

>  <SCORE.heavy>
20

>  <SCORE.norm>
0.175439

>  <RMSD>
30.599

$$$$
1nyi_lig
 OpenBabel11021811403D
libRbt.so/2013.1/901 2013/11/27
 20 22  0  0  0  0  0  0  0  0999 V2000
   25.6628   -4.6853   16.1627 C   0  0  0  0  0  0  0  0  0  0  0  0
   25.0042   -5.2746   17.2838 O   0  0  0  0  0  0  0  0  0  0  0  0
   25.6021   -3.1755   16.2338 C   0  0  1  0  0  0  0  0  0  0  0  0
   26.9376   -2.6401   16.0292 O   0  0  0  0  0  0  0  0  0  0  0  0
   24.7385   -2.5725   15.1315 C   0  0  1  0  0  0  0  0  0  0  0  0
   23.3798   -2.4302   15.5487 O   0  0  0  0  0  0  0  0  0  0  0  0
   25.4382   -1.2415   14.8642 C   0  0  1  0  0  0  0  0  0  0  0  0
   25.1225   -0.2429   15.8227 O   0  0  0  0  0  0  0  0  0  0  0  0
   26.9012   -1.6575   15.0011 C   0  0  2  0  0  0  0  0  0  0  0  0
   29.5103   -0.3013   10.7771 N   0  0  0  0  0  0  0  0  0  0  0  0
   28.9371    0.4915   11.7415 C   0  0  1  0  0  0  0  0  0  0  0  0
   29.0745    1.8058   11.5602 N   0  0  0  0  0  0  0  0  0  0  0  0
   28.2768    0.0309   12.8000 N   0  0  0  0  0  0  0  0  0  0  0  0
   28.2206   -1.3328   12.8221 C   0  0  1  0  0  0  0  0  0  0  0  0
   28.7635   -2.2131   11.9028 C   0  0  1  0  0  0  0  0  0  0  0  0
   29.4742   -1.6955   10.7843 C   0  0  0  0  0  0  0  0  0  0  0  0
   30.0268   -2.3162    9.8672 O   0  0  0  0  0  0  0  0  0  0  0  0
   28.5106   -3.5266   12.2769 N   0  0  0  0  0  0  0  0  0  0  0  0
   27.8293   -3.4235   13.3847 C   0  0  0  0  0  0  0  0  0  0  0  0
   27.6026   -2.1242   13.7829 N   0  0  1  0  0  0  0  0  0  0  0  0
  2  1  1  0  0  0  0
  3  1  1  6  0  0  0
  3  4  1  0  0  0  0
  3  5  1  0  0  0  0
  5  6  1  1  0  0  0
  5  7  1  0  0  0  0
  7  8  1  1  0  0  0
  7  9  1  0  0  0  0
  9  4  1  1  0  0  0
  9 20  1  0  0  0  0
 10 11  1  0  0  0  0
 11 12  1  6  0  0  0
 11 13  1  0  0  0  0
 14 13  1  1  0  0  0
 15 14  1  0  0  0  0
 15 16  1  1  0  0  0
 16 10  1  0  0  0  0
 16 17  2  0  0  0  0
 18 15  1  0  0  0  0
 19 18  1  0  0  0  0
 20 14  1  0  0  0  0
 20 19  1  1  0  0  0
M  END
>  <CHROM.1>
130.24949667,-152.83220299,27.20138906,-1.95764058,13.74632845,-2.64263416
0.81352468,-0.17627729

>  <Name>
1nyi_lig

>  <RI>
0

>  <Rbt.Current_Directory>
/home/itssahil/PROJECTS/Mol_Feturizer/New_Systems/rnas/1nyi

>  <Rbt.Executable>
rbdock ($Id: //depot/dev/client3/rdock/2013.1/src/exe/rbdock.cxx#4 $)

>  <Rbt.Library>
libRbt.so (2013.1, Build901 2013/11/27)

>  <Rbt.Parameter_File>
/export/apps/rDock/src/rDock_2013.1_src/data/scripts/dock_solv.prm

>  <Rbt.Receptor>
prm/blind_docking_100.prm

>  <SCORE>
9.30469

>  <SCORE.INTER>
4.37249

>  <SCORE.INTER.CONST>
1

>  <SCORE.INTER.POLAR>
-0.000631552

>  <SCORE.INTER.ROT>
2

>  <SCORE.INTER.SOLV>
11.2597

>  <SCORE.INTER.VDW>
-5.76948

>  <SCORE.INTER.norm>
0.218624

>  <SCORE.INTRA>
0.43734

>  <SCORE.INTRA.DIHEDRAL>
2.4415

>  <SCORE.INTRA.DIHEDRAL.0>
3.72394

>  <SCORE.INTRA.POLAR>
0

>  <SCORE.INTRA.POLAR.0>
0

>  <SCORE.INTRA.REPUL>
0

>  <SCORE.INTRA.REPUL.0>
0

>  <SCORE.INTRA.SOLV>
-0.802888

>  <SCORE.INTRA.SOLV.lig_0>
-49.4697

>  <SCORE.INTRA.VDW>
-0.381968

>  <SCORE.INTRA.VDW.0>
-0.896538

>  <SCORE.INTRA.norm>
0.021867

>  <SCORE.RESTR>
4.49486

>  <SCORE.RESTR.CAVITY>
4.49486

>  <SCORE.RESTR.norm>
0.224743

>  <SCORE.SYSTEM>
0

>  <SCORE.SYSTEM.CONST>
0

>  <SCORE.SYSTEM.DIHEDRAL>
0

>  <SCORE.SYSTEM.SOLV>
0

>  <SCORE.SYSTEM.norm>
0

>  <SCORE.heavy>
20

>  <SCORE.norm>
0.465234

>  <RMSD>
30.604

$$$$
1nyi_lig
 OpenBabel11021811403D
libRbt.so/2013.1/901 2013/11/27
 20 22  0  0  0  0  0  0  0  0999 V2000
   25.6459   -4.6539   16.1423 C   0  0  0  0  0  0  0  0  0  0  0  0
   25.3141   -5.2360   17.4029 O   0  0  0  0  0  0  0  0  0  0  0  0
   25.5944   -3.1439   16.2151 C   0  0  1  0  0  0  0  0  0  0  0  0
   26.9345   -2.6168   16.0193 O   0  0  0  0  0  0  0  0  0  0  0  0
   24.7414   -2.5340   15.1083 C   0  0  1  0  0  0  0  0  0  0  0  0
   23.3811   -2.3835   15.5175 O   0  0  0  0  0  0  0  0  0  0  0  0
   25.4512   -1.2071   14.8471 C   0  0  1  0  0  0  0  0  0  0  0  0
   25.1360   -0.2077   15.8050 O   0  0  0  0  0  0  0  0  0  0  0  0
   26.9106   -1.6326   14.9924 C   0  0  2  0  0  0  0  0  0  0  0  0
   29.5227   -0.2857   10.7673 N   0  0  0  0  0  0  0  0  0  0  0  0
   28.9442    0.5093   11.7267 C   0  0  1  0  0  0  0  0  0  0  0  0
   29.0765    1.8233   11.5394 N   0  0  0  0  0  0  0  0  0  0  0  0
   28.2837    0.0510   12.7861 N   0  0  0  0  0  0  0  0  0  0  0  0
   28.2331   -1.3128   12.8145 C   0  0  1  0  0  0  0  0  0  0  0  0
   28.7816   -2.1952   11.9006 C   0  0  1  0  0  0  0  0  0  0  0  0
   29.4924   -1.6799   10.7810 C   0  0  0  0  0  0  0  0  0  0  0  0
   30.0495   -2.3027    9.8680 O   0  0  0  0  0  0  0  0  0  0  0  0
   28.5333   -3.5079   12.2804 N   0  0  0  0  0  0  0  0  0  0  0  0
   27.8493   -3.4024   13.3862 C   0  0  0  0  0  0  0  0  0  0  0  0
   27.6164   -2.1022   13.7778 N   0  0  1  0  0  0  0  0  0  0  0  0
  2  1  1  0  0  0  0
  3  1  1  6  0  0  0
  3  4  1  0  0  0  0
  3  5  1  0  0  0  0
  5  6  1  1  0  0  0
  5  7  1  0  0  0  0
  7  8  1  1  0  0  0
  7  9  1  0  0  0  0
  9  4  1  1  0  0  0
  9 20  1  0  0  0  0
 10 11  1  0  0  0  0
 11 12  1  6  0  0  0
 11 13  1  0  0  0  0
 14 13  1  1  0  0  0
 15 14  1  0  0  0  0
 15 16  1  1  0  0  0
 16 10  1  0  0  0  0
 16 17  2  0  0  0  0
 18 15  1  0  0  0  0
 19 18  1  0  0  0  0
 20 14  1  0  0  0  0
 20 19  1  1  0  0  0
M  END
>  <CHROM.1>
114.43461064,-153.56772006,27.22735916,-1.93217676,13.74215185,-2.61685905
0.80884903,-0.21325044

>  <Name>
1nyi_lig

>  <RI>
0

>  <Rbt.Current_Directory>
/home/itssahil/PROJECTS/Mol_Feturizer/New_Systems/rnas/1nyi

>  <Rbt.Executable>
rbdock ($Id: //depot/dev/client3/rdock/2013.1/src/exe/rbdock.cxx#4 $)

>  <Rbt.Library>
libRbt.so (2013.1, Build901 2013/11/27)

>  <Rbt.Parameter_File>
/export/apps/rDock/src/rDock_2013.1_src/data/scripts/dock_solv.prm

>  <Rbt.Receptor>
prm/blind_docking_100.prm

>  <SCORE>
9.44065

>  <SCORE.INTER>
4.39363

>  <SCORE.INTER.CONST>
1

>  <SCORE.INTER.POLAR>
-7.18731e-05

>  <SCORE.INTER.ROT>
2

>  <SCORE.INTER.SOLV>
11.2737

>  <SCORE.INTER.VDW>
-5.76191

>  <SCORE.INTER.norm>
0.219682

>  <SCORE.INTRA>
0.543964

>  <SCORE.INTRA.DIHEDRAL>
2.71318

>  <SCORE.INTRA.DIHEDRAL.0>
3.72394

>  <SCORE.INTRA.POLAR>
0

>  <SCORE.INTRA.POLAR.0>
0

>  <SCORE.INTRA.REPUL>
0

>  <SCORE.INTRA.REPUL.0>
0

>  <SCORE.INTRA.SOLV>
-0.854308

>  <SCORE.INTRA.SOLV.lig_0>
-49.4697

>  <SCORE.INTRA.VDW>
-0.38547

>  <SCORE.INTRA.VDW.0>
-0.896538

>  <SCORE.INTRA.norm>
0.0271982

>  <SCORE.RESTR>
4.50305

>  <SCORE.RESTR.CAVITY>
4.50305

>  <SCORE.RESTR.norm>
0.225153

>  <SCORE.SYSTEM>
0

>  <SCORE.SYSTEM.CONST>
0

>  <SCORE.SYSTEM.DIHEDRAL>
0

>  <SCORE.SYSTEM.SOLV>
0

>  <SCORE.SYSTEM.norm>
0

>  <SCORE.heavy>
20

>  <SCORE.norm>
0.472033

>  <RMSD>
30.612

$$$$
1nyi_lig
 OpenBabel11021811403D
libRbt.so/2013.1/901 2013/11/27
 20 22  0  0  0  0  0  0  0  0999 V2000
   25.5242   -4.7728   15.9012 C   0  0  0  0  0  0  0  0  0  0  0  0
   25.9971   -5.4007   17.0929 O   0  0  0  0  0  0  0  0  0  0  0  0
   25.5210   -3.2674   16.0495 C   0  0  1  0  0  0  0  0  0  0  0  0
   26.8791   -2.7753   15.8901 O   0  0  0  0  0  0  0  0  0  0  0  0
   24.6979   -2.5752   14.9688 C   0  0  1  0  0  0  0  0  0  0  0  0
   23.3397   -2.4010   15.3753 O   0  0  0  0  0  0  0  0  0  0  0  0
   25.4525   -1.2609   14.7797 C   0  0  1  0  0  0  0  0  0  0  0  0
   25.1614   -0.3009   15.7844 O   0  0  0  0  0  0  0  0  0  0  0  0
   26.8961   -1.7407   14.9138 C   0  0  2  0  0  0  0  0  0  0  0  0
   29.5640   -0.2678   10.7663 N   0  0  0  0  0  0  0  0  0  0  0  0
   28.9998    0.4968   11.7584 C   0  0  1  0  0  0  0  0  0  0  0  0
   29.1653    1.8142   11.6319 N   0  0  0  0  0  0  0  0  0  0  0  0
   28.3223    0.0071   12.7928 N   0  0  0  0  0  0  0  0  0  0  0  0
   28.2382   -1.3549   12.7587 C   0  0  1  0  0  0  0  0  0  0  0  0
   28.7700   -2.2080   11.8079 C   0  0  1  0  0  0  0  0  0  0  0  0
   29.4994   -1.6600   10.7162 C   0  0  0  0  0  0  0  0  0  0  0  0
   30.0462   -2.2542    9.7782 O   0  0  0  0  0  0  0  0  0  0  0  0
   28.4875   -3.5301   12.1262 N   0  0  0  0  0  0  0  0  0  0  0  0
   27.8001   -3.4582   13.2327 C   0  0  0  0  0  0  0  0  0  0  0  0
   27.5970   -2.1719   13.6822 N   0  0  1  0  0  0  0  0  0  0  0  0
  2  1  1  0  0  0  0
  3  1  1  6  0  0  0
  3  4  1  0  0  0  0
  3  5  1  0  0  0  0
  5  6  1  1  0  0  0
  5  7  1  0  0  0  0
  7  8  1  1  0  0  0
  7  9  1  0  0  0  0
  9  4  1  1  0  0  0
  9 20  1  0  0  0  0
 10 11  1  0  0  0  0
 11 12  1  6  0  0  0
 11 13  1  0  0  0  0
 14 13  1  1  0  0  0
 15 14  1  0  0  0  0
 15 16  1  1  0  0  0
 16 10  1  0  0  0  0
 16 17  2  0  0  0  0
 18 15  1  0  0  0  0
 19 18  1  0  0  0  0
 20 14  1  0  0  0  0
 20 19  1  1  0  0  0
M  END
>  <CHROM.1>
77.94250479,-154.11887782,27.25513714,-1.98652913,13.64651055,-2.60735135
0.79976488,-0.20327932

>  <Name>
1nyi_lig

>  <RI>
0

>  <Rbt.Current_Directory>
/home/itssahil/PROJECTS/Mol_Feturizer/New_Systems/rnas/1nyi

>  <Rbt.Executable>
rbdock ($Id: //depot/dev/client3/rdock/2013.1/src/exe/rbdock.cxx#4 $)

>  <Rbt.Library>
libRbt.so (2013.1, Build901 2013/11/27)

>  <Rbt.Parameter_File>
/export/apps/rDock/src/rDock_2013.1_src/data/scripts/dock_solv.prm

>  <Rbt.Receptor>
prm/blind_docking_100.prm

>  <SCORE>
6.31599

>  <SCORE.INTER>
2.43674

>  <SCORE.INTER.CONST>
1

>  <SCORE.INTER.POLAR>
0

>  <SCORE.INTER.ROT>
2

>  <SCORE.INTER.SOLV>
10.8951

>  <SCORE.INTER.VDW>
-6.94054

>  <SCORE.INTER.norm>
0.121837

>  <SCORE.INTRA>
-1.49352

>  <SCORE.INTRA.DIHEDRAL>
-1.33163

>  <SCORE.INTRA.DIHEDRAL.0>
3.72394

>  <SCORE.INTRA.POLAR>
0

>  <SCORE.INTRA.POLAR.0>
0

>  <SCORE.INTRA.REPUL>
0

>  <SCORE.INTRA.REPUL.0>
0

>  <SCORE.INTRA.SOLV>
-0.864466

>  <SCORE.INTRA.SOLV.lig_0>
-49.4697

>  <SCORE.INTRA.VDW>
-0.395475

>  <SCORE.INTRA.VDW.0>
-0.896538

>  <SCORE.INTRA.norm>
-0.0746762

>  <SCORE.RESTR>
5.37278

>  <SCORE.RESTR.CAVITY>
5.37278

>  <SCORE.RESTR.norm>
0.268639

>  <SCORE.SYSTEM>
0

>  <SCORE.SYSTEM.CONST>
0

>  <SCORE.SYSTEM.DIHEDRAL>
0

>  <SCORE.SYSTEM.SOLV>
0

>  <SCORE.SYSTEM.norm>
0

>  <SCORE.heavy>
20

>  <SCORE.norm>
0.315799

>  <RMSD>
30.702

$$$$
1nyi_lig
 OpenBabel11021811403D
libRbt.so/2013.1/901 2013/11/27
 20 22  0  0  0  0  0  0  0  0999 V2000
   28.1660    3.3628   12.0569 C   0  0  0  0  0  0  0  0  0  0  0  0
   28.0631    4.0310   10.7995 O   0  0  0  0  0  0  0  0  0  0  0  0
   29.1948    2.2555   11.9966 C   0  0  1  0  0  0  0  0  0  0  0  0
   29.2291    1.5739   13.2797 O   0  0  0  0  0  0  0  0  0  0  0  0
   28.8441    1.1871   10.9670 C   0  0  1  0  0  0  0  0  0  0  0  0
   29.4082    1.4853    9.6891 O   0  0  0  0  0  0  0  0  0  0  0  0
   29.4141   -0.0775   11.6064 C   0  0  1  0  0  0  0  0  0  0  0  0
   30.8179   -0.2045   11.4365 O   0  0  0  0  0  0  0  0  0  0  0  0
   29.0831    0.1736   13.0759 C   0  0  2  0  0  0  0  0  0  0  0  0
   26.4696   -3.7883   15.0663 N   0  0  0  0  0  0  0  0  0  0  0  0
   27.7792   -3.7238   14.6563 C   0  0  1  0  0  0  0  0  0  0  0  0
   28.4792   -4.8510   14.7922 N   0  0  0  0  0  0  0  0  0  0  0  0
   28.3565   -2.6386   14.1487 N   0  0  0  0  0  0  0  0  0  0  0  0
   27.4947   -1.5830   14.0688 C   0  0  1  0  0  0  0  0  0  0  0  0
   26.1660   -1.5494   14.4537 C   0  0  1  0  0  0  0  0  0  0  0  0
   25.5744   -2.7207   15.0035 C   0  0  0  0  0  0  0  0  0  0  0  0
   24.4146   -2.8839   15.4035 O   0  0  0  0  0  0  0  0  0  0  0  0
   25.6255   -0.2894   14.2317 N   0  0  0  0  0  0  0  0  0  0  0  0
   26.6083    0.4005   13.7218 C   0  0  0  0  0  0  0  0  0  0  0  0
   27.7788   -0.3126   13.5821 N   0  0  1  0  0  0  0  0  0  0  0  0
  2  1  1  0  0  0  0
  3  1  1  1  0  0  0
  3  4  1  0  0  0  0
  3  5  1  0  0  0  0
  5  6  1  6  0  0  0
  5  7  1  0  0  0  0
  7  8  1  1  0  0  0
  7  9  1  0  0  0  0
  9  4  1  6  0  0  0
  9 20  1  0  0  0  0
 10 11  1  0  0  0  0
 11 12  1  6  0  0  0
 11 13  1  0  0  0  0
 14 13  1  1  0  0  0
 15 14  1  0  0  0  0
 15 16  1  1  0  0  0
 16 10  1  0  0  0  0
 16 17  2  0  0  0  0
 18 15  1  0  0  0  0
 19 18  1  0  0  0  0
 20 14  1  0  0  0  0
 20 19  1  1  0  0  0
M  END
>  <CHROM.1>
-177.91939087,-151.03546320,27.87282995,-0.44608567,13.15628233,1.15180825
0.47922099,-0.39342083

>  <Name>
1nyi_lig

>  <RI>
0

>  <Rbt.Current_Directory>
/home/itssahil/PROJECTS/Mol_Feturizer/New_Systems/rnas/1nyi

>  <Rbt.Executable>
rbdock ($Id: //depot/dev/client3/rdock/2013.1/src/exe/rbdock.cxx#4 $)

>  <Rbt.Library>
libRbt.so (2013.1, Build901 2013/11/27)

>  <Rbt.Parameter_File>
/export/apps/rDock/src/rDock_2013.1_src/data/scripts/dock_solv.prm

>  <Rbt.Receptor>
prm/blind_docking_80.prm

>  <SCORE>
-10.6472

>  <SCORE.INTER>
-10.2138

>  <SCORE.INTER.CONST>
1

>  <SCORE.INTER.POLAR>
-0.798079

>  <SCORE.INTER.ROT>
2

>  <SCORE.INTER.SOLV>
10.9881

>  <SCORE.INTER.VDW>
-12.745

>  <SCORE.INTER.norm>
-0.510691

>  <SCORE.INTRA>
-1.84836

>  <SCORE.INTRA.DIHEDRAL>
-2.39917

>  <SCORE.INTRA.DIHEDRAL.0>
3.72394

>  <SCORE.INTRA.POLAR>
0

>  <SCORE.INTRA.POLAR.0>
0

>  <SCORE.INTRA.REPUL>
0

>  <SCORE.INTRA.REPUL.0>
0

>  <SCORE.INTRA.SOLV>
-0.576569

>  <SCORE.INTRA.SOLV.lig_0>
-49.4697

>  <SCORE.INTRA.VDW>
-0.360494

>  <SCORE.INTRA.VDW.0>
-0.896538

>  <SCORE.INTRA.norm>
-0.0924182

>  <SCORE.RESTR>
1.41502

>  <SCORE.RESTR.CAVITY>
1.41502

>  <SCORE.RESTR.norm>
0.0707508

>  <SCORE.SYSTEM>
0

>  <SCORE.SYSTEM.CONST>
0

>  <SCORE.SYSTEM.DIHEDRAL>
0

>  <SCORE.SYSTEM.SOLV>
0

>  <SCORE.SYSTEM.norm>
0

>  <SCORE.heavy>
20

>  <SCORE.norm>
-0.532358

>  <RMSD>
30.776

$$$$
1nyi_lig
 OpenBabel11021811403D
libRbt.so/2013.1/901 2013/11/27
 20 22  0  0  0  0  0  0  0  0999 V2000
   28.1354    3.3662   11.9949 C   0  0  0  0  0  0  0  0  0  0  0  0
   28.0222    4.0022   10.7219 O   0  0  0  0  0  0  0  0  0  0  0  0
   29.1716    2.2649   11.9574 C   0  0  1  0  0  0  0  0  0  0  0  0
   29.2032    1.6034   13.2511 O   0  0  0  0  0  0  0  0  0  0  0  0
   28.8337    1.1784   10.9426 C   0  0  1  0  0  0  0  0  0  0  0  0
   29.4030    1.4607    9.6633 O   0  0  0  0  0  0  0  0  0  0  0  0
   29.4083   -0.0723   11.6045 C   0  0  1  0  0  0  0  0  0  0  0  0
   30.8138   -0.1927   11.4444 O   0  0  0  0  0  0  0  0  0  0  0  0
   29.0674    0.1992   13.0681 C   0  0  2  0  0  0  0  0  0  0  0  0
   26.4582   -3.7619   15.0658 N   0  0  0  0  0  0  0  0  0  0  0  0
   27.7680   -3.6965   14.6565 C   0  0  1  0  0  0  0  0  0  0  0  0
   28.4695   -4.8224   14.7955 N   0  0  0  0  0  0  0  0  0  0  0  0
   28.3441   -2.6116   14.1468 N   0  0  0  0  0  0  0  0  0  0  0  0
   27.4809   -1.5574   14.0640 C   0  0  1  0  0  0  0  0  0  0  0  0
   26.1519   -1.5249   14.4479 C   0  0  1  0  0  0  0  0  0  0  0  0
   25.5615   -2.6957   15.0000 C   0  0  0  0  0  0  0  0  0  0  0  0
   24.4017   -2.8597   15.3996 O   0  0  0  0  0  0  0  0  0  0  0  0
   25.6097   -0.2661   14.2227 N   0  0  0  0  0  0  0  0  0  0  0  0
   26.5919    0.4241   13.7119 C   0  0  0  0  0  0  0  0  0  0  0  0
   27.7634   -0.2878   13.5746 N   0  0  1  0  0  0  0  0  0  0  0  0
  2  1  1  0  0  0  0
  3  1  1  1  0  0  0
  3  4  1  0  0  0  0
  3  5  1  0  0  0  0
  5  6  1  6  0  0  0
  5  7  1  0  0  0  0
  7  8  1  1  0  0  0
  7  9  1  0  0  0  0
  9  4  1  6  0  0  0
  9 20  1  0  0  0  0
 10 11  1  0  0  0  0
 11 12  1  6  0  0  0
 11 13  1  0  0  0  0
 14 13  1  1  0  0  0
 15 14  1  0  0  0  0
 15 16  1  1  0  0  0
 16 10  1  0  0  0  0
 16 17  2  0  0  0  0
 18 15  1  0  0  0  0
 19 18  1  0  0  0  0
 20 14  1  0  0  0  0
 20 19  1  1  0  0  0
M  END
>  <CHROM.1>
-177.12775028,-151.89216823,27.85728121,-0.43146027,13.14061603,1.15324792
0.47598307,-0.40293534

>  <Name>
1nyi_lig

>  <RI>
0

>  <Rbt.Current_Directory>
/home/itssahil/PROJECTS/Mol_Feturizer/New_Systems/rnas/1nyi

>  <Rbt.Executable>
rbdock ($Id: //depot/dev/client3/rdock/2013.1/src/exe/rbdock.cxx#4 $)

>  <Rbt.Library>
libRbt.so (2013.1, Build901 2013/11/27)

>  <Rbt.Parameter_File>
/export/apps/rDock/src/rDock_2013.1_src/data/scripts/dock_solv.prm

>  <Rbt.Receptor>
prm/blind_docking_80.prm

>  <SCORE>
-10.9433

>  <SCORE.INTER>
-10.6052

>  <SCORE.INTER.CONST>
1

>  <SCORE.INTER.POLAR>
-0.810867

>  <SCORE.INTER.ROT>
2

>  <SCORE.INTER.SOLV>
10.9393

>  <SCORE.INTER.VDW>
-12.947

>  <SCORE.INTER.norm>
-0.530262

>  <SCORE.INTRA>
-1.82616

>  <SCORE.INTRA.DIHEDRAL>
-2.38496

>  <SCORE.INTRA.DIHEDRAL.0>
3.72394

>  <SCORE.INTRA.POLAR>
0

>  <SCORE.INTRA.POLAR.0>
0

>  <SCORE.INTRA.REPUL>
0

>  <SCORE.INTRA.REPUL.0>
0

>  <SCORE.INTRA.SOLV>
-0.567782

>  <SCORE.INTRA.SOLV.lig_0>
-49.4697

>  <SCORE.INTRA.VDW>
-0.349788

>  <SCORE.INTRA.VDW.0>
-0.896538

>  <SCORE.INTRA.norm>
-0.0913079

>  <SCORE.RESTR>
1.48807

>  <SCORE.RESTR.CAVITY>
1.48807

>  <SCORE.RESTR.norm>
0.0744034

>  <SCORE.SYSTEM>
0

>  <SCORE.SYSTEM.CONST>
0

>  <SCORE.SYSTEM.DIHEDRAL>
0

>  <SCORE.SYSTEM.SOLV>
0

>  <SCORE.SYSTEM.norm>
0

>  <SCORE.heavy>
20

>  <SCORE.norm>
-0.547166

>  <RMSD>
30.793

$$$$
1nyi_lig
 OpenBabel11021811403D
libRbt.so/2013.1/901 2013/11/27
 20 22  0  0  0  0  0  0  0  0999 V2000
   28.0028    3.2871   11.4413 C   0  0  0  0  0  0  0  0  0  0  0  0
   28.2336    4.4106   12.2913 O   0  0  0  0  0  0  0  0  0  0  0  0
   29.0924    2.2513   11.6087 C   0  0  1  0  0  0  0  0  0  0  0  0
   29.1042    1.7988   12.9897 O   0  0  0  0  0  0  0  0  0  0  0  0
   28.8491    1.0052   10.7645 C   0  0  1  0  0  0  0  0  0  0  0  0
   29.4550    1.1185    9.4759 O   0  0  0  0  0  0  0  0  0  0  0  0
   29.4571   -0.0960   11.6308 C   0  0  1  0  0  0  0  0  0  0  0  0
   30.8721   -0.1626   11.5366 O   0  0  0  0  0  0  0  0  0  0  0  0
   29.0448    0.3779   13.0227 C   0  0  2  0  0  0  0  0  0  0  0  0
   26.3990   -3.5967   14.9442 N   0  0  0  0  0  0  0  0  0  0  0  0
   27.6943   -3.5482   14.4891 C   0  0  1  0  0  0  0  0  0  0  0  0
   28.3683   -4.6975   14.5526 N   0  0  0  0  0  0  0  0  0  0  0  0
   28.2819   -2.4576   14.0054 N   0  0  0  0  0  0  0  0  0  0  0  0
   27.4465   -1.3781   14.0008 C   0  0  1  0  0  0  0  0  0  0  0  0
   26.1338   -1.3271   14.4356 C   0  0  1  0  0  0  0  0  0  0  0  0
   25.5311   -2.5051   14.9584 C   0  0  0  0  0  0  0  0  0  0  0  0
   24.3825   -2.6555   15.3940 O   0  0  0  0  0  0  0  0  0  0  0  0
   25.6197   -0.0456   14.2856 N   0  0  0  0  0  0  0  0  0  0  0  0
   26.6018    0.6401   13.7685 C   0  0  0  0  0  0  0  0  0  0  0  0
   27.7469   -0.0960   13.5564 N   0  0  1  0  0  0  0  0  0  0  0  0
  2  1  1  0  0  0  0
  3  1  1  1  0  0  0
  3  4  1  0  0  0  0
  3  5  1  0  0  0  0
  5  6  1  6  0  0  0
  5  7  1  0  0  0  0
  7  8  1  1  0  0  0
  7  9  1  0  0  0  0
  9  4  1  6  0  0  0
  9 20  1  0  0  0  0
 10 11  1  0  0  0  0
 11 12  1  6  0  0  0
 11 13  1  0  0  0  0
 14 13  1  1  0  0  0
 15 14  1  0  0  0  0
 15 16  1  1  0  0  0
 16 10  1  0  0  0  0
 16 17  2  0  0  0  0
 18 15  1  0  0  0  0
 19 18  1  0  0  0  0
 20 14  1  0  0  0  0
 20 19  1  1  0  0  0
M  END
>  <CHROM.1>
60.31123923,-164.86536776,27.84246981,-0.32277381,13.12325089,1.08333220
0.58557206,-0.29992483

>  <Name>
1nyi_lig

>  <RI>
0

>  <Rbt.Current_Directory>
/home/itssahil/PROJECTS/Mol_Feturizer/New_Systems/rnas/1nyi

>  <Rbt.Executable>
rbdock ($Id: //depot/dev/client3/rdock/2013.1/src/exe/rbdock.cxx#4 $)

>  <Rbt.Library>
libRbt.so (2013.1, Build901 2013/11/27)

>  <Rbt.Parameter_File>
/export/apps/rDock/src/rDock_2013.1_src/data/scripts/dock_solv.prm

>  <Rbt.Receptor>
prm/blind_docking_80.prm

>  <SCORE>
-11.6066

>  <SCORE.INTER>
-11.067

>  <SCORE.INTER.CONST>
1

>  <SCORE.INTER.POLAR>
-0.922135

>  <SCORE.INTER.ROT>
2

>  <SCORE.INTER.SOLV>
11.7494

>  <SCORE.INTER.VDW>
-13.154

>  <SCORE.INTER.norm>
-0.553349

>  <SCORE.INTRA>
-1.88113

>  <SCORE.INTRA.DIHEDRAL>
-2.44484

>  <SCORE.INTRA.DIHEDRAL.0>
3.72394

>  <SCORE.INTRA.POLAR>
0

>  <SCORE.INTRA.POLAR.0>
0

>  <SCORE.INTRA.REPUL>
0

>  <SCORE.INTRA.REPUL.0>
0

>  <SCORE.INTRA.SOLV>
-0.679845

>  <SCORE.INTRA.SOLV.lig_0>
-49.4697

>  <SCORE.INTRA.VDW>
-0.318789

>  <SCORE.INTRA.VDW.0>
-0.896538

>  <SCORE.INTRA.norm>
-0.0940567

>  <SCORE.RESTR>
1.34149

>  <SCORE.RESTR.CAVITY>
1.34149

>  <SCORE.RESTR.norm>
0.0670745

>  <SCORE.SYSTEM>
0

>  <SCORE.SYSTEM.CONST>
0

>  <SCORE.SYSTEM.DIHEDRAL>
0

>  <SCORE.SYSTEM.SOLV>
0

>  <SCORE.SYSTEM.norm>
0

>  <SCORE.heavy>
20

>  <SCORE.norm>
-0.580331

>  <RMSD>
30.837

$$$$
