ligand
  PyMOL2.2          3D                             0

 12 12  0  0  0  0  0  0  0  0999 V2000
    2.8690    2.8630  -29.2560 O   0  0  0  0  0  0  0  0  0  0  0  0
    4.9910   -2.6250  -33.5750 O   0  0  0  0  0  0  0  0  0  0  0  0
    4.2040    2.6880  -29.5500 C   0  0  0  0  0  0  0  0  0  0  0  0
    7.0200   -1.3730  -34.0870 O   0  0  0  0  0  0  0  0  0  0  0  0
    4.4410    1.9170  -30.7830 C   0  0  0  0  0  0  0  0  0  0  0  0
    4.8810   -0.6130  -34.9550 O   0  5  0  0  0  0  0  0  0  0  0  0
    3.6760    0.6630  -30.7980 N   0  3  0  0  0  0  0  0  0  0  0  0
    2.2870    0.9250  -30.5210 C   0  0  0  0  0  0  0  0  0  0  0  0
    2.1230    1.7180  -29.2660 C   0  0  0  0  0  0  0  0  0  0  0  0
    3.8380    0.0100  -32.0620 C   0  0  0  0  0  0  0  0  0  0  0  0
    5.3440   -0.2450  -32.3240 C   0  0  0  0  0  0  0  0  0  0  0  0
    5.5550   -1.2600  -33.8010 S   0  0  0  0  0  0  0  0  0  0  0  0
  1  3  1  0  0  0  0
  1  9  1  0  0  0  0
  3  5  1  0  0  0  0
  5  7  1  0  0  0  0
  7  8  1  0  0  0  0
  7 10  1  0  0  0  0
  8  9  1  0  0  0  0
 10 11  1  0  0  0  0
 11 12  1  0  0  0  0
  2 12  1  0  0  0  0
  4 12  2  0  0  0  0
  6 12  2  0  0  0  0
M  END
$$$$
