ligand
 OpenBabel11021811513D
libRbt.so/2013.1/901 2013/11/27
 12 12  0  0  0  0  0  0  0  0999 V2000
    2.6295    2.4844  -28.7156 O   0  0  0  0  0  0  0  0  0  0  0  0
    6.0145   -2.1531  -32.7067 O   0  0  0  0  0  0  0  0  0  0  0  0
    2.1622    1.3871  -29.4061 C   0  0  0  0  0  0  0  0  0  0  0  0
    7.6862   -0.4020  -32.9988 O   0  0  0  0  0  0  0  0  0  0  0  0
    3.2295    0.5742  -30.0153 C   0  0  0  0  0  0  0  0  0  0  0  0
    6.2135   -0.9849  -34.8421 O   0  5  0  0  0  0  0  0  0  0  0  0
    4.1622    1.3962  -30.7978 N   0  3  0  0  0  0  0  0  0  0  0  0
    4.6381    2.4999  -30.0041 C   0  0  0  0  0  0  0  0  0  0  0  0
    3.5051    3.2709  -29.4101 C   0  0  0  0  0  0  0  0  0  0  0  0
    5.2479    0.5879  -31.2650 C   0  0  0  0  0  0  0  0  0  0  0  0
    5.1390    0.4118  -32.8008 C   0  0  0  0  0  0  0  0  0  0  0  0
    6.3043   -0.8444  -33.3668 S   0  0  1  0  0  0  0  0  0  0  0  0
  1  3  1  0  0  0  0
  1  9  1  0  0  0  0
  2 12  1  0  0  0  0
  3  5  1  0  0  0  0
  4 12  2  0  0  0  0
  5  7  1  0  0  0  0
  6 12  2  0  0  0  0
  7  8  1  0  0  0  0
  7 10  1  0  0  0  0
  8  9  1  0  0  0  0
 10 11  1  0  0  0  0
 12 11  1  1  0  0  0
M  CHG  2   6  -1   7   1
M  END
>  <CHROM.1>
110.21198687,-169.42967563,59.74038540,4.92543930,0.50493862,-31.58588192
2.26487665,0.56461731,0.49788115

>  <Name>
ligand

>  <RI>
0

>  <Rbt.Current_Directory>
/home/itssahil/PROJECTS/Mol_Feturizer/New_Systems/rnas/4P95

>  <Rbt.Executable>
rbdock ($Id: //depot/dev/client3/rdock/2013.1/src/exe/rbdock.cxx#4 $)

>  <Rbt.Library>
libRbt.so (2013.1, Build901 2013/11/27)

>  <Rbt.Parameter_File>
/export/apps/rDock/src/rDock_2013.1_src/data/scripts/dock_solv.prm

>  <Rbt.Receptor>
prm/pocket_docking_2.prm

>  <SCORE>
-5.2577

>  <SCORE.INTER>
-3.42801

>  <SCORE.INTER.CONST>
1

>  <SCORE.INTER.POLAR>
0

>  <SCORE.INTER.ROT>
3

>  <SCORE.INTER.SOLV>
3.08044

>  <SCORE.INTER.VDW>
-8.91215

>  <SCORE.INTER.norm>
-0.285668

>  <SCORE.INTRA>
-1.82969

>  <SCORE.INTRA.DIHEDRAL>
2.40685

>  <SCORE.INTRA.DIHEDRAL.0>
0.283163

>  <SCORE.INTRA.POLAR>
0

>  <SCORE.INTRA.POLAR.0>
0

>  <SCORE.INTRA.REPUL>
0

>  <SCORE.INTRA.REPUL.0>
0

>  <SCORE.INTRA.SOLV>
-0.712597

>  <SCORE.INTRA.SOLV.lig_0>
-32.2894

>  <SCORE.INTRA.VDW>
-2.67682

>  <SCORE.INTRA.VDW.0>
2.0241

>  <SCORE.INTRA.norm>
-0.152474

>  <SCORE.RESTR>
0

>  <SCORE.RESTR.CAVITY>
0

>  <SCORE.RESTR.norm>
0

>  <SCORE.SYSTEM>
0

>  <SCORE.SYSTEM.CONST>
0

>  <SCORE.SYSTEM.DIHEDRAL>
0

>  <SCORE.SYSTEM.SOLV>
0

>  <SCORE.SYSTEM.norm>
0

>  <SCORE.heavy>
12

>  <SCORE.norm>
-0.438142

>  <RMSD>
1.140

$$$$
ligand
 OpenBabel11021811513D
libRbt.so/2013.1/901 2013/11/27
 12 12  0  0  0  0  0  0  0  0999 V2000
    2.6848    2.5425  -28.7667 O   0  0  0  0  0  0  0  0  0  0  0  0
    6.0443   -2.1401  -32.7335 O   0  0  0  0  0  0  0  0  0  0  0  0
    2.2227    1.4275  -29.4318 C   0  0  0  0  0  0  0  0  0  0  0  0
    7.7461   -0.4120  -32.9864 O   0  0  0  0  0  0  0  0  0  0  0  0
    3.2933    0.6112  -30.0306 C   0  0  0  0  0  0  0  0  0  0  0  0
    6.2981   -0.9637  -34.8586 O   0  5  0  0  0  0  0  0  0  0  0  0
    4.2144    1.4247  -30.8355 N   0  3  0  0  0  0  0  0  0  0  0  0
    4.6856    2.5484  -30.0673 C   0  0  0  0  0  0  0  0  0  0  0  0
    3.5496    3.3219  -29.4825 C   0  0  0  0  0  0  0  0  0  0  0  0
    5.3041    0.6161  -31.2926 C   0  0  0  0  0  0  0  0  0  0  0  0
    5.2079    0.4377  -32.8290 C   0  0  0  0  0  0  0  0  0  0  0  0
    6.3647   -0.8324  -33.3812 S   0  0  1  0  0  0  0  0  0  0  0  0
  1  3  1  0  0  0  0
  1  9  1  0  0  0  0
  2 12  1  0  0  0  0
  3  5  1  0  0  0  0
  4 12  2  0  0  0  0
  5  7  1  0  0  0  0
  6 12  2  0  0  0  0
  7  8  1  0  0  0  0
  7 10  1  0  0  0  0
  8  9  1  0  0  0  0
 10 11  1  0  0  0  0
 12 11  1  1  0  0  0
M  CHG  2   6  -1   7   1
M  END
>  <CHROM.1>
111.64697121,-168.78319440,60.41474561,4.98276047,0.53245616,-31.61451676
2.27288066,0.57594808,0.47547293

>  <Name>
ligand

>  <RI>
0

>  <Rbt.Current_Directory>
/home/itssahil/PROJECTS/Mol_Feturizer/New_Systems/rnas/4P95

>  <Rbt.Executable>
rbdock ($Id: //depot/dev/client3/rdock/2013.1/src/exe/rbdock.cxx#4 $)

>  <Rbt.Library>
libRbt.so (2013.1, Build901 2013/11/27)

>  <Rbt.Parameter_File>
/export/apps/rDock/src/rDock_2013.1_src/data/scripts/dock_solv.prm

>  <Rbt.Receptor>
prm/pocket_docking_2.prm

>  <SCORE>
-5.30506

>  <SCORE.INTER>
-3.51549

>  <SCORE.INTER.CONST>
1

>  <SCORE.INTER.POLAR>
0

>  <SCORE.INTER.ROT>
3

>  <SCORE.INTER.SOLV>
3.04383

>  <SCORE.INTER.VDW>
-8.95827

>  <SCORE.INTER.norm>
-0.292958

>  <SCORE.INTRA>
-1.78975

>  <SCORE.INTRA.DIHEDRAL>
2.49624

>  <SCORE.INTRA.DIHEDRAL.0>
0.283163

>  <SCORE.INTRA.POLAR>
0

>  <SCORE.INTRA.POLAR.0>
0

>  <SCORE.INTRA.REPUL>
0

>  <SCORE.INTRA.REPUL.0>
0

>  <SCORE.INTRA.SOLV>
-0.710771

>  <SCORE.INTRA.SOLV.lig_0>
-32.2894

>  <SCORE.INTRA.VDW>
-2.68249

>  <SCORE.INTRA.VDW.0>
2.0241

>  <SCORE.INTRA.norm>
-0.149146

>  <SCORE.RESTR>
0.000184628

>  <SCORE.RESTR.CAVITY>
0.000184628

>  <SCORE.RESTR.norm>
1.53857e-05

>  <SCORE.SYSTEM>
0

>  <SCORE.SYSTEM.CONST>
0

>  <SCORE.SYSTEM.DIHEDRAL>
0

>  <SCORE.SYSTEM.SOLV>
0

>  <SCORE.SYSTEM.norm>
0

>  <SCORE.heavy>
12

>  <SCORE.norm>
-0.442088

>  <RMSD>
1.163

$$$$
ligand
 OpenBabel11021811513D
libRbt.so/2013.1/901 2013/11/27
 12 12  0  0  0  0  0  0  0  0999 V2000
    3.5218    2.7274  -28.8646 O   0  0  0  0  0  0  0  0  0  0  0  0
    4.4916   -3.4430  -32.4306 O   0  0  0  0  0  0  0  0  0  0  0  0
    2.4708    1.9022  -29.2022 C   0  0  0  0  0  0  0  0  0  0  0  0
    5.5804   -1.8328  -33.9031 O   0  0  0  0  0  0  0  0  0  0  0  0
    2.8928    0.6201  -29.7930 C   0  0  0  0  0  0  0  0  0  0  0  0
    3.4219   -2.7644  -34.5187 O   0  5  0  0  0  0  0  0  0  0  0  0
    3.8516    0.8136  -30.8889 N   0  3  0  0  0  0  0  0  0  0  0  0
    4.9393    1.6525  -30.4553 C   0  0  0  0  0  0  0  0  0  0  0  0
    4.4386    2.9267  -29.8583 C   0  0  0  0  0  0  0  0  0  0  0  0
    4.3280   -0.4564  -31.3478 C   0  0  0  0  0  0  0  0  0  0  0  0
    3.4552   -0.9391  -32.5340 C   0  0  0  0  0  0  0  0  0  0  0  0
    4.2623   -2.3130  -33.3809 S   0  0  1  0  0  0  0  0  0  0  0  0
  1  3  1  0  0  0  0
  1  9  1  0  0  0  0
  2 12  1  0  0  0  0
  3  5  1  0  0  0  0
  4 12  2  0  0  0  0
  5  7  1  0  0  0  0
  6 12  2  0  0  0  0
  7  8  1  0  0  0  0
  7 10  1  0  0  0  0
  8  9  1  0  0  0  0
 10 11  1  0  0  0  0
 12 11  1  1  0  0  0
M  CHG  2   6  -1   7   1
M  END
>  <CHROM.1>
93.16819121,166.21820337,58.75948751,4.00970910,-0.34869882,-31.65304679
1.69694739,0.49657989,0.65113755

>  <Name>
ligand

>  <RI>
0

>  <Rbt.Current_Directory>
/home/itssahil/PROJECTS/Mol_Feturizer/New_Systems/rnas/4P95

>  <Rbt.Executable>
rbdock ($Id: //depot/dev/client3/rdock/2013.1/src/exe/rbdock.cxx#4 $)

>  <Rbt.Library>
libRbt.so (2013.1, Build901 2013/11/27)

>  <Rbt.Parameter_File>
/export/apps/rDock/src/rDock_2013.1_src/data/scripts/dock_solv.prm

>  <Rbt.Receptor>
prm/pocket_docking_2.prm

>  <SCORE>
-5.01766

>  <SCORE.INTER>
-3.10826

>  <SCORE.INTER.CONST>
1

>  <SCORE.INTER.POLAR>
0

>  <SCORE.INTER.ROT>
3

>  <SCORE.INTER.SOLV>
2.88328

>  <SCORE.INTER.VDW>
-8.63327

>  <SCORE.INTER.norm>
-0.259022

>  <SCORE.INTRA>
-1.9094

>  <SCORE.INTRA.DIHEDRAL>
1.87304

>  <SCORE.INTRA.DIHEDRAL.0>
0.283163

>  <SCORE.INTRA.POLAR>
0

>  <SCORE.INTRA.POLAR.0>
0

>  <SCORE.INTRA.REPUL>
0

>  <SCORE.INTRA.REPUL.0>
0

>  <SCORE.INTRA.SOLV>
-0.715262

>  <SCORE.INTRA.SOLV.lig_0>
-32.2894

>  <SCORE.INTRA.VDW>
-2.48828

>  <SCORE.INTRA.VDW.0>
2.0241

>  <SCORE.INTRA.norm>
-0.159116

>  <SCORE.RESTR>
0

>  <SCORE.RESTR.CAVITY>
0

>  <SCORE.RESTR.norm>
0

>  <SCORE.SYSTEM>
0

>  <SCORE.SYSTEM.CONST>
0

>  <SCORE.SYSTEM.DIHEDRAL>
0

>  <SCORE.SYSTEM.SOLV>
0

>  <SCORE.SYSTEM.norm>
0

>  <SCORE.heavy>
12

>  <SCORE.norm>
-0.418138

>  <RMSD>
1.353

$$$$
ligand
 OpenBabel11021811513D
libRbt.so/2013.1/901 2013/11/27
 12 12  0  0  0  0  0  0  0  0999 V2000
    3.1032    2.6400  -28.7934 O   0  0  0  0  0  0  0  0  0  0  0  0
    6.8996   -0.8637  -34.7155 O   0  0  0  0  0  0  0  0  0  0  0  0
    2.3233    1.6054  -29.2631 C   0  0  0  0  0  0  0  0  0  0  0  0
    5.4333   -2.3332  -33.4361 O   0  0  0  0  0  0  0  0  0  0  0  0
    3.0999    0.5024  -29.8556 C   0  0  0  0  0  0  0  0  0  0  0  0
    7.4957   -1.5204  -32.4400 O   0  5  0  0  0  0  0  0  0  0  0  0
    4.0722    0.9887  -30.8435 N   0  3  0  0  0  0  0  0  0  0  0  0
    4.8758    2.0398  -30.2741 C   0  0  0  0  0  0  0  0  0  0  0  0
    4.0246    3.1157  -29.6835 C   0  0  0  0  0  0  0  0  0  0  0  0
    4.8868   -0.0973  -31.2990 C   0  0  0  0  0  0  0  0  0  0  0  0
    5.4713    0.2430  -32.6934 C   0  0  0  0  0  0  0  0  0  0  0  0
    6.3757   -1.1733  -33.3509 S   0  0  1  0  0  0  0  0  0  0  0  0
  1  3  1  0  0  0  0
  1  9  1  0  0  0  0
  2 12  1  0  0  0  0
  3  5  1  0  0  0  0
  4 12  2  0  0  0  0
  5  7  1  0  0  0  0
  6 12  2  0  0  0  0
  7  8  1  0  0  0  0
  7 10  1  0  0  0  0
  8  9  1  0  0  0  0
 10 11  1  0  0  0  0
 12 11  1  1  0  0  0
M  CHG  2   6  -1   7   1
M  END
>  <CHROM.1>
156.65622696,-174.79276361,178.03369449,5.01760704,0.24157829,-31.60867716
-2.23263370,-0.58410197,-2.67694534

>  <Name>
ligand

>  <RI>
0

>  <Rbt.Current_Directory>
/home/itssahil/PROJECTS/Mol_Feturizer/New_Systems/rnas/4P95

>  <Rbt.Executable>
rbdock ($Id: //depot/dev/client3/rdock/2013.1/src/exe/rbdock.cxx#4 $)

>  <Rbt.Library>
libRbt.so (2013.1, Build901 2013/11/27)

>  <Rbt.Parameter_File>
/export/apps/rDock/src/rDock_2013.1_src/data/scripts/dock_solv.prm

>  <Rbt.Receptor>
prm/pocket_docking_2.prm

>  <SCORE>
-4.64484

>  <SCORE.INTER>
-2.87514

>  <SCORE.INTER.CONST>
1

>  <SCORE.INTER.POLAR>
0

>  <SCORE.INTER.ROT>
3

>  <SCORE.INTER.SOLV>
3.28176

>  <SCORE.INTER.VDW>
-8.61068

>  <SCORE.INTER.norm>
-0.239595

>  <SCORE.INTRA>
-1.7697

>  <SCORE.INTRA.DIHEDRAL>
0.549495

>  <SCORE.INTRA.DIHEDRAL.0>
0.283163

>  <SCORE.INTRA.POLAR>
0

>  <SCORE.INTRA.POLAR.0>
0

>  <SCORE.INTRA.REPUL>
0

>  <SCORE.INTRA.REPUL.0>
0

>  <SCORE.INTRA.SOLV>
0.148835

>  <SCORE.INTRA.SOLV.lig_0>
-32.2894

>  <SCORE.INTRA.VDW>
-2.11887

>  <SCORE.INTRA.VDW.0>
2.0241

>  <SCORE.INTRA.norm>
-0.147475

>  <SCORE.RESTR>
0

>  <SCORE.RESTR.CAVITY>
0

>  <SCORE.RESTR.norm>
0

>  <SCORE.SYSTEM>
0

>  <SCORE.SYSTEM.CONST>
0

>  <SCORE.SYSTEM.DIHEDRAL>
0

>  <SCORE.SYSTEM.SOLV>
0

>  <SCORE.SYSTEM.norm>
0

>  <SCORE.heavy>
12

>  <SCORE.norm>
-0.38707

>  <RMSD>
1.359

$$$$
ligand
 OpenBabel11021811513D
libRbt.so/2013.1/901 2013/11/27
 12 12  0  0  0  0  0  0  0  0999 V2000
    2.8144    2.4605  -28.8433 O   0  0  0  0  0  0  0  0  0  0  0  0
    7.9764   -0.4397  -32.9596 O   0  0  0  0  0  0  0  0  0  0  0  0
    2.3636    1.3155  -29.4638 C   0  0  0  0  0  0  0  0  0  0  0  0
    6.5956   -0.9062  -34.9147 O   0  0  0  0  0  0  0  0  0  0  0  0
    3.4411    0.4958  -30.0454 C   0  0  0  0  0  0  0  0  0  0  0  0
    6.2956   -2.2100  -32.8858 O   0  5  0  0  0  0  0  0  0  0  0  0
    4.3404    1.2950  -30.8882 N   0  3  0  0  0  0  0  0  0  0  0  0
    4.8012    2.4524  -30.1651 C   0  0  0  0  0  0  0  0  0  0  0  0
    3.6589    3.2279  -29.5953 C   0  0  0  0  0  0  0  0  0  0  0  0
    5.4384    0.4883  -31.3287 C   0  0  0  0  0  0  0  0  0  0  0  0
    5.3762    0.3251  -32.8685 C   0  0  0  0  0  0  0  0  0  0  0  0
    6.6188   -0.8623  -33.4186 S   0  0  1  0  0  0  0  0  0  0  0  0
  1  3  1  0  0  0  0
  1  9  1  0  0  0  0
  2 12  1  0  0  0  0
  3  5  1  0  0  0  0
  4 12  2  0  0  0  0
  5  7  1  0  0  0  0
  6 12  2  0  0  0  0
  7  8  1  0  0  0  0
  7 10  1  0  0  0  0
  8  9  1  0  0  0  0
 10 11  1  0  0  0  0
 12 11  1  1  0  0  0
M  CHG  2   6  -1   7   1
M  END
>  <CHROM.1>
115.01016093,-172.54672916,-56.14789209,5.16757892,0.46059968,-31.66979350
2.31544044,0.59352414,0.44142273

>  <Name>
ligand

>  <RI>
0

>  <Rbt.Current_Directory>
/home/itssahil/PROJECTS/Mol_Feturizer/New_Systems/rnas/4P95

>  <Rbt.Executable>
rbdock ($Id: //depot/dev/client3/rdock/2013.1/src/exe/rbdock.cxx#4 $)

>  <Rbt.Library>
libRbt.so (2013.1, Build901 2013/11/27)

>  <Rbt.Parameter_File>
/export/apps/rDock/src/rDock_2013.1_src/data/scripts/dock_solv.prm

>  <Rbt.Receptor>
prm/pocket_docking_2.prm

>  <SCORE>
-5.29644

>  <SCORE.INTER>
-3.70644

>  <SCORE.INTER.CONST>
1

>  <SCORE.INTER.POLAR>
0

>  <SCORE.INTER.ROT>
3

>  <SCORE.INTER.SOLV>
2.72239

>  <SCORE.INTER.VDW>
-8.97842

>  <SCORE.INTER.norm>
-0.30887

>  <SCORE.INTRA>
-1.59

>  <SCORE.INTRA.DIHEDRAL>
2.34927

>  <SCORE.INTRA.DIHEDRAL.0>
0.283163

>  <SCORE.INTRA.POLAR>
0

>  <SCORE.INTRA.POLAR.0>
0

>  <SCORE.INTRA.REPUL>
0

>  <SCORE.INTRA.REPUL.0>
0

>  <SCORE.INTRA.SOLV>
-0.091817

>  <SCORE.INTRA.SOLV.lig_0>
-32.2894

>  <SCORE.INTRA.VDW>
-2.71873

>  <SCORE.INTRA.VDW.0>
2.0241

>  <SCORE.INTRA.norm>
-0.1325

>  <SCORE.RESTR>
0

>  <SCORE.RESTR.CAVITY>
0

>  <SCORE.RESTR.norm>
0

>  <SCORE.SYSTEM>
0

>  <SCORE.SYSTEM.CONST>
0

>  <SCORE.SYSTEM.DIHEDRAL>
0

>  <SCORE.SYSTEM.SOLV>
0

>  <SCORE.SYSTEM.norm>
0

>  <SCORE.heavy>
12

>  <SCORE.norm>
-0.44137

>  <RMSD>
1.574

$$$$
ligand
 OpenBabel11021811513D
libRbt.so/2013.1/901 2013/11/27
 12 12  0  0  0  0  0  0  0  0999 V2000
    2.4883    2.3975  -28.9175 O   0  0  0  0  0  0  0  0  0  0  0  0
    3.3766    0.3430  -33.0576 O   0  0  0  0  0  0  0  0  0  0  0  0
    2.3303    1.1769  -29.5376 C   0  0  0  0  0  0  0  0  0  0  0  0
    4.7724   -1.6037  -32.6011 O   0  0  0  0  0  0  0  0  0  0  0  0
    3.6022    0.5440  -29.9283 C   0  0  0  0  0  0  0  0  0  0  0  0
    5.0374   -0.3914  -34.6907 O   0  5  0  0  0  0  0  0  0  0  0  0
    4.4632    1.4675  -30.6793 N   0  3  0  0  0  0  0  0  0  0  0  0
    4.6144    2.7044  -29.9569 C   0  0  0  0  0  0  0  0  0  0  0  0
    3.2884    3.2821  -29.5844 C   0  0  0  0  0  0  0  0  0  0  0  0
    5.7330    0.8543  -30.9281 C   0  0  0  0  0  0  0  0  0  0  0  0
    5.9837    0.7839  -32.4558 C   0  0  0  0  0  0  0  0  0  0  0  0
    4.7342   -0.2524  -33.2439 S   0  0  1  0  0  0  0  0  0  0  0  0
  1  3  1  0  0  0  0
  1  9  1  0  0  0  0
  2 12  1  0  0  0  0
  3  5  1  0  0  0  0
  4 12  2  0  0  0  0
  5  7  1  0  0  0  0
  6 12  2  0  0  0  0
  7  8  1  0  0  0  0
  7 10  1  0  0  0  0
  8  9  1  0  0  0  0
 10 11  1  0  0  0  0
 12 11  1  1  0  0  0
M  CHG  2   6  -1   7   1
M  END
>  <CHROM.1>
121.01469675,-62.58372031,62.46638951,4.23988372,0.80049484,-31.52049055
1.92931044,0.38315111,0.84458978

>  <Name>
ligand

>  <RI>
0

>  <Rbt.Current_Directory>
/home/itssahil/PROJECTS/Mol_Feturizer/New_Systems/rnas/4P95

>  <Rbt.Executable>
rbdock ($Id: //depot/dev/client3/rdock/2013.1/src/exe/rbdock.cxx#4 $)

>  <Rbt.Library>
libRbt.so (2013.1, Build901 2013/11/27)

>  <Rbt.Parameter_File>
/export/apps/rDock/src/rDock_2013.1_src/data/scripts/dock_solv.prm

>  <Rbt.Receptor>
prm/pocket_docking_2.prm

>  <SCORE>
-6.83231

>  <SCORE.INTER>
-4.17831

>  <SCORE.INTER.CONST>
1

>  <SCORE.INTER.POLAR>
0

>  <SCORE.INTER.ROT>
3

>  <SCORE.INTER.SOLV>
3.1525

>  <SCORE.INTER.VDW>
-9.43638

>  <SCORE.INTER.norm>
-0.348193

>  <SCORE.INTRA>
-2.65399

>  <SCORE.INTRA.DIHEDRAL>
2.15794

>  <SCORE.INTRA.DIHEDRAL.0>
0.283163

>  <SCORE.INTRA.POLAR>
0

>  <SCORE.INTRA.POLAR.0>
0

>  <SCORE.INTRA.REPUL>
0

>  <SCORE.INTRA.REPUL.0>
0

>  <SCORE.INTRA.SOLV>
-0.385015

>  <SCORE.INTRA.SOLV.lig_0>
-32.2894

>  <SCORE.INTRA.VDW>
-3.54046

>  <SCORE.INTRA.VDW.0>
2.0241

>  <SCORE.INTRA.norm>
-0.221166

>  <SCORE.RESTR>
0

>  <SCORE.RESTR.CAVITY>
0

>  <SCORE.RESTR.norm>
0

>  <SCORE.SYSTEM>
0

>  <SCORE.SYSTEM.CONST>
0

>  <SCORE.SYSTEM.DIHEDRAL>
0

>  <SCORE.SYSTEM.SOLV>
0

>  <SCORE.SYSTEM.norm>
0

>  <SCORE.heavy>
12

>  <SCORE.norm>
-0.569359

>  <RMSD>
1.711

$$$$
ligand
 OpenBabel11021811513D
libRbt.so/2013.1/901 2013/11/27
 12 12  0  0  0  0  0  0  0  0999 V2000
    2.4692    2.2977  -28.9051 O   0  0  0  0  0  0  0  0  0  0  0  0
    3.3580    0.2868  -33.0424 O   0  0  0  0  0  0  0  0  0  0  0  0
    2.3294    1.0953  -29.5639 C   0  0  0  0  0  0  0  0  0  0  0  0
    4.7586   -1.6394  -32.5186 O   0  0  0  0  0  0  0  0  0  0  0  0
    3.6110    0.4894  -29.9654 C   0  0  0  0  0  0  0  0  0  0  0  0
    5.0118   -0.5077  -34.6544 O   0  5  0  0  0  0  0  0  0  0  0  0
    4.4660    1.4454  -30.6815 N   0  3  0  0  0  0  0  0  0  0  0  0
    4.5983    2.6609  -29.9200 C   0  0  0  0  0  0  0  0  0  0  0  0
    3.2633    3.2117  -29.5389 C   0  0  0  0  0  0  0  0  0  0  0  0
    5.7444    0.8547  -30.9406 C   0  0  0  0  0  0  0  0  0  0  0  0
    5.9676    0.7534  -32.4709 C   0  0  0  0  0  0  0  0  0  0  0  0
    4.7155   -0.3137  -33.2125 S   0  0  1  0  0  0  0  0  0  0  0  0
  1  3  1  0  0  0  0
  1  9  1  0  0  0  0
  2 12  1  0  0  0  0
  3  5  1  0  0  0  0
  4 12  2  0  0  0  0
  5  7  1  0  0  0  0
  6 12  2  0  0  0  0
  7  8  1  0  0  0  0
  7 10  1  0  0  0  0
  8  9  1  0  0  0  0
 10 11  1  0  0  0  0
 12 11  1  1  0  0  0
M  CHG  2   6  -1   7   1
M  END
>  <CHROM.1>
117.48682836,-61.93487590,63.81556299,4.22790968,0.74317800,-31.50402392
1.92790489,0.38342642,0.84208321

>  <Name>
ligand

>  <RI>
0

>  <Rbt.Current_Directory>
/home/itssahil/PROJECTS/Mol_Feturizer/New_Systems/rnas/4P95

>  <Rbt.Executable>
rbdock ($Id: //depot/dev/client3/rdock/2013.1/src/exe/rbdock.cxx#4 $)

>  <Rbt.Library>
libRbt.so (2013.1, Build901 2013/11/27)

>  <Rbt.Parameter_File>
/export/apps/rDock/src/rDock_2013.1_src/data/scripts/dock_solv.prm

>  <Rbt.Receptor>
prm/pocket_docking_2.prm

>  <SCORE>
-6.86463

>  <SCORE.INTER>
-4.24262

>  <SCORE.INTER.CONST>
1

>  <SCORE.INTER.POLAR>
0

>  <SCORE.INTER.ROT>
3

>  <SCORE.INTER.SOLV>
3.19643

>  <SCORE.INTER.VDW>
-9.49389

>  <SCORE.INTER.norm>
-0.353552

>  <SCORE.INTRA>
-2.62201

>  <SCORE.INTRA.DIHEDRAL>
2.17644

>  <SCORE.INTRA.DIHEDRAL.0>
0.283163

>  <SCORE.INTRA.POLAR>
0

>  <SCORE.INTRA.POLAR.0>
0

>  <SCORE.INTRA.REPUL>
0

>  <SCORE.INTRA.REPUL.0>
0

>  <SCORE.INTRA.SOLV>
-0.364781

>  <SCORE.INTRA.SOLV.lig_0>
-32.2894

>  <SCORE.INTRA.VDW>
-3.52784

>  <SCORE.INTRA.VDW.0>
2.0241

>  <SCORE.INTRA.norm>
-0.218501

>  <SCORE.RESTR>
0

>  <SCORE.RESTR.CAVITY>
0

>  <SCORE.RESTR.norm>
0

>  <SCORE.SYSTEM>
0

>  <SCORE.SYSTEM.CONST>
0

>  <SCORE.SYSTEM.DIHEDRAL>
0

>  <SCORE.SYSTEM.SOLV>
0

>  <SCORE.SYSTEM.norm>
0

>  <SCORE.heavy>
12

>  <SCORE.norm>
-0.572052

>  <RMSD>
1.714

$$$$
ligand
 OpenBabel11021811513D
libRbt.so/2013.1/901 2013/11/27
 12 12  0  0  0  0  0  0  0  0999 V2000
    2.9425    3.6849  -29.5377 O   0  0  0  0  0  0  0  0  0  0  0  0
    4.1745    0.8445  -33.0494 O   0  0  0  0  0  0  0  0  0  0  0  0
    2.0550    2.6465  -29.7202 C   0  0  0  0  0  0  0  0  0  0  0  0
    3.8149   -1.5491  -32.7529 O   0  0  0  0  0  0  0  0  0  0  0  0
    2.6600    1.3147  -29.5440 C   0  0  0  0  0  0  0  0  0  0  0  0
    5.8796   -0.7538  -33.7583 O   0  5  0  0  0  0  0  0  0  0  0  0
    3.8928    1.1671  -30.3292 N   0  3  0  0  0  0  0  0  0  0  0  0
    4.7869    2.2641  -30.0612 C   0  0  0  0  0  0  0  0  0  0  0  0
    4.1050    3.5796  -30.2484 C   0  0  0  0  0  0  0  0  0  0  0  0
    4.5109   -0.0898  -30.0316 C   0  0  0  0  0  0  0  0  0  0  0  0
    5.5885   -0.4030  -31.1005 C   0  0  0  0  0  0  0  0  0  0  0  0
    4.8393   -0.4576  -32.7412 S   0  0  1  0  0  0  0  0  0  0  0  0
  1  3  1  0  0  0  0
  1  9  1  0  0  0  0
  2 12  1  0  0  0  0
  3  5  1  0  0  0  0
  4 12  2  0  0  0  0
  5  7  1  0  0  0  0
  6 12  2  0  0  0  0
  7  8  1  0  0  0  0
  7 10  1  0  0  0  0
  8  9  1  0  0  0  0
 10 11  1  0  0  0  0
 12 11  1  1  0  0  0
M  CHG  2   6  -1   7   1
M  END
>  <CHROM.1>
165.68256031,-58.91718378,58.33505798,4.17645116,0.86457753,-31.27667457
-2.20908609,-0.94152387,-2.95027477

>  <Name>
ligand

>  <RI>
0

>  <Rbt.Current_Directory>
/home/itssahil/PROJECTS/Mol_Feturizer/New_Systems/rnas/4P95

>  <Rbt.Executable>
rbdock ($Id: //depot/dev/client3/rdock/2013.1/src/exe/rbdock.cxx#4 $)

>  <Rbt.Library>
libRbt.so (2013.1, Build901 2013/11/27)

>  <Rbt.Parameter_File>
/export/apps/rDock/src/rDock_2013.1_src/data/scripts/dock_solv.prm

>  <Rbt.Receptor>
prm/pocket_docking_2.prm

>  <SCORE>
-6.39358

>  <SCORE.INTER>
-3.76696

>  <SCORE.INTER.CONST>
1

>  <SCORE.INTER.POLAR>
0

>  <SCORE.INTER.ROT>
3

>  <SCORE.INTER.SOLV>
3.13025

>  <SCORE.INTER.VDW>
-9.15473

>  <SCORE.INTER.norm>
-0.313914

>  <SCORE.INTRA>
-2.62661

>  <SCORE.INTRA.DIHEDRAL>
0.00151478

>  <SCORE.INTRA.DIHEDRAL.0>
0.283163

>  <SCORE.INTRA.POLAR>
0

>  <SCORE.INTRA.POLAR.0>
0

>  <SCORE.INTRA.REPUL>
0

>  <SCORE.INTRA.REPUL.0>
0

>  <SCORE.INTRA.SOLV>
-0.441196

>  <SCORE.INTRA.SOLV.lig_0>
-32.2894

>  <SCORE.INTRA.VDW>
-2.40677

>  <SCORE.INTRA.VDW.0>
2.0241

>  <SCORE.INTRA.norm>
-0.218885

>  <SCORE.RESTR>
0

>  <SCORE.RESTR.CAVITY>
0

>  <SCORE.RESTR.norm>
0

>  <SCORE.SYSTEM>
0

>  <SCORE.SYSTEM.CONST>
0

>  <SCORE.SYSTEM.DIHEDRAL>
0

>  <SCORE.SYSTEM.SOLV>
0

>  <SCORE.SYSTEM.norm>
0

>  <SCORE.heavy>
12

>  <SCORE.norm>
-0.532798

>  <RMSD>
1.726

$$$$
ligand
 OpenBabel11021811513D
libRbt.so/2013.1/901 2013/11/27
 12 12  0  0  0  0  0  0  0  0999 V2000
    2.4388    2.4855  -28.7942 O   0  0  0  0  0  0  0  0  0  0  0  0
    3.1718    0.4819  -33.0573 O   0  0  0  0  0  0  0  0  0  0  0  0
    2.2097    1.2990  -29.4569 C   0  0  0  0  0  0  0  0  0  0  0  0
    4.5530   -1.4959  -32.7009 O   0  0  0  0  0  0  0  0  0  0  0  0
    3.4414    0.6229  -29.9004 C   0  0  0  0  0  0  0  0  0  0  0  0
    4.8059   -0.1982  -34.7401 O   0  5  0  0  0  0  0  0  0  0  0  0
    4.3296    1.5337  -30.6348 N   0  3  0  0  0  0  0  0  0  0  0  0
    4.5549    2.7328  -29.8692 C   0  0  0  0  0  0  0  0  0  0  0  0
    3.2662    3.3571  -29.4448 C   0  0  0  0  0  0  0  0  0  0  0  0
    5.5632    0.8718  -30.9358 C   0  0  0  0  0  0  0  0  0  0  0  0
    5.7902    0.8715  -32.4689 C   0  0  0  0  0  0  0  0  0  0  0  0
    4.5211   -0.1181  -33.2851 S   0  0  1  0  0  0  0  0  0  0  0  0
  1  3  1  0  0  0  0
  1  9  1  0  0  0  0
  2 12  1  0  0  0  0
  3  5  1  0  0  0  0
  4 12  2  0  0  0  0
  5  7  1  0  0  0  0
  6 12  2  0  0  0  0
  7  8  1  0  0  0  0
  7 10  1  0  0  0  0
  8  9  1  0  0  0  0
 10 11  1  0  0  0  0
 12 11  1  1  0  0  0
M  CHG  2   6  -1   7   1
M  END
>  <CHROM.1>
121.98451002,-65.10744510,62.81905241,4.08451095,0.90051455,-31.50344953
1.89099216,0.37346100,0.89121468

>  <Name>
ligand

>  <RI>
0

>  <Rbt.Current_Directory>
/home/itssahil/PROJECTS/Mol_Feturizer/New_Systems/rnas/4P95

>  <Rbt.Executable>
rbdock ($Id: //depot/dev/client3/rdock/2013.1/src/exe/rbdock.cxx#4 $)

>  <Rbt.Library>
libRbt.so (2013.1, Build901 2013/11/27)

>  <Rbt.Parameter_File>
/export/apps/rDock/src/rDock_2013.1_src/data/scripts/dock_solv.prm

>  <Rbt.Receptor>
prm/pocket_docking_2.prm

>  <SCORE>
-6.89169

>  <SCORE.INTER>
-4.2602

>  <SCORE.INTER.CONST>
1

>  <SCORE.INTER.POLAR>
0

>  <SCORE.INTER.ROT>
3

>  <SCORE.INTER.SOLV>
3.16144

>  <SCORE.INTER.VDW>
-9.49395

>  <SCORE.INTER.norm>
-0.355017

>  <SCORE.INTRA>
-2.63148

>  <SCORE.INTRA.DIHEDRAL>
2.22829

>  <SCORE.INTRA.DIHEDRAL.0>
0.283163

>  <SCORE.INTRA.POLAR>
0

>  <SCORE.INTRA.POLAR.0>
0

>  <SCORE.INTRA.REPUL>
0

>  <SCORE.INTRA.REPUL.0>
0

>  <SCORE.INTRA.SOLV>
-0.414376

>  <SCORE.INTRA.SOLV.lig_0>
-32.2894

>  <SCORE.INTRA.VDW>
-3.53844

>  <SCORE.INTRA.VDW.0>
2.0241

>  <SCORE.INTRA.norm>
-0.21929

>  <SCORE.RESTR>
0

>  <SCORE.RESTR.CAVITY>
0

>  <SCORE.RESTR.norm>
0

>  <SCORE.SYSTEM>
0

>  <SCORE.SYSTEM.CONST>
0

>  <SCORE.SYSTEM.DIHEDRAL>
0

>  <SCORE.SYSTEM.SOLV>
0

>  <SCORE.SYSTEM.norm>
0

>  <SCORE.heavy>
12

>  <SCORE.norm>
-0.574307

>  <RMSD>
1.761

$$$$
ligand
 OpenBabel11021811513D
libRbt.so/2013.1/901 2013/11/27
 12 12  0  0  0  0  0  0  0  0999 V2000
    2.4968    2.4433  -28.8357 O   0  0  0  0  0  0  0  0  0  0  0  0
    3.2669    0.5591  -33.0766 O   0  0  0  0  0  0  0  0  0  0  0  0
    2.2815    1.2507  -29.4918 C   0  0  0  0  0  0  0  0  0  0  0  0
    4.5657   -1.4776  -32.7429 O   0  0  0  0  0  0  0  0  0  0  0  0
    3.5215    0.5798  -29.9198 C   0  0  0  0  0  0  0  0  0  0  0  0
    4.8820   -0.1611  -34.7611 O   0  5  0  0  0  0  0  0  0  0  0  0
    4.4099    1.4914  -30.6531 N   0  3  0  0  0  0  0  0  0  0  0  0
    4.6205    2.6974  -29.8942 C   0  0  0  0  0  0  0  0  0  0  0  0
    3.3239    3.3159  -29.4854 C   0  0  0  0  0  0  0  0  0  0  0  0
    5.6505    0.8358  -30.9387 C   0  0  0  0  0  0  0  0  0  0  0  0
    5.8954    0.8346  -32.4690 C   0  0  0  0  0  0  0  0  0  0  0  0
    4.5923   -0.0911  -33.3065 S   0  0  1  0  0  0  0  0  0  0  0  0
  1  3  1  0  0  0  0
  1  9  1  0  0  0  0
  2 12  1  0  0  0  0
  3  5  1  0  0  0  0
  4 12  2  0  0  0  0
  5  7  1  0  0  0  0
  6 12  2  0  0  0  0
  7  8  1  0  0  0  0
  7 10  1  0  0  0  0
  8  9  1  0  0  0  0
 10 11  1  0  0  0  0
 12 11  1  1  0  0  0
M  CHG  2   6  -1   7   1
M  END
>  <CHROM.1>
122.36434492,-62.15338299,62.13776482,4.15578068,0.89195914,-31.52737021
1.89441686,0.35887783,0.90647518

>  <Name>
ligand

>  <RI>
0

>  <Rbt.Current_Directory>
/home/itssahil/PROJECTS/Mol_Feturizer/New_Systems/rnas/4P95

>  <Rbt.Executable>
rbdock ($Id: //depot/dev/client3/rdock/2013.1/src/exe/rbdock.cxx#4 $)

>  <Rbt.Library>
libRbt.so (2013.1, Build901 2013/11/27)

>  <Rbt.Parameter_File>
/export/apps/rDock/src/rDock_2013.1_src/data/scripts/dock_solv.prm

>  <Rbt.Receptor>
prm/pocket_docking_2.prm

>  <SCORE>
-6.91064

>  <SCORE.INTER>
-4.24229

>  <SCORE.INTER.CONST>
1

>  <SCORE.INTER.POLAR>
0

>  <SCORE.INTER.ROT>
3

>  <SCORE.INTER.SOLV>
3.20629

>  <SCORE.INTER.VDW>
-9.49696

>  <SCORE.INTER.norm>
-0.353525

>  <SCORE.INTRA>
-2.66834

>  <SCORE.INTRA.DIHEDRAL>
2.13303

>  <SCORE.INTRA.DIHEDRAL.0>
0.283163

>  <SCORE.INTRA.POLAR>
0

>  <SCORE.INTRA.POLAR.0>
0

>  <SCORE.INTRA.REPUL>
0

>  <SCORE.INTRA.REPUL.0>
0

>  <SCORE.INTRA.SOLV>
-0.382706

>  <SCORE.INTRA.SOLV.lig_0>
-32.2894

>  <SCORE.INTRA.VDW>
-3.5435

>  <SCORE.INTRA.VDW.0>
2.0241

>  <SCORE.INTRA.norm>
-0.222362

>  <SCORE.RESTR>
0

>  <SCORE.RESTR.CAVITY>
0

>  <SCORE.RESTR.norm>
0

>  <SCORE.SYSTEM>
0

>  <SCORE.SYSTEM.CONST>
0

>  <SCORE.SYSTEM.DIHEDRAL>
0

>  <SCORE.SYSTEM.SOLV>
0

>  <SCORE.SYSTEM.norm>
0

>  <SCORE.heavy>
12

>  <SCORE.norm>
-0.575886

>  <RMSD>
1.764

$$$$
ligand
 OpenBabel11021811513D
libRbt.so/2013.1/901 2013/11/27
 12 12  0  0  0  0  0  0  0  0999 V2000
    2.4633    2.4946  -28.8143 O   0  0  0  0  0  0  0  0  0  0  0  0
    3.2006    0.6486  -33.0843 O   0  0  0  0  0  0  0  0  0  0  0  0
    2.2227    1.3059  -29.4688 C   0  0  0  0  0  0  0  0  0  0  0  0
    4.5123   -1.3987  -32.8977 O   0  0  0  0  0  0  0  0  0  0  0  0
    3.4477    0.6166  -29.9106 C   0  0  0  0  0  0  0  0  0  0  0  0
    4.8066    0.0524  -34.8249 O   0  5  0  0  0  0  0  0  0  0  0  0
    4.3420    1.5152  -30.6528 N   0  3  0  0  0  0  0  0  0  0  0  0
    4.5790    2.7171  -29.8954 C   0  0  0  0  0  0  0  0  0  0  0  0
    3.2965    3.3550  -29.4722 C   0  0  0  0  0  0  0  0  0  0  0  0
    5.5692    0.8409  -30.9522 C   0  0  0  0  0  0  0  0  0  0  0  0
    5.8322    0.8974  -32.4784 C   0  0  0  0  0  0  0  0  0  0  0  0
    4.5276    0.0228  -33.3669 S   0  0  1  0  0  0  0  0  0  0  0  0
  1  3  1  0  0  0  0
  1  9  1  0  0  0  0
  2 12  1  0  0  0  0
  3  5  1  0  0  0  0
  4 12  2  0  0  0  0
  5  7  1  0  0  0  0
  6 12  2  0  0  0  0
  7  8  1  0  0  0  0
  7 10  1  0  0  0  0
  8  9  1  0  0  0  0
 10 11  1  0  0  0  0
 12 11  1  1  0  0  0
M  CHG  2   6  -1   7   1
M  END
>  <CHROM.1>
125.09554421,-62.85889563,59.95842261,4.09637656,0.96394770,-31.55265809
1.88943630,0.35850355,0.93280294

>  <Name>
ligand

>  <RI>
0

>  <Rbt.Current_Directory>
/home/itssahil/PROJECTS/Mol_Feturizer/New_Systems/rnas/4P95

>  <Rbt.Executable>
rbdock ($Id: //depot/dev/client3/rdock/2013.1/src/exe/rbdock.cxx#4 $)

>  <Rbt.Library>
libRbt.so (2013.1, Build901 2013/11/27)

>  <Rbt.Parameter_File>
/export/apps/rDock/src/rDock_2013.1_src/data/scripts/dock_solv.prm

>  <Rbt.Receptor>
prm/pocket_docking_2.prm

>  <SCORE>
-6.91861

>  <SCORE.INTER>
-4.23782

>  <SCORE.INTER.CONST>
1

>  <SCORE.INTER.POLAR>
0

>  <SCORE.INTER.ROT>
3

>  <SCORE.INTER.SOLV>
3.13821

>  <SCORE.INTER.VDW>
-9.47128

>  <SCORE.INTER.norm>
-0.353152

>  <SCORE.INTRA>
-2.68079

>  <SCORE.INTRA.DIHEDRAL>
2.08477

>  <SCORE.INTRA.DIHEDRAL.0>
0.283163

>  <SCORE.INTRA.POLAR>
0

>  <SCORE.INTRA.POLAR.0>
0

>  <SCORE.INTRA.REPUL>
0

>  <SCORE.INTRA.REPUL.0>
0

>  <SCORE.INTRA.SOLV>
-0.407862

>  <SCORE.INTRA.SOLV.lig_0>
-32.2894

>  <SCORE.INTRA.VDW>
-3.51925

>  <SCORE.INTRA.VDW.0>
2.0241

>  <SCORE.INTRA.norm>
-0.223399

>  <SCORE.RESTR>
0

>  <SCORE.RESTR.CAVITY>
0

>  <SCORE.RESTR.norm>
0

>  <SCORE.SYSTEM>
0

>  <SCORE.SYSTEM.CONST>
0

>  <SCORE.SYSTEM.DIHEDRAL>
0

>  <SCORE.SYSTEM.SOLV>
0

>  <SCORE.SYSTEM.norm>
0

>  <SCORE.heavy>
12

>  <SCORE.norm>
-0.576551

>  <RMSD>
1.783

$$$$
ligand
 OpenBabel11021811513D
libRbt.so/2013.1/901 2013/11/27
 12 12  0  0  0  0  0  0  0  0999 V2000
    2.4925    2.4640  -28.8521 O   0  0  0  0  0  0  0  0  0  0  0  0
    3.2414    0.5966  -33.0589 O   0  0  0  0  0  0  0  0  0  0  0  0
    2.2685    1.2643  -29.4923 C   0  0  0  0  0  0  0  0  0  0  0  0
    4.4250   -1.4959  -32.6499 O   0  0  0  0  0  0  0  0  0  0  0  0
    3.5040    0.5754  -29.9048 C   0  0  0  0  0  0  0  0  0  0  0  0
    4.8199   -0.2681  -34.7097 O   0  5  0  0  0  0  0  0  0  0  0  0
    4.4047    1.4679  -30.6467 N   0  3  0  0  0  0  0  0  0  0  0  0
    4.6234    2.6824  -29.9039 C   0  0  0  0  0  0  0  0  0  0  0  0
    3.3311    3.3192  -29.5101 C   0  0  0  0  0  0  0  0  0  0  0  0
    5.6400    0.7963  -30.9170 C   0  0  0  0  0  0  0  0  0  0  0  0
    5.8791    0.7477  -32.4474 C   0  0  0  0  0  0  0  0  0  0  0  0
    4.5298   -0.1329  -33.2599 S   0  0  1  0  0  0  0  0  0  0  0  0
  1  3  1  0  0  0  0
  1  9  1  0  0  0  0
  2 12  1  0  0  0  0
  3  5  1  0  0  0  0
  4 12  2  0  0  0  0
  5  7  1  0  0  0  0
  6 12  2  0  0  0  0
  7  8  1  0  0  0  0
  7 10  1  0  0  0  0
  8  9  1  0  0  0  0
 10 11  1  0  0  0  0
 12 11  1  1  0  0  0
M  CHG  2   6  -1   7   1
M  END
>  <CHROM.1>
121.31772780,-59.70143868,62.96734170,4.12250534,0.86850643,-31.50552757
1.88015431,0.33550959,0.90285098

>  <Name>
ligand

>  <RI>
0

>  <Rbt.Current_Directory>
/home/itssahil/PROJECTS/Mol_Feturizer/New_Systems/rnas/4P95

>  <Rbt.Executable>
rbdock ($Id: //depot/dev/client3/rdock/2013.1/src/exe/rbdock.cxx#4 $)

>  <Rbt.Library>
libRbt.so (2013.1, Build901 2013/11/27)

>  <Rbt.Parameter_File>
/export/apps/rDock/src/rDock_2013.1_src/data/scripts/dock_solv.prm

>  <Rbt.Receptor>
prm/pocket_docking_2.prm

>  <SCORE>
-6.90421

>  <SCORE.INTER>
-4.24637

>  <SCORE.INTER.CONST>
1

>  <SCORE.INTER.POLAR>
0

>  <SCORE.INTER.ROT>
3

>  <SCORE.INTER.SOLV>
3.16124

>  <SCORE.INTER.VDW>
-9.48466

>  <SCORE.INTER.norm>
-0.353864

>  <SCORE.INTRA>
-2.65784

>  <SCORE.INTRA.DIHEDRAL>
2.13916

>  <SCORE.INTRA.DIHEDRAL.0>
0.283163

>  <SCORE.INTRA.POLAR>
0

>  <SCORE.INTRA.POLAR.0>
0

>  <SCORE.INTRA.REPUL>
0

>  <SCORE.INTRA.REPUL.0>
0

>  <SCORE.INTRA.SOLV>
-0.344753

>  <SCORE.INTRA.SOLV.lig_0>
-32.2894

>  <SCORE.INTRA.VDW>
-3.55504

>  <SCORE.INTRA.VDW.0>
2.0241

>  <SCORE.INTRA.norm>
-0.221486

>  <SCORE.RESTR>
0

>  <SCORE.RESTR.CAVITY>
0

>  <SCORE.RESTR.norm>
0

>  <SCORE.SYSTEM>
0

>  <SCORE.SYSTEM.CONST>
0

>  <SCORE.SYSTEM.DIHEDRAL>
0

>  <SCORE.SYSTEM.SOLV>
0

>  <SCORE.SYSTEM.norm>
0

>  <SCORE.heavy>
12

>  <SCORE.norm>
-0.575351

>  <RMSD>
1.786

$$$$
ligand
 OpenBabel11021811513D
libRbt.so/2013.1/901 2013/11/27
 12 12  0  0  0  0  0  0  0  0999 V2000
    2.4699    2.4943  -28.8301 O   0  0  0  0  0  0  0  0  0  0  0  0
    3.2587    0.6373  -33.0551 O   0  0  0  0  0  0  0  0  0  0  0  0
    2.2524    1.2938  -29.4711 C   0  0  0  0  0  0  0  0  0  0  0  0
    4.5114   -1.4313  -32.7416 O   0  0  0  0  0  0  0  0  0  0  0  0
    3.4915    0.6127  -29.8855 C   0  0  0  0  0  0  0  0  0  0  0  0
    4.8692   -0.0941  -34.7392 O   0  5  0  0  0  0  0  0  0  0  0  0
    4.3860    1.5110  -30.6276 N   0  3  0  0  0  0  0  0  0  0  0  0
    4.5984    2.7262  -29.8841 C   0  0  0  0  0  0  0  0  0  0  0  0
    3.3027    3.3550  -29.4884 C   0  0  0  0  0  0  0  0  0  0  0  0
    5.6251    0.8470  -30.8999 C   0  0  0  0  0  0  0  0  0  0  0  0
    5.8885    0.8478  -32.4271 C   0  0  0  0  0  0  0  0  0  0  0  0
    4.5715   -0.0380  -33.2856 S   0  0  1  0  0  0  0  0  0  0  0  0
  1  3  1  0  0  0  0
  1  9  1  0  0  0  0
  2 12  1  0  0  0  0
  3  5  1  0  0  0  0
  4 12  2  0  0  0  0
  5  7  1  0  0  0  0
  6 12  2  0  0  0  0
  7  8  1  0  0  0  0
  7 10  1  0  0  0  0
  8  9  1  0  0  0  0
 10 11  1  0  0  0  0
 12 11  1  1  0  0  0
M  CHG  2   6  -1   7   1
M  END
>  <CHROM.1>
123.41284294,-61.02724012,61.49537437,4.13245054,0.93424957,-31.50763648
1.89595063,0.34816946,0.91153523

>  <Name>
ligand

>  <RI>
0

>  <Rbt.Current_Directory>
/home/itssahil/PROJECTS/Mol_Feturizer/New_Systems/rnas/4P95

>  <Rbt.Executable>
rbdock ($Id: //depot/dev/client3/rdock/2013.1/src/exe/rbdock.cxx#4 $)

>  <Rbt.Library>
libRbt.so (2013.1, Build901 2013/11/27)

>  <Rbt.Parameter_File>
/export/apps/rDock/src/rDock_2013.1_src/data/scripts/dock_solv.prm

>  <Rbt.Receptor>
prm/pocket_docking_2.prm

>  <SCORE>
-6.90394

>  <SCORE.INTER>
-4.22527

>  <SCORE.INTER.CONST>
1

>  <SCORE.INTER.POLAR>
0

>  <SCORE.INTER.ROT>
3

>  <SCORE.INTER.SOLV>
3.19624

>  <SCORE.INTER.VDW>
-9.48226

>  <SCORE.INTER.norm>
-0.352106

>  <SCORE.INTRA>
-2.67875

>  <SCORE.INTRA.DIHEDRAL>
2.09789

>  <SCORE.INTRA.DIHEDRAL.0>
0.283163

>  <SCORE.INTRA.POLAR>
0

>  <SCORE.INTRA.POLAR.0>
0

>  <SCORE.INTRA.REPUL>
0

>  <SCORE.INTRA.REPUL.0>
0

>  <SCORE.INTRA.SOLV>
-0.374035

>  <SCORE.INTRA.SOLV.lig_0>
-32.2894

>  <SCORE.INTRA.VDW>
-3.54068

>  <SCORE.INTRA.VDW.0>
2.0241

>  <SCORE.INTRA.norm>
-0.223229

>  <SCORE.RESTR>
8.1675e-05

>  <SCORE.RESTR.CAVITY>
8.1675e-05

>  <SCORE.RESTR.norm>
6.80625e-06

>  <SCORE.SYSTEM>
0

>  <SCORE.SYSTEM.CONST>
0

>  <SCORE.SYSTEM.DIHEDRAL>
0

>  <SCORE.SYSTEM.SOLV>
0

>  <SCORE.SYSTEM.norm>
0

>  <SCORE.heavy>
12

>  <SCORE.norm>
-0.575328

>  <RMSD>
1.791

$$$$
ligand
 OpenBabel11021811513D
libRbt.so/2013.1/901 2013/11/27
 12 12  0  0  0  0  0  0  0  0999 V2000
    2.5834    2.4870  -28.8135 O   0  0  0  0  0  0  0  0  0  0  0  0
    3.2714    0.6533  -33.0565 O   0  0  0  0  0  0  0  0  0  0  0  0
    2.3602    1.2717  -29.4238 C   0  0  0  0  0  0  0  0  0  0  0  0
    4.5348   -1.4183  -32.8139 O   0  0  0  0  0  0  0  0  0  0  0  0
    3.5933    0.5994  -29.8694 C   0  0  0  0  0  0  0  0  0  0  0  0
    4.8369   -0.0450  -34.7961 O   0  5  0  0  0  0  0  0  0  0  0  0
    4.4483    1.4953  -30.6595 N   0  3  0  0  0  0  0  0  0  0  0  0
    4.6697    2.7272  -29.9468 C   0  0  0  0  0  0  0  0  0  0  0  0
    3.3802    3.3461  -29.5169 C   0  0  0  0  0  0  0  0  0  0  0  0
    5.6861    0.8428  -30.9634 C   0  0  0  0  0  0  0  0  0  0  0  0
    5.9168    0.8573  -32.4958 C   0  0  0  0  0  0  0  0  0  0  0  0
    4.5783   -0.0154  -33.3343 S   0  0  1  0  0  0  0  0  0  0  0  0
  1  3  1  0  0  0  0
  1  9  1  0  0  0  0
  2 12  1  0  0  0  0
  3  5  1  0  0  0  0
  4 12  2  0  0  0  0
  5  7  1  0  0  0  0
  6 12  2  0  0  0  0
  7  8  1  0  0  0  0
  7 10  1  0  0  0  0
  8  9  1  0  0  0  0
 10 11  1  0  0  0  0
 12 11  1  1  0  0  0
M  CHG  2   6  -1   7   1
M  END
>  <CHROM.1>
125.17919922,-60.37580072,60.85002227,4.18007390,0.93993833,-31.53892978
1.88020939,0.37772845,0.92158815

>  <Name>
ligand

>  <RI>
0

>  <Rbt.Current_Directory>
/home/itssahil/PROJECTS/Mol_Feturizer/New_Systems/rnas/4P95

>  <Rbt.Executable>
rbdock ($Id: //depot/dev/client3/rdock/2013.1/src/exe/rbdock.cxx#4 $)

>  <Rbt.Library>
libRbt.so (2013.1, Build901 2013/11/27)

>  <Rbt.Parameter_File>
/export/apps/rDock/src/rDock_2013.1_src/data/scripts/dock_solv.prm

>  <Rbt.Receptor>
prm/pocket_docking_2.prm

>  <SCORE>
-6.88817

>  <SCORE.INTER>
-4.19699

>  <SCORE.INTER.CONST>
1

>  <SCORE.INTER.POLAR>
0

>  <SCORE.INTER.ROT>
3

>  <SCORE.INTER.SOLV>
3.3015

>  <SCORE.INTER.VDW>
-9.49849

>  <SCORE.INTER.norm>
-0.349749

>  <SCORE.INTRA>
-2.69118

>  <SCORE.INTRA.DIHEDRAL>
2.05755

>  <SCORE.INTRA.DIHEDRAL.0>
0.283163

>  <SCORE.INTRA.POLAR>
0

>  <SCORE.INTRA.POLAR.0>
0

>  <SCORE.INTRA.REPUL>
0

>  <SCORE.INTRA.REPUL.0>
0

>  <SCORE.INTRA.SOLV>
-0.371894

>  <SCORE.INTRA.SOLV.lig_0>
-32.2894

>  <SCORE.INTRA.VDW>
-3.53401

>  <SCORE.INTRA.VDW.0>
2.0241

>  <SCORE.INTRA.norm>
-0.224265

>  <SCORE.RESTR>
0

>  <SCORE.RESTR.CAVITY>
0

>  <SCORE.RESTR.norm>
0

>  <SCORE.SYSTEM>
0

>  <SCORE.SYSTEM.CONST>
0

>  <SCORE.SYSTEM.DIHEDRAL>
0

>  <SCORE.SYSTEM.SOLV>
0

>  <SCORE.SYSTEM.norm>
0

>  <SCORE.heavy>
12

>  <SCORE.norm>
-0.574014

>  <RMSD>
1.791

$$$$
ligand
 OpenBabel11021811513D
libRbt.so/2013.1/901 2013/11/27
 12 12  0  0  0  0  0  0  0  0999 V2000
    2.4563    2.5131  -28.8240 O   0  0  0  0  0  0  0  0  0  0  0  0
    3.2045    0.6856  -33.0736 O   0  0  0  0  0  0  0  0  0  0  0  0
    2.2068    1.3215  -29.4698 C   0  0  0  0  0  0  0  0  0  0  0  0
    4.4221   -1.4135  -32.8333 O   0  0  0  0  0  0  0  0  0  0  0  0
    3.4270    0.6120  -29.8923 C   0  0  0  0  0  0  0  0  0  0  0  0
    4.8034   -0.0129  -34.7825 O   0  5  0  0  0  0  0  0  0  0  0  0
    4.3407    1.4916  -30.6336 N   0  3  0  0  0  0  0  0  0  0  0  0
    4.5859    2.6975  -29.8850 C   0  0  0  0  0  0  0  0  0  0  0  0
    3.3077    3.3562  -29.4813 C   0  0  0  0  0  0  0  0  0  0  0  0
    5.5619    0.7984  -30.9138 C   0  0  0  0  0  0  0  0  0  0  0  0
    5.8371    0.8297  -32.4387 C   0  0  0  0  0  0  0  0  0  0  0  0
    4.5059   -0.0031  -33.3278 S   0  0  1  0  0  0  0  0  0  0  0  0
  1  3  1  0  0  0  0
  1  9  1  0  0  0  0
  2 12  1  0  0  0  0
  3  5  1  0  0  0  0
  4 12  2  0  0  0  0
  5  7  1  0  0  0  0
  6 12  2  0  0  0  0
  7  8  1  0  0  0  0
  7 10  1  0  0  0  0
  8  9  1  0  0  0  0
 10 11  1  0  0  0  0
 12 11  1  1  0  0  0
M  CHG  2   6  -1   7   1
M  END
>  <CHROM.1>
124.76627434,-61.33089668,60.63490261,4.08323381,0.94744738,-31.52896228
1.88381682,0.33301721,0.93251550

>  <Name>
ligand

>  <RI>
0

>  <Rbt.Current_Directory>
/home/itssahil/PROJECTS/Mol_Feturizer/New_Systems/rnas/4P95

>  <Rbt.Executable>
rbdock ($Id: //depot/dev/client3/rdock/2013.1/src/exe/rbdock.cxx#4 $)

>  <Rbt.Library>
libRbt.so (2013.1, Build901 2013/11/27)

>  <Rbt.Parameter_File>
/export/apps/rDock/src/rDock_2013.1_src/data/scripts/dock_solv.prm

>  <Rbt.Receptor>
prm/pocket_docking_2.prm

>  <SCORE>
-6.91212

>  <SCORE.INTER>
-4.2245

>  <SCORE.INTER.CONST>
1

>  <SCORE.INTER.POLAR>
0

>  <SCORE.INTER.ROT>
3

>  <SCORE.INTER.SOLV>
3.12433

>  <SCORE.INTER.VDW>
-9.45778

>  <SCORE.INTER.norm>
-0.352042

>  <SCORE.INTRA>
-2.68762

>  <SCORE.INTRA.DIHEDRAL>
2.07032

>  <SCORE.INTRA.DIHEDRAL.0>
0.283163

>  <SCORE.INTRA.POLAR>
0

>  <SCORE.INTRA.POLAR.0>
0

>  <SCORE.INTRA.REPUL>
0

>  <SCORE.INTRA.REPUL.0>
0

>  <SCORE.INTRA.SOLV>
-0.384702

>  <SCORE.INTRA.SOLV.lig_0>
-32.2894

>  <SCORE.INTRA.VDW>
-3.53043

>  <SCORE.INTRA.VDW.0>
2.0241

>  <SCORE.INTRA.norm>
-0.223968

>  <SCORE.RESTR>
0

>  <SCORE.RESTR.CAVITY>
0

>  <SCORE.RESTR.norm>
0

>  <SCORE.SYSTEM>
0

>  <SCORE.SYSTEM.CONST>
0

>  <SCORE.SYSTEM.DIHEDRAL>
0

>  <SCORE.SYSTEM.SOLV>
0

>  <SCORE.SYSTEM.norm>
0

>  <SCORE.heavy>
12

>  <SCORE.norm>
-0.57601

>  <RMSD>
1.795

$$$$
ligand
 OpenBabel11021811513D
libRbt.so/2013.1/901 2013/11/27
 12 12  0  0  0  0  0  0  0  0999 V2000
    2.4381    2.4826  -28.7873 O   0  0  0  0  0  0  0  0  0  0  0  0
    3.1675    0.6330  -33.0662 O   0  0  0  0  0  0  0  0  0  0  0  0
    2.2099    1.2950  -29.4483 C   0  0  0  0  0  0  0  0  0  0  0  0
    4.4671   -1.4093  -32.7722 O   0  0  0  0  0  0  0  0  0  0  0  0
    3.4419    0.6210  -29.8939 C   0  0  0  0  0  0  0  0  0  0  0  0
    4.7749   -0.0594  -34.7696 O   0  5  0  0  0  0  0  0  0  0  0  0
    4.3266    1.5329  -30.6314 N   0  3  0  0  0  0  0  0  0  0  0  0
    4.5512    2.7332  -29.8675 C   0  0  0  0  0  0  0  0  0  0  0  0
    3.2621    3.3553  -29.4407 C   0  0  0  0  0  0  0  0  0  0  0  0
    5.5608    0.8732  -30.9346 C   0  0  0  0  0  0  0  0  0  0  0  0
    5.7987    0.8978  -32.4657 C   0  0  0  0  0  0  0  0  0  0  0  0
    4.4917   -0.0136  -33.3127 S   0  0  1  0  0  0  0  0  0  0  0  0
  1  3  1  0  0  0  0
  1  9  1  0  0  0  0
  2 12  1  0  0  0  0
  3  5  1  0  0  0  0
  4 12  2  0  0  0  0
  5  7  1  0  0  0  0
  6 12  2  0  0  0  0
  7  8  1  0  0  0  0
  7 10  1  0  0  0  0
  8  9  1  0  0  0  0
 10 11  1  0  0  0  0
 12 11  1  1  0  0  0
M  CHG  2   6  -1   7   1
M  END
>  <CHROM.1>
123.15341502,-62.58372230,62.15339955,4.06933595,0.94992587,-31.51440060
1.88671527,0.36429073,0.92075793

>  <Name>
ligand

>  <RI>
0

>  <Rbt.Current_Directory>
/home/itssahil/PROJECTS/Mol_Feturizer/New_Systems/rnas/4P95

>  <Rbt.Executable>
rbdock ($Id: //depot/dev/client3/rdock/2013.1/src/exe/rbdock.cxx#4 $)

>  <Rbt.Library>
libRbt.so (2013.1, Build901 2013/11/27)

>  <Rbt.Parameter_File>
/export/apps/rDock/src/rDock_2013.1_src/data/scripts/dock_solv.prm

>  <Rbt.Receptor>
prm/pocket_docking_2.prm

>  <SCORE>
-6.9281

>  <SCORE.INTER>
-4.25532

>  <SCORE.INTER.CONST>
1

>  <SCORE.INTER.POLAR>
0

>  <SCORE.INTER.ROT>
3

>  <SCORE.INTER.SOLV>
3.17444

>  <SCORE.INTER.VDW>
-9.49503

>  <SCORE.INTER.norm>
-0.35461

>  <SCORE.INTRA>
-2.67278

>  <SCORE.INTRA.DIHEDRAL>
2.13096

>  <SCORE.INTRA.DIHEDRAL.0>
0.283163

>  <SCORE.INTRA.POLAR>
0

>  <SCORE.INTRA.POLAR.0>
0

>  <SCORE.INTRA.REPUL>
0

>  <SCORE.INTRA.REPUL.0>
0

>  <SCORE.INTRA.SOLV>
-0.388366

>  <SCORE.INTRA.SOLV.lig_0>
-32.2894

>  <SCORE.INTRA.VDW>
-3.54408

>  <SCORE.INTRA.VDW.0>
2.0241

>  <SCORE.INTRA.norm>
-0.222732

>  <SCORE.RESTR>
0

>  <SCORE.RESTR.CAVITY>
0

>  <SCORE.RESTR.norm>
0

>  <SCORE.SYSTEM>
0

>  <SCORE.SYSTEM.CONST>
0

>  <SCORE.SYSTEM.DIHEDRAL>
0

>  <SCORE.SYSTEM.SOLV>
0

>  <SCORE.SYSTEM.norm>
0

>  <SCORE.heavy>
12

>  <SCORE.norm>
-0.577342

>  <RMSD>
1.800

$$$$
ligand
 OpenBabel11021811513D
libRbt.so/2013.1/901 2013/11/27
 12 12  0  0  0  0  0  0  0  0999 V2000
    2.4432    2.4786  -28.7840 O   0  0  0  0  0  0  0  0  0  0  0  0
    3.1767    0.6938  -33.0895 O   0  0  0  0  0  0  0  0  0  0  0  0
    2.2051    1.2947  -29.4482 C   0  0  0  0  0  0  0  0  0  0  0  0
    4.4611   -1.3675  -32.8704 O   0  0  0  0  0  0  0  0  0  0  0  0
    3.4313    0.6129  -29.8980 C   0  0  0  0  0  0  0  0  0  0  0  0
    4.7868    0.0574  -34.8120 O   0  5  0  0  0  0  0  0  0  0  0  0
    4.3216    1.5204  -30.6340 N   0  3  0  0  0  0  0  0  0  0  0  0
    4.5564    2.7167  -29.8668 C   0  0  0  0  0  0  0  0  0  0  0  0
    3.2727    3.3471  -29.4361 C   0  0  0  0  0  0  0  0  0  0  0  0
    5.5504    0.8525  -30.9413 C   0  0  0  0  0  0  0  0  0  0  0  0
    5.8070    0.9165  -32.4683 C   0  0  0  0  0  0  0  0  0  0  0  0
    4.4975    0.0481  -33.3557 S   0  0  1  0  0  0  0  0  0  0  0  0
  1  3  1  0  0  0  0
  1  9  1  0  0  0  0
  2 12  1  0  0  0  0
  3  5  1  0  0  0  0
  4 12  2  0  0  0  0
  5  7  1  0  0  0  0
  6 12  2  0  0  0  0
  7  8  1  0  0  0  0
  7 10  1  0  0  0  0
  8  9  1  0  0  0  0
 10 11  1  0  0  0  0
 12 11  1  1  0  0  0
M  CHG  2   6  -1   7   1
M  END
>  <CHROM.1>
124.81431919,-62.54981763,61.27722336,4.07147082,0.97445324,-31.53549276
1.88759661,0.35995326,0.94116429

>  <Name>
ligand

>  <RI>
0

>  <Rbt.Current_Directory>
/home/itssahil/PROJECTS/Mol_Feturizer/New_Systems/rnas/4P95

>  <Rbt.Executable>
rbdock ($Id: //depot/dev/client3/rdock/2013.1/src/exe/rbdock.cxx#4 $)

>  <Rbt.Library>
libRbt.so (2013.1, Build901 2013/11/27)

>  <Rbt.Parameter_File>
/export/apps/rDock/src/rDock_2013.1_src/data/scripts/dock_solv.prm

>  <Rbt.Receptor>
prm/pocket_docking_2.prm

>  <SCORE>
-6.94056

>  <SCORE.INTER>
-4.25408

>  <SCORE.INTER.CONST>
1

>  <SCORE.INTER.POLAR>
0

>  <SCORE.INTER.ROT>
3

>  <SCORE.INTER.SOLV>
3.17476

>  <SCORE.INTER.VDW>
-9.49431

>  <SCORE.INTER.norm>
-0.354506

>  <SCORE.INTRA>
-2.68648

>  <SCORE.INTRA.DIHEDRAL>
2.09246

>  <SCORE.INTRA.DIHEDRAL.0>
0.283163

>  <SCORE.INTRA.POLAR>
0

>  <SCORE.INTRA.POLAR.0>
0

>  <SCORE.INTRA.REPUL>
0

>  <SCORE.INTRA.REPUL.0>
0

>  <SCORE.INTRA.SOLV>
-0.395192

>  <SCORE.INTRA.SOLV.lig_0>
-32.2894

>  <SCORE.INTRA.VDW>
-3.53512

>  <SCORE.INTRA.VDW.0>
2.0241

>  <SCORE.INTRA.norm>
-0.223873

>  <SCORE.RESTR>
0

>  <SCORE.RESTR.CAVITY>
0

>  <SCORE.RESTR.norm>
0

>  <SCORE.SYSTEM>
0

>  <SCORE.SYSTEM.CONST>
0

>  <SCORE.SYSTEM.DIHEDRAL>
0

>  <SCORE.SYSTEM.SOLV>
0

>  <SCORE.SYSTEM.norm>
0

>  <SCORE.heavy>
12

>  <SCORE.norm>
-0.57838

>  <RMSD>
1.805

$$$$
ligand
 OpenBabel11021811513D
libRbt.so/2013.1/901 2013/11/27
 12 12  0  0  0  0  0  0  0  0999 V2000
    2.4260    2.5656  -28.7848 O   0  0  0  0  0  0  0  0  0  0  0  0
    3.1594    0.6245  -33.0459 O   0  0  0  0  0  0  0  0  0  0  0  0
    2.1966    1.3665  -29.4241 C   0  0  0  0  0  0  0  0  0  0  0  0
    4.5053   -1.3891  -32.7618 O   0  0  0  0  0  0  0  0  0  0  0  0
    3.4277    0.6868  -29.8639 C   0  0  0  0  0  0  0  0  0  0  0  0
    4.7790   -0.0252  -34.7546 O   0  5  0  0  0  0  0  0  0  0  0  0
    4.3074    1.5872  -30.6210 N   0  3  0  0  0  0  0  0  0  0  0  0
    4.5337    2.8008  -29.8790 C   0  0  0  0  0  0  0  0  0  0  0  0
    3.2456    3.4282  -29.4570 C   0  0  0  0  0  0  0  0  0  0  0  0
    5.5413    0.9243  -30.9186 C   0  0  0  0  0  0  0  0  0  0  0  0
    5.7851    0.9462  -32.4489 C   0  0  0  0  0  0  0  0  0  0  0  0
    4.4974    0.0088  -33.2971 S   0  0  1  0  0  0  0  0  0  0  0  0
  1  3  1  0  0  0  0
  1  9  1  0  0  0  0
  2 12  1  0  0  0  0
  3  5  1  0  0  0  0
  4 12  2  0  0  0  0
  5  7  1  0  0  0  0
  6 12  2  0  0  0  0
  7  8  1  0  0  0  0
  7 10  1  0  0  0  0
  8  9  1  0  0  0  0
 10 11  1  0  0  0  0
 12 11  1  1  0  0  0
M  CHG  2   6  -1   7   1
M  END
>  <CHROM.1>
124.20648605,-63.71139545,61.49931061,4.06387945,0.99542550,-31.50283002
1.89195005,0.37489052,0.90507010

>  <Name>
ligand

>  <RI>
0

>  <Rbt.Current_Directory>
/home/itssahil/PROJECTS/Mol_Feturizer/New_Systems/rnas/4P95

>  <Rbt.Executable>
rbdock ($Id: //depot/dev/client3/rdock/2013.1/src/exe/rbdock.cxx#4 $)

>  <Rbt.Library>
libRbt.so (2013.1, Build901 2013/11/27)

>  <Rbt.Parameter_File>
/export/apps/rDock/src/rDock_2013.1_src/data/scripts/dock_solv.prm

>  <Rbt.Receptor>
prm/pocket_docking_2.prm

>  <SCORE>
-6.88514

>  <SCORE.INTER>
-4.21391

>  <SCORE.INTER.CONST>
1

>  <SCORE.INTER.POLAR>
0

>  <SCORE.INTER.ROT>
3

>  <SCORE.INTER.SOLV>
3.14858

>  <SCORE.INTER.VDW>
-9.4588

>  <SCORE.INTER.norm>
-0.351159

>  <SCORE.INTRA>
-2.67123

>  <SCORE.INTRA.DIHEDRAL>
2.13319

>  <SCORE.INTRA.DIHEDRAL.0>
0.283163

>  <SCORE.INTRA.POLAR>
0

>  <SCORE.INTRA.POLAR.0>
0

>  <SCORE.INTRA.REPUL>
0

>  <SCORE.INTRA.REPUL.0>
0

>  <SCORE.INTRA.SOLV>
-0.407518

>  <SCORE.INTRA.SOLV.lig_0>
-32.2894

>  <SCORE.INTRA.VDW>
-3.53407

>  <SCORE.INTRA.VDW.0>
2.0241

>  <SCORE.INTRA.norm>
-0.222603

>  <SCORE.RESTR>
0

>  <SCORE.RESTR.CAVITY>
0

>  <SCORE.RESTR.norm>
0

>  <SCORE.SYSTEM>
0

>  <SCORE.SYSTEM.CONST>
0

>  <SCORE.SYSTEM.DIHEDRAL>
0

>  <SCORE.SYSTEM.SOLV>
0

>  <SCORE.SYSTEM.norm>
0

>  <SCORE.heavy>
12

>  <SCORE.norm>
-0.573762

>  <RMSD>
1.806

$$$$
ligand
 OpenBabel11021811513D
libRbt.so/2013.1/901 2013/11/27
 12 12  0  0  0  0  0  0  0  0999 V2000
    2.5719    2.4837  -28.7584 O   0  0  0  0  0  0  0  0  0  0  0  0
    3.1193    0.5890  -33.0525 O   0  0  0  0  0  0  0  0  0  0  0  0
    2.3477    1.2886  -29.4071 C   0  0  0  0  0  0  0  0  0  0  0  0
    4.5348   -1.3824  -32.8150 O   0  0  0  0  0  0  0  0  0  0  0  0
    3.5753    0.6563  -29.9209 C   0  0  0  0  0  0  0  0  0  0  0  0
    4.6516   -0.0495  -34.8438 O   0  5  0  0  0  0  0  0  0  0  0  0
    4.3866    1.5970  -30.7050 N   0  3  0  0  0  0  0  0  0  0  0  0
    4.6124    2.8047  -29.9533 C   0  0  0  0  0  0  0  0  0  0  0  0
    3.3287    3.3832  -29.4553 C   0  0  0  0  0  0  0  0  0  0  0  0
    5.6237    0.9791  -31.0767 C   0  0  0  0  0  0  0  0  0  0  0  0
    5.7659    0.9916  -32.6198 C   0  0  0  0  0  0  0  0  0  0  0  0
    4.4565    0.0045  -33.3729 S   0  0  1  0  0  0  0  0  0  0  0  0
  1  3  1  0  0  0  0
  1  9  1  0  0  0  0
  2 12  1  0  0  0  0
  3  5  1  0  0  0  0
  4 12  2  0  0  0  0
  5  7  1  0  0  0  0
  6 12  2  0  0  0  0
  7  8  1  0  0  0  0
  7 10  1  0  0  0  0
  8  9  1  0  0  0  0
 10 11  1  0  0  0  0
 12 11  1  1  0  0  0
M  CHG  2   6  -1   7   1
M  END
>  <CHROM.1>
122.31439273,-63.28699310,62.13609737,4.10131506,0.98073784,-31.56338075
1.86055119,0.42816027,0.91750482

>  <Name>
ligand

>  <RI>
0

>  <Rbt.Current_Directory>
/home/itssahil/PROJECTS/Mol_Feturizer/New_Systems/rnas/4P95

>  <Rbt.Executable>
rbdock ($Id: //depot/dev/client3/rdock/2013.1/src/exe/rbdock.cxx#4 $)

>  <Rbt.Library>
libRbt.so (2013.1, Build901 2013/11/27)

>  <Rbt.Parameter_File>
/export/apps/rDock/src/rDock_2013.1_src/data/scripts/dock_solv.prm

>  <Rbt.Receptor>
prm/pocket_docking_2.prm

>  <SCORE>
-6.88107

>  <SCORE.INTER>
-4.22128

>  <SCORE.INTER.CONST>
1

>  <SCORE.INTER.POLAR>
0

>  <SCORE.INTER.ROT>
3

>  <SCORE.INTER.SOLV>
3.26756

>  <SCORE.INTER.VDW>
-9.50337

>  <SCORE.INTER.norm>
-0.351773

>  <SCORE.INTRA>
-2.6598

>  <SCORE.INTRA.DIHEDRAL>
2.15682

>  <SCORE.INTRA.DIHEDRAL.0>
0.283163

>  <SCORE.INTRA.POLAR>
0

>  <SCORE.INTRA.POLAR.0>
0

>  <SCORE.INTRA.REPUL>
0

>  <SCORE.INTRA.REPUL.0>
0

>  <SCORE.INTRA.SOLV>
-0.39684

>  <SCORE.INTRA.SOLV.lig_0>
-32.2894

>  <SCORE.INTRA.VDW>
-3.53979

>  <SCORE.INTRA.VDW.0>
2.0241

>  <SCORE.INTRA.norm>
-0.22165

>  <SCORE.RESTR>
0

>  <SCORE.RESTR.CAVITY>
0

>  <SCORE.RESTR.norm>
0

>  <SCORE.SYSTEM>
0

>  <SCORE.SYSTEM.CONST>
0

>  <SCORE.SYSTEM.DIHEDRAL>
0

>  <SCORE.SYSTEM.SOLV>
0

>  <SCORE.SYSTEM.norm>
0

>  <SCORE.heavy>
12

>  <SCORE.norm>
-0.573423

>  <RMSD>
1.806

$$$$
ligand
 OpenBabel11021811513D
libRbt.so/2013.1/901 2013/11/27
 12 12  0  0  0  0  0  0  0  0999 V2000
    2.4413    2.4853  -28.7928 O   0  0  0  0  0  0  0  0  0  0  0  0
    3.1364    0.6406  -33.0579 O   0  0  0  0  0  0  0  0  0  0  0  0
    2.2040    1.3007  -29.4559 C   0  0  0  0  0  0  0  0  0  0  0  0
    4.3876   -1.4263  -32.7276 O   0  0  0  0  0  0  0  0  0  0  0  0
    3.4309    0.6177  -29.9020 C   0  0  0  0  0  0  0  0  0  0  0  0
    4.7182   -0.1255  -34.7537 O   0  5  0  0  0  0  0  0  0  0  0  0
    4.3232    1.5237  -30.6375 N   0  3  0  0  0  0  0  0  0  0  0  0
    4.5570    2.7209  -29.8715 C   0  0  0  0  0  0  0  0  0  0  0  0
    3.2727    3.3525  -29.4444 C   0  0  0  0  0  0  0  0  0  0  0  0
    5.5523    0.8547  -30.9412 C   0  0  0  0  0  0  0  0  0  0  0  0
    5.7762    0.8535  -32.4746 C   0  0  0  0  0  0  0  0  0  0  0  0
    4.4433   -0.0430  -33.2969 S   0  0  1  0  0  0  0  0  0  0  0  0
  1  3  1  0  0  0  0
  1  9  1  0  0  0  0
  2 12  1  0  0  0  0
  3  5  1  0  0  0  0
  4 12  2  0  0  0  0
  5  7  1  0  0  0  0
  6 12  2  0  0  0  0
  7  8  1  0  0  0  0
  7 10  1  0  0  0  0
  8  9  1  0  0  0  0
 10 11  1  0  0  0  0
 12 11  1  1  0  0  0
M  CHG  2   6  -1   7   1
M  END
>  <CHROM.1>
121.95937161,-61.63112572,62.68345838,4.04530702,0.93297392,-31.50982461
1.87400035,0.35238713,0.92064126

>  <Name>
ligand

>  <RI>
0

>  <Rbt.Current_Directory>
/home/itssahil/PROJECTS/Mol_Feturizer/New_Systems/rnas/4P95

>  <Rbt.Executable>
rbdock ($Id: //depot/dev/client3/rdock/2013.1/src/exe/rbdock.cxx#4 $)

>  <Rbt.Library>
libRbt.so (2013.1, Build901 2013/11/27)

>  <Rbt.Parameter_File>
/export/apps/rDock/src/rDock_2013.1_src/data/scripts/dock_solv.prm

>  <Rbt.Receptor>
prm/pocket_docking_2.prm

>  <SCORE>
-6.92692

>  <SCORE.INTER>
-4.26008

>  <SCORE.INTER.CONST>
1

>  <SCORE.INTER.POLAR>
0

>  <SCORE.INTER.ROT>
3

>  <SCORE.INTER.SOLV>
3.14549

>  <SCORE.INTER.VDW>
-9.48855

>  <SCORE.INTER.norm>
-0.355007

>  <SCORE.INTRA>
-2.66684

>  <SCORE.INTRA.DIHEDRAL>
2.13821

>  <SCORE.INTRA.DIHEDRAL.0>
0.283163

>  <SCORE.INTRA.POLAR>
0

>  <SCORE.INTRA.POLAR.0>
0

>  <SCORE.INTRA.REPUL>
0

>  <SCORE.INTRA.REPUL.0>
0

>  <SCORE.INTRA.SOLV>
-0.371794

>  <SCORE.INTRA.SOLV.lig_0>
-32.2894

>  <SCORE.INTRA.VDW>
-3.55005

>  <SCORE.INTRA.VDW.0>
2.0241

>  <SCORE.INTRA.norm>
-0.222237

>  <SCORE.RESTR>
0

>  <SCORE.RESTR.CAVITY>
0

>  <SCORE.RESTR.norm>
0

>  <SCORE.SYSTEM>
0

>  <SCORE.SYSTEM.CONST>
0

>  <SCORE.SYSTEM.DIHEDRAL>
0

>  <SCORE.SYSTEM.SOLV>
0

>  <SCORE.SYSTEM.norm>
0

>  <SCORE.heavy>
12

>  <SCORE.norm>
-0.577244

>  <RMSD>
1.809

$$$$
ligand
 OpenBabel11021811513D
libRbt.so/2013.1/901 2013/11/27
 12 12  0  0  0  0  0  0  0  0999 V2000
    2.4358    2.4836  -28.7801 O   0  0  0  0  0  0  0  0  0  0  0  0
    3.1591    0.6989  -33.0765 O   0  0  0  0  0  0  0  0  0  0  0  0
    2.1964    1.3017  -29.4473 C   0  0  0  0  0  0  0  0  0  0  0  0
    4.4331   -1.3678  -32.8483 O   0  0  0  0  0  0  0  0  0  0  0  0
    3.4221    0.6190  -29.8974 C   0  0  0  0  0  0  0  0  0  0  0  0
    4.7593    0.0422  -34.8007 O   0  5  0  0  0  0  0  0  0  0  0  0
    4.3145    1.5269  -30.6305 N   0  3  0  0  0  0  0  0  0  0  0  0
    4.5504    2.7209  -29.8603 C   0  0  0  0  0  0  0  0  0  0  0  0
    3.2673    3.3524  -29.4294 C   0  0  0  0  0  0  0  0  0  0  0  0
    5.5425    0.8577  -30.9381 C   0  0  0  0  0  0  0  0  0  0  0  0
    5.7929    0.9114  -32.4665 C   0  0  0  0  0  0  0  0  0  0  0  0
    4.4754    0.0443  -33.3433 S   0  0  1  0  0  0  0  0  0  0  0  0
  1  3  1  0  0  0  0
  1  9  1  0  0  0  0
  2 12  1  0  0  0  0
  3  5  1  0  0  0  0
  4 12  2  0  0  0  0
  5  7  1  0  0  0  0
  6 12  2  0  0  0  0
  7  8  1  0  0  0  0
  7 10  1  0  0  0  0
  8  9  1  0  0  0  0
 10 11  1  0  0  0  0
 12 11  1  1  0  0  0
M  CHG  2   6  -1   7   1
M  END
>  <CHROM.1>
124.20113948,-62.22146586,61.33841571,4.05696387,0.97546960,-31.52762712
1.88373168,0.35599704,0.94068598

>  <Name>
ligand

>  <RI>
0

>  <Rbt.Current_Directory>
/home/itssahil/PROJECTS/Mol_Feturizer/New_Systems/rnas/4P95

>  <Rbt.Executable>
rbdock ($Id: //depot/dev/client3/rdock/2013.1/src/exe/rbdock.cxx#4 $)

>  <Rbt.Library>
libRbt.so (2013.1, Build901 2013/11/27)

>  <Rbt.Parameter_File>
/export/apps/rDock/src/rDock_2013.1_src/data/scripts/dock_solv.prm

>  <Rbt.Receptor>
prm/pocket_docking_2.prm

>  <SCORE>
-6.94544

>  <SCORE.INTER>
-4.26249

>  <SCORE.INTER.CONST>
1

>  <SCORE.INTER.POLAR>
0

>  <SCORE.INTER.ROT>
3

>  <SCORE.INTER.SOLV>
3.16874

>  <SCORE.INTER.VDW>
-9.49791

>  <SCORE.INTER.norm>
-0.355208

>  <SCORE.INTRA>
-2.68295

>  <SCORE.INTRA.DIHEDRAL>
2.09832

>  <SCORE.INTRA.DIHEDRAL.0>
0.283163

>  <SCORE.INTRA.POLAR>
0

>  <SCORE.INTRA.POLAR.0>
0

>  <SCORE.INTRA.REPUL>
0

>  <SCORE.INTRA.REPUL.0>
0

>  <SCORE.INTRA.SOLV>
-0.390367

>  <SCORE.INTRA.SOLV.lig_0>
-32.2894

>  <SCORE.INTRA.VDW>
-3.53692

>  <SCORE.INTRA.VDW.0>
2.0241

>  <SCORE.INTRA.norm>
-0.223579

>  <SCORE.RESTR>
0

>  <SCORE.RESTR.CAVITY>
0

>  <SCORE.RESTR.norm>
0

>  <SCORE.SYSTEM>
0

>  <SCORE.SYSTEM.CONST>
0

>  <SCORE.SYSTEM.DIHEDRAL>
0

>  <SCORE.SYSTEM.SOLV>
0

>  <SCORE.SYSTEM.norm>
0

>  <SCORE.heavy>
12

>  <SCORE.norm>
-0.578787

>  <RMSD>
1.813

$$$$
ligand
 OpenBabel11021811513D
libRbt.so/2013.1/901 2013/11/27
 12 12  0  0  0  0  0  0  0  0999 V2000
    2.4523    2.5492  -28.7903 O   0  0  0  0  0  0  0  0  0  0  0  0
    3.1561    0.6359  -33.0463 O   0  0  0  0  0  0  0  0  0  0  0  0
    2.2201    1.3483  -29.4253 C   0  0  0  0  0  0  0  0  0  0  0  0
    4.4347   -1.4115  -32.7000 O   0  0  0  0  0  0  0  0  0  0  0  0
    3.4494    0.6650  -29.8645 C   0  0  0  0  0  0  0  0  0  0  0  0
    4.7540   -0.1179  -34.7325 O   0  5  0  0  0  0  0  0  0  0  0  0
    4.3296    1.5614  -30.6259 N   0  3  0  0  0  0  0  0  0  0  0  0
    4.5589    2.7771  -29.8882 C   0  0  0  0  0  0  0  0  0  0  0  0
    3.2725    3.4081  -29.4665 C   0  0  0  0  0  0  0  0  0  0  0  0
    5.5619    0.8954  -30.9229 C   0  0  0  0  0  0  0  0  0  0  0  0
    5.7907    0.8888  -32.4557 C   0  0  0  0  0  0  0  0  0  0  0  0
    4.4731   -0.0308  -33.2771 S   0  0  1  0  0  0  0  0  0  0  0  0
  1  3  1  0  0  0  0
  1  9  1  0  0  0  0
  2 12  1  0  0  0  0
  3  5  1  0  0  0  0
  4 12  2  0  0  0  0
  5  7  1  0  0  0  0
  6 12  2  0  0  0  0
  7  8  1  0  0  0  0
  7 10  1  0  0  0  0
  8  9  1  0  0  0  0
 10 11  1  0  0  0  0
 12 11  1  1  0  0  0
M  CHG  2   6  -1   7   1
M  END
>  <CHROM.1>
123.17191099,-62.24368383,62.69858127,4.06439577,0.96483194,-31.49572735
1.88043724,0.36607894,0.90492915

>  <Name>
ligand

>  <RI>
0

>  <Rbt.Current_Directory>
/home/itssahil/PROJECTS/Mol_Feturizer/New_Systems/rnas/4P95

>  <Rbt.Executable>
rbdock ($Id: //depot/dev/client3/rdock/2013.1/src/exe/rbdock.cxx#4 $)

>  <Rbt.Library>
libRbt.so (2013.1, Build901 2013/11/27)

>  <Rbt.Parameter_File>
/export/apps/rDock/src/rDock_2013.1_src/data/scripts/dock_solv.prm

>  <Rbt.Receptor>
prm/pocket_docking_2.prm

>  <SCORE>
-6.89327

>  <SCORE.INTER>
-4.2189

>  <SCORE.INTER.CONST>
1

>  <SCORE.INTER.POLAR>
0

>  <SCORE.INTER.ROT>
3

>  <SCORE.INTER.SOLV>
3.16522

>  <SCORE.INTER.VDW>
-9.46767

>  <SCORE.INTER.norm>
-0.351575

>  <SCORE.INTRA>
-2.67437

>  <SCORE.INTRA.DIHEDRAL>
2.13285

>  <SCORE.INTRA.DIHEDRAL.0>
0.283163

>  <SCORE.INTRA.POLAR>
0

>  <SCORE.INTRA.POLAR.0>
0

>  <SCORE.INTRA.REPUL>
0

>  <SCORE.INTRA.REPUL.0>
0

>  <SCORE.INTRA.SOLV>
-0.380037

>  <SCORE.INTRA.SOLV.lig_0>
-32.2894

>  <SCORE.INTRA.VDW>
-3.55078

>  <SCORE.INTRA.VDW.0>
2.0241

>  <SCORE.INTRA.norm>
-0.222864

>  <SCORE.RESTR>
0

>  <SCORE.RESTR.CAVITY>
0

>  <SCORE.RESTR.norm>
0

>  <SCORE.SYSTEM>
0

>  <SCORE.SYSTEM.CONST>
0

>  <SCORE.SYSTEM.DIHEDRAL>
0

>  <SCORE.SYSTEM.SOLV>
0

>  <SCORE.SYSTEM.norm>
0

>  <SCORE.heavy>
12

>  <SCORE.norm>
-0.574439

>  <RMSD>
1.813

$$$$
ligand
 OpenBabel11021811513D
libRbt.so/2013.1/901 2013/11/27
 12 12  0  0  0  0  0  0  0  0999 V2000
    2.4358    2.4827  -28.7750 O   0  0  0  0  0  0  0  0  0  0  0  0
    3.1643    0.7330  -33.0738 O   0  0  0  0  0  0  0  0  0  0  0  0
    2.1971    1.3003  -29.4415 C   0  0  0  0  0  0  0  0  0  0  0  0
    4.4121   -1.3499  -32.8480 O   0  0  0  0  0  0  0  0  0  0  0  0
    3.4231    0.6172  -29.8898 C   0  0  0  0  0  0  0  0  0  0  0  0
    4.7609    0.0614  -34.7956 O   0  5  0  0  0  0  0  0  0  0  0  0
    4.3163    1.5244  -30.6228 N   0  3  0  0  0  0  0  0  0  0  0  0
    4.5515    2.7191  -29.8533 C   0  0  0  0  0  0  0  0  0  0  0  0
    3.2680    3.3509  -29.4241 C   0  0  0  0  0  0  0  0  0  0  0  0
    5.5446    0.8550  -30.9286 C   0  0  0  0  0  0  0  0  0  0  0  0
    5.7988    0.9114  -32.4563 C   0  0  0  0  0  0  0  0  0  0  0  0
    4.4731    0.0629  -33.3389 S   0  0  1  0  0  0  0  0  0  0  0  0
  1  3  1  0  0  0  0
  1  9  1  0  0  0  0
  2 12  1  0  0  0  0
  3  5  1  0  0  0  0
  4 12  2  0  0  0  0
  5  7  1  0  0  0  0
  6 12  2  0  0  0  0
  7  8  1  0  0  0  0
  7 10  1  0  0  0  0
  8  9  1  0  0  0  0
 10 11  1  0  0  0  0
 12 11  1  1  0  0  0
M  CHG  2   6  -1   7   1
M  END
>  <CHROM.1>
124.37929923,-61.58304153,61.41281047,4.05638803,0.98350318,-31.52196157
1.88337838,0.35193066,0.94631674

>  <Name>
ligand

>  <RI>
0

>  <Rbt.Current_Directory>
/home/itssahil/PROJECTS/Mol_Feturizer/New_Systems/rnas/4P95

>  <Rbt.Executable>
rbdock ($Id: //depot/dev/client3/rdock/2013.1/src/exe/rbdock.cxx#4 $)

>  <Rbt.Library>
libRbt.so (2013.1, Build901 2013/11/27)

>  <Rbt.Parameter_File>
/export/apps/rDock/src/rDock_2013.1_src/data/scripts/dock_solv.prm

>  <Rbt.Receptor>
prm/pocket_docking_2.prm

>  <SCORE>
-6.94064

>  <SCORE.INTER>
-4.25372

>  <SCORE.INTER.CONST>
1

>  <SCORE.INTER.POLAR>
0

>  <SCORE.INTER.ROT>
3

>  <SCORE.INTER.SOLV>
3.18635

>  <SCORE.INTER.VDW>
-9.49793

>  <SCORE.INTER.norm>
-0.354477

>  <SCORE.INTRA>
-2.68692

>  <SCORE.INTRA.DIHEDRAL>
2.08678

>  <SCORE.INTRA.DIHEDRAL.0>
0.283163

>  <SCORE.INTRA.POLAR>
0

>  <SCORE.INTRA.POLAR.0>
0

>  <SCORE.INTRA.REPUL>
0

>  <SCORE.INTRA.REPUL.0>
0

>  <SCORE.INTRA.SOLV>
-0.382116

>  <SCORE.INTRA.SOLV.lig_0>
-32.2894

>  <SCORE.INTRA.VDW>
-3.53925

>  <SCORE.INTRA.VDW.0>
2.0241

>  <SCORE.INTRA.norm>
-0.22391

>  <SCORE.RESTR>
0

>  <SCORE.RESTR.CAVITY>
0

>  <SCORE.RESTR.norm>
0

>  <SCORE.SYSTEM>
0

>  <SCORE.SYSTEM.CONST>
0

>  <SCORE.SYSTEM.DIHEDRAL>
0

>  <SCORE.SYSTEM.SOLV>
0

>  <SCORE.SYSTEM.norm>
0

>  <SCORE.heavy>
12

>  <SCORE.norm>
-0.578386

>  <RMSD>
1.823

$$$$
ligand
 OpenBabel11021811513D
libRbt.so/2013.1/901 2013/11/27
 12 12  0  0  0  0  0  0  0  0999 V2000
    2.4359    2.4825  -28.7826 O   0  0  0  0  0  0  0  0  0  0  0  0
    3.1530    0.7194  -33.0803 O   0  0  0  0  0  0  0  0  0  0  0  0
    2.1996    1.3001  -29.4500 C   0  0  0  0  0  0  0  0  0  0  0  0
    4.3892   -1.3638  -32.7997 O   0  0  0  0  0  0  0  0  0  0  0  0
    3.4271    0.6201  -29.8991 C   0  0  0  0  0  0  0  0  0  0  0  0
    4.7450   -0.0067  -34.7841 O   0  5  0  0  0  0  0  0  0  0  0  0
    4.3182    1.5298  -30.6315 N   0  3  0  0  0  0  0  0  0  0  0  0
    4.5509    2.7244  -29.8611 C   0  0  0  0  0  0  0  0  0  0  0  0
    3.2660    3.3530  -29.4312 C   0  0  0  0  0  0  0  0  0  0  0  0
    5.5478    0.8633  -30.9381 C   0  0  0  0  0  0  0  0  0  0  0  0
    5.7888    0.8992  -32.4685 C   0  0  0  0  0  0  0  0  0  0  0  0
    4.4580    0.0351  -33.3279 S   0  0  1  0  0  0  0  0  0  0  0  0
  1  3  1  0  0  0  0
  1  9  1  0  0  0  0
  2 12  1  0  0  0  0
  3  5  1  0  0  0  0
  4 12  2  0  0  0  0
  5  7  1  0  0  0  0
  6 12  2  0  0  0  0
  7  8  1  0  0  0  0
  7 10  1  0  0  0  0
  8  9  1  0  0  0  0
 10 11  1  0  0  0  0
 12 11  1  1  0  0  0
M  CHG  2   6  -1   7   1
M  END
>  <CHROM.1>
123.36425355,-61.38942546,62.39655224,4.04971136,0.97185466,-31.52095781
1.87958028,0.35236394,0.93906235

>  <Name>
ligand

>  <RI>
0

>  <Rbt.Current_Directory>
/home/itssahil/PROJECTS/Mol_Feturizer/New_Systems/rnas/4P95

>  <Rbt.Executable>
rbdock ($Id: //depot/dev/client3/rdock/2013.1/src/exe/rbdock.cxx#4 $)

>  <Rbt.Library>
libRbt.so (2013.1, Build901 2013/11/27)

>  <Rbt.Parameter_File>
/export/apps/rDock/src/rDock_2013.1_src/data/scripts/dock_solv.prm

>  <Rbt.Receptor>
prm/pocket_docking_2.prm

>  <SCORE>
-6.9443

>  <SCORE.INTER>
-4.26492

>  <SCORE.INTER.CONST>
1

>  <SCORE.INTER.POLAR>
0

>  <SCORE.INTER.ROT>
3

>  <SCORE.INTER.SOLV>
3.1664

>  <SCORE.INTER.VDW>
-9.49875

>  <SCORE.INTER.norm>
-0.35541

>  <SCORE.INTRA>
-2.67938

>  <SCORE.INTRA.DIHEDRAL>
2.11358

>  <SCORE.INTRA.DIHEDRAL.0>
0.283163

>  <SCORE.INTRA.POLAR>
0

>  <SCORE.INTRA.POLAR.0>
0

>  <SCORE.INTRA.REPUL>
0

>  <SCORE.INTRA.REPUL.0>
0

>  <SCORE.INTRA.SOLV>
-0.371808

>  <SCORE.INTRA.SOLV.lig_0>
-32.2894

>  <SCORE.INTRA.VDW>
-3.55027

>  <SCORE.INTRA.VDW.0>
2.0241

>  <SCORE.INTRA.norm>
-0.223282

>  <SCORE.RESTR>
0

>  <SCORE.RESTR.CAVITY>
0

>  <SCORE.RESTR.norm>
0

>  <SCORE.SYSTEM>
0

>  <SCORE.SYSTEM.CONST>
0

>  <SCORE.SYSTEM.DIHEDRAL>
0

>  <SCORE.SYSTEM.SOLV>
0

>  <SCORE.SYSTEM.norm>
0

>  <SCORE.heavy>
12

>  <SCORE.norm>
-0.578692

>  <RMSD>
1.824

$$$$
ligand
 OpenBabel11021811513D
libRbt.so/2013.1/901 2013/11/27
 12 12  0  0  0  0  0  0  0  0999 V2000
    2.4365    2.4871  -28.7837 O   0  0  0  0  0  0  0  0  0  0  0  0
    3.1427    0.7133  -33.0788 O   0  0  0  0  0  0  0  0  0  0  0  0
    2.1989    1.3046  -29.4505 C   0  0  0  0  0  0  0  0  0  0  0  0
    4.3808   -1.3679  -32.7918 O   0  0  0  0  0  0  0  0  0  0  0  0
    3.4255    0.6242  -29.9015 C   0  0  0  0  0  0  0  0  0  0  0  0
    4.7302   -0.0201  -34.7837 O   0  5  0  0  0  0  0  0  0  0  0  0
    4.3155    1.5337  -30.6355 N   0  3  0  0  0  0  0  0  0  0  0  0
    4.5497    2.7284  -29.8658 C   0  0  0  0  0  0  0  0  0  0  0  0
    3.2657    3.3573  -29.4338 C   0  0  0  0  0  0  0  0  0  0  0  0
    5.5446    0.8669  -30.9440 C   0  0  0  0  0  0  0  0  0  0  0  0
    5.7801    0.8973  -32.4755 C   0  0  0  0  0  0  0  0  0  0  0  0
    4.4473    0.0285  -33.3269 S   0  0  1  0  0  0  0  0  0  0  0  0
  1  3  1  0  0  0  0
  1  9  1  0  0  0  0
  2 12  1  0  0  0  0
  3  5  1  0  0  0  0
  4 12  2  0  0  0  0
  5  7  1  0  0  0  0
  6 12  2  0  0  0  0
  7  8  1  0  0  0  0
  7 10  1  0  0  0  0
  8  9  1  0  0  0  0
 10 11  1  0  0  0  0
 12 11  1  1  0  0  0
M  CHG  2   6  -1   7   1
M  END
>  <CHROM.1>
123.13512361,-61.41862247,62.47836327,4.04391416,0.97081985,-31.52203911
1.87714603,0.35331419,0.93706278

>  <Name>
ligand

>  <RI>
0

>  <Rbt.Current_Directory>
/home/itssahil/PROJECTS/Mol_Feturizer/New_Systems/rnas/4P95

>  <Rbt.Executable>
rbdock ($Id: //depot/dev/client3/rdock/2013.1/src/exe/rbdock.cxx#4 $)

>  <Rbt.Library>
libRbt.so (2013.1, Build901 2013/11/27)

>  <Rbt.Parameter_File>
/export/apps/rDock/src/rDock_2013.1_src/data/scripts/dock_solv.prm

>  <Rbt.Receptor>
prm/pocket_docking_2.prm

>  <SCORE>
-6.94394

>  <SCORE.INTER>
-4.26658

>  <SCORE.INTER.CONST>
1

>  <SCORE.INTER.POLAR>
0

>  <SCORE.INTER.ROT>
3

>  <SCORE.INTER.SOLV>
3.15538

>  <SCORE.INTER.VDW>
-9.49618

>  <SCORE.INTER.norm>
-0.355548

>  <SCORE.INTRA>
-2.67736

>  <SCORE.INTRA.DIHEDRAL>
2.1184

>  <SCORE.INTRA.DIHEDRAL.0>
0.283163

>  <SCORE.INTRA.POLAR>
0

>  <SCORE.INTRA.POLAR.0>
0

>  <SCORE.INTRA.REPUL>
0

>  <SCORE.INTRA.REPUL.0>
0

>  <SCORE.INTRA.SOLV>
-0.371401

>  <SCORE.INTRA.SOLV.lig_0>
-32.2894

>  <SCORE.INTRA.VDW>
-3.55086

>  <SCORE.INTRA.VDW.0>
2.0241

>  <SCORE.INTRA.norm>
-0.223113

>  <SCORE.RESTR>
0

>  <SCORE.RESTR.CAVITY>
0

>  <SCORE.RESTR.norm>
0

>  <SCORE.SYSTEM>
0

>  <SCORE.SYSTEM.CONST>
0

>  <SCORE.SYSTEM.DIHEDRAL>
0

>  <SCORE.SYSTEM.SOLV>
0

>  <SCORE.SYSTEM.norm>
0

>  <SCORE.heavy>
12

>  <SCORE.norm>
-0.578662

>  <RMSD>
1.825

$$$$
ligand
 OpenBabel11021811513D
libRbt.so/2013.1/901 2013/11/27
 12 12  0  0  0  0  0  0  0  0999 V2000
    2.4455    2.5273  -28.7853 O   0  0  0  0  0  0  0  0  0  0  0  0
    4.8142    0.1070  -34.8385 O   0  0  0  0  0  0  0  0  0  0  0  0
    2.1820    1.3324  -29.4195 C   0  0  0  0  0  0  0  0  0  0  0  0
    3.2120    0.6529  -33.0831 O   0  0  0  0  0  0  0  0  0  0  0  0
    3.3930    0.6177  -29.8593 C   0  0  0  0  0  0  0  0  0  0  0  0
    4.4911   -1.4093  -32.9514 O   0  5  0  0  0  0  0  0  0  0  0  0
    4.2953    1.4908  -30.6218 N   0  3  0  0  0  0  0  0  0  0  0  0
    4.5563    2.7006  -29.8849 C   0  0  0  0  0  0  0  0  0  0  0  0
    3.2869    3.3646  -29.4625 C   0  0  0  0  0  0  0  0  0  0  0  0
    5.5099    0.7933  -30.9194 C   0  0  0  0  0  0  0  0  0  0  0  0
    5.8038    0.8897  -32.4380 C   0  0  0  0  0  0  0  0  0  0  0  0
    4.5339    0.0135  -33.3739 S   0  0  1  0  0  0  0  0  0  0  0  0
  1  3  1  0  0  0  0
  1  9  1  0  0  0  0
  2 12  1  0  0  0  0
  3  5  1  0  0  0  0
  4 12  2  0  0  0  0
  5  7  1  0  0  0  0
  6 12  2  0  0  0  0
  7  8  1  0  0  0  0
  7 10  1  0  0  0  0
  8  9  1  0  0  0  0
 10 11  1  0  0  0  0
 12 11  1  1  0  0  0
M  CHG  2   6  -1   7   1
M  END
>  <CHROM.1>
128.23181039,-65.44187473,179.91493939,4.07683792,0.96482172,-31.54061113
1.89534440,0.37807968,0.92894159

>  <Name>
ligand

>  <RI>
0

>  <Rbt.Current_Directory>
/home/itssahil/PROJECTS/Mol_Feturizer/New_Systems/rnas/4P95

>  <Rbt.Executable>
rbdock ($Id: //depot/dev/client3/rdock/2013.1/src/exe/rbdock.cxx#4 $)

>  <Rbt.Library>
libRbt.so (2013.1, Build901 2013/11/27)

>  <Rbt.Parameter_File>
/export/apps/rDock/src/rDock_2013.1_src/data/scripts/dock_solv.prm

>  <Rbt.Receptor>
prm/pocket_docking_2.prm

>  <SCORE>
-5.40252

>  <SCORE.INTER>
-4.2323

>  <SCORE.INTER.CONST>
1

>  <SCORE.INTER.POLAR>
0

>  <SCORE.INTER.ROT>
3

>  <SCORE.INTER.SOLV>
3.13861

>  <SCORE.INTER.VDW>
-9.46773

>  <SCORE.INTER.norm>
-0.352691

>  <SCORE.INTRA>
-1.17022

>  <SCORE.INTRA.DIHEDRAL>
2.08719

>  <SCORE.INTRA.DIHEDRAL.0>
0.283163

>  <SCORE.INTRA.POLAR>
0

>  <SCORE.INTRA.POLAR.0>
0

>  <SCORE.INTRA.REPUL>
0

>  <SCORE.INTRA.REPUL.0>
0

>  <SCORE.INTRA.SOLV>
2.49879

>  <SCORE.INTRA.SOLV.lig_0>
-32.2894

>  <SCORE.INTRA.VDW>
-3.46321

>  <SCORE.INTRA.VDW.0>
2.0241

>  <SCORE.INTRA.norm>
-0.0975185

>  <SCORE.RESTR>
0

>  <SCORE.RESTR.CAVITY>
0

>  <SCORE.RESTR.norm>
0

>  <SCORE.SYSTEM>
0

>  <SCORE.SYSTEM.CONST>
0

>  <SCORE.SYSTEM.DIHEDRAL>
0

>  <SCORE.SYSTEM.SOLV>
0

>  <SCORE.SYSTEM.norm>
0

>  <SCORE.heavy>
12

>  <SCORE.norm>
-0.45021

>  <RMSD>
1.826

$$$$
ligand
 OpenBabel11021811513D
libRbt.so/2013.1/901 2013/11/27
 12 12  0  0  0  0  0  0  0  0999 V2000
    2.4554    2.5709  -28.7708 O   0  0  0  0  0  0  0  0  0  0  0  0
    3.1220    0.6919  -33.0204 O   0  0  0  0  0  0  0  0  0  0  0  0
    2.2125    1.3717  -29.4050 C   0  0  0  0  0  0  0  0  0  0  0  0
    4.3939   -1.3720  -32.7568 O   0  0  0  0  0  0  0  0  0  0  0  0
    3.4351    0.6829  -29.8540 C   0  0  0  0  0  0  0  0  0  0  0  0
    4.6907   -0.0174  -34.7527 O   0  5  0  0  0  0  0  0  0  0  0  0
    4.3139    1.5756  -30.6213 N   0  3  0  0  0  0  0  0  0  0  0  0
    4.5547    2.7895  -29.8844 C   0  0  0  0  0  0  0  0  0  0  0  0
    3.2746    3.4264  -29.4525 C   0  0  0  0  0  0  0  0  0  0  0  0
    5.5407    0.9038  -30.9282 C   0  0  0  0  0  0  0  0  0  0  0  0
    5.7664    0.9124  -32.4614 C   0  0  0  0  0  0  0  0  0  0  0  0
    4.4317    0.0258  -33.2913 S   0  0  1  0  0  0  0  0  0  0  0  0
  1  3  1  0  0  0  0
  1  9  1  0  0  0  0
  2 12  1  0  0  0  0
  3  5  1  0  0  0  0
  4 12  2  0  0  0  0
  5  7  1  0  0  0  0
  6 12  2  0  0  0  0
  7  8  1  0  0  0  0
  7 10  1  0  0  0  0
  8  9  1  0  0  0  0
 10 11  1  0  0  0  0
 12 11  1  1  0  0  0
M  CHG  2   6  -1   7   1
M  END
>  <CHROM.1>
123.84750546,-61.67755758,61.24105328,4.04029509,1.00065535,-31.49763692
1.87194340,0.36407981,0.91979016

>  <Name>
ligand

>  <RI>
0

>  <Rbt.Current_Directory>
/home/itssahil/PROJECTS/Mol_Feturizer/New_Systems/rnas/4P95

>  <Rbt.Executable>
rbdock ($Id: //depot/dev/client3/rdock/2013.1/src/exe/rbdock.cxx#4 $)

>  <Rbt.Library>
libRbt.so (2013.1, Build901 2013/11/27)

>  <Rbt.Parameter_File>
/export/apps/rDock/src/rDock_2013.1_src/data/scripts/dock_solv.prm

>  <Rbt.Receptor>
prm/pocket_docking_2.prm

>  <SCORE>
-6.90597

>  <SCORE.INTER>
-4.22466

>  <SCORE.INTER.CONST>
1

>  <SCORE.INTER.POLAR>
0

>  <SCORE.INTER.ROT>
3

>  <SCORE.INTER.SOLV>
3.17344

>  <SCORE.INTER.VDW>
-9.47426

>  <SCORE.INTER.norm>
-0.352055

>  <SCORE.INTRA>
-2.68131

>  <SCORE.INTRA.DIHEDRAL>
2.09526

>  <SCORE.INTRA.DIHEDRAL.0>
0.283163

>  <SCORE.INTRA.POLAR>
0

>  <SCORE.INTRA.POLAR.0>
0

>  <SCORE.INTRA.REPUL>
0

>  <SCORE.INTRA.REPUL.0>
0

>  <SCORE.INTRA.SOLV>
-0.384151

>  <SCORE.INTRA.SOLV.lig_0>
-32.2894

>  <SCORE.INTRA.VDW>
-3.53686

>  <SCORE.INTRA.VDW.0>
2.0241

>  <SCORE.INTRA.norm>
-0.223442

>  <SCORE.RESTR>
0

>  <SCORE.RESTR.CAVITY>
0

>  <SCORE.RESTR.norm>
0

>  <SCORE.SYSTEM>
0

>  <SCORE.SYSTEM.CONST>
0

>  <SCORE.SYSTEM.DIHEDRAL>
0

>  <SCORE.SYSTEM.SOLV>
0

>  <SCORE.SYSTEM.norm>
0

>  <SCORE.heavy>
12

>  <SCORE.norm>
-0.575497

>  <RMSD>
1.833

$$$$
ligand
 OpenBabel11021811513D
libRbt.so/2013.1/901 2013/11/27
 12 12  0  0  0  0  0  0  0  0999 V2000
    1.4994    3.4823  -28.3826 O   0  0  0  0  0  0  0  0  0  0  0  0
    5.4324   -1.6125  -31.9284 O   0  0  0  0  0  0  0  0  0  0  0  0
    0.9584    2.4442  -29.1099 C   0  0  0  0  0  0  0  0  0  0  0  0
    6.6483    0.5001  -31.9995 O   0  0  0  0  0  0  0  0  0  0  0  0
    1.9532    1.4510  -29.5512 C   0  0  0  0  0  0  0  0  0  0  0  0
    5.5062   -0.3030  -33.9886 O   0  5  0  0  0  0  0  0  0  0  0  0
    3.1008    2.0851  -30.2136 N   0  3  0  0  0  0  0  0  0  0  0  0
    3.6376    3.1324  -29.3830 C   0  0  0  0  0  0  0  0  0  0  0  0
    2.5739    4.0939  -28.9650 C   0  0  0  0  0  0  0  0  0  0  0  0
    4.0956    1.0993  -30.5118 C   0  0  0  0  0  0  0  0  0  0  0  0
    3.9724    0.6718  -31.9963 C   0  0  0  0  0  0  0  0  0  0  0  0
    5.4469   -0.2348  -32.5066 S   0  0  1  0  0  0  0  0  0  0  0  0
  1  3  1  0  0  0  0
  1  9  1  0  0  0  0
  2 12  1  0  0  0  0
  3  5  1  0  0  0  0
  4 12  2  0  0  0  0
  5  7  1  0  0  0  0
  6 12  2  0  0  0  0
  7  8  1  0  0  0  0
  7 10  1  0  0  0  0
  8  9  1  0  0  0  0
 10 11  1  0  0  0  0
 12 11  1  1  0  0  0
M  CHG  2   6  -1   7   1
M  END
>  <CHROM.1>
98.91319436,165.67214445,74.54197164,3.93648468,1.21296047,-30.91319150,2.25304050
0.38383639,0.52194737

>  <Name>
ligand

>  <RI>
0

>  <Rbt.Current_Directory>
/home/itssahil/PROJECTS/Mol_Feturizer/New_Systems/rnas/4P95

>  <Rbt.Executable>
rbdock ($Id: //depot/dev/client3/rdock/2013.1/src/exe/rbdock.cxx#4 $)

>  <Rbt.Library>
libRbt.so (2013.1, Build901 2013/11/27)

>  <Rbt.Parameter_File>
/export/apps/rDock/src/rDock_2013.1_src/data/scripts/dock_solv.prm

>  <Rbt.Receptor>
prm/pocket_docking_2.prm

>  <SCORE>
-3.71702

>  <SCORE.INTER>
-2.36979

>  <SCORE.INTER.CONST>
1

>  <SCORE.INTER.POLAR>
0

>  <SCORE.INTER.ROT>
3

>  <SCORE.INTER.SOLV>
3.21895

>  <SCORE.INTER.VDW>
-8.25284

>  <SCORE.INTER.norm>
-0.197482

>  <SCORE.INTRA>
-1.41392

>  <SCORE.INTRA.DIHEDRAL>
2.80164

>  <SCORE.INTRA.DIHEDRAL.0>
0.283163

>  <SCORE.INTRA.POLAR>
0

>  <SCORE.INTRA.POLAR.0>
0

>  <SCORE.INTRA.REPUL>
0

>  <SCORE.INTRA.REPUL.0>
0

>  <SCORE.INTRA.SOLV>
-0.655854

>  <SCORE.INTRA.SOLV.lig_0>
-32.2894

>  <SCORE.INTRA.VDW>
-2.48682

>  <SCORE.INTRA.VDW.0>
2.0241

>  <SCORE.INTRA.norm>
-0.117827

>  <SCORE.RESTR>
0.0666923

>  <SCORE.RESTR.CAVITY>
0.0666923

>  <SCORE.RESTR.norm>
0.00555769

>  <SCORE.SYSTEM>
0

>  <SCORE.SYSTEM.CONST>
0

>  <SCORE.SYSTEM.DIHEDRAL>
0

>  <SCORE.SYSTEM.SOLV>
0

>  <SCORE.SYSTEM.norm>
0

>  <SCORE.heavy>
12

>  <SCORE.norm>
-0.309752

>  <RMSD>
1.839

$$$$
ligand
 OpenBabel11021811513D
libRbt.so/2013.1/901 2013/11/27
 12 12  0  0  0  0  0  0  0  0999 V2000
    2.4354    2.4909  -28.7757 O   0  0  0  0  0  0  0  0  0  0  0  0
    3.1327    0.7606  -33.0726 O   0  0  0  0  0  0  0  0  0  0  0  0
    2.1939    1.3093  -29.4426 C   0  0  0  0  0  0  0  0  0  0  0  0
    4.3484   -1.3383  -32.8215 O   0  0  0  0  0  0  0  0  0  0  0  0
    3.4182    0.6267  -29.8966 C   0  0  0  0  0  0  0  0  0  0  0  0
    4.7072    0.0363  -34.7933 O   0  5  0  0  0  0  0  0  0  0  0  0
    4.3085    1.5347  -30.6320 N   0  3  0  0  0  0  0  0  0  0  0  0
    4.5469    2.7284  -29.8620 C   0  0  0  0  0  0  0  0  0  0  0  0
    3.2651    3.3598  -29.4270 C   0  0  0  0  0  0  0  0  0  0  0  0
    5.5356    0.8655  -30.9434 C   0  0  0  0  0  0  0  0  0  0  0  0
    5.7736    0.9061  -32.4742 C   0  0  0  0  0  0  0  0  0  0  0  0
    4.4289    0.0655  -33.3351 S   0  0  1  0  0  0  0  0  0  0  0  0
  1  3  1  0  0  0  0
  1  9  1  0  0  0  0
  2 12  1  0  0  0  0
  3  5  1  0  0  0  0
  4 12  2  0  0  0  0
  5  7  1  0  0  0  0
  6 12  2  0  0  0  0
  7  8  1  0  0  0  0
  7 10  1  0  0  0  0
  8  9  1  0  0  0  0
 10 11  1  0  0  0  0
 12 11  1  1  0  0  0
M  CHG  2   6  -1   7   1
M  END
>  <CHROM.1>
123.58184278,-60.75641480,61.97879975,4.03261917,0.98952121,-31.52337345
1.87395773,0.34934484,0.94805561

>  <Name>
ligand

>  <RI>
0

>  <Rbt.Current_Directory>
/home/itssahil/PROJECTS/Mol_Feturizer/New_Systems/rnas/4P95

>  <Rbt.Executable>
rbdock ($Id: //depot/dev/client3/rdock/2013.1/src/exe/rbdock.cxx#4 $)

>  <Rbt.Library>
libRbt.so (2013.1, Build901 2013/11/27)

>  <Rbt.Parameter_File>
/export/apps/rDock/src/rDock_2013.1_src/data/scripts/dock_solv.prm

>  <Rbt.Receptor>
prm/pocket_docking_2.prm

>  <SCORE>
-6.94485

>  <SCORE.INTER>
-4.2637

>  <SCORE.INTER.CONST>
1

>  <SCORE.INTER.POLAR>
0

>  <SCORE.INTER.ROT>
3

>  <SCORE.INTER.SOLV>
3.16025

>  <SCORE.INTER.VDW>
-9.49588

>  <SCORE.INTER.norm>
-0.355309

>  <SCORE.INTRA>
-2.68115

>  <SCORE.INTRA.DIHEDRAL>
2.09929

>  <SCORE.INTRA.DIHEDRAL.0>
0.283163

>  <SCORE.INTRA.POLAR>
0

>  <SCORE.INTRA.POLAR.0>
0

>  <SCORE.INTRA.REPUL>
0

>  <SCORE.INTRA.REPUL.0>
0

>  <SCORE.INTRA.SOLV>
-0.367233

>  <SCORE.INTRA.SOLV.lig_0>
-32.2894

>  <SCORE.INTRA.VDW>
-3.54718

>  <SCORE.INTRA.VDW.0>
2.0241

>  <SCORE.INTRA.norm>
-0.223429

>  <SCORE.RESTR>
0

>  <SCORE.RESTR.CAVITY>
0

>  <SCORE.RESTR.norm>
0

>  <SCORE.SYSTEM>
0

>  <SCORE.SYSTEM.CONST>
0

>  <SCORE.SYSTEM.DIHEDRAL>
0

>  <SCORE.SYSTEM.SOLV>
0

>  <SCORE.SYSTEM.norm>
0

>  <SCORE.heavy>
12

>  <SCORE.norm>
-0.578738

>  <RMSD>
1.839

$$$$
ligand
 OpenBabel11021811513D
libRbt.so/2013.1/901 2013/11/27
 12 12  0  0  0  0  0  0  0  0999 V2000
    2.4207    2.5235  -28.7706 O   0  0  0  0  0  0  0  0  0  0  0  0
    3.1282    0.7839  -33.0621 O   0  0  0  0  0  0  0  0  0  0  0  0
    2.1696    1.3327  -29.4173 C   0  0  0  0  0  0  0  0  0  0  0  0
    4.2997   -1.3396  -32.8073 O   0  0  0  0  0  0  0  0  0  0  0  0
    3.3883    0.6318  -29.8583 C   0  0  0  0  0  0  0  0  0  0  0  0
    4.7067    0.0360  -34.7690 O   0  5  0  0  0  0  0  0  0  0  0  0
    4.2871    1.5193  -30.6083 N   0  3  0  0  0  0  0  0  0  0  0  0
    4.5350    2.7241  -29.8588 C   0  0  0  0  0  0  0  0  0  0  0  0
    3.2584    3.3738  -29.4360 C   0  0  0  0  0  0  0  0  0  0  0  0
    5.5085    0.8343  -30.9070 C   0  0  0  0  0  0  0  0  0  0  0  0
    5.7649    0.8749  -32.4348 C   0  0  0  0  0  0  0  0  0  0  0  0
    4.4133    0.0645  -33.3138 S   0  0  1  0  0  0  0  0  0  0  0  0
  1  3  1  0  0  0  0
  1  9  1  0  0  0  0
  2 12  1  0  0  0  0
  3  5  1  0  0  0  0
  4 12  2  0  0  0  0
  5  7  1  0  0  0  0
  6 12  2  0  0  0  0
  7  8  1  0  0  0  0
  7 10  1  0  0  0  0
  8  9  1  0  0  0  0
 10 11  1  0  0  0  0
 12 11  1  1  0  0  0
M  CHG  2   6  -1   7   1
M  END
>  <CHROM.1>
124.87616614,-60.35243795,61.89470547,4.01501554,0.99096980,-31.50401803
1.87394848,0.33981984,0.94736349

>  <Name>
ligand

>  <RI>
0

>  <Rbt.Current_Directory>
/home/itssahil/PROJECTS/Mol_Feturizer/New_Systems/rnas/4P95

>  <Rbt.Executable>
rbdock ($Id: //depot/dev/client3/rdock/2013.1/src/exe/rbdock.cxx#4 $)

>  <Rbt.Library>
libRbt.so (2013.1, Build901 2013/11/27)

>  <Rbt.Parameter_File>
/export/apps/rDock/src/rDock_2013.1_src/data/scripts/dock_solv.prm

>  <Rbt.Receptor>
prm/pocket_docking_2.prm

>  <SCORE>
-6.93075

>  <SCORE.INTER>
-4.23945

>  <SCORE.INTER.CONST>
1

>  <SCORE.INTER.POLAR>
0

>  <SCORE.INTER.ROT>
3

>  <SCORE.INTER.SOLV>
3.1485

>  <SCORE.INTER.VDW>
-9.4758

>  <SCORE.INTER.norm>
-0.353287

>  <SCORE.INTRA>
-2.6913

>  <SCORE.INTRA.DIHEDRAL>
2.07409

>  <SCORE.INTRA.DIHEDRAL.0>
0.283163

>  <SCORE.INTRA.POLAR>
0

>  <SCORE.INTRA.POLAR.0>
0

>  <SCORE.INTRA.REPUL>
0

>  <SCORE.INTRA.REPUL.0>
0

>  <SCORE.INTRA.SOLV>
-0.363839

>  <SCORE.INTRA.SOLV.lig_0>
-32.2894

>  <SCORE.INTRA.VDW>
-3.54642

>  <SCORE.INTRA.VDW.0>
2.0241

>  <SCORE.INTRA.norm>
-0.224275

>  <SCORE.RESTR>
0

>  <SCORE.RESTR.CAVITY>
0

>  <SCORE.RESTR.norm>
0

>  <SCORE.SYSTEM>
0

>  <SCORE.SYSTEM.CONST>
0

>  <SCORE.SYSTEM.DIHEDRAL>
0

>  <SCORE.SYSTEM.SOLV>
0

>  <SCORE.SYSTEM.norm>
0

>  <SCORE.heavy>
12

>  <SCORE.norm>
-0.577562

>  <RMSD>
1.847

$$$$
ligand
 OpenBabel11021811513D
libRbt.so/2013.1/901 2013/11/27
 12 12  0  0  0  0  0  0  0  0999 V2000
    2.4360    2.5998  -28.7755 O   0  0  0  0  0  0  0  0  0  0  0  0
    3.1231    0.7374  -33.0289 O   0  0  0  0  0  0  0  0  0  0  0  0
    2.1929    1.4001  -29.4086 C   0  0  0  0  0  0  0  0  0  0  0  0
    4.3624   -1.3425  -32.7380 O   0  0  0  0  0  0  0  0  0  0  0  0
    3.4158    0.7062  -29.8489 C   0  0  0  0  0  0  0  0  0  0  0  0
    4.7000   -0.0058  -34.7394 O   0  5  0  0  0  0  0  0  0  0  0  0
    4.3021    1.5944  -30.6128 N   0  3  0  0  0  0  0  0  0  0  0  0
    4.5425    2.8091  -29.8771 C   0  0  0  0  0  0  0  0  0  0  0  0
    3.2620    3.4511  -29.4542 C   0  0  0  0  0  0  0  0  0  0  0  0
    5.5285    0.9179  -30.9110 C   0  0  0  0  0  0  0  0  0  0  0  0
    5.7642    0.9240  -32.4427 C   0  0  0  0  0  0  0  0  0  0  0  0
    4.4260    0.0509  -33.2812 S   0  0  1  0  0  0  0  0  0  0  0  0
  1  3  1  0  0  0  0
  1  9  1  0  0  0  0
  2 12  1  0  0  0  0
  3  5  1  0  0  0  0
  4 12  2  0  0  0  0
  5  7  1  0  0  0  0
  6 12  2  0  0  0  0
  7  8  1  0  0  0  0
  7 10  1  0  0  0  0
  8  9  1  0  0  0  0
 10 11  1  0  0  0  0
 12 11  1  1  0  0  0
M  CHG  2   6  -1   7   1
M  END
>  <CHROM.1>
123.92014143,-61.29541853,61.75072921,4.02953611,1.02447669,-31.49068132
1.87396087,0.35573062,0.92032349

>  <Name>
ligand

>  <RI>
0

>  <Rbt.Current_Directory>
/home/itssahil/PROJECTS/Mol_Feturizer/New_Systems/rnas/4P95

>  <Rbt.Executable>
rbdock ($Id: //depot/dev/client3/rdock/2013.1/src/exe/rbdock.cxx#4 $)

>  <Rbt.Library>
libRbt.so (2013.1, Build901 2013/11/27)

>  <Rbt.Parameter_File>
/export/apps/rDock/src/rDock_2013.1_src/data/scripts/dock_solv.prm

>  <Rbt.Receptor>
prm/pocket_docking_2.prm

>  <SCORE>
-6.89132

>  <SCORE.INTER>
-4.20737

>  <SCORE.INTER.CONST>
1

>  <SCORE.INTER.POLAR>
0

>  <SCORE.INTER.ROT>
3

>  <SCORE.INTER.SOLV>
3.14905

>  <SCORE.INTER.VDW>
-9.4546

>  <SCORE.INTER.norm>
-0.350614

>  <SCORE.INTRA>
-2.68395

>  <SCORE.INTRA.DIHEDRAL>
2.09526

>  <SCORE.INTRA.DIHEDRAL.0>
0.283163

>  <SCORE.INTRA.POLAR>
0

>  <SCORE.INTRA.POLAR.0>
0

>  <SCORE.INTRA.REPUL>
0

>  <SCORE.INTRA.REPUL.0>
0

>  <SCORE.INTRA.SOLV>
-0.375826

>  <SCORE.INTRA.SOLV.lig_0>
-32.2894

>  <SCORE.INTRA.VDW>
-3.54367

>  <SCORE.INTRA.VDW.0>
2.0241

>  <SCORE.INTRA.norm>
-0.223663

>  <SCORE.RESTR>
0

>  <SCORE.RESTR.CAVITY>
0

>  <SCORE.RESTR.norm>
0

>  <SCORE.SYSTEM>
0

>  <SCORE.SYSTEM.CONST>
0

>  <SCORE.SYSTEM.DIHEDRAL>
0

>  <SCORE.SYSTEM.SOLV>
0

>  <SCORE.SYSTEM.norm>
0

>  <SCORE.heavy>
12

>  <SCORE.norm>
-0.574277

>  <RMSD>
1.849

$$$$
ligand
 OpenBabel11021811513D
libRbt.so/2013.1/901 2013/11/27
 12 12  0  0  0  0  0  0  0  0999 V2000
    3.1604    3.8820  -29.3018 O   0  0  0  0  0  0  0  0  0  0  0  0
    6.4037    0.4153  -31.9805 O   0  0  0  0  0  0  0  0  0  0  0  0
    2.1219    2.9768  -29.3367 C   0  0  0  0  0  0  0  0  0  0  0  0
    4.3485    1.2581  -32.9868 O   0  0  0  0  0  0  0  0  0  0  0  0
    2.5589    1.5728  -29.2429 C   0  0  0  0  0  0  0  0  0  0  0  0
    5.2915   -0.8476  -33.7505 O   0  5  0  0  0  0  0  0  0  0  0  0
    3.6250    1.2677  -30.2064 N   0  3  0  0  0  0  0  0  0  0  0  0
    4.6912    2.2290  -30.0887 C   0  0  0  0  0  0  0  0  0  0  0  0
    4.1750    3.6275  -30.1813 C   0  0  0  0  0  0  0  0  0  0  0  0
    4.1037   -0.0653  -29.9955 C   0  0  0  0  0  0  0  0  0  0  0  0
    4.0874   -0.8399  -31.3376 C   0  0  0  0  0  0  0  0  0  0  0  0
    5.0860    0.0250  -32.5668 S   0  0  1  0  0  0  0  0  0  0  0  0
  1  3  1  0  0  0  0
  1  9  1  0  0  0  0
  2 12  1  0  0  0  0
  3  5  1  0  0  0  0
  4 12  2  0  0  0  0
  5  7  1  0  0  0  0
  6 12  2  0  0  0  0
  7  8  1  0  0  0  0
  7 10  1  0  0  0  0
  8  9  1  0  0  0  0
 10 11  1  0  0  0  0
 12 11  1  1  0  0  0
M  CHG  2   6  -1   7   1
M  END
>  <CHROM.1>
128.40695023,57.40370498,47.15880044,4.25280511,1.16950810,-31.11238808,-2.29229363
-0.87834120,-2.93380484

>  <Name>
ligand

>  <RI>
0

>  <Rbt.Current_Directory>
/home/itssahil/PROJECTS/Mol_Feturizer/New_Systems/rnas/4P95

>  <Rbt.Executable>
rbdock ($Id: //depot/dev/client3/rdock/2013.1/src/exe/rbdock.cxx#4 $)

>  <Rbt.Library>
libRbt.so (2013.1, Build901 2013/11/27)

>  <Rbt.Parameter_File>
/export/apps/rDock/src/rDock_2013.1_src/data/scripts/dock_solv.prm

>  <Rbt.Receptor>
prm/pocket_docking_2.prm

>  <SCORE>
-6.98374

>  <SCORE.INTER>
-4.7802

>  <SCORE.INTER.CONST>
1

>  <SCORE.INTER.POLAR>
0

>  <SCORE.INTER.ROT>
3

>  <SCORE.INTER.SOLV>
3.4191

>  <SCORE.INTER.VDW>
-9.9265

>  <SCORE.INTER.norm>
-0.39835

>  <SCORE.INTRA>
-2.20355

>  <SCORE.INTRA.DIHEDRAL>
2.34741

>  <SCORE.INTRA.DIHEDRAL.0>
0.283163

>  <SCORE.INTRA.POLAR>
0

>  <SCORE.INTRA.POLAR.0>
0

>  <SCORE.INTRA.REPUL>
0

>  <SCORE.INTRA.REPUL.0>
0

>  <SCORE.INTRA.SOLV>
0.0709551

>  <SCORE.INTRA.SOLV.lig_0>
-32.2894

>  <SCORE.INTRA.VDW>
-3.41273

>  <SCORE.INTRA.VDW.0>
2.0241

>  <SCORE.INTRA.norm>
-0.183629

>  <SCORE.RESTR>
0

>  <SCORE.RESTR.CAVITY>
0

>  <SCORE.RESTR.norm>
0

>  <SCORE.SYSTEM>
0

>  <SCORE.SYSTEM.CONST>
0

>  <SCORE.SYSTEM.DIHEDRAL>
0

>  <SCORE.SYSTEM.SOLV>
0

>  <SCORE.SYSTEM.norm>
0

>  <SCORE.heavy>
12

>  <SCORE.norm>
-0.581979

>  <RMSD>
1.892

$$$$
ligand
 OpenBabel11021811513D
libRbt.so/2013.1/901 2013/11/27
 12 12  0  0  0  0  0  0  0  0999 V2000
    3.2343    3.8782  -29.4700 O   0  0  0  0  0  0  0  0  0  0  0  0
    3.7639    0.7333  -33.0052 O   0  0  0  0  0  0  0  0  0  0  0  0
    2.1949    2.9736  -29.4967 C   0  0  0  0  0  0  0  0  0  0  0  0
    3.4116   -1.5972  -33.6307 O   0  0  0  0  0  0  0  0  0  0  0  0
    2.6261    1.5738  -29.3374 C   0  0  0  0  0  0  0  0  0  0  0  0
    5.5779   -0.8875  -32.7881 O   0  5  0  0  0  0  0  0  0  0  0  0
    3.7160    1.2301  -30.2603 N   0  3  0  0  0  0  0  0  0  0  0  0
    4.7810    2.1939  -30.1524 C   0  0  0  0  0  0  0  0  0  0  0  0
    4.2706    3.5884  -30.3124 C   0  0  0  0  0  0  0  0  0  0  0  0
    4.1860   -0.0943  -29.9857 C   0  0  0  0  0  0  0  0  0  0  0  0
    3.5662   -1.0853  -31.0032 C   0  0  0  0  0  0  0  0  0  0  0  0
    4.1117   -0.6819  -32.6753 S   0  0  1  0  0  0  0  0  0  0  0  0
  1  3  1  0  0  0  0
  1  9  1  0  0  0  0
  2 12  1  0  0  0  0
  3  5  1  0  0  0  0
  4 12  2  0  0  0  0
  5  7  1  0  0  0  0
  6 12  2  0  0  0  0
  7  8  1  0  0  0  0
  7 10  1  0  0  0  0
  8  9  1  0  0  0  0
 10 11  1  0  0  0  0
 12 11  1  1  0  0  0
M  CHG  2   6  -1   7   1
M  END
>  <CHROM.1>
99.87120689,63.08959878,-56.45214572,3.82539550,0.81216682,-31.21381664,-1.86754118
-0.97041134,-2.70888114

>  <Name>
ligand

>  <RI>
0

>  <Rbt.Current_Directory>
/home/itssahil/PROJECTS/Mol_Feturizer/New_Systems/rnas/4P95

>  <Rbt.Executable>
rbdock ($Id: //depot/dev/client3/rdock/2013.1/src/exe/rbdock.cxx#4 $)

>  <Rbt.Library>
libRbt.so (2013.1, Build901 2013/11/27)

>  <Rbt.Parameter_File>
/export/apps/rDock/src/rDock_2013.1_src/data/scripts/dock_solv.prm

>  <Rbt.Receptor>
prm/pocket_docking_2.prm

>  <SCORE>
-6.05197

>  <SCORE.INTER>
-4.10857

>  <SCORE.INTER.CONST>
1

>  <SCORE.INTER.POLAR>
0

>  <SCORE.INTER.ROT>
3

>  <SCORE.INTER.SOLV>
3.6884

>  <SCORE.INTER.VDW>
-9.56852

>  <SCORE.INTER.norm>
-0.342381

>  <SCORE.INTRA>
-1.94339

>  <SCORE.INTRA.DIHEDRAL>
1.64971

>  <SCORE.INTRA.DIHEDRAL.0>
0.283163

>  <SCORE.INTRA.POLAR>
0

>  <SCORE.INTRA.POLAR.0>
0

>  <SCORE.INTRA.REPUL>
0

>  <SCORE.INTRA.REPUL.0>
0

>  <SCORE.INTRA.SOLV>
1.1195

>  <SCORE.INTRA.SOLV.lig_0>
-32.2894

>  <SCORE.INTRA.VDW>
-3.328

>  <SCORE.INTRA.VDW.0>
2.0241

>  <SCORE.INTRA.norm>
-0.161949

>  <SCORE.RESTR>
0

>  <SCORE.RESTR.CAVITY>
0

>  <SCORE.RESTR.norm>
0

>  <SCORE.SYSTEM>
0

>  <SCORE.SYSTEM.CONST>
0

>  <SCORE.SYSTEM.DIHEDRAL>
0

>  <SCORE.SYSTEM.SOLV>
0

>  <SCORE.SYSTEM.norm>
0

>  <SCORE.heavy>
12

>  <SCORE.norm>
-0.504331

>  <RMSD>
1.895

$$$$
ligand
 OpenBabel11021811513D
libRbt.so/2013.1/901 2013/11/27
 12 12  0  0  0  0  0  0  0  0999 V2000
    3.3016    3.9036  -29.5245 O   0  0  0  0  0  0  0  0  0  0  0  0
    3.7057    0.6902  -33.0591 O   0  0  0  0  0  0  0  0  0  0  0  0
    2.2585    3.0033  -29.5512 C   0  0  0  0  0  0  0  0  0  0  0  0
    3.4420   -1.6697  -33.6141 O   0  0  0  0  0  0  0  0  0  0  0  0
    2.6829    1.6026  -29.3812 C   0  0  0  0  0  0  0  0  0  0  0  0
    5.5837   -0.8509  -32.8083 O   0  5  0  0  0  0  0  0  0  0  0  0
    3.7761    1.2488  -30.2964 N   0  3  0  0  0  0  0  0  0  0  0  0
    4.8446    2.2086  -30.1887 C   0  0  0  0  0  0  0  0  0  0  0  0
    4.3411    3.6043  -30.3597 C   0  0  0  0  0  0  0  0  0  0  0  0
    4.2390   -0.0759  -30.0114 C   0  0  0  0  0  0  0  0  0  0  0  0
    3.5924   -1.0753  -31.0038 C   0  0  0  0  0  0  0  0  0  0  0  0
    4.1112   -0.6999  -32.6908 S   0  0  1  0  0  0  0  0  0  0  0  0
  1  3  1  0  0  0  0
  1  9  1  0  0  0  0
  2 12  1  0  0  0  0
  3  5  1  0  0  0  0
  4 12  2  0  0  0  0
  5  7  1  0  0  0  0
  6 12  2  0  0  0  0
  7  8  1  0  0  0  0
  7 10  1  0  0  0  0
  8  9  1  0  0  0  0
 10 11  1  0  0  0  0
 12 11  1  1  0  0  0
M  CHG  2   6  -1   7   1
M  END
>  <CHROM.1>
98.45390145,63.06551524,-59.42537349,3.85749346,0.81460707,-31.24323595,-1.83696794
-0.96251651,-2.69350430

>  <Name>
ligand

>  <RI>
0

>  <Rbt.Current_Directory>
/home/itssahil/PROJECTS/Mol_Feturizer/New_Systems/rnas/4P95

>  <Rbt.Executable>
rbdock ($Id: //depot/dev/client3/rdock/2013.1/src/exe/rbdock.cxx#4 $)

>  <Rbt.Library>
libRbt.so (2013.1, Build901 2013/11/27)

>  <Rbt.Parameter_File>
/export/apps/rDock/src/rDock_2013.1_src/data/scripts/dock_solv.prm

>  <Rbt.Receptor>
prm/pocket_docking_2.prm

>  <SCORE>
-6.06664

>  <SCORE.INTER>
-4.10147

>  <SCORE.INTER.CONST>
1

>  <SCORE.INTER.POLAR>
0

>  <SCORE.INTER.ROT>
3

>  <SCORE.INTER.SOLV>
3.63086

>  <SCORE.INTER.VDW>
-9.5446

>  <SCORE.INTER.norm>
-0.341789

>  <SCORE.INTRA>
-1.96517

>  <SCORE.INTRA.DIHEDRAL>
1.53271

>  <SCORE.INTRA.DIHEDRAL.0>
0.283163

>  <SCORE.INTRA.POLAR>
0

>  <SCORE.INTRA.POLAR.0>
0

>  <SCORE.INTRA.REPUL>
0

>  <SCORE.INTRA.REPUL.0>
0

>  <SCORE.INTRA.SOLV>
1.23046

>  <SCORE.INTRA.SOLV.lig_0>
-32.2894

>  <SCORE.INTRA.VDW>
-3.34676

>  <SCORE.INTRA.VDW.0>
2.0241

>  <SCORE.INTRA.norm>
-0.163764

>  <SCORE.RESTR>
0

>  <SCORE.RESTR.CAVITY>
0

>  <SCORE.RESTR.norm>
0

>  <SCORE.SYSTEM>
0

>  <SCORE.SYSTEM.CONST>
0

>  <SCORE.SYSTEM.DIHEDRAL>
0

>  <SCORE.SYSTEM.SOLV>
0

>  <SCORE.SYSTEM.norm>
0

>  <SCORE.heavy>
12

>  <SCORE.norm>
-0.505553

>  <RMSD>
1.895

$$$$
ligand
 OpenBabel11021811513D
libRbt.so/2013.1/901 2013/11/27
 12 12  0  0  0  0  0  0  0  0999 V2000
    2.4466    2.5507  -28.7362 O   0  0  0  0  0  0  0  0  0  0  0  0
    3.0848    0.9204  -33.0862 O   0  0  0  0  0  0  0  0  0  0  0  0
    2.1798    1.3666  -29.3888 C   0  0  0  0  0  0  0  0  0  0  0  0
    4.1721   -1.2439  -32.8036 O   0  0  0  0  0  0  0  0  0  0  0  0
    3.3881    0.6637  -29.8545 C   0  0  0  0  0  0  0  0  0  0  0  0
    4.6281    0.0865  -34.7856 O   0  5  0  0  0  0  0  0  0  0  0  0
    4.2794    1.5532  -30.6110 N   0  3  0  0  0  0  0  0  0  0  0  0
    4.5447    2.7505  -29.8554 C   0  0  0  0  0  0  0  0  0  0  0  0
    3.2780    3.4027  -29.4075 C   0  0  0  0  0  0  0  0  0  0  0  0
    5.4927    0.8651  -30.9343 C   0  0  0  0  0  0  0  0  0  0  0  0
    5.7247    0.9159  -32.4658 C   0  0  0  0  0  0  0  0  0  0  0  0
    4.3398    0.1472  -33.3303 S   0  0  1  0  0  0  0  0  0  0  0  0
  1  3  1  0  0  0  0
  1  9  1  0  0  0  0
  2 12  1  0  0  0  0
  3  5  1  0  0  0  0
  4 12  2  0  0  0  0
  5  7  1  0  0  0  0
  6 12  2  0  0  0  0
  7  8  1  0  0  0  0
  7 10  1  0  0  0  0
  8  9  1  0  0  0  0
 10 11  1  0  0  0  0
 12 11  1  1  0  0  0
M  CHG  2   6  -1   7   1
M  END
>  <CHROM.1>
124.81504291,-59.23477391,63.76371981,3.98272390,1.04652562,-31.50673958
1.85411297,0.33808060,0.96960548

>  <Name>
ligand

>  <RI>
0

>  <Rbt.Current_Directory>
/home/itssahil/PROJECTS/Mol_Feturizer/New_Systems/rnas/4P95

>  <Rbt.Executable>
rbdock ($Id: //depot/dev/client3/rdock/2013.1/src/exe/rbdock.cxx#4 $)

>  <Rbt.Library>
libRbt.so (2013.1, Build901 2013/11/27)

>  <Rbt.Parameter_File>
/export/apps/rDock/src/rDock_2013.1_src/data/scripts/dock_solv.prm

>  <Rbt.Receptor>
prm/pocket_docking_2.prm

>  <SCORE>
-6.9198

>  <SCORE.INTER>
-4.24072

>  <SCORE.INTER.CONST>
1

>  <SCORE.INTER.POLAR>
0

>  <SCORE.INTER.ROT>
3

>  <SCORE.INTER.SOLV>
3.18641

>  <SCORE.INTER.VDW>
-9.48928

>  <SCORE.INTER.norm>
-0.353393

>  <SCORE.INTRA>
-2.67908

>  <SCORE.INTRA.DIHEDRAL>
2.10923

>  <SCORE.INTRA.DIHEDRAL.0>
0.283163

>  <SCORE.INTRA.POLAR>
0

>  <SCORE.INTRA.POLAR.0>
0

>  <SCORE.INTRA.REPUL>
0

>  <SCORE.INTRA.REPUL.0>
0

>  <SCORE.INTRA.SOLV>
-0.335109

>  <SCORE.INTRA.SOLV.lig_0>
-32.2894

>  <SCORE.INTRA.VDW>
-3.56615

>  <SCORE.INTRA.VDW.0>
2.0241

>  <SCORE.INTRA.norm>
-0.223257

>  <SCORE.RESTR>
0

>  <SCORE.RESTR.CAVITY>
0

>  <SCORE.RESTR.norm>
0

>  <SCORE.SYSTEM>
0

>  <SCORE.SYSTEM.CONST>
0

>  <SCORE.SYSTEM.DIHEDRAL>
0

>  <SCORE.SYSTEM.SOLV>
0

>  <SCORE.SYSTEM.norm>
0

>  <SCORE.heavy>
12

>  <SCORE.norm>
-0.57665

>  <RMSD>
1.899

$$$$
ligand
 OpenBabel11021811513D
libRbt.so/2013.1/901 2013/11/27
 12 12  0  0  0  0  0  0  0  0999 V2000
    3.2635    3.9412  -29.3594 O   0  0  0  0  0  0  0  0  0  0  0  0
    6.0844   -0.1228  -32.0217 O   0  0  0  0  0  0  0  0  0  0  0  0
    2.1442    3.1372  -29.3761 C   0  0  0  0  0  0  0  0  0  0  0  0
    4.1385    1.0099  -32.9581 O   0  0  0  0  0  0  0  0  0  0  0  0
    2.4454    1.7025  -29.2283 C   0  0  0  0  0  0  0  0  0  0  0  0
    4.6710   -1.2550  -33.6603 O   0  5  0  0  0  0  0  0  0  0  0  0
    3.4868    1.2640  -30.1669 N   0  3  0  0  0  0  0  0  0  0  0  0
    4.6381    2.1241  -30.0690 C   0  0  0  0  0  0  0  0  0  0  0  0
    4.2576    3.5608  -30.2165 C   0  0  0  0  0  0  0  0  0  0  0  0
    3.8351   -0.0997  -29.9039 C   0  0  0  0  0  0  0  0  0  0  0  0
    3.6368   -0.9421  -31.1896 C   0  0  0  0  0  0  0  0  0  0  0  0
    4.6865   -0.3107  -32.5146 S   0  0  1  0  0  0  0  0  0  0  0  0
  1  3  1  0  0  0  0
  1  9  1  0  0  0  0
  2 12  1  0  0  0  0
  3  5  1  0  0  0  0
  4 12  2  0  0  0  0
  5  7  1  0  0  0  0
  6 12  2  0  0  0  0
  7  8  1  0  0  0  0
  7 10  1  0  0  0  0
  8  9  1  0  0  0  0
 10 11  1  0  0  0  0
 12 11  1  1  0  0  0
M  CHG  2   6  -1   7   1
M  END
>  <CHROM.1>
123.41376964,60.04315141,48.73620554,4.03425866,1.01906316,-31.08486709,-2.09305857
-0.86251215,-2.82837965

>  <Name>
ligand

>  <RI>
0

>  <Rbt.Current_Directory>
/home/itssahil/PROJECTS/Mol_Feturizer/New_Systems/rnas/4P95

>  <Rbt.Executable>
rbdock ($Id: //depot/dev/client3/rdock/2013.1/src/exe/rbdock.cxx#4 $)

>  <Rbt.Library>
libRbt.so (2013.1, Build901 2013/11/27)

>  <Rbt.Parameter_File>
/export/apps/rDock/src/rDock_2013.1_src/data/scripts/dock_solv.prm

>  <Rbt.Receptor>
prm/pocket_docking_2.prm

>  <SCORE>
-6.78056

>  <SCORE.INTER>
-4.44318

>  <SCORE.INTER.CONST>
1

>  <SCORE.INTER.POLAR>
0

>  <SCORE.INTER.ROT>
3

>  <SCORE.INTER.SOLV>
3.62882

>  <SCORE.INTER.VDW>
-9.77173

>  <SCORE.INTER.norm>
-0.370265

>  <SCORE.INTRA>
-2.33738

>  <SCORE.INTRA.DIHEDRAL>
2.35103

>  <SCORE.INTRA.DIHEDRAL.0>
0.283163

>  <SCORE.INTRA.POLAR>
0

>  <SCORE.INTRA.POLAR.0>
0

>  <SCORE.INTRA.REPUL>
0

>  <SCORE.INTRA.REPUL.0>
0

>  <SCORE.INTRA.SOLV>
0.0620833

>  <SCORE.INTRA.SOLV.lig_0>
-32.2894

>  <SCORE.INTRA.VDW>
-3.54394

>  <SCORE.INTRA.VDW.0>
2.0241

>  <SCORE.INTRA.norm>
-0.194782

>  <SCORE.RESTR>
0

>  <SCORE.RESTR.CAVITY>
0

>  <SCORE.RESTR.norm>
0

>  <SCORE.SYSTEM>
0

>  <SCORE.SYSTEM.CONST>
0

>  <SCORE.SYSTEM.DIHEDRAL>
0

>  <SCORE.SYSTEM.SOLV>
0

>  <SCORE.SYSTEM.norm>
0

>  <SCORE.heavy>
12

>  <SCORE.norm>
-0.565047

>  <RMSD>
1.908

$$$$
ligand
 OpenBabel11021811513D
libRbt.so/2013.1/901 2013/11/27
 12 12  0  0  0  0  0  0  0  0999 V2000
    3.1798    3.9391  -29.3315 O   0  0  0  0  0  0  0  0  0  0  0  0
    6.0965   -0.0815  -31.9049 O   0  0  0  0  0  0  0  0  0  0  0  0
    2.0619    3.1342  -29.3734 C   0  0  0  0  0  0  0  0  0  0  0  0
    4.1876    1.0290  -32.9392 O   0  0  0  0  0  0  0  0  0  0  0  0
    2.3620    1.6989  -29.2297 C   0  0  0  0  0  0  0  0  0  0  0  0
    4.7785   -1.2310  -33.6097 O   0  5  0  0  0  0  0  0  0  0  0  0
    3.4205    1.2676  -30.1526 N   0  3  0  0  0  0  0  0  0  0  0  0
    4.5688    2.1282  -30.0285 C   0  0  0  0  0  0  0  0  0  0  0  0
    4.1894    3.5655  -30.1733 C   0  0  0  0  0  0  0  0  0  0  0  0
    3.7655   -0.0975  -29.8924 C   0  0  0  0  0  0  0  0  0  0  0  0
    3.6194   -0.9258  -31.1941 C   0  0  0  0  0  0  0  0  0  0  0  0
    4.7269   -0.2850  -32.4665 S   0  0  1  0  0  0  0  0  0  0  0  0
  1  3  1  0  0  0  0
  1  9  1  0  0  0  0
  2 12  1  0  0  0  0
  3  5  1  0  0  0  0
  4 12  2  0  0  0  0
  5  7  1  0  0  0  0
  6 12  2  0  0  0  0
  7  8  1  0  0  0  0
  7 10  1  0  0  0  0
  8  9  1  0  0  0  0
 10 11  1  0  0  0  0
 12 11  1  1  0  0  0
M  CHG  2   6  -1   7   1
M  END
>  <CHROM.1>
124.57907433,60.63200156,47.58384425,4.01499243,1.03184041,-31.05163966,-2.11886706
-0.83268680,-2.84073201

>  <Name>
ligand

>  <RI>
0

>  <Rbt.Current_Directory>
/home/itssahil/PROJECTS/Mol_Feturizer/New_Systems/rnas/4P95

>  <Rbt.Executable>
rbdock ($Id: //depot/dev/client3/rdock/2013.1/src/exe/rbdock.cxx#4 $)

>  <Rbt.Library>
libRbt.so (2013.1, Build901 2013/11/27)

>  <Rbt.Parameter_File>
/export/apps/rDock/src/rDock_2013.1_src/data/scripts/dock_solv.prm

>  <Rbt.Receptor>
prm/pocket_docking_2.prm

>  <SCORE>
-6.7854

>  <SCORE.INTER>
-4.46877

>  <SCORE.INTER.CONST>
1

>  <SCORE.INTER.POLAR>
0

>  <SCORE.INTER.ROT>
3

>  <SCORE.INTER.SOLV>
3.57504

>  <SCORE.INTER.VDW>
-9.77086

>  <SCORE.INTER.norm>
-0.372398

>  <SCORE.INTRA>
-2.31663

>  <SCORE.INTRA.DIHEDRAL>
2.39304

>  <SCORE.INTRA.DIHEDRAL.0>
0.283163

>  <SCORE.INTRA.POLAR>
0

>  <SCORE.INTRA.POLAR.0>
0

>  <SCORE.INTRA.REPUL>
0

>  <SCORE.INTRA.REPUL.0>
0

>  <SCORE.INTRA.SOLV>
0.0374898

>  <SCORE.INTRA.SOLV.lig_0>
-32.2894

>  <SCORE.INTRA.VDW>
-3.5319

>  <SCORE.INTRA.VDW.0>
2.0241

>  <SCORE.INTRA.norm>
-0.193053

>  <SCORE.RESTR>
0

>  <SCORE.RESTR.CAVITY>
0

>  <SCORE.RESTR.norm>
0

>  <SCORE.SYSTEM>
0

>  <SCORE.SYSTEM.CONST>
0

>  <SCORE.SYSTEM.DIHEDRAL>
0

>  <SCORE.SYSTEM.SOLV>
0

>  <SCORE.SYSTEM.norm>
0

>  <SCORE.heavy>
12

>  <SCORE.norm>
-0.56545

>  <RMSD>
1.916

$$$$
ligand
 OpenBabel11021811513D
libRbt.so/2013.1/901 2013/11/27
 12 12  0  0  0  0  0  0  0  0999 V2000
    3.3016    3.9768  -29.3588 O   0  0  0  0  0  0  0  0  0  0  0  0
    6.0896   -0.1082  -31.7850 O   0  0  0  0  0  0  0  0  0  0  0  0
    2.1498    3.2201  -29.3639 C   0  0  0  0  0  0  0  0  0  0  0  0
    4.2340    0.9960  -32.9181 O   0  0  0  0  0  0  0  0  0  0  0  0
    2.3913    1.7759  -29.2001 C   0  0  0  0  0  0  0  0  0  0  0  0
    4.8335   -1.2810  -33.5202 O   0  5  0  0  0  0  0  0  0  0  0  0
    3.4112    1.2836  -30.1358 N   0  3  0  0  0  0  0  0  0  0  0  0
    4.5975    2.0960  -30.0503 C   0  0  0  0  0  0  0  0  0  0  0  0
    4.2768    3.5456  -30.2136 C   0  0  0  0  0  0  0  0  0  0  0  0
    3.7030   -0.0904  -29.8578 C   0  0  0  0  0  0  0  0  0  0  0  0
    3.5787   -0.9202  -31.1607 C   0  0  0  0  0  0  0  0  0  0  0  0
    4.7427   -0.3125  -32.3985 S   0  0  1  0  0  0  0  0  0  0  0  0
  1  3  1  0  0  0  0
  1  9  1  0  0  0  0
  2 12  1  0  0  0  0
  3  5  1  0  0  0  0
  4 12  2  0  0  0  0
  5  7  1  0  0  0  0
  6 12  2  0  0  0  0
  7  8  1  0  0  0  0
  7 10  1  0  0  0  0
  8  9  1  0  0  0  0
 10 11  1  0  0  0  0
 12 11  1  1  0  0  0
M  CHG  2   6  -1   7   1
M  END
>  <CHROM.1>
127.99984352,60.17709568,46.16876202,4.04412842,1.03144055,-31.01918911,-2.09307515
-0.81699643,-2.83576845

>  <Name>
ligand

>  <RI>
0

>  <Rbt.Current_Directory>
/home/itssahil/PROJECTS/Mol_Feturizer/New_Systems/rnas/4P95

>  <Rbt.Executable>
rbdock ($Id: //depot/dev/client3/rdock/2013.1/src/exe/rbdock.cxx#4 $)

>  <Rbt.Library>
libRbt.so (2013.1, Build901 2013/11/27)

>  <Rbt.Parameter_File>
/export/apps/rDock/src/rDock_2013.1_src/data/scripts/dock_solv.prm

>  <Rbt.Receptor>
prm/pocket_docking_2.prm

>  <SCORE>
-6.82048

>  <SCORE.INTER>
-4.57555

>  <SCORE.INTER.CONST>
1

>  <SCORE.INTER.POLAR>
0

>  <SCORE.INTER.ROT>
3

>  <SCORE.INTER.SOLV>
3.67237

>  <SCORE.INTER.VDW>
-9.87449

>  <SCORE.INTER.norm>
-0.381296

>  <SCORE.INTRA>
-2.24493

>  <SCORE.INTRA.DIHEDRAL>
2.39138

>  <SCORE.INTRA.DIHEDRAL.0>
0.283163

>  <SCORE.INTRA.POLAR>
0

>  <SCORE.INTRA.POLAR.0>
0

>  <SCORE.INTRA.REPUL>
0

>  <SCORE.INTRA.REPUL.0>
0

>  <SCORE.INTRA.SOLV>
0.02443

>  <SCORE.INTRA.SOLV.lig_0>
-32.2894

>  <SCORE.INTRA.VDW>
-3.45284

>  <SCORE.INTRA.VDW.0>
2.0241

>  <SCORE.INTRA.norm>
-0.187077

>  <SCORE.RESTR>
0

>  <SCORE.RESTR.CAVITY>
0

>  <SCORE.RESTR.norm>
0

>  <SCORE.SYSTEM>
0

>  <SCORE.SYSTEM.CONST>
0

>  <SCORE.SYSTEM.DIHEDRAL>
0

>  <SCORE.SYSTEM.SOLV>
0

>  <SCORE.SYSTEM.norm>
0

>  <SCORE.heavy>
12

>  <SCORE.norm>
-0.568374

>  <RMSD>
1.941

$$$$
ligand
 OpenBabel11021811513D
libRbt.so/2013.1/901 2013/11/27
 12 12  0  0  0  0  0  0  0  0999 V2000
    3.3042    3.9809  -29.3581 O   0  0  0  0  0  0  0  0  0  0  0  0
    6.0994   -0.1440  -31.7570 O   0  0  0  0  0  0  0  0  0  0  0  0
    2.1495    3.2285  -29.3643 C   0  0  0  0  0  0  0  0  0  0  0  0
    4.2702    0.9942  -32.8993 O   0  0  0  0  0  0  0  0  0  0  0  0
    2.3853    1.7836  -29.1984 C   0  0  0  0  0  0  0  0  0  0  0  0
    4.8378   -1.2896  -33.5065 O   0  5  0  0  0  0  0  0  0  0  0  0
    3.4049    1.2864  -30.1318 N   0  3  0  0  0  0  0  0  0  0  0  0
    4.5941    2.0944  -30.0451 C   0  0  0  0  0  0  0  0  0  0  0  0
    4.2792    3.5450  -30.2107 C   0  0  0  0  0  0  0  0  0  0  0  0
    3.6910   -0.0884  -29.8517 C   0  0  0  0  0  0  0  0  0  0  0  0
    3.5711   -0.9184  -31.1549 C   0  0  0  0  0  0  0  0  0  0  0  0
    4.7540   -0.3243  -32.3814 S   0  0  1  0  0  0  0  0  0  0  0  0
  1  3  1  0  0  0  0
  1  9  1  0  0  0  0
  2 12  1  0  0  0  0
  3  5  1  0  0  0  0
  4 12  2  0  0  0  0
  5  7  1  0  0  0  0
  6 12  2  0  0  0  0
  7  8  1  0  0  0  0
  7 10  1  0  0  0  0
  8  9  1  0  0  0  0
 10 11  1  0  0  0  0
 12 11  1  1  0  0  0
M  CHG  2   6  -1   7   1
M  END
>  <CHROM.1>
128.21759797,60.68536592,46.62618990,4.04797730,1.02750763,-31.00948910,-2.09198258
-0.80871261,-2.83704148

>  <Name>
ligand

>  <RI>
0

>  <Rbt.Current_Directory>
/home/itssahil/PROJECTS/Mol_Feturizer/New_Systems/rnas/4P95

>  <Rbt.Executable>
rbdock ($Id: //depot/dev/client3/rdock/2013.1/src/exe/rbdock.cxx#4 $)

>  <Rbt.Library>
libRbt.so (2013.1, Build901 2013/11/27)

>  <Rbt.Parameter_File>
/export/apps/rDock/src/rDock_2013.1_src/data/scripts/dock_solv.prm

>  <Rbt.Receptor>
prm/pocket_docking_2.prm

>  <SCORE>
-6.81997

>  <SCORE.INTER>
-4.56775

>  <SCORE.INTER.CONST>
1

>  <SCORE.INTER.POLAR>
0

>  <SCORE.INTER.ROT>
3

>  <SCORE.INTER.SOLV>
3.6838

>  <SCORE.INTER.VDW>
-9.8731

>  <SCORE.INTER.norm>
-0.380646

>  <SCORE.INTRA>
-2.25223

>  <SCORE.INTRA.DIHEDRAL>
2.35973

>  <SCORE.INTRA.DIHEDRAL.0>
0.283163

>  <SCORE.INTRA.POLAR>
0

>  <SCORE.INTRA.POLAR.0>
0

>  <SCORE.INTRA.REPUL>
0

>  <SCORE.INTRA.REPUL.0>
0

>  <SCORE.INTRA.SOLV>
0.0269392

>  <SCORE.INTRA.SOLV.lig_0>
-32.2894

>  <SCORE.INTRA.VDW>
-3.44556

>  <SCORE.INTRA.VDW.0>
2.0241

>  <SCORE.INTRA.norm>
-0.187685

>  <SCORE.RESTR>
0

>  <SCORE.RESTR.CAVITY>
0

>  <SCORE.RESTR.norm>
0

>  <SCORE.SYSTEM>
0

>  <SCORE.SYSTEM.CONST>
0

>  <SCORE.SYSTEM.DIHEDRAL>
0

>  <SCORE.SYSTEM.SOLV>
0

>  <SCORE.SYSTEM.norm>
0

>  <SCORE.heavy>
12

>  <SCORE.norm>
-0.568331

>  <RMSD>
1.943

$$$$
ligand
 OpenBabel11021811513D
libRbt.so/2013.1/901 2013/11/27
 12 12  0  0  0  0  0  0  0  0999 V2000
    3.2861    3.9056  -29.4716 O   0  0  0  0  0  0  0  0  0  0  0  0
    5.4656   -0.6009  -32.7561 O   0  0  0  0  0  0  0  0  0  0  0  0
    2.2249    3.0265  -29.4843 C   0  0  0  0  0  0  0  0  0  0  0  0
    3.3922    0.6533  -33.0288 O   0  0  0  0  0  0  0  0  0  0  0  0
    2.6234    1.6172  -29.3230 C   0  0  0  0  0  0  0  0  0  0  0  0
    3.4585   -1.7083  -33.5988 O   0  5  0  0  0  0  0  0  0  0  0  0
    3.6957    1.2433  -30.2548 N   0  3  0  0  0  0  0  0  0  0  0  0
    4.7848    2.1813  -30.1613 C   0  0  0  0  0  0  0  0  0  0  0  0
    4.3070    3.5871  -30.3226 C   0  0  0  0  0  0  0  0  0  0  0  0
    4.1360   -0.0910  -29.9788 C   0  0  0  0  0  0  0  0  0  0  0  0
    3.4729   -1.0724  -30.9782 C   0  0  0  0  0  0  0  0  0  0  0  0
    3.9761   -0.6762  -32.6652 S   0  0  1  0  0  0  0  0  0  0  0  0
  1  3  1  0  0  0  0
  1  9  1  0  0  0  0
  2 12  1  0  0  0  0
  3  5  1  0  0  0  0
  4 12  2  0  0  0  0
  5  7  1  0  0  0  0
  6 12  2  0  0  0  0
  7  8  1  0  0  0  0
  7 10  1  0  0  0  0
  8  9  1  0  0  0  0
 10 11  1  0  0  0  0
 12 11  1  1  0  0  0
M  CHG  2   6  -1   7   1
M  END
>  <CHROM.1>
99.38329454,62.08499855,52.31936595,3.76435447,0.83128078,-31.20569841,-1.80312766
-0.96245265,-2.65590491

>  <Name>
ligand

>  <RI>
0

>  <Rbt.Current_Directory>
/home/itssahil/PROJECTS/Mol_Feturizer/New_Systems/rnas/4P95

>  <Rbt.Executable>
rbdock ($Id: //depot/dev/client3/rdock/2013.1/src/exe/rbdock.cxx#4 $)

>  <Rbt.Library>
libRbt.so (2013.1, Build901 2013/11/27)

>  <Rbt.Parameter_File>
/export/apps/rDock/src/rDock_2013.1_src/data/scripts/dock_solv.prm

>  <Rbt.Receptor>
prm/pocket_docking_2.prm

>  <SCORE>
-6.68969

>  <SCORE.INTER>
-4.16252

>  <SCORE.INTER.CONST>
1

>  <SCORE.INTER.POLAR>
0

>  <SCORE.INTER.ROT>
3

>  <SCORE.INTER.SOLV>
3.75491

>  <SCORE.INTER.VDW>
-9.62665

>  <SCORE.INTER.norm>
-0.346876

>  <SCORE.INTRA>
-2.52717

>  <SCORE.INTRA.DIHEDRAL>
1.67942

>  <SCORE.INTRA.DIHEDRAL.0>
0.283163

>  <SCORE.INTRA.POLAR>
0

>  <SCORE.INTRA.POLAR.0>
0

>  <SCORE.INTRA.REPUL>
0

>  <SCORE.INTRA.REPUL.0>
0

>  <SCORE.INTRA.SOLV>
0.0748098

>  <SCORE.INTRA.SOLV.lig_0>
-32.2894

>  <SCORE.INTRA.VDW>
-3.40428

>  <SCORE.INTRA.VDW.0>
2.0241

>  <SCORE.INTRA.norm>
-0.210598

>  <SCORE.RESTR>
0

>  <SCORE.RESTR.CAVITY>
0

>  <SCORE.RESTR.norm>
0

>  <SCORE.SYSTEM>
0

>  <SCORE.SYSTEM.CONST>
0

>  <SCORE.SYSTEM.DIHEDRAL>
0

>  <SCORE.SYSTEM.SOLV>
0

>  <SCORE.SYSTEM.norm>
0

>  <SCORE.heavy>
12

>  <SCORE.norm>
-0.557474

>  <RMSD>
1.997

$$$$
ligand
 OpenBabel11021811513D
libRbt.so/2013.1/901 2013/11/27
 12 12  0  0  0  0  0  0  0  0999 V2000
    3.3323    3.9841  -29.3725 O   0  0  0  0  0  0  0  0  0  0  0  0
    5.7411   -0.6171  -32.0407 O   0  0  0  0  0  0  0  0  0  0  0  0
    2.1584    3.2625  -29.3932 C   0  0  0  0  0  0  0  0  0  0  0  0
    3.9724    0.8299  -32.8917 O   0  0  0  0  0  0  0  0  0  0  0  0
    2.3525    1.8137  -29.2080 C   0  0  0  0  0  0  0  0  0  0  0  0
    4.0480   -1.5054  -33.5601 O   0  5  0  0  0  0  0  0  0  0  0  0
    3.3761    1.2797  -30.1163 N   0  3  0  0  0  0  0  0  0  0  0  0
    4.5845    2.0569  -30.0151 C   0  0  0  0  0  0  0  0  0  0  0  0
    4.3115    3.5134  -30.2016 C   0  0  0  0  0  0  0  0  0  0  0  0
    3.6202   -0.0990  -29.8166 C   0  0  0  0  0  0  0  0  0  0  0  0
    3.2446   -0.9699  -31.0422 C   0  0  0  0  0  0  0  0  0  0  0  0
    4.3038   -0.5597  -32.4445 S   0  0  1  0  0  0  0  0  0  0  0  0
  1  3  1  0  0  0  0
  1  9  1  0  0  0  0
  2 12  1  0  0  0  0
  3  5  1  0  0  0  0
  4 12  2  0  0  0  0
  5  7  1  0  0  0  0
  6 12  2  0  0  0  0
  7  8  1  0  0  0  0
  7 10  1  0  0  0  0
  8  9  1  0  0  0  0
 10 11  1  0  0  0  0
 12 11  1  1  0  0  0
M  CHG  2   6  -1   7   1
M  END
>  <CHROM.1>
117.62081191,63.36652566,51.81912431,3.82599843,0.91329718,-31.03642926,-1.92503950
-0.82976276,-2.73719516

>  <Name>
ligand

>  <RI>
0

>  <Rbt.Current_Directory>
/home/itssahil/PROJECTS/Mol_Feturizer/New_Systems/rnas/4P95

>  <Rbt.Executable>
rbdock ($Id: //depot/dev/client3/rdock/2013.1/src/exe/rbdock.cxx#4 $)

>  <Rbt.Library>
libRbt.so (2013.1, Build901 2013/11/27)

>  <Rbt.Parameter_File>
/export/apps/rDock/src/rDock_2013.1_src/data/scripts/dock_solv.prm

>  <Rbt.Receptor>
prm/pocket_docking_2.prm

>  <SCORE>
-6.56377

>  <SCORE.INTER>
-4.1761

>  <SCORE.INTER.CONST>
1

>  <SCORE.INTER.POLAR>
0

>  <SCORE.INTER.ROT>
3

>  <SCORE.INTER.SOLV>
3.92496

>  <SCORE.INTER.VDW>
-9.69239

>  <SCORE.INTER.norm>
-0.348009

>  <SCORE.INTRA>
-2.38767

>  <SCORE.INTRA.DIHEDRAL>
2.29257

>  <SCORE.INTRA.DIHEDRAL.0>
0.283163

>  <SCORE.INTRA.POLAR>
0

>  <SCORE.INTRA.POLAR.0>
0

>  <SCORE.INTRA.REPUL>
0

>  <SCORE.INTRA.REPUL.0>
0

>  <SCORE.INTRA.SOLV>
0.0588045

>  <SCORE.INTRA.SOLV.lig_0>
-32.2894

>  <SCORE.INTRA.VDW>
-3.56335

>  <SCORE.INTRA.VDW.0>
2.0241

>  <SCORE.INTRA.norm>
-0.198972

>  <SCORE.RESTR>
0

>  <SCORE.RESTR.CAVITY>
0

>  <SCORE.RESTR.norm>
0

>  <SCORE.SYSTEM>
0

>  <SCORE.SYSTEM.CONST>
0

>  <SCORE.SYSTEM.DIHEDRAL>
0

>  <SCORE.SYSTEM.SOLV>
0

>  <SCORE.SYSTEM.norm>
0

>  <SCORE.heavy>
12

>  <SCORE.norm>
-0.546981

>  <RMSD>
1.998

$$$$
ligand
 OpenBabel11021811513D
libRbt.so/2013.1/901 2013/11/27
 12 12  0  0  0  0  0  0  0  0999 V2000
    3.2984    3.9436  -29.3438 O   0  0  0  0  0  0  0  0  0  0  0  0
    5.5207   -0.6947  -32.4916 O   0  0  0  0  0  0  0  0  0  0  0  0
    2.1766    3.1432  -29.3354 C   0  0  0  0  0  0  0  0  0  0  0  0
    3.6467    0.7777  -33.0081 O   0  0  0  0  0  0  0  0  0  0  0  0
    2.4768    1.7070  -29.2008 C   0  0  0  0  0  0  0  0  0  0  0  0
    3.5561   -1.5636  -33.6536 O   0  5  0  0  0  0  0  0  0  0  0  0
    3.4929    1.2690  -30.1672 N   0  3  0  0  0  0  0  0  0  0  0  0
    4.6489    2.1252  -30.0950 C   0  0  0  0  0  0  0  0  0  0  0  0
    4.2694    3.5636  -30.2273 C   0  0  0  0  0  0  0  0  0  0  0  0
    3.8433   -0.0969  -29.9184 C   0  0  0  0  0  0  0  0  0  0  0  0
    3.2530   -0.9947  -31.0351 C   0  0  0  0  0  0  0  0  0  0  0  0
    4.0340   -0.6143  -32.6167 S   0  0  1  0  0  0  0  0  0  0  0  0
  1  3  1  0  0  0  0
  1  9  1  0  0  0  0
  2 12  1  0  0  0  0
  3  5  1  0  0  0  0
  4 12  2  0  0  0  0
  5  7  1  0  0  0  0
  6 12  2  0  0  0  0
  7  8  1  0  0  0  0
  7 10  1  0  0  0  0
  8  9  1  0  0  0  0
 10 11  1  0  0  0  0
 12 11  1  1  0  0  0
M  CHG  2   6  -1   7   1
M  END
>  <CHROM.1>
107.72192040,65.80473473,53.22016959,3.73023121,0.87530197,-31.13036325,-1.84204262
-0.91628627,-2.66317074

>  <Name>
ligand

>  <RI>
0

>  <Rbt.Current_Directory>
/home/itssahil/PROJECTS/Mol_Feturizer/New_Systems/rnas/4P95

>  <Rbt.Executable>
rbdock ($Id: //depot/dev/client3/rdock/2013.1/src/exe/rbdock.cxx#4 $)

>  <Rbt.Library>
libRbt.so (2013.1, Build901 2013/11/27)

>  <Rbt.Parameter_File>
/export/apps/rDock/src/rDock_2013.1_src/data/scripts/dock_solv.prm

>  <Rbt.Receptor>
prm/pocket_docking_2.prm

>  <SCORE>
-6.66948

>  <SCORE.INTER>
-4.25749

>  <SCORE.INTER.CONST>
1

>  <SCORE.INTER.POLAR>
0

>  <SCORE.INTER.ROT>
3

>  <SCORE.INTER.SOLV>
3.90301

>  <SCORE.INTER.VDW>
-9.73933

>  <SCORE.INTER.norm>
-0.354791

>  <SCORE.INTRA>
-2.41199

>  <SCORE.INTRA.DIHEDRAL>
2.13418

>  <SCORE.INTRA.DIHEDRAL.0>
0.283163

>  <SCORE.INTRA.POLAR>
0

>  <SCORE.INTRA.POLAR.0>
0

>  <SCORE.INTRA.REPUL>
0

>  <SCORE.INTRA.REPUL.0>
0

>  <SCORE.INTRA.SOLV>
0.02205

>  <SCORE.INTRA.SOLV.lig_0>
-32.2894

>  <SCORE.INTRA.VDW>
-3.4901

>  <SCORE.INTRA.VDW.0>
2.0241

>  <SCORE.INTRA.norm>
-0.200999

>  <SCORE.RESTR>
0

>  <SCORE.RESTR.CAVITY>
0

>  <SCORE.RESTR.norm>
0

>  <SCORE.SYSTEM>
0

>  <SCORE.SYSTEM.CONST>
0

>  <SCORE.SYSTEM.DIHEDRAL>
0

>  <SCORE.SYSTEM.SOLV>
0

>  <SCORE.SYSTEM.norm>
0

>  <SCORE.heavy>
12

>  <SCORE.norm>
-0.55579

>  <RMSD>
2.008

$$$$
ligand
 OpenBabel11021811513D
libRbt.so/2013.1/901 2013/11/27
 12 12  0  0  0  0  0  0  0  0999 V2000
    3.3195    3.9635  -29.3694 O   0  0  0  0  0  0  0  0  0  0  0  0
    5.5217   -0.6868  -32.4623 O   0  0  0  0  0  0  0  0  0  0  0  0
    2.1863    3.1791  -29.3668 C   0  0  0  0  0  0  0  0  0  0  0  0
    3.6604    0.8008  -32.9809 O   0  0  0  0  0  0  0  0  0  0  0  0
    2.4645    1.7401  -29.2158 C   0  0  0  0  0  0  0  0  0  0  0  0
    3.5619   -1.5341  -33.6480 O   0  5  0  0  0  0  0  0  0  0  0  0
    3.4852    1.2789  -30.1663 N   0  3  0  0  0  0  0  0  0  0  0  0
    4.6525    2.1193  -30.0884 C   0  0  0  0  0  0  0  0  0  0  0  0
    4.2950    3.5617  -30.2381 C   0  0  0  0  0  0  0  0  0  0  0  0
    3.8133   -0.0894  -29.9011 C   0  0  0  0  0  0  0  0  0  0  0  0
    3.2405   -0.9870  -31.0271 C   0  0  0  0  0  0  0  0  0  0  0  0
    4.0366   -0.5968  -32.5988 S   0  0  1  0  0  0  0  0  0  0  0  0
  1  3  1  0  0  0  0
  1  9  1  0  0  0  0
  2 12  1  0  0  0  0
  3  5  1  0  0  0  0
  4 12  2  0  0  0  0
  5  7  1  0  0  0  0
  6 12  2  0  0  0  0
  7  8  1  0  0  0  0
  7 10  1  0  0  0  0
  8  9  1  0  0  0  0
 10 11  1  0  0  0  0
 12 11  1  1  0  0  0
M  CHG  2   6  -1   7   1
M  END
>  <CHROM.1>
108.52574786,64.42348147,53.96989539,3.73236410,0.89101893,-31.12618098,-1.83889337
-0.90972197,-2.66542294

>  <Name>
ligand

>  <RI>
0

>  <Rbt.Current_Directory>
/home/itssahil/PROJECTS/Mol_Feturizer/New_Systems/rnas/4P95

>  <Rbt.Executable>
rbdock ($Id: //depot/dev/client3/rdock/2013.1/src/exe/rbdock.cxx#4 $)

>  <Rbt.Library>
libRbt.so (2013.1, Build901 2013/11/27)

>  <Rbt.Parameter_File>
/export/apps/rDock/src/rDock_2013.1_src/data/scripts/dock_solv.prm

>  <Rbt.Receptor>
prm/pocket_docking_2.prm

>  <SCORE>
-6.67592

>  <SCORE.INTER>
-4.24923

>  <SCORE.INTER.CONST>
1

>  <SCORE.INTER.POLAR>
0

>  <SCORE.INTER.ROT>
3

>  <SCORE.INTER.SOLV>
3.89855

>  <SCORE.INTER.VDW>
-9.73234

>  <SCORE.INTER.norm>
-0.354102

>  <SCORE.INTRA>
-2.42669

>  <SCORE.INTRA.DIHEDRAL>
2.08748

>  <SCORE.INTRA.DIHEDRAL.0>
0.283163

>  <SCORE.INTRA.POLAR>
0

>  <SCORE.INTRA.POLAR.0>
0

>  <SCORE.INTRA.REPUL>
0

>  <SCORE.INTRA.REPUL.0>
0

>  <SCORE.INTRA.SOLV>
0.0605635

>  <SCORE.INTRA.SOLV.lig_0>
-32.2894

>  <SCORE.INTRA.VDW>
-3.50071

>  <SCORE.INTRA.VDW.0>
2.0241

>  <SCORE.INTRA.norm>
-0.202224

>  <SCORE.RESTR>
0

>  <SCORE.RESTR.CAVITY>
0

>  <SCORE.RESTR.norm>
0

>  <SCORE.SYSTEM>
0

>  <SCORE.SYSTEM.CONST>
0

>  <SCORE.SYSTEM.DIHEDRAL>
0

>  <SCORE.SYSTEM.SOLV>
0

>  <SCORE.SYSTEM.norm>
0

>  <SCORE.heavy>
12

>  <SCORE.norm>
-0.556326

>  <RMSD>
2.020

$$$$
ligand
 OpenBabel11021811513D
libRbt.so/2013.1/901 2013/11/27
 12 12  0  0  0  0  0  0  0  0999 V2000
    3.2629    3.9425  -29.3884 O   0  0  0  0  0  0  0  0  0  0  0  0
    5.4762   -0.5731  -32.5248 O   0  0  0  0  0  0  0  0  0  0  0  0
    2.1482    3.1321  -29.3881 C   0  0  0  0  0  0  0  0  0  0  0  0
    3.4973    0.7762  -32.9833 O   0  0  0  0  0  0  0  0  0  0  0  0
    2.4590    1.7006  -29.2293 C   0  0  0  0  0  0  0  0  0  0  0  0
    3.5389   -1.5654  -33.6325 O   0  5  0  0  0  0  0  0  0  0  0  0
    3.4951    1.2592  -30.1726 N   0  3  0  0  0  0  0  0  0  0  0  0
    4.6421    2.1268  -30.0925 C   0  0  0  0  0  0  0  0  0  0  0  0
    4.2520    3.5599  -30.2503 C   0  0  0  0  0  0  0  0  0  0  0  0
    3.8535   -0.1000  -29.8998 C   0  0  0  0  0  0  0  0  0  0  0  0
    3.2753   -1.0199  -31.0048 C   0  0  0  0  0  0  0  0  0  0  0  0
    3.9844   -0.5884  -32.6071 S   0  0  1  0  0  0  0  0  0  0  0  0
  1  3  1  0  0  0  0
  1  9  1  0  0  0  0
  2 12  1  0  0  0  0
  3  5  1  0  0  0  0
  4 12  2  0  0  0  0
  5  7  1  0  0  0  0
  6 12  2  0  0  0  0
  7  8  1  0  0  0  0
  7 10  1  0  0  0  0
  8  9  1  0  0  0  0
 10 11  1  0  0  0  0
 12 11  1  1  0  0  0
M  CHG  2   6  -1   7   1
M  END
>  <CHROM.1>
107.02710483,62.17765562,52.43199887,3.69913490,0.88506027,-31.13558844,-1.84180652
-0.93942742,-2.67034903

>  <Name>
ligand

>  <RI>
0

>  <Rbt.Current_Directory>
/home/itssahil/PROJECTS/Mol_Feturizer/New_Systems/rnas/4P95

>  <Rbt.Executable>
rbdock ($Id: //depot/dev/client3/rdock/2013.1/src/exe/rbdock.cxx#4 $)

>  <Rbt.Library>
libRbt.so (2013.1, Build901 2013/11/27)

>  <Rbt.Parameter_File>
/export/apps/rDock/src/rDock_2013.1_src/data/scripts/dock_solv.prm

>  <Rbt.Receptor>
prm/pocket_docking_2.prm

>  <SCORE>
-6.69725

>  <SCORE.INTER>
-4.24199

>  <SCORE.INTER.CONST>
1

>  <SCORE.INTER.POLAR>
0

>  <SCORE.INTER.ROT>
3

>  <SCORE.INTER.SOLV>
3.87088

>  <SCORE.INTER.VDW>
-9.71828

>  <SCORE.INTER.norm>
-0.353499

>  <SCORE.INTRA>
-2.45526

>  <SCORE.INTRA.DIHEDRAL>
2.02564

>  <SCORE.INTRA.DIHEDRAL.0>
0.283163

>  <SCORE.INTRA.POLAR>
0

>  <SCORE.INTRA.POLAR.0>
0

>  <SCORE.INTRA.REPUL>
0

>  <SCORE.INTRA.REPUL.0>
0

>  <SCORE.INTRA.SOLV>
0.0755256

>  <SCORE.INTRA.SOLV.lig_0>
-32.2894

>  <SCORE.INTRA.VDW>
-3.50584

>  <SCORE.INTRA.VDW.0>
2.0241

>  <SCORE.INTRA.norm>
-0.204605

>  <SCORE.RESTR>
0

>  <SCORE.RESTR.CAVITY>
0

>  <SCORE.RESTR.norm>
0

>  <SCORE.SYSTEM>
0

>  <SCORE.SYSTEM.CONST>
0

>  <SCORE.SYSTEM.DIHEDRAL>
0

>  <SCORE.SYSTEM.SOLV>
0

>  <SCORE.SYSTEM.norm>
0

>  <SCORE.heavy>
12

>  <SCORE.norm>
-0.558104

>  <RMSD>
2.032

$$$$
ligand
 OpenBabel11021811513D
libRbt.so/2013.1/901 2013/11/27
 12 12  0  0  0  0  0  0  0  0999 V2000
    3.2446    3.9086  -29.3533 O   0  0  0  0  0  0  0  0  0  0  0  0
    5.4273   -0.6147  -32.6599 O   0  0  0  0  0  0  0  0  0  0  0  0
    2.1619    3.0559  -29.3597 C   0  0  0  0  0  0  0  0  0  0  0  0
    3.4255    0.7415  -32.9756 O   0  0  0  0  0  0  0  0  0  0  0  0
    2.5282    1.6354  -29.2231 C   0  0  0  0  0  0  0  0  0  0  0  0
    3.4076   -1.6038  -33.6124 O   0  5  0  0  0  0  0  0  0  0  0  0
    3.5757    1.2477  -30.1773 N   0  3  0  0  0  0  0  0  0  0  0  0
    4.6889    2.1575  -30.0898 C   0  0  0  0  0  0  0  0  0  0  0  0
    4.2433    3.5766  -30.2251 C   0  0  0  0  0  0  0  0  0  0  0  0
    3.9875   -0.1005  -29.9257 C   0  0  0  0  0  0  0  0  0  0  0  0
    3.3455   -1.0425  -30.9755 C   0  0  0  0  0  0  0  0  0  0  0  0
    3.9335   -0.6233  -32.6292 S   0  0  1  0  0  0  0  0  0  0  0  0
  1  3  1  0  0  0  0
  1  9  1  0  0  0  0
  2 12  1  0  0  0  0
  3  5  1  0  0  0  0
  4 12  2  0  0  0  0
  5  7  1  0  0  0  0
  6 12  2  0  0  0  0
  7  8  1  0  0  0  0
  7 10  1  0  0  0  0
  8  9  1  0  0  0  0
 10 11  1  0  0  0  0
 12 11  1  1  0  0  0
M  CHG  2   6  -1   7   1
M  END
>  <CHROM.1>
102.48160201,63.03593734,53.58053131,3.69775981,0.85777040,-31.14079256,-1.81637210
-0.95903828,-2.64714650

>  <Name>
ligand

>  <RI>
0

>  <Rbt.Current_Directory>
/home/itssahil/PROJECTS/Mol_Feturizer/New_Systems/rnas/4P95

>  <Rbt.Executable>
rbdock ($Id: //depot/dev/client3/rdock/2013.1/src/exe/rbdock.cxx#4 $)

>  <Rbt.Library>
libRbt.so (2013.1, Build901 2013/11/27)

>  <Rbt.Parameter_File>
/export/apps/rDock/src/rDock_2013.1_src/data/scripts/dock_solv.prm

>  <Rbt.Receptor>
prm/pocket_docking_2.prm

>  <SCORE>
-6.74533

>  <SCORE.INTER>
-4.24959

>  <SCORE.INTER.CONST>
1

>  <SCORE.INTER.POLAR>
0

>  <SCORE.INTER.ROT>
3

>  <SCORE.INTER.SOLV>
3.92686

>  <SCORE.INTER.VDW>
-9.74202

>  <SCORE.INTER.norm>
-0.354133

>  <SCORE.INTRA>
-2.4962

>  <SCORE.INTRA.DIHEDRAL>
1.8157

>  <SCORE.INTRA.DIHEDRAL.0>
0.283163

>  <SCORE.INTRA.POLAR>
0

>  <SCORE.INTRA.POLAR.0>
0

>  <SCORE.INTRA.REPUL>
0

>  <SCORE.INTRA.REPUL.0>
0

>  <SCORE.INTRA.SOLV>
0.0770962

>  <SCORE.INTRA.SOLV.lig_0>
-32.2894

>  <SCORE.INTRA.VDW>
-3.4426

>  <SCORE.INTRA.VDW.0>
2.0241

>  <SCORE.INTRA.norm>
-0.208017

>  <SCORE.RESTR>
0.000464283

>  <SCORE.RESTR.CAVITY>
0.000464283

>  <SCORE.RESTR.norm>
3.86902e-05

>  <SCORE.SYSTEM>
0

>  <SCORE.SYSTEM.CONST>
0

>  <SCORE.SYSTEM.DIHEDRAL>
0

>  <SCORE.SYSTEM.SOLV>
0

>  <SCORE.SYSTEM.norm>
0

>  <SCORE.heavy>
12

>  <SCORE.norm>
-0.562111

>  <RMSD>
2.033

$$$$
ligand
 OpenBabel11021811513D
libRbt.so/2013.1/901 2013/11/27
 12 12  0  0  0  0  0  0  0  0999 V2000
    3.2824    3.9349  -29.3631 O   0  0  0  0  0  0  0  0  0  0  0  0
    5.4267   -0.4102  -32.5944 O   0  0  0  0  0  0  0  0  0  0  0  0
    2.1675    3.1249  -29.3745 C   0  0  0  0  0  0  0  0  0  0  0  0
    3.3611    0.8203  -33.0015 O   0  0  0  0  0  0  0  0  0  0  0  0
    2.4777    1.6913  -29.2347 C   0  0  0  0  0  0  0  0  0  0  0  0
    3.5332   -1.5075  -33.6785 O   0  5  0  0  0  0  0  0  0  0  0  0
    3.5144    1.2623  -30.1830 N   0  3  0  0  0  0  0  0  0  0  0  0
    4.6616    2.1284  -30.0904 C   0  0  0  0  0  0  0  0  0  0  0  0
    4.2720    3.5636  -30.2293 C   0  0  0  0  0  0  0  0  0  0  0  0
    3.8722   -0.1005  -29.9281 C   0  0  0  0  0  0  0  0  0  0  0  0
    3.2859   -1.0066  -31.0403 C   0  0  0  0  0  0  0  0  0  0  0  0
    3.9374   -0.5158  -32.6500 S   0  0  1  0  0  0  0  0  0  0  0  0
  1  3  1  0  0  0  0
  1  9  1  0  0  0  0
  2 12  1  0  0  0  0
  3  5  1  0  0  0  0
  4 12  2  0  0  0  0
  5  7  1  0  0  0  0
  6 12  2  0  0  0  0
  7  8  1  0  0  0  0
  7 10  1  0  0  0  0
  8  9  1  0  0  0  0
 10 11  1  0  0  0  0
 12 11  1  1  0  0  0
M  CHG  2   6  -1   7   1
M  END
>  <CHROM.1>
106.62458228,59.98418177,50.15913911,3.68630139,0.91857056,-31.15472954,-1.82465759
-0.96010638,-2.64000594

>  <Name>
ligand

>  <RI>
0

>  <Rbt.Current_Directory>
/home/itssahil/PROJECTS/Mol_Feturizer/New_Systems/rnas/4P95

>  <Rbt.Executable>
rbdock ($Id: //depot/dev/client3/rdock/2013.1/src/exe/rbdock.cxx#4 $)

>  <Rbt.Library>
libRbt.so (2013.1, Build901 2013/11/27)

>  <Rbt.Parameter_File>
/export/apps/rDock/src/rDock_2013.1_src/data/scripts/dock_solv.prm

>  <Rbt.Receptor>
prm/pocket_docking_2.prm

>  <SCORE>
-6.61596

>  <SCORE.INTER>
-4.17553

>  <SCORE.INTER.CONST>
1

>  <SCORE.INTER.POLAR>
0

>  <SCORE.INTER.ROT>
3

>  <SCORE.INTER.SOLV>
3.85435

>  <SCORE.INTER.VDW>
-9.66847

>  <SCORE.INTER.norm>
-0.347961

>  <SCORE.INTRA>
-2.44096

>  <SCORE.INTRA.DIHEDRAL>
2.08002

>  <SCORE.INTRA.DIHEDRAL.0>
0.283163

>  <SCORE.INTRA.POLAR>
0

>  <SCORE.INTRA.POLAR.0>
0

>  <SCORE.INTRA.REPUL>
0

>  <SCORE.INTRA.REPUL.0>
0

>  <SCORE.INTRA.SOLV>
0.0777074

>  <SCORE.INTRA.SOLV.lig_0>
-32.2894

>  <SCORE.INTRA.VDW>
-3.51982

>  <SCORE.INTRA.VDW.0>
2.0241

>  <SCORE.INTRA.norm>
-0.203413

>  <SCORE.RESTR>
0.000521853

>  <SCORE.RESTR.CAVITY>
0.000521853

>  <SCORE.RESTR.norm>
4.34877e-05

>  <SCORE.SYSTEM>
0

>  <SCORE.SYSTEM.CONST>
0

>  <SCORE.SYSTEM.DIHEDRAL>
0

>  <SCORE.SYSTEM.SOLV>
0

>  <SCORE.SYSTEM.norm>
0

>  <SCORE.heavy>
12

>  <SCORE.norm>
-0.55133

>  <RMSD>
2.047

$$$$
ligand
 OpenBabel11021811513D
libRbt.so/2013.1/901 2013/11/27
 12 12  0  0  0  0  0  0  0  0999 V2000
    2.8899    3.1203  -29.4907 O   0  0  0  0  0  0  0  0  0  0  0  0
    4.7728   -3.3381  -31.9851 O   0  0  0  0  0  0  0  0  0  0  0  0
    4.2555    3.1018  -29.6755 C   0  0  0  0  0  0  0  0  0  0  0  0
    6.5537   -3.8306  -30.3938 O   0  0  0  0  0  0  0  0  0  0  0  0
    4.7263    1.9653  -30.4864 C   0  0  0  0  0  0  0  0  0  0  0  0
    6.9161   -2.1773  -32.1379 O   0  5  0  0  0  0  0  0  0  0  0  0
    4.1912    0.6875  -29.9978 N   0  3  0  0  0  0  0  0  0  0  0  0
    2.7592    0.7670  -29.8644 C   0  0  0  0  0  0  0  0  0  0  0  0
    2.3544    1.9459  -29.0416 C   0  0  0  0  0  0  0  0  0  0  0  0
    4.5708   -0.3698  -30.8857 C   0  0  0  0  0  0  0  0  0  0  0  0
    5.3094   -1.4751  -30.0891 C   0  0  0  0  0  0  0  0  0  0  0  0
    5.9097   -2.7544  -31.2112 S   0  0  1  0  0  0  0  0  0  0  0  0
  1  3  1  0  0  0  0
  1  9  1  0  0  0  0
  2 12  1  0  0  0  0
  3  5  1  0  0  0  0
  4 12  2  0  0  0  0
  5  7  1  0  0  0  0
  6 12  2  0  0  0  0
  7  8  1  0  0  0  0
  7 10  1  0  0  0  0
  8  9  1  0  0  0  0
 10 11  1  0  0  0  0
 12 11  1  1  0  0  0
M  CHG  2   6  -1   7   1
M  END
>  <CHROM.1>
124.67057966,-175.56346259,-57.78946470,4.75005186,-0.48930671,-30.53296941
2.05763304,0.37416619,0.11169121

>  <Name>
ligand

>  <RI>
0

>  <Rbt.Current_Directory>
/home/itssahil/PROJECTS/Mol_Feturizer/New_Systems/rnas/4P95

>  <Rbt.Executable>
rbdock ($Id: //depot/dev/client3/rdock/2013.1/src/exe/rbdock.cxx#4 $)

>  <Rbt.Library>
libRbt.so (2013.1, Build901 2013/11/27)

>  <Rbt.Parameter_File>
/export/apps/rDock/src/rDock_2013.1_src/data/scripts/dock_solv.prm

>  <Rbt.Receptor>
prm/pocket_docking_8.prm

>  <SCORE>
-8.58132

>  <SCORE.INTER>
-6.90338

>  <SCORE.INTER.CONST>
1

>  <SCORE.INTER.POLAR>
0

>  <SCORE.INTER.ROT>
3

>  <SCORE.INTER.SOLV>
4.75198

>  <SCORE.INTER.VDW>
-11.7862

>  <SCORE.INTER.norm>
-0.575282

>  <SCORE.INTRA>
-1.67794

>  <SCORE.INTRA.DIHEDRAL>
2.15592

>  <SCORE.INTRA.DIHEDRAL.0>
0.283163

>  <SCORE.INTRA.POLAR>
0

>  <SCORE.INTRA.POLAR.0>
0

>  <SCORE.INTRA.REPUL>
0

>  <SCORE.INTRA.REPUL.0>
0

>  <SCORE.INTRA.SOLV>
-0.0892391

>  <SCORE.INTRA.SOLV.lig_0>
-32.2894

>  <SCORE.INTRA.VDW>
-2.71128

>  <SCORE.INTRA.VDW.0>
2.0241

>  <SCORE.INTRA.norm>
-0.139828

>  <SCORE.RESTR>
0

>  <SCORE.RESTR.CAVITY>
0

>  <SCORE.RESTR.norm>
0

>  <SCORE.SYSTEM>
0

>  <SCORE.SYSTEM.CONST>
0

>  <SCORE.SYSTEM.DIHEDRAL>
0

>  <SCORE.SYSTEM.SOLV>
0

>  <SCORE.SYSTEM.norm>
0

>  <SCORE.heavy>
12

>  <SCORE.norm>
-0.71511

>  <RMSD>
2.187

$$$$
ligand
 OpenBabel11021811513D
libRbt.so/2013.1/901 2013/11/27
 12 12  0  0  0  0  0  0  0  0999 V2000
    1.2228    2.5246  -28.5946 O   0  0  0  0  0  0  0  0  0  0  0  0
    4.1582    0.1023  -33.0421 O   0  0  0  0  0  0  0  0  0  0  0  0
    2.4117    2.7866  -27.9487 C   0  0  0  0  0  0  0  0  0  0  0  0
    3.6836   -0.9568  -30.8974 O   0  0  0  0  0  0  0  0  0  0  0  0
    3.5539    2.9628  -28.8625 C   0  0  0  0  0  0  0  0  0  0  0  0
    5.7233   -1.5156  -32.0947 O   0  5  0  0  0  0  0  0  0  0  0  0
    3.6521    1.8632  -29.8317 N   0  3  0  0  0  0  0  0  0  0  0  0
    2.3877    1.6705  -30.4942 C   0  0  0  0  0  0  0  0  0  0  0  0
    1.2765    1.5105  -29.5091 C   0  0  0  0  0  0  0  0  0  0  0  0
    4.6944    2.1379  -30.7743 C   0  0  0  0  0  0  0  0  0  0  0  0
    5.6181    0.8999  -30.9004 C   0  0  0  0  0  0  0  0  0  0  0  0
    4.7665   -0.4239  -31.7829 S   0  0  1  0  0  0  0  0  0  0  0  0
  1  3  1  0  0  0  0
  1  9  1  0  0  0  0
  2 12  1  0  0  0  0
  3  5  1  0  0  0  0
  4 12  2  0  0  0  0
  5  7  1  0  0  0  0
  6 12  2  0  0  0  0
  7  8  1  0  0  0  0
  7 10  1  0  0  0  0
  8  9  1  0  0  0  0
 10 11  1  0  0  0  0
 12 11  1  1  0  0  0
M  CHG  2   6  -1   7   1
M  END
>  <CHROM.1>
130.69337465,71.72644953,49.28568362,3.70853296,0.94145270,-30.55435140,2.15767293
0.22861665,0.65155227

>  <Name>
ligand

>  <RI>
0

>  <Rbt.Current_Directory>
/home/itssahil/PROJECTS/Mol_Feturizer/New_Systems/rnas/4P95

>  <Rbt.Executable>
rbdock ($Id: //depot/dev/client3/rdock/2013.1/src/exe/rbdock.cxx#4 $)

>  <Rbt.Library>
libRbt.so (2013.1, Build901 2013/11/27)

>  <Rbt.Parameter_File>
/export/apps/rDock/src/rDock_2013.1_src/data/scripts/dock_solv.prm

>  <Rbt.Receptor>
prm/pocket_docking_2.prm

>  <SCORE>
-6.61871

>  <SCORE.INTER>
-4.65547

>  <SCORE.INTER.CONST>
1

>  <SCORE.INTER.POLAR>
0

>  <SCORE.INTER.ROT>
3

>  <SCORE.INTER.SOLV>
3.54322

>  <SCORE.INTER.VDW>
-9.88472

>  <SCORE.INTER.norm>
-0.387956

>  <SCORE.INTRA>
-1.96324

>  <SCORE.INTRA.DIHEDRAL>
2.64024

>  <SCORE.INTRA.DIHEDRAL.0>
0.283163

>  <SCORE.INTRA.POLAR>
0

>  <SCORE.INTRA.POLAR.0>
0

>  <SCORE.INTRA.REPUL>
0

>  <SCORE.INTRA.REPUL.0>
0

>  <SCORE.INTRA.SOLV>
-0.010175

>  <SCORE.INTRA.SOLV.lig_0>
-32.2894

>  <SCORE.INTRA.VDW>
-3.27827

>  <SCORE.INTRA.VDW.0>
2.0241

>  <SCORE.INTRA.norm>
-0.163603

>  <SCORE.RESTR>
0

>  <SCORE.RESTR.CAVITY>
0

>  <SCORE.RESTR.norm>
0

>  <SCORE.SYSTEM>
0

>  <SCORE.SYSTEM.CONST>
0

>  <SCORE.SYSTEM.DIHEDRAL>
0

>  <SCORE.SYSTEM.SOLV>
0

>  <SCORE.SYSTEM.norm>
0

>  <SCORE.heavy>
12

>  <SCORE.norm>
-0.551559

>  <RMSD>
2.349

$$$$
ligand
 OpenBabel11021811513D
libRbt.so/2013.1/901 2013/11/27
 12 12  0  0  0  0  0  0  0  0999 V2000
    1.2489    2.4797  -28.5913 O   0  0  0  0  0  0  0  0  0  0  0  0
    4.1213    0.1579  -33.0292 O   0  0  0  0  0  0  0  0  0  0  0  0
    2.4268    2.7919  -27.9476 C   0  0  0  0  0  0  0  0  0  0  0  0
    3.7031   -0.9509  -30.8979 O   0  0  0  0  0  0  0  0  0  0  0  0
    3.5672    2.9801  -28.8614 C   0  0  0  0  0  0  0  0  0  0  0  0
    5.7050   -1.4889  -32.1665 O   0  5  0  0  0  0  0  0  0  0  0  0
    3.7018    1.8611  -29.8037 N   0  3  0  0  0  0  0  0  0  0  0  0
    2.4465    1.6155  -30.4658 C   0  0  0  0  0  0  0  0  0  0  0  0
    1.3363    1.4461  -29.4812 C   0  0  0  0  0  0  0  0  0  0  0  0
    4.7395    2.1440  -30.7489 C   0  0  0  0  0  0  0  0  0  0  0  0
    5.6456    0.8973  -30.9118 C   0  0  0  0  0  0  0  0  0  0  0  0
    4.7628   -0.4011  -31.8011 S   0  0  1  0  0  0  0  0  0  0  0  0
  1  3  1  0  0  0  0
  1  9  1  0  0  0  0
  2 12  1  0  0  0  0
  3  5  1  0  0  0  0
  4 12  2  0  0  0  0
  5  7  1  0  0  0  0
  6 12  2  0  0  0  0
  7  8  1  0  0  0  0
  7 10  1  0  0  0  0
  8  9  1  0  0  0  0
 10 11  1  0  0  0  0
 12 11  1  1  0  0  0
M  CHG  2   6  -1   7   1
M  END
>  <CHROM.1>
134.39640178,71.10452146,48.39654250,3.72658574,0.94189505,-30.55471637,2.15375437
0.25085148,0.65217590

>  <Name>
ligand

>  <RI>
0

>  <Rbt.Current_Directory>
/home/itssahil/PROJECTS/Mol_Feturizer/New_Systems/rnas/4P95

>  <Rbt.Executable>
rbdock ($Id: //depot/dev/client3/rdock/2013.1/src/exe/rbdock.cxx#4 $)

>  <Rbt.Library>
libRbt.so (2013.1, Build901 2013/11/27)

>  <Rbt.Parameter_File>
/export/apps/rDock/src/rDock_2013.1_src/data/scripts/dock_solv.prm

>  <Rbt.Receptor>
prm/pocket_docking_2.prm

>  <SCORE>
-6.63178

>  <SCORE.INTER>
-4.76554

>  <SCORE.INTER.CONST>
1

>  <SCORE.INTER.POLAR>
0

>  <SCORE.INTER.ROT>
3

>  <SCORE.INTER.SOLV>
3.69084

>  <SCORE.INTER.VDW>
-10.0073

>  <SCORE.INTER.norm>
-0.397128

>  <SCORE.INTRA>
-1.86624

>  <SCORE.INTRA.DIHEDRAL>
2.48121

>  <SCORE.INTRA.DIHEDRAL.0>
0.283163

>  <SCORE.INTRA.POLAR>
0

>  <SCORE.INTRA.POLAR.0>
0

>  <SCORE.INTRA.REPUL>
0

>  <SCORE.INTRA.REPUL.0>
0

>  <SCORE.INTRA.SOLV>
-0.000519732

>  <SCORE.INTRA.SOLV.lig_0>
-32.2894

>  <SCORE.INTRA.VDW>
-3.10659

>  <SCORE.INTRA.VDW.0>
2.0241

>  <SCORE.INTRA.norm>
-0.15552

>  <SCORE.RESTR>
0

>  <SCORE.RESTR.CAVITY>
0

>  <SCORE.RESTR.norm>
0

>  <SCORE.SYSTEM>
0

>  <SCORE.SYSTEM.CONST>
0

>  <SCORE.SYSTEM.DIHEDRAL>
0

>  <SCORE.SYSTEM.SOLV>
0

>  <SCORE.SYSTEM.norm>
0

>  <SCORE.heavy>
12

>  <SCORE.norm>
-0.552649

>  <RMSD>
2.350

$$$$
ligand
 OpenBabel11021811513D
libRbt.so/2013.1/901 2013/11/27
 12 12  0  0  0  0  0  0  0  0999 V2000
    3.3200    4.0380  -29.4616 O   0  0  0  0  0  0  0  0  0  0  0  0
    6.3891    0.3944  -30.3051 O   0  0  0  0  0  0  0  0  0  0  0  0
    4.3580    3.4382  -30.1414 C   0  0  0  0  0  0  0  0  0  0  0  0
    5.1557   -0.4349  -32.2384 O   0  0  0  0  0  0  0  0  0  0  0  0
    4.0408    2.0844  -30.6285 C   0  0  0  0  0  0  0  0  0  0  0  0
    6.4768   -1.9730  -30.8985 O   0  5  0  0  0  0  0  0  0  0  0  0
    3.4804    1.2393  -29.5655 N   0  3  0  0  0  0  0  0  0  0  0  0
    2.3792    1.9115  -28.9250 C   0  0  0  0  0  0  0  0  0  0  0  0
    2.7687    3.2790  -28.4678 C   0  0  0  0  0  0  0  0  0  0  0  0
    3.0721   -0.0203  -30.1105 C   0  0  0  0  0  0  0  0  0  0  0  0
    4.1650   -1.0834  -29.8327 C   0  0  0  0  0  0  0  0  0  0  0  0
    5.6184   -0.7624  -30.8529 S   0  0  1  0  0  0  0  0  0  0  0  0
  1  3  1  0  0  0  0
  1  9  1  0  0  0  0
  2 12  1  0  0  0  0
  3  5  1  0  0  0  0
  4 12  2  0  0  0  0
  5  7  1  0  0  0  0
  6 12  2  0  0  0  0
  7  8  1  0  0  0  0
  7 10  1  0  0  0  0
  8  9  1  0  0  0  0
 10 11  1  0  0  0  0
 12 11  1  1  0  0  0
M  CHG  2   6  -1   7   1
M  END
>  <CHROM.1>
99.21108185,-71.13279966,75.47798527,4.43740704,0.82429049,-30.21185182,-2.18366661
-0.51800497,-3.09400436

>  <Name>
ligand

>  <RI>
0

>  <Rbt.Current_Directory>
/home/itssahil/PROJECTS/Mol_Feturizer/New_Systems/rnas/4P95

>  <Rbt.Executable>
rbdock ($Id: //depot/dev/client3/rdock/2013.1/src/exe/rbdock.cxx#4 $)

>  <Rbt.Library>
libRbt.so (2013.1, Build901 2013/11/27)

>  <Rbt.Parameter_File>
/export/apps/rDock/src/rDock_2013.1_src/data/scripts/dock_solv.prm

>  <Rbt.Receptor>
prm/pocket_docking_3.prm

>  <SCORE>
-10.351

>  <SCORE.INTER>
-8.54541

>  <SCORE.INTER.CONST>
1

>  <SCORE.INTER.POLAR>
0

>  <SCORE.INTER.ROT>
3

>  <SCORE.INTER.SOLV>
5.51495

>  <SCORE.INTER.VDW>
-13.1353

>  <SCORE.INTER.norm>
-0.712117

>  <SCORE.INTRA>
-1.80708

>  <SCORE.INTRA.DIHEDRAL>
2.59716

>  <SCORE.INTRA.DIHEDRAL.0>
0.283163

>  <SCORE.INTRA.POLAR>
0

>  <SCORE.INTRA.POLAR.0>
0

>  <SCORE.INTRA.REPUL>
0

>  <SCORE.INTRA.REPUL.0>
0

>  <SCORE.INTRA.SOLV>
-0.257847

>  <SCORE.INTRA.SOLV.lig_0>
-32.2894

>  <SCORE.INTRA.VDW>
-2.97674

>  <SCORE.INTRA.VDW.0>
2.0241

>  <SCORE.INTRA.norm>
-0.15059

>  <SCORE.RESTR>
0.00146106

>  <SCORE.RESTR.CAVITY>
0.00146106

>  <SCORE.RESTR.norm>
0.000121755

>  <SCORE.SYSTEM>
0

>  <SCORE.SYSTEM.CONST>
0

>  <SCORE.SYSTEM.DIHEDRAL>
0

>  <SCORE.SYSTEM.SOLV>
0

>  <SCORE.SYSTEM.norm>
0

>  <SCORE.heavy>
12

>  <SCORE.norm>
-0.862585

>  <RMSD>
2.473

$$$$
ligand
 OpenBabel11021811513D
libRbt.so/2013.1/901 2013/11/27
 12 12  0  0  0  0  0  0  0  0999 V2000
    1.3156    3.3825  -27.7251 O   0  0  0  0  0  0  0  0  0  0  0  0
    6.3419    0.6173  -31.8878 O   0  0  0  0  0  0  0  0  0  0  0  0
    2.6844    3.4252  -27.5709 C   0  0  0  0  0  0  0  0  0  0  0  0
    4.4945   -0.7935  -32.6248 O   0  0  0  0  0  0  0  0  0  0  0  0
    3.4260    2.8985  -28.7300 C   0  0  0  0  0  0  0  0  0  0  0  0
    6.2460   -1.7314  -31.2252 O   0  5  0  0  0  0  0  0  0  0  0  0
    2.9308    1.5777  -29.1403 N   0  3  0  0  0  0  0  0  0  0  0  0
    1.5021    1.6162  -29.3189 C   0  0  0  0  0  0  0  0  0  0  0  0
    0.8180    2.1700  -28.1122 C   0  0  0  0  0  0  0  0  0  0  0  0
    3.5919    1.1621  -30.3405 C   0  0  0  0  0  0  0  0  0  0  0  0
    4.4790   -0.0732  -30.0421 C   0  0  0  0  0  0  0  0  0  0  0  0
    5.4440   -0.5129  -31.5021 S   0  0  1  0  0  0  0  0  0  0  0  0
  1  3  1  0  0  0  0
  1  9  1  0  0  0  0
  2 12  1  0  0  0  0
  3  5  1  0  0  0  0
  4 12  2  0  0  0  0
  5  7  1  0  0  0  0
  6 12  2  0  0  0  0
  7  8  1  0  0  0  0
  7 10  1  0  0  0  0
  8  9  1  0  0  0  0
 10 11  1  0  0  0  0
 12 11  1  1  0  0  0
M  CHG  2   6  -1   7   1
M  END
>  <CHROM.1>
113.71188375,-174.47186762,60.93998263,3.81723621,0.95936482,-30.04616073
-2.23772034,-0.17050590,-2.47701622

>  <Name>
ligand

>  <RI>
0

>  <Rbt.Current_Directory>
/home/itssahil/PROJECTS/Mol_Feturizer/New_Systems/rnas/4P95

>  <Rbt.Executable>
rbdock ($Id: //depot/dev/client3/rdock/2013.1/src/exe/rbdock.cxx#4 $)

>  <Rbt.Library>
libRbt.so (2013.1, Build901 2013/11/27)

>  <Rbt.Parameter_File>
/export/apps/rDock/src/rDock_2013.1_src/data/scripts/dock_solv.prm

>  <Rbt.Receptor>
prm/pocket_docking_3.prm

>  <SCORE>
-8.66844

>  <SCORE.INTER>
-6.70946

>  <SCORE.INTER.CONST>
1

>  <SCORE.INTER.POLAR>
0

>  <SCORE.INTER.ROT>
3

>  <SCORE.INTER.SOLV>
5.14738

>  <SCORE.INTER.VDW>
-11.7888

>  <SCORE.INTER.norm>
-0.559122

>  <SCORE.INTRA>
-1.96037

>  <SCORE.INTRA.DIHEDRAL>
2.19342

>  <SCORE.INTRA.DIHEDRAL.0>
0.283163

>  <SCORE.INTRA.POLAR>
0

>  <SCORE.INTRA.POLAR.0>
0

>  <SCORE.INTRA.REPUL>
0

>  <SCORE.INTRA.REPUL.0>
0

>  <SCORE.INTRA.SOLV>
-0.712567

>  <SCORE.INTRA.SOLV.lig_0>
-32.2894

>  <SCORE.INTRA.VDW>
-2.7008

>  <SCORE.INTRA.VDW.0>
2.0241

>  <SCORE.INTRA.norm>
-0.163364

>  <SCORE.RESTR>
0.00138536

>  <SCORE.RESTR.CAVITY>
0.00138536

>  <SCORE.RESTR.norm>
0.000115446

>  <SCORE.SYSTEM>
0

>  <SCORE.SYSTEM.CONST>
0

>  <SCORE.SYSTEM.DIHEDRAL>
0

>  <SCORE.SYSTEM.SOLV>
0

>  <SCORE.SYSTEM.norm>
0

>  <SCORE.heavy>
12

>  <SCORE.norm>
-0.72237

>  <RMSD>
2.480

$$$$
ligand
 OpenBabel11021811513D
libRbt.so/2013.1/901 2013/11/27
 12 12  0  0  0  0  0  0  0  0999 V2000
    3.4236    3.9225  -29.5032 O   0  0  0  0  0  0  0  0  0  0  0  0
    6.4774    0.2095  -30.1732 O   0  0  0  0  0  0  0  0  0  0  0  0
    4.5079    3.3130  -30.0966 C   0  0  0  0  0  0  0  0  0  0  0  0
    5.4369   -0.8799  -32.0907 O   0  0  0  0  0  0  0  0  0  0  0  0
    4.2205    1.9595  -30.6028 C   0  0  0  0  0  0  0  0  0  0  0  0
    6.6220   -2.2138  -30.4406 O   0  5  0  0  0  0  0  0  0  0  0  0
    3.5716    1.1225  -29.5848 N   0  3  0  0  0  0  0  0  0  0  0  0
    2.4280    1.8047  -29.0359 C   0  0  0  0  0  0  0  0  0  0  0  0
    2.7898    3.1713  -28.5537 C   0  0  0  0  0  0  0  0  0  0  0  0
    3.1987   -0.1364  -30.1563 C   0  0  0  0  0  0  0  0  0  0  0  0
    4.2179   -1.2222  -29.7271 C   0  0  0  0  0  0  0  0  0  0  0  0
    5.7632   -1.0184  -30.6364 S   0  0  1  0  0  0  0  0  0  0  0  0
  1  3  1  0  0  0  0
  1  9  1  0  0  0  0
  2 12  1  0  0  0  0
  3  5  1  0  0  0  0
  4 12  2  0  0  0  0
  5  7  1  0  0  0  0
  6 12  2  0  0  0  0
  7  8  1  0  0  0  0
  7 10  1  0  0  0  0
  8  9  1  0  0  0  0
 10 11  1  0  0  0  0
 12 11  1  1  0  0  0
M  CHG  2   6  -1   7   1
M  END
>  <CHROM.1>
102.18627671,-74.50805640,70.44636408,4.56065403,0.64039016,-30.12497951
-2.16012024,-0.43605607,-3.10726049

>  <Name>
ligand

>  <RI>
0

>  <Rbt.Current_Directory>
/home/itssahil/PROJECTS/Mol_Feturizer/New_Systems/rnas/4P95

>  <Rbt.Executable>
rbdock ($Id: //depot/dev/client3/rdock/2013.1/src/exe/rbdock.cxx#4 $)

>  <Rbt.Library>
libRbt.so (2013.1, Build901 2013/11/27)

>  <Rbt.Parameter_File>
/export/apps/rDock/src/rDock_2013.1_src/data/scripts/dock_solv.prm

>  <Rbt.Receptor>
prm/pocket_docking_8.prm

>  <SCORE>
-10.5017

>  <SCORE.INTER>
-8.6048

>  <SCORE.INTER.CONST>
1

>  <SCORE.INTER.POLAR>
0

>  <SCORE.INTER.ROT>
3

>  <SCORE.INTER.SOLV>
6.89459

>  <SCORE.INTER.VDW>
-13.6347

>  <SCORE.INTER.norm>
-0.717067

>  <SCORE.INTRA>
-1.89693

>  <SCORE.INTRA.DIHEDRAL>
2.74229

>  <SCORE.INTRA.DIHEDRAL.0>
0.283163

>  <SCORE.INTRA.POLAR>
0

>  <SCORE.INTRA.POLAR.0>
0

>  <SCORE.INTRA.REPUL>
0

>  <SCORE.INTRA.REPUL.0>
0

>  <SCORE.INTRA.SOLV>
-0.416442

>  <SCORE.INTRA.SOLV.lig_0>
-32.2894

>  <SCORE.INTRA.VDW>
-3.05985

>  <SCORE.INTRA.VDW.0>
2.0241

>  <SCORE.INTRA.norm>
-0.158077

>  <SCORE.RESTR>
0

>  <SCORE.RESTR.CAVITY>
0

>  <SCORE.RESTR.norm>
0

>  <SCORE.SYSTEM>
0

>  <SCORE.SYSTEM.CONST>
0

>  <SCORE.SYSTEM.DIHEDRAL>
0

>  <SCORE.SYSTEM.SOLV>
0

>  <SCORE.SYSTEM.norm>
0

>  <SCORE.heavy>
12

>  <SCORE.norm>
-0.875144

>  <RMSD>
2.547

$$$$
ligand
 OpenBabel11021811513D
libRbt.so/2013.1/901 2013/11/27
 12 12  0  0  0  0  0  0  0  0999 V2000
    3.5105    3.8502  -29.7002 O   0  0  0  0  0  0  0  0  0  0  0  0
    6.5699    0.1508  -30.1488 O   0  0  0  0  0  0  0  0  0  0  0  0
    4.5960    3.2228  -30.2724 C   0  0  0  0  0  0  0  0  0  0  0  0
    5.6237   -1.1713  -31.9664 O   0  0  0  0  0  0  0  0  0  0  0  0
    4.3205    1.8406  -30.7019 C   0  0  0  0  0  0  0  0  0  0  0  0
    6.7933   -2.2813  -30.1481 O   0  5  0  0  0  0  0  0  0  0  0  0
    3.6933    1.0518  -29.6331 N   0  3  0  0  0  0  0  0  0  0  0  0
    2.5470    1.7486  -29.1085 C   0  0  0  0  0  0  0  0  0  0  0  0
    2.8966    3.1434  -28.7046 C   0  0  0  0  0  0  0  0  0  0  0  0
    3.3304   -0.2405  -30.1319 C   0  0  0  0  0  0  0  0  0  0  0  0
    4.3398   -1.2971  -29.6158 C   0  0  0  0  0  0  0  0  0  0  0  0
    5.9070   -1.1422  -30.4968 S   0  0  1  0  0  0  0  0  0  0  0  0
  1  3  1  0  0  0  0
  1  9  1  0  0  0  0
  2 12  1  0  0  0  0
  3  5  1  0  0  0  0
  4 12  2  0  0  0  0
  5  7  1  0  0  0  0
  6 12  2  0  0  0  0
  7  8  1  0  0  0  0
  7 10  1  0  0  0  0
  8  9  1  0  0  0  0
 10 11  1  0  0  0  0
 12 11  1  1  0  0  0
M  CHG  2   6  -1   7   1
M  END
>  <CHROM.1>
104.16409712,-74.08379640,67.10662371,4.68563844,0.54040971,-30.11149694
-2.16817770,-0.42898345,3.10453636

>  <Name>
ligand

>  <RI>
0

>  <Rbt.Current_Directory>
/home/itssahil/PROJECTS/Mol_Feturizer/New_Systems/rnas/4P95

>  <Rbt.Executable>
rbdock ($Id: //depot/dev/client3/rdock/2013.1/src/exe/rbdock.cxx#4 $)

>  <Rbt.Library>
libRbt.so (2013.1, Build901 2013/11/27)

>  <Rbt.Parameter_File>
/export/apps/rDock/src/rDock_2013.1_src/data/scripts/dock_solv.prm

>  <Rbt.Receptor>
prm/pocket_docking_8.prm

>  <SCORE>
-10.5542

>  <SCORE.INTER>
-8.59

>  <SCORE.INTER.CONST>
1

>  <SCORE.INTER.POLAR>
0

>  <SCORE.INTER.ROT>
3

>  <SCORE.INTER.SOLV>
7.71435

>  <SCORE.INTER.VDW>
-13.8981

>  <SCORE.INTER.norm>
-0.715833

>  <SCORE.INTRA>
-1.96416

>  <SCORE.INTRA.DIHEDRAL>
2.64203

>  <SCORE.INTRA.DIHEDRAL.0>
0.283163

>  <SCORE.INTRA.POLAR>
0

>  <SCORE.INTRA.POLAR.0>
0

>  <SCORE.INTRA.REPUL>
0

>  <SCORE.INTRA.REPUL.0>
0

>  <SCORE.INTRA.SOLV>
-0.455006

>  <SCORE.INTRA.SOLV.lig_0>
-32.2894

>  <SCORE.INTRA.VDW>
-3.05766

>  <SCORE.INTRA.VDW.0>
2.0241

>  <SCORE.INTRA.norm>
-0.16368

>  <SCORE.RESTR>
0

>  <SCORE.RESTR.CAVITY>
0

>  <SCORE.RESTR.norm>
0

>  <SCORE.SYSTEM>
0

>  <SCORE.SYSTEM.CONST>
0

>  <SCORE.SYSTEM.DIHEDRAL>
0

>  <SCORE.SYSTEM.SOLV>
0

>  <SCORE.SYSTEM.norm>
0

>  <SCORE.heavy>
12

>  <SCORE.norm>
-0.879513

>  <RMSD>
2.621

$$$$
ligand
 OpenBabel11021811513D
libRbt.so/2013.1/901 2013/11/27
 12 12  0  0  0  0  0  0  0  0999 V2000
    1.3993    3.6626  -27.7079 O   0  0  0  0  0  0  0  0  0  0  0  0
    2.8651   -2.1518  -31.6778 O   0  0  0  0  0  0  0  0  0  0  0  0
    2.7709    3.5358  -27.7527 C   0  0  0  0  0  0  0  0  0  0  0  0
    5.1526   -2.5089  -30.9119 O   0  0  0  0  0  0  0  0  0  0  0  0
    3.2534    2.7411  -28.8958 C   0  0  0  0  0  0  0  0  0  0  0  0
    4.6498   -0.6412  -32.3833 O   0  5  0  0  0  0  0  0  0  0  0  0
    2.5496    1.4561  -29.0029 N   0  3  0  0  0  0  0  0  0  0  0  0
    1.1249    1.6671  -28.9874 C   0  0  0  0  0  0  0  0  0  0  0  0
    0.7094    2.4874  -27.8105 C   0  0  0  0  0  0  0  0  0  0  0  0
    2.9596    0.7752  -30.1939 C   0  0  0  0  0  0  0  0  0  0  0  0
    3.8453   -0.4395  -29.8174 C   0  0  0  0  0  0  0  0  0  0  0  0
    4.1318   -1.4736  -31.2682 S   0  0  1  0  0  0  0  0  0  0  0  0
  1  3  1  0  0  0  0
  1  9  1  0  0  0  0
  2 12  1  0  0  0  0
  3  5  1  0  0  0  0
  4 12  2  0  0  0  0
  5  7  1  0  0  0  0
  6 12  2  0  0  0  0
  7  8  1  0  0  0  0
  7 10  1  0  0  0  0
  8  9  1  0  0  0  0
 10 11  1  0  0  0  0
 12 11  1  1  0  0  0
M  CHG  2   6  -1   7   1
M  END
>  <CHROM.1>
108.46113804,170.08320724,-69.08077444,3.08363721,0.50432684,-29.88577757
1.98817688,0.21153607,0.53101231

>  <Name>
ligand

>  <RI>
0

>  <Rbt.Current_Directory>
/home/itssahil/PROJECTS/Mol_Feturizer/New_Systems/rnas/4P95

>  <Rbt.Executable>
rbdock ($Id: //depot/dev/client3/rdock/2013.1/src/exe/rbdock.cxx#4 $)

>  <Rbt.Library>
libRbt.so (2013.1, Build901 2013/11/27)

>  <Rbt.Parameter_File>
/export/apps/rDock/src/rDock_2013.1_src/data/scripts/dock_solv.prm

>  <Rbt.Receptor>
prm/pocket_docking_3.prm

>  <SCORE>
-8.74161

>  <SCORE.INTER>
-7.32937

>  <SCORE.INTER.CONST>
1

>  <SCORE.INTER.POLAR>
0

>  <SCORE.INTER.ROT>
3

>  <SCORE.INTER.SOLV>
6.13

>  <SCORE.INTER.VDW>
-12.5296

>  <SCORE.INTER.norm>
-0.610781

>  <SCORE.INTRA>
-1.42587

>  <SCORE.INTRA.DIHEDRAL>
2.47648

>  <SCORE.INTRA.DIHEDRAL.0>
0.283163

>  <SCORE.INTRA.POLAR>
0

>  <SCORE.INTRA.POLAR.0>
0

>  <SCORE.INTRA.REPUL>
0

>  <SCORE.INTRA.REPUL.0>
0

>  <SCORE.INTRA.SOLV>
0.0222075

>  <SCORE.INTRA.SOLV.lig_0>
-32.2894

>  <SCORE.INTRA.VDW>
-2.67522

>  <SCORE.INTRA.VDW.0>
2.0241

>  <SCORE.INTRA.norm>
-0.118823

>  <SCORE.RESTR>
0.0136273

>  <SCORE.RESTR.CAVITY>
0.0136273

>  <SCORE.RESTR.norm>
0.00113561

>  <SCORE.SYSTEM>
0

>  <SCORE.SYSTEM.CONST>
0

>  <SCORE.SYSTEM.DIHEDRAL>
0

>  <SCORE.SYSTEM.SOLV>
0

>  <SCORE.SYSTEM.norm>
0

>  <SCORE.heavy>
12

>  <SCORE.norm>
-0.728468

>  <RMSD>
2.625

$$$$
ligand
 OpenBabel11021811513D
libRbt.so/2013.1/901 2013/11/27
 12 12  0  0  0  0  0  0  0  0999 V2000
    1.9651    4.0193  -28.9383 O   0  0  0  0  0  0  0  0  0  0  0  0
    3.6185    0.2789  -33.0528 O   0  0  0  0  0  0  0  0  0  0  0  0
    2.6486    3.0021  -28.3078 C   0  0  0  0  0  0  0  0  0  0  0  0
    2.8258   -0.3217  -30.8263 O   0  0  0  0  0  0  0  0  0  0  0  0
    3.9071    2.6320  -28.9785 C   0  0  0  0  0  0  0  0  0  0  0  0
    4.4733   -1.7195  -31.9391 O   0  5  0  0  0  0  0  0  0  0  0  0
    3.7106    2.3937  -30.4147 N   0  3  0  0  0  0  0  0  0  0  0  0
    3.0258    3.5100  -31.0144 C   0  0  0  0  0  0  0  0  0  0  0  0
    1.7678    3.8356  -30.2780 C   0  0  0  0  0  0  0  0  0  0  0  0
    4.9745    2.1612  -31.0462 C   0  0  0  0  0  0  0  0  0  0  0  0
    5.3197    0.6521  -30.9742 C   0  0  0  0  0  0  0  0  0  0  0  0
    4.0097   -0.3227  -31.7423 S   0  0  1  0  0  0  0  0  0  0  0  0
  1  3  1  0  0  0  0
  1  9  1  0  0  0  0
  2 12  1  0  0  0  0
  3  5  1  0  0  0  0
  4 12  2  0  0  0  0
  5  7  1  0  0  0  0
  6 12  2  0  0  0  0
  7  8  1  0  0  0  0
  7 10  1  0  0  0  0
  8  9  1  0  0  0  0
 10 11  1  0  0  0  0
 12 11  1  1  0  0  0
M  CHG  2   6  -1   7   1
M  END
>  <CHROM.1>
88.01408831,57.10993094,46.13305421,3.55375479,1.44584845,-30.75259516,2.00041319
-0.72301363,0.84390562

>  <Name>
ligand

>  <RI>
0

>  <Rbt.Current_Directory>
/home/itssahil/PROJECTS/Mol_Feturizer/New_Systems/rnas/4P95

>  <Rbt.Executable>
rbdock ($Id: //depot/dev/client3/rdock/2013.1/src/exe/rbdock.cxx#4 $)

>  <Rbt.Library>
libRbt.so (2013.1, Build901 2013/11/27)

>  <Rbt.Parameter_File>
/export/apps/rDock/src/rDock_2013.1_src/data/scripts/dock_solv.prm

>  <Rbt.Receptor>
prm/pocket_docking_2.prm

>  <SCORE>
-6.19829

>  <SCORE.INTER>
-3.73673

>  <SCORE.INTER.CONST>
1

>  <SCORE.INTER.POLAR>
0

>  <SCORE.INTER.ROT>
3

>  <SCORE.INTER.SOLV>
4.3898

>  <SCORE.INTER.VDW>
-9.55442

>  <SCORE.INTER.norm>
-0.311394

>  <SCORE.INTRA>
-2.48191

>  <SCORE.INTRA.DIHEDRAL>
1.30648

>  <SCORE.INTRA.DIHEDRAL.0>
0.283163

>  <SCORE.INTRA.POLAR>
0

>  <SCORE.INTRA.POLAR.0>
0

>  <SCORE.INTRA.REPUL>
0

>  <SCORE.INTRA.REPUL.0>
0

>  <SCORE.INTRA.SOLV>
0.0889934

>  <SCORE.INTRA.SOLV.lig_0>
-32.2894

>  <SCORE.INTRA.VDW>
-3.17965

>  <SCORE.INTRA.VDW.0>
2.0241

>  <SCORE.INTRA.norm>
-0.206826

>  <SCORE.RESTR>
0.020347

>  <SCORE.RESTR.CAVITY>
0.020347

>  <SCORE.RESTR.norm>
0.00169559

>  <SCORE.SYSTEM>
0

>  <SCORE.SYSTEM.CONST>
0

>  <SCORE.SYSTEM.DIHEDRAL>
0

>  <SCORE.SYSTEM.SOLV>
0

>  <SCORE.SYSTEM.norm>
0

>  <SCORE.heavy>
12

>  <SCORE.norm>
-0.516525

>  <RMSD>
2.690

$$$$
ligand
 OpenBabel11021811513D
libRbt.so/2013.1/901 2013/11/27
 12 12  0  0  0  0  0  0  0  0999 V2000
    2.1405    3.1765  -29.5476 O   0  0  0  0  0  0  0  0  0  0  0  0
    5.4245   -2.8604  -28.9698 O   0  0  0  0  0  0  0  0  0  0  0  0
    1.7009    1.9116  -29.8734 C   0  0  0  0  0  0  0  0  0  0  0  0
    7.2777   -1.8224  -30.1674 O   0  0  0  0  0  0  0  0  0  0  0  0
    2.7114    0.8614  -29.6573 C   0  0  0  0  0  0  0  0  0  0  0  0
    5.8756   -3.4560  -31.2949 O   0  5  0  0  0  0  0  0  0  0  0  0
    3.9973    1.2051  -30.2790 N   0  3  0  0  0  0  0  0  0  0  0  0
    4.4129    2.5209  -29.8659 C   0  0  0  0  0  0  0  0  0  0  0  0
    3.3378    3.5302  -30.1034 C   0  0  0  0  0  0  0  0  0  0  0  0
    4.9800    0.2208  -29.9389 C   0  0  0  0  0  0  0  0  0  0  0  0
    4.8170   -1.0141  -30.8609 C   0  0  0  0  0  0  0  0  0  0  0  0
    5.8851   -2.3554  -30.2984 S   0  0  1  0  0  0  0  0  0  0  0  0
  1  3  1  0  0  0  0
  1  9  1  0  0  0  0
  2 12  1  0  0  0  0
  3  5  1  0  0  0  0
  4 12  2  0  0  0  0
  5  7  1  0  0  0  0
  6 12  2  0  0  0  0
  7  8  1  0  0  0  0
  7 10  1  0  0  0  0
  8  9  1  0  0  0  0
 10 11  1  0  0  0  0
 12 11  1  6  0  0  0
M  CHG  2   6  -1   7   1
M  END
>  <CHROM.1>
80.90084373,-171.95333965,66.83600135,4.55231592,-0.13068924,-30.08934962
2.13413258,0.12444210,0.01325084

>  <Name>
ligand

>  <RI>
0

>  <Rbt.Current_Directory>
/home/itssahil/PROJECTS/Mol_Feturizer/New_Systems/rnas/4P95

>  <Rbt.Executable>
rbdock ($Id: //depot/dev/client3/rdock/2013.1/src/exe/rbdock.cxx#4 $)

>  <Rbt.Library>
libRbt.so (2013.1, Build901 2013/11/27)

>  <Rbt.Parameter_File>
/export/apps/rDock/src/rDock_2013.1_src/data/scripts/dock_solv.prm

>  <Rbt.Receptor>
prm/pocket_docking_5.prm

>  <SCORE>
-9.54185

>  <SCORE.INTER>
-7.52122

>  <SCORE.INTER.CONST>
1

>  <SCORE.INTER.POLAR>
0

>  <SCORE.INTER.ROT>
3

>  <SCORE.INTER.SOLV>
6.23738

>  <SCORE.INTER.VDW>
-12.6933

>  <SCORE.INTER.norm>
-0.626768

>  <SCORE.INTRA>
-2.02063

>  <SCORE.INTRA.DIHEDRAL>
0.810725

>  <SCORE.INTRA.DIHEDRAL.0>
0.283163

>  <SCORE.INTRA.POLAR>
0

>  <SCORE.INTRA.POLAR.0>
0

>  <SCORE.INTRA.REPUL>
0

>  <SCORE.INTRA.REPUL.0>
0

>  <SCORE.INTRA.SOLV>
-0.68563

>  <SCORE.INTRA.SOLV.lig_0>
-32.2894

>  <SCORE.INTRA.VDW>
-2.08317

>  <SCORE.INTRA.VDW.0>
2.0241

>  <SCORE.INTRA.norm>
-0.168386

>  <SCORE.RESTR>
0

>  <SCORE.RESTR.CAVITY>
0

>  <SCORE.RESTR.norm>
0

>  <SCORE.SYSTEM>
0

>  <SCORE.SYSTEM.CONST>
0

>  <SCORE.SYSTEM.DIHEDRAL>
0

>  <SCORE.SYSTEM.SOLV>
0

>  <SCORE.SYSTEM.norm>
0

>  <SCORE.heavy>
12

>  <SCORE.norm>
-0.795154

>  <RMSD>
2.706

$$$$
ligand
 OpenBabel11021811513D
libRbt.so/2013.1/901 2013/11/27
 12 12  0  0  0  0  0  0  0  0999 V2000
    3.1018    3.9920  -30.0105 O   0  0  0  0  0  0  0  0  0  0  0  0
    5.1575   -2.9294  -28.9694 O   0  0  0  0  0  0  0  0  0  0  0  0
    4.3894    3.6792  -30.3892 C   0  0  0  0  0  0  0  0  0  0  0  0
    7.2306   -2.5844  -30.2061 O   0  0  0  0  0  0  0  0  0  0  0  0
    4.5890    2.2480  -30.6770 C   0  0  0  0  0  0  0  0  0  0  0  0
    5.1081   -2.6064  -31.3897 O   0  5  0  0  0  0  0  0  0  0  0  0
    4.0822    1.3973  -29.5919 N   0  3  0  0  0  0  0  0  0  0  0  0
    2.7231    1.7537  -29.2747 C   0  0  0  0  0  0  0  0  0  0  0  0
    2.5933    3.2172  -29.0061 C   0  0  0  0  0  0  0  0  0  0  0  0
    4.1821    0.0192  -29.9677 C   0  0  0  0  0  0  0  0  0  0  0  0
    5.6631   -0.4313  -29.8954 C   0  0  0  0  0  0  0  0  0  0  0  0
    5.7817   -2.2172  -30.1250 S   0  0  1  0  0  0  0  0  0  0  0  0
  1  3  1  0  0  0  0
  1  9  1  0  0  0  0
  2 12  1  0  0  0  0
  3  5  1  0  0  0  0
  4 12  2  0  0  0  0
  5  7  1  0  0  0  0
  6 12  2  0  0  0  0
  7  8  1  0  0  0  0
  7 10  1  0  0  0  0
  8  9  1  0  0  0  0
 10 11  1  0  0  0  0
 12 11  1  1  0  0  0
M  CHG  2   6  -1   7   1
M  END
>  <CHROM.1>
74.26828965,171.61181918,-67.02627358,4.68890574,0.15201607,-29.98157779
-2.07163941,-0.56404710,2.91635648

>  <Name>
ligand

>  <RI>
0

>  <Rbt.Current_Directory>
/home/itssahil/PROJECTS/Mol_Feturizer/New_Systems/rnas/4P95

>  <Rbt.Executable>
rbdock ($Id: //depot/dev/client3/rdock/2013.1/src/exe/rbdock.cxx#4 $)

>  <Rbt.Library>
libRbt.so (2013.1, Build901 2013/11/27)

>  <Rbt.Parameter_File>
/export/apps/rDock/src/rDock_2013.1_src/data/scripts/dock_solv.prm

>  <Rbt.Receptor>
prm/pocket_docking_6.prm

>  <SCORE>
-11.3518

>  <SCORE.INTER>
-9.82653

>  <SCORE.INTER.CONST>
1

>  <SCORE.INTER.POLAR>
0

>  <SCORE.INTER.ROT>
3

>  <SCORE.INTER.SOLV>
7.26498

>  <SCORE.INTER.VDW>
-14.5727

>  <SCORE.INTER.norm>
-0.818878

>  <SCORE.INTRA>
-1.52529

>  <SCORE.INTRA.DIHEDRAL>
0.448099

>  <SCORE.INTRA.DIHEDRAL.0>
0.283163

>  <SCORE.INTRA.POLAR>
0

>  <SCORE.INTRA.POLAR.0>
0

>  <SCORE.INTRA.REPUL>
0

>  <SCORE.INTRA.REPUL.0>
0

>  <SCORE.INTRA.SOLV>
0.0079562

>  <SCORE.INTRA.SOLV.lig_0>
-32.2894

>  <SCORE.INTRA.VDW>
-1.75331

>  <SCORE.INTRA.VDW.0>
2.0241

>  <SCORE.INTRA.norm>
-0.127107

>  <SCORE.RESTR>
0

>  <SCORE.RESTR.CAVITY>
0

>  <SCORE.RESTR.norm>
0

>  <SCORE.SYSTEM>
0

>  <SCORE.SYSTEM.CONST>
0

>  <SCORE.SYSTEM.DIHEDRAL>
0

>  <SCORE.SYSTEM.SOLV>
0

>  <SCORE.SYSTEM.norm>
0

>  <SCORE.heavy>
12

>  <SCORE.norm>
-0.945985

>  <RMSD>
2.747

$$$$
ligand
 OpenBabel11021811513D
libRbt.so/2013.1/901 2013/11/27
 12 12  0  0  0  0  0  0  0  0999 V2000
    0.7162    3.0845  -27.8971 O   0  0  0  0  0  0  0  0  0  0  0  0
    6.7573    0.1569  -30.4925 O   0  0  0  0  0  0  0  0  0  0  0  0
    0.4203    2.2923  -28.9853 C   0  0  0  0  0  0  0  0  0  0  0  0
    6.5731    0.9902  -32.7768 O   0  0  0  0  0  0  0  0  0  0  0  0
    1.5304    1.4150  -29.3963 C   0  0  0  0  0  0  0  0  0  0  0  0
    5.0820   -0.7688  -32.0094 O   0  5  0  0  0  0  0  0  0  0  0  0
    2.7874    2.1600  -29.5477 N   0  3  0  0  0  0  0  0  0  0  0  0
    3.0520    2.9342  -28.3622 C   0  0  0  0  0  0  0  0  0  0  0  0
    1.8826    3.7894  -27.9991 C   0  0  0  0  0  0  0  0  0  0  0  0
    3.8600    1.2524  -29.8238 C   0  0  0  0  0  0  0  0  0  0  0  0
    4.6249    1.7235  -31.0866 C   0  0  0  0  0  0  0  0  0  0  0  0
    5.8069    0.4620  -31.6043 S   0  0  1  0  0  0  0  0  0  0  0  0
  1  3  1  0  0  0  0
  1  9  1  0  0  0  0
  2 12  1  0  0  0  0
  3  5  1  0  0  0  0
  4 12  2  0  0  0  0
  5  7  1  0  0  0  0
  6 12  2  0  0  0  0
  7  8  1  0  0  0  0
  7 10  1  0  0  0  0
  8  9  1  0  0  0  0
 10 11  1  0  0  0  0
 12 11  1  1  0  0  0
M  CHG  2   6  -1   7   1
M  END
>  <CHROM.1>
128.10126756,-170.99407824,-57.46901783,3.84530378,1.48549599,-30.17988385
2.43423356,0.17357013,0.73055500

>  <Name>
ligand

>  <RI>
0

>  <Rbt.Current_Directory>
/home/itssahil/PROJECTS/Mol_Feturizer/New_Systems/rnas/4P95

>  <Rbt.Executable>
rbdock ($Id: //depot/dev/client3/rdock/2013.1/src/exe/rbdock.cxx#4 $)

>  <Rbt.Library>
libRbt.so (2013.1, Build901 2013/11/27)

>  <Rbt.Parameter_File>
/export/apps/rDock/src/rDock_2013.1_src/data/scripts/dock_solv.prm

>  <Rbt.Receptor>
prm/pocket_docking_3.prm

>  <SCORE>
-8.51898

>  <SCORE.INTER>
-6.94761

>  <SCORE.INTER.CONST>
1

>  <SCORE.INTER.POLAR>
0

>  <SCORE.INTER.ROT>
3

>  <SCORE.INTER.SOLV>
4.15726

>  <SCORE.INTER.VDW>
-11.6175

>  <SCORE.INTER.norm>
-0.578968

>  <SCORE.INTRA>
-1.57425

>  <SCORE.INTRA.DIHEDRAL>
2.30554

>  <SCORE.INTRA.DIHEDRAL.0>
0.283163

>  <SCORE.INTRA.POLAR>
0

>  <SCORE.INTRA.POLAR.0>
0

>  <SCORE.INTRA.REPUL>
0

>  <SCORE.INTRA.REPUL.0>
0

>  <SCORE.INTRA.SOLV>
-0.0596201

>  <SCORE.INTRA.SOLV.lig_0>
-32.2894

>  <SCORE.INTRA.VDW>
-2.69721

>  <SCORE.INTRA.VDW.0>
2.0241

>  <SCORE.INTRA.norm>
-0.131187

>  <SCORE.RESTR>
0.00287791

>  <SCORE.RESTR.CAVITY>
0.00287791

>  <SCORE.RESTR.norm>
0.000239826

>  <SCORE.SYSTEM>
0

>  <SCORE.SYSTEM.CONST>
0

>  <SCORE.SYSTEM.DIHEDRAL>
0

>  <SCORE.SYSTEM.SOLV>
0

>  <SCORE.SYSTEM.norm>
0

>  <SCORE.heavy>
12

>  <SCORE.norm>
-0.709915

>  <RMSD>
2.758

$$$$
ligand
 OpenBabel11021811513D
libRbt.so/2013.1/901 2013/11/27
 12 12  0  0  0  0  0  0  0  0999 V2000
    2.5754    3.4937  -29.9155 O   0  0  0  0  0  0  0  0  0  0  0  0
    5.3057   -2.9287  -28.9081 O   0  0  0  0  0  0  0  0  0  0  0  0
    1.9483    2.2766  -30.0728 C   0  0  0  0  0  0  0  0  0  0  0  0
    7.2260   -1.9852  -30.0781 O   0  0  0  0  0  0  0  0  0  0  0  0
    2.7943    1.1255  -29.7119 C   0  0  0  0  0  0  0  0  0  0  0  0
    5.7870   -3.5825  -31.2115 O   0  5  0  0  0  0  0  0  0  0  0  0
    4.1084    1.1879  -30.3654 N   0  3  0  0  0  0  0  0  0  0  0  0
    4.7206    2.4701  -30.1287 C   0  0  0  0  0  0  0  0  0  0  0  0
    3.8045    3.5879  -30.5057 C   0  0  0  0  0  0  0  0  0  0  0  0
    4.9384    0.1220  -29.8906 C   0  0  0  0  0  0  0  0  0  0  0  0
    4.8159   -1.0937  -30.8438 C   0  0  0  0  0  0  0  0  0  0  0  0
    5.8168   -2.4656  -30.2335 S   0  0  1  0  0  0  0  0  0  0  0  0
  1  3  1  0  0  0  0
  1  9  1  0  0  0  0
  2 12  1  0  0  0  0
  3  5  1  0  0  0  0
  4 12  2  0  0  0  0
  5  7  1  0  0  0  0
  6 12  2  0  0  0  0
  7  8  1  0  0  0  0
  7 10  1  0  0  0  0
  8  9  1  0  0  0  0
 10 11  1  0  0  0  0
 12 11  1  6  0  0  0
M  CHG  2   6  -1   7   1
M  END
>  <CHROM.1>
93.62908341,-178.27812358,63.38013628,4.64023889,-0.12039583,-30.15751864
2.05719331,0.15338062,-0.05823411

>  <Name>
ligand

>  <RI>
0

>  <Rbt.Current_Directory>
/home/itssahil/PROJECTS/Mol_Feturizer/New_Systems/rnas/4P95

>  <Rbt.Executable>
rbdock ($Id: //depot/dev/client3/rdock/2013.1/src/exe/rbdock.cxx#4 $)

>  <Rbt.Library>
libRbt.so (2013.1, Build901 2013/11/27)

>  <Rbt.Parameter_File>
/export/apps/rDock/src/rDock_2013.1_src/data/scripts/dock_solv.prm

>  <Rbt.Receptor>
prm/pocket_docking_8.prm

>  <SCORE>
-9.50824

>  <SCORE.INTER>
-7.29678

>  <SCORE.INTER.CONST>
1

>  <SCORE.INTER.POLAR>
0

>  <SCORE.INTER.ROT>
3

>  <SCORE.INTER.SOLV>
6.79589

>  <SCORE.INTER.VDW>
-12.7298

>  <SCORE.INTER.norm>
-0.608065

>  <SCORE.INTRA>
-2.21147

>  <SCORE.INTRA.DIHEDRAL>
1.26429

>  <SCORE.INTRA.DIHEDRAL.0>
0.283163

>  <SCORE.INTRA.POLAR>
0

>  <SCORE.INTRA.POLAR.0>
0

>  <SCORE.INTRA.REPUL>
0

>  <SCORE.INTRA.REPUL.0>
0

>  <SCORE.INTRA.SOLV>
-0.702527

>  <SCORE.INTRA.SOLV.lig_0>
-32.2894

>  <SCORE.INTRA.VDW>
-2.49235

>  <SCORE.INTRA.VDW.0>
2.0241

>  <SCORE.INTRA.norm>
-0.184289

>  <SCORE.RESTR>
0

>  <SCORE.RESTR.CAVITY>
0

>  <SCORE.RESTR.norm>
0

>  <SCORE.SYSTEM>
0

>  <SCORE.SYSTEM.CONST>
0

>  <SCORE.SYSTEM.DIHEDRAL>
0

>  <SCORE.SYSTEM.SOLV>
0

>  <SCORE.SYSTEM.norm>
0

>  <SCORE.heavy>
12

>  <SCORE.norm>
-0.792354

>  <RMSD>
2.764

$$$$
ligand
 OpenBabel11021811513D
libRbt.so/2013.1/901 2013/11/27
 12 12  0  0  0  0  0  0  0  0999 V2000
    3.1321    4.0042  -30.1726 O   0  0  0  0  0  0  0  0  0  0  0  0
    5.1441   -2.8868  -28.9283 O   0  0  0  0  0  0  0  0  0  0  0  0
    4.3742    3.6615  -30.6615 C   0  0  0  0  0  0  0  0  0  0  0  0
    7.2104   -2.6328  -30.1981 O   0  0  0  0  0  0  0  0  0  0  0  0
    4.5441    2.2143  -30.8799 C   0  0  0  0  0  0  0  0  0  0  0  0
    5.0754   -2.6594  -31.3589 O   0  5  0  0  0  0  0  0  0  0  0  0
    4.1520    1.4343  -29.6985 N   0  3  0  0  0  0  0  0  0  0  0  0
    2.8325    1.8171  -29.2660 C   0  0  0  0  0  0  0  0  0  0  0  0
    2.7300    3.2950  -29.0758 C   0  0  0  0  0  0  0  0  0  0  0  0
    4.2136    0.0353  -29.9974 C   0  0  0  0  0  0  0  0  0  0  0  0
    5.6888   -0.4381  -29.9584 C   0  0  0  0  0  0  0  0  0  0  0  0
    5.7699   -2.2338  -30.1175 S   0  0  1  0  0  0  0  0  0  0  0  0
  1  3  1  0  0  0  0
  1  9  1  0  0  0  0
  2 12  1  0  0  0  0
  3  5  1  0  0  0  0
  4 12  2  0  0  0  0
  5  7  1  0  0  0  0
  6 12  2  0  0  0  0
  7  8  1  0  0  0  0
  7 10  1  0  0  0  0
  8  9  1  0  0  0  0
 10 11  1  0  0  0  0
 12 11  1  1  0  0  0
M  CHG  2   6  -1   7   1
M  END
>  <CHROM.1>
77.94684736,172.59969929,-65.56850697,4.70659230,0.15524989,-30.04021752
-2.09389709,-0.66116261,2.83198921

>  <Name>
ligand

>  <RI>
0

>  <Rbt.Current_Directory>
/home/itssahil/PROJECTS/Mol_Feturizer/New_Systems/rnas/4P95

>  <Rbt.Executable>
rbdock ($Id: //depot/dev/client3/rdock/2013.1/src/exe/rbdock.cxx#4 $)

>  <Rbt.Library>
libRbt.so (2013.1, Build901 2013/11/27)

>  <Rbt.Parameter_File>
/export/apps/rDock/src/rDock_2013.1_src/data/scripts/dock_solv.prm

>  <Rbt.Receptor>
prm/pocket_docking_6.prm

>  <SCORE>
-11.4182

>  <SCORE.INTER>
-9.70869

>  <SCORE.INTER.CONST>
1

>  <SCORE.INTER.POLAR>
0

>  <SCORE.INTER.ROT>
3

>  <SCORE.INTER.SOLV>
7.29988

>  <SCORE.INTER.VDW>
-14.5058

>  <SCORE.INTER.norm>
-0.809058

>  <SCORE.INTRA>
-1.70946

>  <SCORE.INTRA.DIHEDRAL>
0.531748

>  <SCORE.INTRA.DIHEDRAL.0>
0.283163

>  <SCORE.INTRA.POLAR>
0

>  <SCORE.INTRA.POLAR.0>
0

>  <SCORE.INTRA.REPUL>
0

>  <SCORE.INTRA.REPUL.0>
0

>  <SCORE.INTRA.SOLV>
-0.00743108

>  <SCORE.INTRA.SOLV.lig_0>
-32.2894

>  <SCORE.INTRA.VDW>
-1.97162

>  <SCORE.INTRA.VDW.0>
2.0241

>  <SCORE.INTRA.norm>
-0.142455

>  <SCORE.RESTR>
0

>  <SCORE.RESTR.CAVITY>
0

>  <SCORE.RESTR.norm>
0

>  <SCORE.SYSTEM>
0

>  <SCORE.SYSTEM.CONST>
0

>  <SCORE.SYSTEM.DIHEDRAL>
0

>  <SCORE.SYSTEM.SOLV>
0

>  <SCORE.SYSTEM.norm>
0

>  <SCORE.heavy>
12

>  <SCORE.norm>
-0.951513

>  <RMSD>
2.775

$$$$
ligand
 OpenBabel11021811513D
libRbt.so/2013.1/901 2013/11/27
 12 12  0  0  0  0  0  0  0  0999 V2000
    1.8668    4.5981  -29.1344 O   0  0  0  0  0  0  0  0  0  0  0  0
    7.0471   -0.3127  -29.9435 O   0  0  0  0  0  0  0  0  0  0  0  0
    2.1130    3.5482  -28.2763 C   0  0  0  0  0  0  0  0  0  0  0  0
    6.7167    0.4354  -32.2408 O   0  0  0  0  0  0  0  0  0  0  0  0
    3.3600    2.8220  -28.5741 C   0  0  0  0  0  0  0  0  0  0  0  0
    5.9262   -1.7598  -31.5604 O   0  5  0  0  0  0  0  0  0  0  0  0
    3.4459    2.4437  -29.9910 N   0  3  0  0  0  0  0  0  0  0  0  0
    3.2161    3.5937  -30.8272 C   0  0  0  0  0  0  0  0  0  0  0  0
    1.9436    4.2855  -30.4626 C   0  0  0  0  0  0  0  0  0  0  0  0
    4.7230    1.8544  -30.2600 C   0  0  0  0  0  0  0  0  0  0  0  0
    4.5321    0.3770  -30.6872 C   0  0  0  0  0  0  0  0  0  0  0  0
    6.1237   -0.3564  -31.1173 S   0  0  1  0  0  0  0  0  0  0  0  0
  1  3  1  0  0  0  0
  1  9  1  0  0  0  0
  2 12  1  0  0  0  0
  3  5  1  0  0  0  0
  4 12  2  0  0  0  0
  5  7  1  0  0  0  0
  6 12  2  0  0  0  0
  7  8  1  0  0  0  0
  7 10  1  0  0  0  0
  8  9  1  0  0  0  0
 10 11  1  0  0  0  0
 12 11  1  1  0  0  0
M  CHG  2   6  -1   7   1
M  END
>  <CHROM.1>
116.15303802,176.92338365,60.04679604,4.47135426,1.55154229,-30.35503550
3.02903243,-0.87262802,1.80963290

>  <Name>
ligand

>  <RI>
0

>  <Rbt.Current_Directory>
/home/itssahil/PROJECTS/Mol_Feturizer/New_Systems/rnas/4P95

>  <Rbt.Executable>
rbdock ($Id: //depot/dev/client3/rdock/2013.1/src/exe/rbdock.cxx#4 $)

>  <Rbt.Library>
libRbt.so (2013.1, Build901 2013/11/27)

>  <Rbt.Parameter_File>
/export/apps/rDock/src/rDock_2013.1_src/data/scripts/dock_solv.prm

>  <Rbt.Receptor>
prm/pocket_docking_3.prm

>  <SCORE>
-9.74863

>  <SCORE.INTER>
-7.75564

>  <SCORE.INTER.CONST>
1

>  <SCORE.INTER.POLAR>
0

>  <SCORE.INTER.ROT>
3

>  <SCORE.INTER.SOLV>
4.39139

>  <SCORE.INTER.VDW>
-12.2342

>  <SCORE.INTER.norm>
-0.646304

>  <SCORE.INTRA>
-1.99346

>  <SCORE.INTRA.DIHEDRAL>
2.14056

>  <SCORE.INTRA.DIHEDRAL.0>
0.283163

>  <SCORE.INTRA.POLAR>
0

>  <SCORE.INTRA.POLAR.0>
0

>  <SCORE.INTRA.REPUL>
0

>  <SCORE.INTRA.REPUL.0>
0

>  <SCORE.INTRA.SOLV>
-0.71693

>  <SCORE.INTRA.SOLV.lig_0>
-32.2894

>  <SCORE.INTRA.VDW>
-2.70528

>  <SCORE.INTRA.VDW.0>
2.0241

>  <SCORE.INTRA.norm>
-0.166122

>  <SCORE.RESTR>
0.000480911

>  <SCORE.RESTR.CAVITY>
0.000480911

>  <SCORE.RESTR.norm>
4.00759e-05

>  <SCORE.SYSTEM>
0

>  <SCORE.SYSTEM.CONST>
0

>  <SCORE.SYSTEM.DIHEDRAL>
0

>  <SCORE.SYSTEM.SOLV>
0

>  <SCORE.SYSTEM.norm>
0

>  <SCORE.heavy>
12

>  <SCORE.norm>
-0.812386

>  <RMSD>
2.820

$$$$
ligand
 OpenBabel11021811513D
libRbt.so/2013.1/901 2013/11/27
 12 12  0  0  0  0  0  0  0  0999 V2000
    3.1008    3.9443  -30.1605 O   0  0  0  0  0  0  0  0  0  0  0  0
    4.9227   -2.6851  -31.3246 O   0  0  0  0  0  0  0  0  0  0  0  0
    4.3722    3.6119  -30.5758 C   0  0  0  0  0  0  0  0  0  0  0  0
    5.3246   -2.9161  -28.9306 O   0  0  0  0  0  0  0  0  0  0  0  0
    4.5613    2.1682  -30.8009 C   0  0  0  0  0  0  0  0  0  0  0  0
    7.2015   -2.6308  -30.4478 O   0  5  0  0  0  0  0  0  0  0  0  0
    4.1001    1.3722  -29.6556 N   0  3  0  0  0  0  0  0  0  0  0  0
    2.7548    1.7452  -29.3009 C   0  0  0  0  0  0  0  0  0  0  0  0
    2.6347    3.2202  -29.0994 C   0  0  0  0  0  0  0  0  0  0  0  0
    4.1860   -0.0227  -29.9671 C   0  0  0  0  0  0  0  0  0  0  0  0
    5.6714   -0.4646  -29.9597 C   0  0  0  0  0  0  0  0  0  0  0  0
    5.7899   -2.2507  -30.1881 S   0  0  1  0  0  0  0  0  0  0  0  0
  1  3  1  0  0  0  0
  1  9  1  0  0  0  0
  2 12  1  0  0  0  0
  3  5  1  0  0  0  0
  4 12  2  0  0  0  0
  5  7  1  0  0  0  0
  6 12  2  0  0  0  0
  7  8  1  0  0  0  0
  7 10  1  0  0  0  0
  8  9  1  0  0  0  0
 10 11  1  0  0  0  0
 12 11  1  1  0  0  0
M  CHG  2   6  -1   7   1
M  END
>  <CHROM.1>
73.20546173,174.40333015,47.39791455,4.69046518,0.11506973,-30.05596017,-2.08772376
-0.60983432,2.87534268

>  <Name>
ligand

>  <RI>
0

>  <Rbt.Current_Directory>
/home/itssahil/PROJECTS/Mol_Feturizer/New_Systems/rnas/4P95

>  <Rbt.Executable>
rbdock ($Id: //depot/dev/client3/rdock/2013.1/src/exe/rbdock.cxx#4 $)

>  <Rbt.Library>
libRbt.so (2013.1, Build901 2013/11/27)

>  <Rbt.Parameter_File>
/export/apps/rDock/src/rDock_2013.1_src/data/scripts/dock_solv.prm

>  <Rbt.Receptor>
prm/pocket_docking_7.prm

>  <SCORE>
-10.3956

>  <SCORE.INTER>
-8.62158

>  <SCORE.INTER.CONST>
1

>  <SCORE.INTER.POLAR>
0

>  <SCORE.INTER.ROT>
3

>  <SCORE.INTER.SOLV>
9.61978

>  <SCORE.INTER.VDW>
-14.5543

>  <SCORE.INTER.norm>
-0.718465

>  <SCORE.INTRA>
-1.77402

>  <SCORE.INTRA.DIHEDRAL>
0.497728

>  <SCORE.INTRA.DIHEDRAL.0>
0.283163

>  <SCORE.INTRA.POLAR>
0

>  <SCORE.INTRA.POLAR.0>
0

>  <SCORE.INTRA.REPUL>
0

>  <SCORE.INTRA.REPUL.0>
0

>  <SCORE.INTRA.SOLV>
-0.729791

>  <SCORE.INTRA.SOLV.lig_0>
-32.2894

>  <SCORE.INTRA.VDW>
-1.65799

>  <SCORE.INTRA.VDW.0>
2.0241

>  <SCORE.INTRA.norm>
-0.147835

>  <SCORE.RESTR>
0

>  <SCORE.RESTR.CAVITY>
0

>  <SCORE.RESTR.norm>
0

>  <SCORE.SYSTEM>
0

>  <SCORE.SYSTEM.CONST>
0

>  <SCORE.SYSTEM.DIHEDRAL>
0

>  <SCORE.SYSTEM.SOLV>
0

>  <SCORE.SYSTEM.norm>
0

>  <SCORE.heavy>
12

>  <SCORE.norm>
-0.8663

>  <RMSD>
2.844

$$$$
ligand
 OpenBabel11021811513D
libRbt.so/2013.1/901 2013/11/27
 12 12  0  0  0  0  0  0  0  0999 V2000
    3.1248    3.9701  -30.1355 O   0  0  0  0  0  0  0  0  0  0  0  0
    4.9136   -2.6620  -31.3251 O   0  0  0  0  0  0  0  0  0  0  0  0
    4.3867    3.6312  -30.5738 C   0  0  0  0  0  0  0  0  0  0  0  0
    5.3054   -2.9108  -28.9311 O   0  0  0  0  0  0  0  0  0  0  0  0
    4.5652    2.1862  -30.7994 C   0  0  0  0  0  0  0  0  0  0  0  0
    7.1898   -2.6331  -30.4404 O   0  5  0  0  0  0  0  0  0  0  0  0
    4.1220    1.3946  -29.6440 N   0  3  0  0  0  0  0  0  0  0  0  0
    2.7852    1.7743  -29.2650 C   0  0  0  0  0  0  0  0  0  0  0  0
    2.6754    3.2502  -29.0643 C   0  0  0  0  0  0  0  0  0  0  0  0
    4.1959   -0.0013  -29.9541 C   0  0  0  0  0  0  0  0  0  0  0  0
    5.6773   -0.4564  -29.9446 C   0  0  0  0  0  0  0  0  0  0  0  0
    5.7808   -2.2420  -30.1831 S   0  0  1  0  0  0  0  0  0  0  0  0
  1  3  1  0  0  0  0
  1  9  1  0  0  0  0
  2 12  1  0  0  0  0
  3  5  1  0  0  0  0
  4 12  2  0  0  0  0
  5  7  1  0  0  0  0
  6 12  2  0  0  0  0
  7  8  1  0  0  0  0
  7 10  1  0  0  0  0
  8  9  1  0  0  0  0
 10 11  1  0  0  0  0
 12 11  1  1  0  0  0
M  CHG  2   6  -1   7   1
M  END
>  <CHROM.1>
74.37403641,174.81240410,47.40456608,4.69682149,0.13149983,-30.04429536,-2.08674530
-0.62844574,2.87094337

>  <Name>
ligand

>  <RI>
0

>  <Rbt.Current_Directory>
/home/itssahil/PROJECTS/Mol_Feturizer/New_Systems/rnas/4P95

>  <Rbt.Executable>
rbdock ($Id: //depot/dev/client3/rdock/2013.1/src/exe/rbdock.cxx#4 $)

>  <Rbt.Library>
libRbt.so (2013.1, Build901 2013/11/27)

>  <Rbt.Parameter_File>
/export/apps/rDock/src/rDock_2013.1_src/data/scripts/dock_solv.prm

>  <Rbt.Receptor>
prm/pocket_docking_7.prm

>  <SCORE>
-10.3587

>  <SCORE.INTER>
-8.52421

>  <SCORE.INTER.CONST>
1

>  <SCORE.INTER.POLAR>
0

>  <SCORE.INTER.ROT>
3

>  <SCORE.INTER.SOLV>
9.76181

>  <SCORE.INTER.VDW>
-14.5367

>  <SCORE.INTER.norm>
-0.710351

>  <SCORE.INTRA>
-1.8345

>  <SCORE.INTRA.DIHEDRAL>
0.532462

>  <SCORE.INTRA.DIHEDRAL.0>
0.283163

>  <SCORE.INTRA.POLAR>
0

>  <SCORE.INTRA.POLAR.0>
0

>  <SCORE.INTRA.REPUL>
0

>  <SCORE.INTRA.REPUL.0>
0

>  <SCORE.INTRA.SOLV>
-0.73007

>  <SCORE.INTRA.SOLV.lig_0>
-32.2894

>  <SCORE.INTRA.VDW>
-1.73569

>  <SCORE.INTRA.VDW.0>
2.0241

>  <SCORE.INTRA.norm>
-0.152875

>  <SCORE.RESTR>
0

>  <SCORE.RESTR.CAVITY>
0

>  <SCORE.RESTR.norm>
0

>  <SCORE.SYSTEM>
0

>  <SCORE.SYSTEM.CONST>
0

>  <SCORE.SYSTEM.DIHEDRAL>
0

>  <SCORE.SYSTEM.SOLV>
0

>  <SCORE.SYSTEM.norm>
0

>  <SCORE.heavy>
12

>  <SCORE.norm>
-0.863226

>  <RMSD>
2.853

$$$$
ligand
 OpenBabel11021811513D
libRbt.so/2013.1/901 2013/11/27
 12 12  0  0  0  0  0  0  0  0999 V2000
    0.8318    3.2851  -27.9161 O   0  0  0  0  0  0  0  0  0  0  0  0
    6.8938    0.0743  -30.1211 O   0  0  0  0  0  0  0  0  0  0  0  0
    2.1074    3.4834  -27.4335 C   0  0  0  0  0  0  0  0  0  0  0  0
    5.7419    0.5388  -32.2197 O   0  0  0  0  0  0  0  0  0  0  0  0
    3.1647    3.1309  -28.3972 C   0  0  0  0  0  0  0  0  0  0  0  0
    5.8088   -1.7319  -31.3561 O   0  5  0  0  0  0  0  0  0  0  0  0
    2.9622    1.7907  -28.9636 N   0  3  0  0  0  0  0  0  0  0  0  0
    1.6238    1.6672  -29.4814 C   0  0  0  0  0  0  0  0  0  0  0  0
    0.6069    2.0503  -28.4567 C   0  0  0  0  0  0  0  0  0  0  0  0
    3.9369    1.5413  -29.9825 C   0  0  0  0  0  0  0  0  0  0  0  0
    4.1827    0.0158  -30.1019 C   0  0  0  0  0  0  0  0  0  0  0  0
    5.7283   -0.2981  -30.9786 S   0  0  1  0  0  0  0  0  0  0  0  0
  1  3  1  0  0  0  0
  1  9  1  0  0  0  0
  2 12  1  0  0  0  0
  3  5  1  0  0  0  0
  4 12  2  0  0  0  0
  5  7  1  0  0  0  0
  6 12  2  0  0  0  0
  7  8  1  0  0  0  0
  7 10  1  0  0  0  0
  8  9  1  0  0  0  0
 10 11  1  0  0  0  0
 12 11  1  1  0  0  0
M  CHG  2   6  -1   7   1
M  END
>  <CHROM.1>
153.35836377,-162.51893137,71.11753430,3.87530094,1.11697676,-29.77574685
2.36279570,0.07603276,0.65504513

>  <Name>
ligand

>  <RI>
0

>  <Rbt.Current_Directory>
/home/itssahil/PROJECTS/Mol_Feturizer/New_Systems/rnas/4P95

>  <Rbt.Executable>
rbdock ($Id: //depot/dev/client3/rdock/2013.1/src/exe/rbdock.cxx#4 $)

>  <Rbt.Library>
libRbt.so (2013.1, Build901 2013/11/27)

>  <Rbt.Parameter_File>
/export/apps/rDock/src/rDock_2013.1_src/data/scripts/dock_solv.prm

>  <Rbt.Receptor>
prm/pocket_docking_3.prm

>  <SCORE>
-9.69445

>  <SCORE.INTER>
-8.1771

>  <SCORE.INTER.CONST>
1

>  <SCORE.INTER.POLAR>
0

>  <SCORE.INTER.ROT>
3

>  <SCORE.INTER.SOLV>
5.10623

>  <SCORE.INTER.VDW>
-12.7535

>  <SCORE.INTER.norm>
-0.681425

>  <SCORE.INTRA>
-1.51735

>  <SCORE.INTRA.DIHEDRAL>
2.0501

>  <SCORE.INTRA.DIHEDRAL.0>
0.283163

>  <SCORE.INTRA.POLAR>
0

>  <SCORE.INTRA.POLAR.0>
0

>  <SCORE.INTRA.REPUL>
0

>  <SCORE.INTRA.REPUL.0>
0

>  <SCORE.INTRA.SOLV>
-0.672129

>  <SCORE.INTRA.SOLV.lig_0>
-32.2894

>  <SCORE.INTRA.VDW>
-2.20634

>  <SCORE.INTRA.VDW.0>
2.0241

>  <SCORE.INTRA.norm>
-0.126446

>  <SCORE.RESTR>
0

>  <SCORE.RESTR.CAVITY>
0

>  <SCORE.RESTR.norm>
0

>  <SCORE.SYSTEM>
0

>  <SCORE.SYSTEM.CONST>
0

>  <SCORE.SYSTEM.DIHEDRAL>
0

>  <SCORE.SYSTEM.SOLV>
0

>  <SCORE.SYSTEM.norm>
0

>  <SCORE.heavy>
12

>  <SCORE.norm>
-0.807871

>  <RMSD>
2.859

$$$$
ligand
 OpenBabel11021811513D
libRbt.so/2013.1/901 2013/11/27
 12 12  0  0  0  0  0  0  0  0999 V2000
    0.8151    3.2399  -28.0255 O   0  0  0  0  0  0  0  0  0  0  0  0
    6.9821   -0.0882  -30.0317 O   0  0  0  0  0  0  0  0  0  0  0  0
    2.0677    3.4797  -27.5032 C   0  0  0  0  0  0  0  0  0  0  0  0
    5.8837    0.5916  -32.1000 O   0  0  0  0  0  0  0  0  0  0  0  0
    3.1667    3.1265  -28.4187 C   0  0  0  0  0  0  0  0  0  0  0  0
    5.8273   -1.7388  -31.4125 O   0  5  0  0  0  0  0  0  0  0  0  0
    3.0142    1.7677  -28.9558 N   0  3  0  0  0  0  0  0  0  0  0  0
    1.6984    1.6002  -29.5174 C   0  0  0  0  0  0  0  0  0  0  0  0
    0.6369    1.9866  -28.5403 C   0  0  0  0  0  0  0  0  0  0  0  0
    4.0304    1.5141  -29.9322 C   0  0  0  0  0  0  0  0  0  0  0  0
    4.2714   -0.0126  -30.0445 C   0  0  0  0  0  0  0  0  0  0  0  0
    5.8118   -0.3357  -30.9270 S   0  0  1  0  0  0  0  0  0  0  0  0
  1  3  1  0  0  0  0
  1  9  1  0  0  0  0
  2 12  1  0  0  0  0
  3  5  1  0  0  0  0
  4 12  2  0  0  0  0
  5  7  1  0  0  0  0
  6 12  2  0  0  0  0
  7  8  1  0  0  0  0
  7 10  1  0  0  0  0
  8  9  1  0  0  0  0
 10 11  1  0  0  0  0
 12 11  1  1  0  0  0
M  CHG  2   6  -1   7   1
M  END
>  <CHROM.1>
155.72621092,-165.31465396,76.60569252,3.92994089,1.08175925,-29.77055233
2.38026206,0.07288369,0.63334498

>  <Name>
ligand

>  <RI>
0

>  <Rbt.Current_Directory>
/home/itssahil/PROJECTS/Mol_Feturizer/New_Systems/rnas/4P95

>  <Rbt.Executable>
rbdock ($Id: //depot/dev/client3/rdock/2013.1/src/exe/rbdock.cxx#4 $)

>  <Rbt.Library>
libRbt.so (2013.1, Build901 2013/11/27)

>  <Rbt.Parameter_File>
/export/apps/rDock/src/rDock_2013.1_src/data/scripts/dock_solv.prm

>  <Rbt.Receptor>
prm/pocket_docking_3.prm

>  <SCORE>
-9.83367

>  <SCORE.INTER>
-8.43351

>  <SCORE.INTER.CONST>
1

>  <SCORE.INTER.POLAR>
0

>  <SCORE.INTER.ROT>
3

>  <SCORE.INTER.SOLV>
5.21177

>  <SCORE.INTER.VDW>
-12.9596

>  <SCORE.INTER.norm>
-0.702792

>  <SCORE.INTRA>
-1.40017

>  <SCORE.INTRA.DIHEDRAL>
1.9626

>  <SCORE.INTRA.DIHEDRAL.0>
0.283163

>  <SCORE.INTRA.POLAR>
0

>  <SCORE.INTRA.POLAR.0>
0

>  <SCORE.INTRA.REPUL>
0

>  <SCORE.INTRA.REPUL.0>
0

>  <SCORE.INTRA.SOLV>
-0.648497

>  <SCORE.INTRA.SOLV.lig_0>
-32.2894

>  <SCORE.INTRA.VDW>
-2.05722

>  <SCORE.INTRA.VDW.0>
2.0241

>  <SCORE.INTRA.norm>
-0.11668

>  <SCORE.RESTR>
0

>  <SCORE.RESTR.CAVITY>
0

>  <SCORE.RESTR.norm>
0

>  <SCORE.SYSTEM>
0

>  <SCORE.SYSTEM.CONST>
0

>  <SCORE.SYSTEM.DIHEDRAL>
0

>  <SCORE.SYSTEM.SOLV>
0

>  <SCORE.SYSTEM.norm>
0

>  <SCORE.heavy>
12

>  <SCORE.norm>
-0.819473

>  <RMSD>
2.862

$$$$
ligand
 OpenBabel11021811513D
libRbt.so/2013.1/901 2013/11/27
 12 12  0  0  0  0  0  0  0  0999 V2000
    1.8182    2.7153  -29.0189 O   0  0  0  0  0  0  0  0  0  0  0  0
    3.8365   -1.5520  -28.9903 O   0  0  0  0  0  0  0  0  0  0  0  0
    3.0687    3.1112  -28.5961 C   0  0  0  0  0  0  0  0  0  0  0  0
    5.8715   -2.8510  -29.3336 O   0  0  0  0  0  0  0  0  0  0  0  0
    4.1607    2.6554  -29.4741 C   0  0  0  0  0  0  0  0  0  0  0  0
    4.4876   -2.2492  -31.2385 O   0  5  0  0  0  0  0  0  0  0  0  0
    4.0727    1.2156  -29.7518 N   0  3  0  0  0  0  0  0  0  0  0  0
    2.7539    0.8803  -30.2240 C   0  0  0  0  0  0  0  0  0  0  0  0
    1.6992    1.3817  -29.2929 C   0  0  0  0  0  0  0  0  0  0  0  0
    5.0745    0.8423  -30.7045 C   0  0  0  0  0  0  0  0  0  0  0  0
    5.9560   -0.2870  -30.1135 C   0  0  0  0  0  0  0  0  0  0  0  0
    4.9845   -1.7947  -29.9152 S   0  0  1  0  0  0  0  0  0  0  0  0
  1  3  1  0  0  0  0
  1  9  1  0  0  0  0
  2 12  1  0  0  0  0
  3  5  1  0  0  0  0
  4 12  2  0  0  0  0
  5  7  1  0  0  0  0
  6 12  2  0  0  0  0
  7  8  1  0  0  0  0
  7 10  1  0  0  0  0
  8  9  1  0  0  0  0
 10 11  1  0  0  0  0
 12 11  1  6  0  0  0
M  CHG  2   6  -1   7   1
M  END
>  <CHROM.1>
123.91591969,66.90170487,-60.13750664,4.07592995,0.08704405,-29.73605571
2.08515826,0.22083797,0.04872543

>  <Name>
ligand

>  <RI>
0

>  <Rbt.Current_Directory>
/home/itssahil/PROJECTS/Mol_Feturizer/New_Systems/rnas/4P95

>  <Rbt.Executable>
rbdock ($Id: //depot/dev/client3/rdock/2013.1/src/exe/rbdock.cxx#4 $)

>  <Rbt.Library>
libRbt.so (2013.1, Build901 2013/11/27)

>  <Rbt.Parameter_File>
/export/apps/rDock/src/rDock_2013.1_src/data/scripts/dock_solv.prm

>  <Rbt.Receptor>
prm/pocket_docking_6.prm

>  <SCORE>
-11.9669

>  <SCORE.INTER>
-10.5535

>  <SCORE.INTER.CONST>
1

>  <SCORE.INTER.POLAR>
0

>  <SCORE.INTER.ROT>
3

>  <SCORE.INTER.SOLV>
8.36547

>  <SCORE.INTER.VDW>
-15.4241

>  <SCORE.INTER.norm>
-0.879454

>  <SCORE.INTRA>
-1.41342

>  <SCORE.INTRA.DIHEDRAL>
2.25335

>  <SCORE.INTRA.DIHEDRAL.0>
0.283163

>  <SCORE.INTRA.POLAR>
0

>  <SCORE.INTRA.POLAR.0>
0

>  <SCORE.INTRA.REPUL>
0

>  <SCORE.INTRA.REPUL.0>
0

>  <SCORE.INTRA.SOLV>
1.46831

>  <SCORE.INTRA.SOLV.lig_0>
-32.2894

>  <SCORE.INTRA.VDW>
-3.27425

>  <SCORE.INTRA.VDW.0>
2.0241

>  <SCORE.INTRA.norm>
-0.117785

>  <SCORE.RESTR>
0

>  <SCORE.RESTR.CAVITY>
0

>  <SCORE.RESTR.norm>
0

>  <SCORE.SYSTEM>
0

>  <SCORE.SYSTEM.CONST>
0

>  <SCORE.SYSTEM.DIHEDRAL>
0

>  <SCORE.SYSTEM.SOLV>
0

>  <SCORE.SYSTEM.norm>
0

>  <SCORE.heavy>
12

>  <SCORE.norm>
-0.997239

>  <RMSD>
2.877

$$$$
ligand
 OpenBabel11021811513D
libRbt.so/2013.1/901 2013/11/27
 12 12  0  0  0  0  0  0  0  0999 V2000
    0.7951    3.3872  -27.9056 O   0  0  0  0  0  0  0  0  0  0  0  0
    6.7156    0.0663  -30.2460 O   0  0  0  0  0  0  0  0  0  0  0  0
    2.0914    3.5990  -27.4884 C   0  0  0  0  0  0  0  0  0  0  0  0
    5.3553    0.1066  -32.2694 O   0  0  0  0  0  0  0  0  0  0  0  0
    3.1049    3.1565  -28.4620 C   0  0  0  0  0  0  0  0  0  0  0  0
    5.6257   -1.9709  -31.0377 O   0  5  0  0  0  0  0  0  0  0  0  0
    2.8608    1.7812  -28.9169 N   0  3  0  0  0  0  0  0  0  0  0  0
    1.5015    1.6424  -29.3725 C   0  0  0  0  0  0  0  0  0  0  0  0
    0.5313    2.1192  -28.3419 C   0  0  0  0  0  0  0  0  0  0  0  0
    3.7910    1.4389  -29.9503 C   0  0  0  0  0  0  0  0  0  0  0  0
    4.0247   -0.0931  -29.9502 C   0  0  0  0  0  0  0  0  0  0  0  0
    5.5001   -0.4972  -30.9074 S   0  0  1  0  0  0  0  0  0  0  0  0
  1  3  1  0  0  0  0
  1  9  1  0  0  0  0
  2 12  1  0  0  0  0
  3  5  1  0  0  0  0
  4 12  2  0  0  0  0
  5  7  1  0  0  0  0
  6 12  2  0  0  0  0
  7  8  1  0  0  0  0
  7 10  1  0  0  0  0
  8  9  1  0  0  0  0
 10 11  1  0  0  0  0
 12 11  1  1  0  0  0
M  CHG  2   6  -1   7   1
M  END
>  <CHROM.1>
152.58790490,-164.43327864,65.21209661,3.72399761,1.03403075,-29.72711163
2.32302851,0.10375980,0.58539245

>  <Name>
ligand

>  <RI>
0

>  <Rbt.Current_Directory>
/home/itssahil/PROJECTS/Mol_Feturizer/New_Systems/rnas/4P95

>  <Rbt.Executable>
rbdock ($Id: //depot/dev/client3/rdock/2013.1/src/exe/rbdock.cxx#4 $)

>  <Rbt.Library>
libRbt.so (2013.1, Build901 2013/11/27)

>  <Rbt.Parameter_File>
/export/apps/rDock/src/rDock_2013.1_src/data/scripts/dock_solv.prm

>  <Rbt.Receptor>
prm/pocket_docking_3.prm

>  <SCORE>
-9.74605

>  <SCORE.INTER>
-7.95519

>  <SCORE.INTER.CONST>
1

>  <SCORE.INTER.POLAR>
0

>  <SCORE.INTER.ROT>
3

>  <SCORE.INTER.SOLV>
5.54702

>  <SCORE.INTER.VDW>
-12.7525

>  <SCORE.INTER.norm>
-0.662932

>  <SCORE.INTRA>
-1.79086

>  <SCORE.INTRA.DIHEDRAL>
1.6391

>  <SCORE.INTRA.DIHEDRAL.0>
0.283163

>  <SCORE.INTRA.POLAR>
0

>  <SCORE.INTRA.POLAR.0>
0

>  <SCORE.INTRA.REPUL>
0

>  <SCORE.INTRA.REPUL.0>
0

>  <SCORE.INTRA.SOLV>
-0.694697

>  <SCORE.INTRA.SOLV.lig_0>
-32.2894

>  <SCORE.INTRA.VDW>
-2.26306

>  <SCORE.INTRA.VDW.0>
2.0241

>  <SCORE.INTRA.norm>
-0.149238

>  <SCORE.RESTR>
0

>  <SCORE.RESTR.CAVITY>
0

>  <SCORE.RESTR.norm>
0

>  <SCORE.SYSTEM>
0

>  <SCORE.SYSTEM.CONST>
0

>  <SCORE.SYSTEM.DIHEDRAL>
0

>  <SCORE.SYSTEM.SOLV>
0

>  <SCORE.SYSTEM.norm>
0

>  <SCORE.heavy>
12

>  <SCORE.norm>
-0.812171

>  <RMSD>
2.884

$$$$
ligand
 OpenBabel11021811513D
libRbt.so/2013.1/901 2013/11/27
 12 12  0  0  0  0  0  0  0  0999 V2000
    3.3939    3.6067  -29.3705 O   0  0  0  0  0  0  0  0  0  0  0  0
    5.4967   -3.0485  -28.9018 O   0  0  0  0  0  0  0  0  0  0  0  0
    4.5874    3.2277  -29.9460 C   0  0  0  0  0  0  0  0  0  0  0  0
    5.9369   -0.6525  -29.0103 O   0  0  0  0  0  0  0  0  0  0  0  0
    4.4790    2.0285  -30.7951 C   0  0  0  0  0  0  0  0  0  0  0  0
    6.2305   -2.0250  -30.9943 O   0  5  0  0  0  0  0  0  0  0  0  0
    3.7962    0.9284  -30.1012 N   0  3  0  0  0  0  0  0  0  0  0  0
    2.5425    1.3853  -29.5587 C   0  0  0  0  0  0  0  0  0  0  0  0
    2.7262    2.6074  -28.7199 C   0  0  0  0  0  0  0  0  0  0  0  0
    3.6022   -0.1680  -31.0015 C   0  0  0  0  0  0  0  0  0  0  0  0
    3.7005   -1.5030  -30.2206 C   0  0  0  0  0  0  0  0  0  0  0  0
    5.4157   -1.8337  -29.7679 S   0  0  1  0  0  0  0  0  0  0  0  0
  1  3  1  0  0  0  0
  1  9  1  0  0  0  0
  2 12  1  0  0  0  0
  3  5  1  0  0  0  0
  4 12  2  0  0  0  0
  5  7  1  0  0  0  0
  6 12  2  0  0  0  0
  7  8  1  0  0  0  0
  7 10  1  0  0  0  0
  8  9  1  0  0  0  0
 10 11  1  0  0  0  0
 12 11  1  6  0  0  0
M  CHG  2   6  -1   7   1
M  END
>  <CHROM.1>
146.60998597,-72.82091474,174.48153140,4.46504610,0.13694732,-29.84450687
-1.97828033,-0.19620801,3.09535630

>  <Name>
ligand

>  <RI>
0

>  <Rbt.Current_Directory>
/home/itssahil/PROJECTS/Mol_Feturizer/New_Systems/rnas/4P95

>  <Rbt.Executable>
rbdock ($Id: //depot/dev/client3/rdock/2013.1/src/exe/rbdock.cxx#4 $)

>  <Rbt.Library>
libRbt.so (2013.1, Build901 2013/11/27)

>  <Rbt.Parameter_File>
/export/apps/rDock/src/rDock_2013.1_src/data/scripts/dock_solv.prm

>  <Rbt.Receptor>
prm/pocket_docking_5.prm

>  <SCORE>
-11.5521

>  <SCORE.INTER>
-10.1708

>  <SCORE.INTER.CONST>
1

>  <SCORE.INTER.POLAR>
0

>  <SCORE.INTER.ROT>
3

>  <SCORE.INTER.SOLV>
6.83595

>  <SCORE.INTER.VDW>
-14.6592

>  <SCORE.INTER.norm>
-0.84757

>  <SCORE.INTRA>
-1.38124

>  <SCORE.INTRA.DIHEDRAL>
1.7161

>  <SCORE.INTRA.DIHEDRAL.0>
0.283163

>  <SCORE.INTRA.POLAR>
0

>  <SCORE.INTRA.POLAR.0>
0

>  <SCORE.INTRA.REPUL>
0

>  <SCORE.INTRA.REPUL.0>
0

>  <SCORE.INTRA.SOLV>
1.69456

>  <SCORE.INTRA.SOLV.lig_0>
-32.2894

>  <SCORE.INTRA.VDW>
-3.08657

>  <SCORE.INTRA.VDW.0>
2.0241

>  <SCORE.INTRA.norm>
-0.115103

>  <SCORE.RESTR>
0

>  <SCORE.RESTR.CAVITY>
0

>  <SCORE.RESTR.norm>
0

>  <SCORE.SYSTEM>
0

>  <SCORE.SYSTEM.CONST>
0

>  <SCORE.SYSTEM.DIHEDRAL>
0

>  <SCORE.SYSTEM.SOLV>
0

>  <SCORE.SYSTEM.norm>
0

>  <SCORE.heavy>
12

>  <SCORE.norm>
-0.962673

>  <RMSD>
2.893

$$$$
ligand
 OpenBabel11021811513D
libRbt.so/2013.1/901 2013/11/27
 12 12  0  0  0  0  0  0  0  0999 V2000
    1.9369    2.6968  -28.9705 O   0  0  0  0  0  0  0  0  0  0  0  0
    4.7780   -1.1972  -29.0427 O   0  0  0  0  0  0  0  0  0  0  0  0
    3.2460    3.0738  -28.7620 C   0  0  0  0  0  0  0  0  0  0  0  0
    7.2006   -1.1943  -28.7641 O   0  0  0  0  0  0  0  0  0  0  0  0
    4.1662    2.6224  -29.8205 C   0  0  0  0  0  0  0  0  0  0  0  0
    6.2063   -2.3212  -30.6741 O   0  5  0  0  0  0  0  0  0  0  0  0
    4.0146    1.1884  -30.1004 N   0  3  0  0  0  0  0  0  0  0  0  0
    2.6305    0.8735  -30.3450 C   0  0  0  0  0  0  0  0  0  0  0  0
    1.7566    1.3692  -29.2398 C   0  0  0  0  0  0  0  0  0  0  0  0
    4.8343    0.8216  -31.2158 C   0  0  0  0  0  0  0  0  0  0  0  0
    6.2291    0.3752  -30.7089 C   0  0  0  0  0  0  0  0  0  0  0  0
    6.0864   -1.1549  -29.7630 S   0  0  1  0  0  0  0  0  0  0  0  0
  1  3  1  0  0  0  0
  1  9  1  0  0  0  0
  2 12  1  0  0  0  0
  3  5  1  0  0  0  0
  4 12  2  0  0  0  0
  5  7  1  0  0  0  0
  6 12  2  0  0  0  0
  7  8  1  0  0  0  0
  7 10  1  0  0  0  0
  8  9  1  0  0  0  0
 10 11  1  0  0  0  0
 12 11  1  6  0  0  0
M  CHG  2   6  -1   7   1
M  END
>  <CHROM.1>
90.81389572,66.58719301,-32.66453633,4.60285210,0.38876784,-29.76482714,2.38379895
0.20939600,-0.08976659

>  <Name>
ligand

>  <RI>
0

>  <Rbt.Current_Directory>
/home/itssahil/PROJECTS/Mol_Feturizer/New_Systems/rnas/4P95

>  <Rbt.Executable>
rbdock ($Id: //depot/dev/client3/rdock/2013.1/src/exe/rbdock.cxx#4 $)

>  <Rbt.Library>
libRbt.so (2013.1, Build901 2013/11/27)

>  <Rbt.Parameter_File>
/export/apps/rDock/src/rDock_2013.1_src/data/scripts/dock_solv.prm

>  <Rbt.Receptor>
prm/pocket_docking_8.prm

>  <SCORE>
-10.9908

>  <SCORE.INTER>
-9.488

>  <SCORE.INTER.CONST>
1

>  <SCORE.INTER.POLAR>
0

>  <SCORE.INTER.ROT>
3

>  <SCORE.INTER.SOLV>
6.47207

>  <SCORE.INTER.VDW>
-14.0827

>  <SCORE.INTER.norm>
-0.790667

>  <SCORE.INTRA>
-1.5028

>  <SCORE.INTRA.DIHEDRAL>
2.81442

>  <SCORE.INTRA.DIHEDRAL.0>
0.283163

>  <SCORE.INTRA.POLAR>
0

>  <SCORE.INTRA.POLAR.0>
0

>  <SCORE.INTRA.REPUL>
0

>  <SCORE.INTRA.REPUL.0>
0

>  <SCORE.INTRA.SOLV>
-0.00113099

>  <SCORE.INTRA.SOLV.lig_0>
-32.2894

>  <SCORE.INTRA.VDW>
-2.90945

>  <SCORE.INTRA.VDW.0>
2.0241

>  <SCORE.INTRA.norm>
-0.125234

>  <SCORE.RESTR>
0

>  <SCORE.RESTR.CAVITY>
0

>  <SCORE.RESTR.norm>
0

>  <SCORE.SYSTEM>
0

>  <SCORE.SYSTEM.CONST>
0

>  <SCORE.SYSTEM.DIHEDRAL>
0

>  <SCORE.SYSTEM.SOLV>
0

>  <SCORE.SYSTEM.norm>
0

>  <SCORE.heavy>
12

>  <SCORE.norm>
-0.9159

>  <RMSD>
2.919

$$$$
ligand
 OpenBabel11021811513D
libRbt.so/2013.1/901 2013/11/27
 12 12  0  0  0  0  0  0  0  0999 V2000
    3.2308    3.4868  -29.8675 O   0  0  0  0  0  0  0  0  0  0  0  0
    7.9240   -0.6877  -28.9029 O   0  0  0  0  0  0  0  0  0  0  0  0
    4.5628    3.2201  -30.0993 C   0  0  0  0  0  0  0  0  0  0  0  0
    7.0032    0.0252  -31.0455 O   0  0  0  0  0  0  0  0  0  0  0  0
    4.8170    1.8474  -30.5705 C   0  0  0  0  0  0  0  0  0  0  0  0
    7.4712   -2.3275  -30.6552 O   0  5  0  0  0  0  0  0  0  0  0  0
    4.1673    0.8470  -29.7131 N   0  3  0  0  0  0  0  0  0  0  0  0
    2.7730    1.1670  -29.5450 C   0  0  0  0  0  0  0  0  0  0  0  0
    2.5905    2.5737  -29.0775 C   0  0  0  0  0  0  0  0  0  0  0  0
    4.3350   -0.4586  -30.2767 C   0  0  0  0  0  0  0  0  0  0  0  0
    5.3249   -1.2747  -29.4074 C   0  0  0  0  0  0  0  0  0  0  0  0
    7.0089   -1.0668  -30.0216 S   0  0  1  0  0  0  0  0  0  0  0  0
  1  3  1  0  0  0  0
  1  9  1  0  0  0  0
  2 12  1  0  0  0  0
  3  5  1  0  0  0  0
  4 12  2  0  0  0  0
  5  7  1  0  0  0  0
  6 12  2  0  0  0  0
  7  8  1  0  0  0  0
  7 10  1  0  0  0  0
  8  9  1  0  0  0  0
 10 11  1  0  0  0  0
 12 11  1  1  0  0  0
M  CHG  2   6  -1   7   1
M  END
>  <CHROM.1>
109.09858595,-91.49062045,129.33744812,5.33107189,0.43685631,-29.94776447
-2.37326229,-0.18868802,3.03588182

>  <Name>
ligand

>  <RI>
0

>  <Rbt.Current_Directory>
/home/itssahil/PROJECTS/Mol_Feturizer/New_Systems/rnas/4P95

>  <Rbt.Executable>
rbdock ($Id: //depot/dev/client3/rdock/2013.1/src/exe/rbdock.cxx#4 $)

>  <Rbt.Library>
libRbt.so (2013.1, Build901 2013/11/27)

>  <Rbt.Parameter_File>
/export/apps/rDock/src/rDock_2013.1_src/data/scripts/dock_solv.prm

>  <Rbt.Receptor>
prm/pocket_docking_7.prm

>  <SCORE>
-10.5733

>  <SCORE.INTER>
-12.4367

>  <SCORE.INTER.CONST>
1

>  <SCORE.INTER.POLAR>
0

>  <SCORE.INTER.ROT>
3

>  <SCORE.INTER.SOLV>
6.40739

>  <SCORE.INTER.VDW>
-16.0269

>  <SCORE.INTER.norm>
-1.03639

>  <SCORE.INTRA>
1.86339

>  <SCORE.INTRA.DIHEDRAL>
8.29306

>  <SCORE.INTRA.DIHEDRAL.0>
0.283163

>  <SCORE.INTRA.POLAR>
0

>  <SCORE.INTRA.POLAR.0>
0

>  <SCORE.INTRA.REPUL>
0

>  <SCORE.INTRA.REPUL.0>
0

>  <SCORE.INTRA.SOLV>
0.338592

>  <SCORE.INTRA.SOLV.lig_0>
-32.2894

>  <SCORE.INTRA.VDW>
-2.45244

>  <SCORE.INTRA.VDW.0>
2.0241

>  <SCORE.INTRA.norm>
0.155282

>  <SCORE.RESTR>
0

>  <SCORE.RESTR.CAVITY>
0

>  <SCORE.RESTR.norm>
0

>  <SCORE.SYSTEM>
0

>  <SCORE.SYSTEM.CONST>
0

>  <SCORE.SYSTEM.DIHEDRAL>
0

>  <SCORE.SYSTEM.SOLV>
0

>  <SCORE.SYSTEM.norm>
0

>  <SCORE.heavy>
12

>  <SCORE.norm>
-0.881109

>  <RMSD>
2.921

$$$$
ligand
 OpenBabel11021811513D
libRbt.so/2013.1/901 2013/11/27
 12 12  0  0  0  0  0  0  0  0999 V2000
    1.5244    3.5227  -29.4795 O   0  0  0  0  0  0  0  0  0  0  0  0
    5.7350   -3.1014  -29.4641 O   0  0  0  0  0  0  0  0  0  0  0  0
    2.7632    3.7498  -28.9200 C   0  0  0  0  0  0  0  0  0  0  0  0
    6.8960   -1.0167  -28.9615 O   0  0  0  0  0  0  0  0  0  0  0  0
    3.8228    2.8790  -29.4582 C   0  0  0  0  0  0  0  0  0  0  0  0
    6.3103   -1.5487  -31.2594 O   0  5  0  0  0  0  0  0  0  0  0  0
    3.4292    1.4639  -29.4375 N   0  3  0  0  0  0  0  0  0  0  0  0
    2.1461    1.2958  -30.0701 C   0  0  0  0  0  0  0  0  0  0  0  0
    1.1260    2.2155  -29.4835 C   0  0  0  0  0  0  0  0  0  0  0  0
    4.4324    0.6709  -30.0818 C   0  0  0  0  0  0  0  0  0  0  0  0
    4.3052   -0.8023  -29.6179 C   0  0  0  0  0  0  0  0  0  0  0  0
    5.8748   -1.6633  -29.8445 S   0  0  1  0  0  0  0  0  0  0  0  0
  1  3  1  0  0  0  0
  1  9  1  0  0  0  0
  2 12  1  0  0  0  0
  3  5  1  0  0  0  0
  4 12  2  0  0  0  0
  5  7  1  0  0  0  0
  6 12  2  0  0  0  0
  7  8  1  0  0  0  0
  7 10  1  0  0  0  0
  8  9  1  0  0  0  0
 10 11  1  0  0  0  0
 12 11  1  1  0  0  0
M  CHG  2   6  -1   7   1
M  END
>  <CHROM.1>
159.15354464,-157.08806480,-177.08713592,4.24585805,0.37721275,-29.69389436
2.26150917,-0.11731094,0.18824121

>  <Name>
ligand

>  <RI>
0

>  <Rbt.Current_Directory>
/home/itssahil/PROJECTS/Mol_Feturizer/New_Systems/rnas/4P95

>  <Rbt.Executable>
rbdock ($Id: //depot/dev/client3/rdock/2013.1/src/exe/rbdock.cxx#4 $)

>  <Rbt.Library>
libRbt.so (2013.1, Build901 2013/11/27)

>  <Rbt.Parameter_File>
/export/apps/rDock/src/rDock_2013.1_src/data/scripts/dock_solv.prm

>  <Rbt.Receptor>
prm/pocket_docking_8.prm

>  <SCORE>
-10.8947

>  <SCORE.INTER>
-10.0458

>  <SCORE.INTER.CONST>
1

>  <SCORE.INTER.POLAR>
0

>  <SCORE.INTER.ROT>
3

>  <SCORE.INTER.SOLV>
6.29605

>  <SCORE.INTER.VDW>
-14.3959

>  <SCORE.INTER.norm>
-0.837151

>  <SCORE.INTRA>
-0.84894

>  <SCORE.INTRA.DIHEDRAL>
2.09503

>  <SCORE.INTRA.DIHEDRAL.0>
0.283163

>  <SCORE.INTRA.POLAR>
0

>  <SCORE.INTRA.POLAR.0>
0

>  <SCORE.INTRA.REPUL>
0

>  <SCORE.INTRA.REPUL.0>
0

>  <SCORE.INTRA.SOLV>
0.193701

>  <SCORE.INTRA.SOLV.lig_0>
-32.2894

>  <SCORE.INTRA.VDW>
-1.99331

>  <SCORE.INTRA.VDW.0>
2.0241

>  <SCORE.INTRA.norm>
-0.070745

>  <SCORE.RESTR>
0

>  <SCORE.RESTR.CAVITY>
0

>  <SCORE.RESTR.norm>
0

>  <SCORE.SYSTEM>
0

>  <SCORE.SYSTEM.CONST>
0

>  <SCORE.SYSTEM.DIHEDRAL>
0

>  <SCORE.SYSTEM.SOLV>
0

>  <SCORE.SYSTEM.norm>
0

>  <SCORE.heavy>
12

>  <SCORE.norm>
-0.907896

>  <RMSD>
2.932

$$$$
ligand
 OpenBabel11021811513D
libRbt.so/2013.1/901 2013/11/27
 12 12  0  0  0  0  0  0  0  0999 V2000
    1.5310    4.5866  -29.3969 O   0  0  0  0  0  0  0  0  0  0  0  0
    5.5991    2.3831  -33.0944 O   0  0  0  0  0  0  0  0  0  0  0  0
    1.7867    3.5400  -28.5375 C   0  0  0  0  0  0  0  0  0  0  0  0
    3.3291    1.5460  -32.7893 O   0  0  0  0  0  0  0  0  0  0  0  0
    3.1635    3.0234  -28.6292 C   0  0  0  0  0  0  0  0  0  0  0  0
    5.1262   -0.0026  -33.3172 O   0  5  0  0  0  0  0  0  0  0  0  0
    3.5482    2.7388  -30.0181 N   0  3  0  0  0  0  0  0  0  0  0  0
    3.2891    3.8855  -30.8503 C   0  0  0  0  0  0  0  0  0  0  0  0
    1.8813    4.3607  -30.6984 C   0  0  0  0  0  0  0  0  0  0  0  0
    4.9281    2.3604  -30.0723 C   0  0  0  0  0  0  0  0  0  0  0  0
    5.0656    1.0089  -30.8182 C   0  0  0  0  0  0  0  0  0  0  0  0
    4.7804    1.2418  -32.5847 S   0  0  1  0  0  0  0  0  0  0  0  0
  1  3  1  0  0  0  0
  1  9  1  0  0  0  0
  2 12  1  0  0  0  0
  3  5  1  0  0  0  0
  4 12  2  0  0  0  0
  5  7  1  0  0  0  0
  6 12  2  0  0  0  0
  7  8  1  0  0  0  0
  7 10  1  0  0  0  0
  8  9  1  0  0  0  0
 10 11  1  0  0  0  0
 12 11  1  1  0  0  0
M  CHG  2   6  -1   7   1
M  END
>  <CHROM.1>
127.01922983,72.60630648,49.45947120,3.78145472,2.41662654,-31.10775860,2.39027963
-0.75734233,1.51073688

>  <Name>
ligand

>  <RI>
0

>  <Rbt.Current_Directory>
/home/itssahil/PROJECTS/Mol_Feturizer/New_Systems/rnas/4P95

>  <Rbt.Executable>
rbdock ($Id: //depot/dev/client3/rdock/2013.1/src/exe/rbdock.cxx#4 $)

>  <Rbt.Library>
libRbt.so (2013.1, Build901 2013/11/27)

>  <Rbt.Parameter_File>
/export/apps/rDock/src/rDock_2013.1_src/data/scripts/dock_solv.prm

>  <Rbt.Receptor>
prm/pocket_docking_3.prm

>  <SCORE>
-8.13676

>  <SCORE.INTER>
-6.13979

>  <SCORE.INTER.CONST>
1

>  <SCORE.INTER.POLAR>
0

>  <SCORE.INTER.ROT>
3

>  <SCORE.INTER.SOLV>
3.88096

>  <SCORE.INTER.VDW>
-10.9868

>  <SCORE.INTER.norm>
-0.511649

>  <SCORE.INTRA>
-1.99697

>  <SCORE.INTRA.DIHEDRAL>
2.8225

>  <SCORE.INTRA.DIHEDRAL.0>
0.283163

>  <SCORE.INTRA.POLAR>
0

>  <SCORE.INTRA.POLAR.0>
0

>  <SCORE.INTRA.REPUL>
0

>  <SCORE.INTRA.REPUL.0>
0

>  <SCORE.INTRA.SOLV>
-0.028901

>  <SCORE.INTRA.SOLV.lig_0>
-32.2894

>  <SCORE.INTRA.VDW>
-3.39377

>  <SCORE.INTRA.VDW.0>
2.0241

>  <SCORE.INTRA.norm>
-0.166414

>  <SCORE.RESTR>
0

>  <SCORE.RESTR.CAVITY>
0

>  <SCORE.RESTR.norm>
0

>  <SCORE.SYSTEM>
0

>  <SCORE.SYSTEM.CONST>
0

>  <SCORE.SYSTEM.DIHEDRAL>
0

>  <SCORE.SYSTEM.SOLV>
0

>  <SCORE.SYSTEM.norm>
0

>  <SCORE.heavy>
12

>  <SCORE.norm>
-0.678064

>  <RMSD>
2.938

$$$$
ligand
 OpenBabel11021811513D
libRbt.so/2013.1/901 2013/11/27
 12 12  0  0  0  0  0  0  0  0999 V2000
    2.1917    3.1398  -29.5623 O   0  0  0  0  0  0  0  0  0  0  0  0
    7.8162   -0.7811  -28.8328 O   0  0  0  0  0  0  0  0  0  0  0  0
    1.7211    1.9149  -29.9839 C   0  0  0  0  0  0  0  0  0  0  0  0
    8.6194   -0.9096  -31.1317 O   0  0  0  0  0  0  0  0  0  0  0  0
    2.6663    0.8083  -29.7538 C   0  0  0  0  0  0  0  0  0  0  0  0
    6.8529   -2.4022  -30.3848 O   0  5  0  0  0  0  0  0  0  0  0  0
    4.0072    1.1205  -30.2660 N   0  3  0  0  0  0  0  0  0  0  0  0
    4.4498    2.3930  -29.7565 C   0  0  0  0  0  0  0  0  0  0  0  0
    3.4402    3.4629  -30.0145 C   0  0  0  0  0  0  0  0  0  0  0  0
    4.9187    0.0748  -29.9108 C   0  0  0  0  0  0  0  0  0  0  0  0
    6.1958    0.1828  -30.7820 C   0  0  0  0  0  0  0  0  0  0  0  0
    7.4163   -1.0352  -30.2499 S   0  0  1  0  0  0  0  0  0  0  0  0
  1  3  1  0  0  0  0
  1  9  1  0  0  0  0
  2 12  1  0  0  0  0
  3  5  1  0  0  0  0
  4 12  2  0  0  0  0
  5  7  1  0  0  0  0
  6 12  2  0  0  0  0
  7  8  1  0  0  0  0
  7 10  1  0  0  0  0
  8  9  1  0  0  0  0
 10 11  1  0  0  0  0
 12 11  1  6  0  0  0
M  CHG  2   6  -1   7   1
M  END
>  <CHROM.1>
163.40511030,175.00615763,-61.52188007,5.30145420,0.46958382,-30.06771184
-2.50729055,-0.05962335,-3.10420015

>  <Name>
ligand

>  <RI>
0

>  <Rbt.Current_Directory>
/home/itssahil/PROJECTS/Mol_Feturizer/New_Systems/rnas/4P95

>  <Rbt.Executable>
rbdock ($Id: //depot/dev/client3/rdock/2013.1/src/exe/rbdock.cxx#4 $)

>  <Rbt.Library>
libRbt.so (2013.1, Build901 2013/11/27)

>  <Rbt.Parameter_File>
/export/apps/rDock/src/rDock_2013.1_src/data/scripts/dock_solv.prm

>  <Rbt.Receptor>
prm/pocket_docking_6.prm

>  <SCORE>
-10.9793

>  <SCORE.INTER>
-9.23695

>  <SCORE.INTER.CONST>
1

>  <SCORE.INTER.POLAR>
0

>  <SCORE.INTER.ROT>
3

>  <SCORE.INTER.SOLV>
5.34798

>  <SCORE.INTER.VDW>
-13.5406

>  <SCORE.INTER.norm>
-0.769746

>  <SCORE.INTRA>
-1.7424

>  <SCORE.INTRA.DIHEDRAL>
0.187652

>  <SCORE.INTRA.DIHEDRAL.0>
0.283163

>  <SCORE.INTRA.POLAR>
0

>  <SCORE.INTRA.POLAR.0>
0

>  <SCORE.INTRA.REPUL>
0

>  <SCORE.INTRA.REPUL.0>
0

>  <SCORE.INTRA.SOLV>
-0.0452917

>  <SCORE.INTRA.SOLV.lig_0>
-32.2894

>  <SCORE.INTRA.VDW>
-1.81358

>  <SCORE.INTRA.VDW.0>
2.0241

>  <SCORE.INTRA.norm>
-0.1452

>  <SCORE.RESTR>
0

>  <SCORE.RESTR.CAVITY>
0

>  <SCORE.RESTR.norm>
0

>  <SCORE.SYSTEM>
0

>  <SCORE.SYSTEM.CONST>
0

>  <SCORE.SYSTEM.DIHEDRAL>
0

>  <SCORE.SYSTEM.SOLV>
0

>  <SCORE.SYSTEM.norm>
0

>  <SCORE.heavy>
12

>  <SCORE.norm>
-0.914946

>  <RMSD>
2.943

$$$$
ligand
 OpenBabel11021811513D
libRbt.so/2013.1/901 2013/11/27
 12 12  0  0  0  0  0  0  0  0999 V2000
    0.9748    2.7036  -27.7721 O   0  0  0  0  0  0  0  0  0  0  0  0
    4.3571   -0.6650  -29.3390 O   0  0  0  0  0  0  0  0  0  0  0  0
    2.2950    2.9708  -27.4807 C   0  0  0  0  0  0  0  0  0  0  0  0
    6.7220   -0.5073  -29.9126 O   0  0  0  0  0  0  0  0  0  0  0  0
    3.1591    3.0460  -28.6718 C   0  0  0  0  0  0  0  0  0  0  0  0
    5.0691   -0.7878  -31.6720 O   0  5  0  0  0  0  0  0  0  0  0  0
    2.9845    1.8793  -29.5472 N   0  3  0  0  0  0  0  0  0  0  0  0
    1.5880    1.6825  -29.8400 C   0  0  0  0  0  0  0  0  0  0  0  0
    0.7728    1.6273  -28.5897 C   0  0  0  0  0  0  0  0  0  0  0  0
    3.7459    2.0539  -30.7473 C   0  0  0  0  0  0  0  0  0  0  0  0
    5.2158    1.6335  -30.4939 C   0  0  0  0  0  0  0  0  0  0  0  0
    5.3334   -0.1616  -30.3519 S   0  0  1  0  0  0  0  0  0  0  0  0
  1  3  1  0  0  0  0
  1  9  1  0  0  0  0
  2 12  1  0  0  0  0
  3  5  1  0  0  0  0
  4 12  2  0  0  0  0
  5  7  1  0  0  0  0
  6 12  2  0  0  0  0
  7  8  1  0  0  0  0
  7 10  1  0  0  0  0
  8  9  1  0  0  0  0
 10 11  1  0  0  0  0
 12 11  1  6  0  0  0
M  CHG  2   6  -1   7   1
M  END
>  <CHROM.1>
82.99236944,72.38587411,-52.46038340,3.71768962,1.10994857,-29.61635497,2.42118178
0.10188474,0.54108776

>  <Name>
ligand

>  <RI>
0

>  <Rbt.Current_Directory>
/home/itssahil/PROJECTS/Mol_Feturizer/New_Systems/rnas/4P95

>  <Rbt.Executable>
rbdock ($Id: //depot/dev/client3/rdock/2013.1/src/exe/rbdock.cxx#4 $)

>  <Rbt.Library>
libRbt.so (2013.1, Build901 2013/11/27)

>  <Rbt.Parameter_File>
/export/apps/rDock/src/rDock_2013.1_src/data/scripts/dock_solv.prm

>  <Rbt.Receptor>
prm/pocket_docking_3.prm

>  <SCORE>
-11.6172

>  <SCORE.INTER>
-9.67544

>  <SCORE.INTER.CONST>
1

>  <SCORE.INTER.POLAR>
0

>  <SCORE.INTER.ROT>
3

>  <SCORE.INTER.SOLV>
4.81227

>  <SCORE.INTER.VDW>
-13.6544

>  <SCORE.INTER.norm>
-0.806286

>  <SCORE.INTRA>
-1.94174

>  <SCORE.INTRA.DIHEDRAL>
1.27884

>  <SCORE.INTRA.DIHEDRAL.0>
0.283163

>  <SCORE.INTRA.POLAR>
0

>  <SCORE.INTRA.POLAR.0>
0

>  <SCORE.INTRA.REPUL>
0

>  <SCORE.INTRA.REPUL.0>
0

>  <SCORE.INTRA.SOLV>
0.505339

>  <SCORE.INTRA.SOLV.lig_0>
-32.2894

>  <SCORE.INTRA.VDW>
-2.83382

>  <SCORE.INTRA.VDW.0>
2.0241

>  <SCORE.INTRA.norm>
-0.161811

>  <SCORE.RESTR>
0

>  <SCORE.RESTR.CAVITY>
0

>  <SCORE.RESTR.norm>
0

>  <SCORE.SYSTEM>
0

>  <SCORE.SYSTEM.CONST>
0

>  <SCORE.SYSTEM.DIHEDRAL>
0

>  <SCORE.SYSTEM.SOLV>
0

>  <SCORE.SYSTEM.norm>
0

>  <SCORE.heavy>
12

>  <SCORE.norm>
-0.968098

>  <RMSD>
2.969

$$$$
ligand
 OpenBabel11021811513D
libRbt.so/2013.1/901 2013/11/27
 12 12  0  0  0  0  0  0  0  0999 V2000
    2.1609    4.7272  -29.3708 O   0  0  0  0  0  0  0  0  0  0  0  0
    7.2711   -0.3547  -29.5998 O   0  0  0  0  0  0  0  0  0  0  0  0
    2.3222    3.6625  -28.5108 C   0  0  0  0  0  0  0  0  0  0  0  0
    6.8439    0.1007  -31.9571 O   0  0  0  0  0  0  0  0  0  0  0  0
    3.5443    2.8793  -28.7635 C   0  0  0  0  0  0  0  0  0  0  0  0
    6.0274   -1.9588  -30.9580 O   0  5  0  0  0  0  0  0  0  0  0  0
    3.6695    2.5044  -30.1783 N   0  3  0  0  0  0  0  0  0  0  0  0
    3.5283    3.6683  -31.0150 C   0  0  0  0  0  0  0  0  0  0  0  0
    2.2763    4.4180  -30.6970 C   0  0  0  0  0  0  0  0  0  0  0  0
    4.9270    1.8564  -30.3999 C   0  0  0  0  0  0  0  0  0  0  0  0
    4.7418    0.3206  -30.3071 C   0  0  0  0  0  0  0  0  0  0  0  0
    6.2875   -0.5177  -30.7126 S   0  0  1  0  0  0  0  0  0  0  0  0
  1  3  1  0  0  0  0
  1  9  1  0  0  0  0
  2 12  1  0  0  0  0
  3  5  1  0  0  0  0
  4 12  2  0  0  0  0
  5  7  1  0  0  0  0
  6 12  2  0  0  0  0
  7  8  1  0  0  0  0
  7 10  1  0  0  0  0
  8  9  1  0  0  0  0
 10 11  1  0  0  0  0
 12 11  1  1  0  0  0
M  CHG  2   6  -1   7   1
M  END
>  <CHROM.1>
94.63273815,175.53202410,72.73814068,4.68087679,1.51592430,-30.26367383,3.04436970
0.89533290,-1.21704902

>  <Name>
ligand

>  <RI>
0

>  <Rbt.Current_Directory>
/home/itssahil/PROJECTS/Mol_Feturizer/New_Systems/rnas/4P95

>  <Rbt.Executable>
rbdock ($Id: //depot/dev/client3/rdock/2013.1/src/exe/rbdock.cxx#4 $)

>  <Rbt.Library>
libRbt.so (2013.1, Build901 2013/11/27)

>  <Rbt.Parameter_File>
/export/apps/rDock/src/rDock_2013.1_src/data/scripts/dock_solv.prm

>  <Rbt.Receptor>
prm/pocket_docking_5.prm

>  <SCORE>
-10.7735

>  <SCORE.INTER>
-8.88207

>  <SCORE.INTER.CONST>
1

>  <SCORE.INTER.POLAR>
0

>  <SCORE.INTER.ROT>
3

>  <SCORE.INTER.SOLV>
5.0673

>  <SCORE.INTER.VDW>
-13.2105

>  <SCORE.INTER.norm>
-0.740173

>  <SCORE.INTRA>
-1.89147

>  <SCORE.INTRA.DIHEDRAL>
1.77471

>  <SCORE.INTRA.DIHEDRAL.0>
0.283163

>  <SCORE.INTRA.POLAR>
0

>  <SCORE.INTRA.POLAR.0>
0

>  <SCORE.INTRA.REPUL>
0

>  <SCORE.INTRA.REPUL.0>
0

>  <SCORE.INTRA.SOLV>
-0.669636

>  <SCORE.INTRA.SOLV.lig_0>
-32.2894

>  <SCORE.INTRA.VDW>
-2.44401

>  <SCORE.INTRA.VDW.0>
2.0241

>  <SCORE.INTRA.norm>
-0.157623

>  <SCORE.RESTR>
0

>  <SCORE.RESTR.CAVITY>
0

>  <SCORE.RESTR.norm>
0

>  <SCORE.SYSTEM>
0

>  <SCORE.SYSTEM.CONST>
0

>  <SCORE.SYSTEM.DIHEDRAL>
0

>  <SCORE.SYSTEM.SOLV>
0

>  <SCORE.SYSTEM.norm>
0

>  <SCORE.heavy>
12

>  <SCORE.norm>
-0.897796

>  <RMSD>
2.972

$$$$
ligand
 OpenBabel11021811513D
libRbt.so/2013.1/901 2013/11/27
 12 12  0  0  0  0  0  0  0  0999 V2000
    2.0328    4.7405  -29.2698 O   0  0  0  0  0  0  0  0  0  0  0  0
    7.2139   -0.3138  -29.6547 O   0  0  0  0  0  0  0  0  0  0  0  0
    2.1922    3.6510  -28.4411 C   0  0  0  0  0  0  0  0  0  0  0  0
    6.7588    0.2681  -31.9787 O   0  0  0  0  0  0  0  0  0  0  0  0
    3.4262    2.8883  -28.6990 C   0  0  0  0  0  0  0  0  0  0  0  0
    5.9586   -1.8452  -31.0843 O   0  5  0  0  0  0  0  0  0  0  0  0
    3.5768    2.5592  -30.1227 N   0  3  0  0  0  0  0  0  0  0  0  0
    3.4362    3.7473  -30.9249 C   0  0  0  0  0  0  0  0  0  0  0  0
    2.1717    4.4741  -30.6030 C   0  0  0  0  0  0  0  0  0  0  0  0
    4.8443    1.9312  -30.3449 C   0  0  0  0  0  0  0  0  0  0  0  0
    4.6750    0.3915  -30.2958 C   0  0  0  0  0  0  0  0  0  0  0  0
    6.2180   -0.4189  -30.7636 S   0  0  1  0  0  0  0  0  0  0  0  0
  1  3  1  0  0  0  0
  1  9  1  0  0  0  0
  2 12  1  0  0  0  0
  3  5  1  0  0  0  0
  4 12  2  0  0  0  0
  5  7  1  0  0  0  0
  6 12  2  0  0  0  0
  7  8  1  0  0  0  0
  7 10  1  0  0  0  0
  8  9  1  0  0  0  0
 10 11  1  0  0  0  0
 12 11  1  1  0  0  0
M  CHG  2   6  -1   7   1
M  END
>  <CHROM.1>
94.34735249,173.39850558,74.30202557,4.59184237,1.58390167,-30.24869861,3.03676406
0.88471135,-1.17286066

>  <Name>
ligand

>  <RI>
0

>  <Rbt.Current_Directory>
/home/itssahil/PROJECTS/Mol_Feturizer/New_Systems/rnas/4P95

>  <Rbt.Executable>
rbdock ($Id: //depot/dev/client3/rdock/2013.1/src/exe/rbdock.cxx#4 $)

>  <Rbt.Library>
libRbt.so (2013.1, Build901 2013/11/27)

>  <Rbt.Parameter_File>
/export/apps/rDock/src/rDock_2013.1_src/data/scripts/dock_solv.prm

>  <Rbt.Receptor>
prm/pocket_docking_7.prm

>  <SCORE>
-10.8974

>  <SCORE.INTER>
-9.11174

>  <SCORE.INTER.CONST>
1

>  <SCORE.INTER.POLAR>
0

>  <SCORE.INTER.ROT>
3

>  <SCORE.INTER.SOLV>
4.9571

>  <SCORE.INTER.VDW>
-13.3269

>  <SCORE.INTER.norm>
-0.759311

>  <SCORE.INTRA>
-1.78571

>  <SCORE.INTRA.DIHEDRAL>
1.94537

>  <SCORE.INTRA.DIHEDRAL.0>
0.283163

>  <SCORE.INTRA.POLAR>
0

>  <SCORE.INTRA.POLAR.0>
0

>  <SCORE.INTRA.REPUL>
0

>  <SCORE.INTRA.REPUL.0>
0

>  <SCORE.INTRA.SOLV>
-0.662844

>  <SCORE.INTRA.SOLV.lig_0>
-32.2894

>  <SCORE.INTRA.VDW>
-2.42697

>  <SCORE.INTRA.VDW.0>
2.0241

>  <SCORE.INTRA.norm>
-0.148809

>  <SCORE.RESTR>
0

>  <SCORE.RESTR.CAVITY>
0

>  <SCORE.RESTR.norm>
0

>  <SCORE.SYSTEM>
0

>  <SCORE.SYSTEM.CONST>
0

>  <SCORE.SYSTEM.DIHEDRAL>
0

>  <SCORE.SYSTEM.SOLV>
0

>  <SCORE.SYSTEM.norm>
0

>  <SCORE.heavy>
12

>  <SCORE.norm>
-0.908121

>  <RMSD>
2.974

$$$$
ligand
 OpenBabel11021811513D
libRbt.so/2013.1/901 2013/11/27
 12 12  0  0  0  0  0  0  0  0999 V2000
    2.0435    4.7139  -29.2634 O   0  0  0  0  0  0  0  0  0  0  0  0
    7.2393   -0.3263  -29.6339 O   0  0  0  0  0  0  0  0  0  0  0  0
    2.2049    3.6155  -28.4468 C   0  0  0  0  0  0  0  0  0  0  0  0
    6.7725    0.2431  -31.9587 O   0  0  0  0  0  0  0  0  0  0  0  0
    3.4381    2.8556  -28.7161 C   0  0  0  0  0  0  0  0  0  0  0  0
    5.9749   -1.8643  -31.0482 O   0  5  0  0  0  0  0  0  0  0  0  0
    3.5851    2.5419  -30.1437 N   0  3  0  0  0  0  0  0  0  0  0  0
    3.4425    3.7386  -30.9326 C   0  0  0  0  0  0  0  0  0  0  0  0
    2.1789    4.4620  -30.5997 C   0  0  0  0  0  0  0  0  0  0  0  0
    4.8519    1.9161  -30.3759 C   0  0  0  0  0  0  0  0  0  0  0  0
    4.6978    0.3780  -30.2655 C   0  0  0  0  0  0  0  0  0  0  0  0
    6.2375   -0.4365  -30.7369 S   0  0  1  0  0  0  0  0  0  0  0  0
  1  3  1  0  0  0  0
  1  9  1  0  0  0  0
  2 12  1  0  0  0  0
  3  5  1  0  0  0  0
  4 12  2  0  0  0  0
  5  7  1  0  0  0  0
  6 12  2  0  0  0  0
  7  8  1  0  0  0  0
  7 10  1  0  0  0  0
  8  9  1  0  0  0  0
 10 11  1  0  0  0  0
 12 11  1  1  0  0  0
M  CHG  2   6  -1   7   1
M  END
>  <CHROM.1>
91.24764307,173.63663466,76.44302400,4.60608793,1.56440497,-30.24095348,3.02200776
0.88068006,-1.16063359

>  <Name>
ligand

>  <RI>
0

>  <Rbt.Current_Directory>
/home/itssahil/PROJECTS/Mol_Feturizer/New_Systems/rnas/4P95

>  <Rbt.Executable>
rbdock ($Id: //depot/dev/client3/rdock/2013.1/src/exe/rbdock.cxx#4 $)

>  <Rbt.Library>
libRbt.so (2013.1, Build901 2013/11/27)

>  <Rbt.Parameter_File>
/export/apps/rDock/src/rDock_2013.1_src/data/scripts/dock_solv.prm

>  <Rbt.Receptor>
prm/pocket_docking_7.prm

>  <SCORE>
-10.854

>  <SCORE.INTER>
-9.13109

>  <SCORE.INTER.CONST>
1

>  <SCORE.INTER.POLAR>
0

>  <SCORE.INTER.ROT>
3

>  <SCORE.INTER.SOLV>
4.96764

>  <SCORE.INTER.VDW>
-13.3433

>  <SCORE.INTER.norm>
-0.760924

>  <SCORE.INTRA>
-1.72291

>  <SCORE.INTRA.DIHEDRAL>
1.89399

>  <SCORE.INTRA.DIHEDRAL.0>
0.283163

>  <SCORE.INTRA.POLAR>
0

>  <SCORE.INTRA.POLAR.0>
0

>  <SCORE.INTRA.REPUL>
0

>  <SCORE.INTRA.REPUL.0>
0

>  <SCORE.INTRA.SOLV>
-0.652363

>  <SCORE.INTRA.SOLV.lig_0>
-32.2894

>  <SCORE.INTRA.VDW>
-2.34372

>  <SCORE.INTRA.VDW.0>
2.0241

>  <SCORE.INTRA.norm>
-0.143576

>  <SCORE.RESTR>
0

>  <SCORE.RESTR.CAVITY>
0

>  <SCORE.RESTR.norm>
0

>  <SCORE.SYSTEM>
0

>  <SCORE.SYSTEM.CONST>
0

>  <SCORE.SYSTEM.DIHEDRAL>
0

>  <SCORE.SYSTEM.SOLV>
0

>  <SCORE.SYSTEM.norm>
0

>  <SCORE.heavy>
12

>  <SCORE.norm>
-0.904499

>  <RMSD>
2.974

$$$$
ligand
 OpenBabel11021811513D
libRbt.so/2013.1/901 2013/11/27
 12 12  0  0  0  0  0  0  0  0999 V2000
    2.0578    4.7329  -29.2354 O   0  0  0  0  0  0  0  0  0  0  0  0
    7.2254   -0.3289  -29.6517 O   0  0  0  0  0  0  0  0  0  0  0  0
    2.2401    3.6513  -28.4011 C   0  0  0  0  0  0  0  0  0  0  0  0
    6.7740    0.2686  -31.9724 O   0  0  0  0  0  0  0  0  0  0  0  0
    3.4702    2.8902  -28.6813 C   0  0  0  0  0  0  0  0  0  0  0  0
    5.9705   -1.8497  -31.0929 O   0  5  0  0  0  0  0  0  0  0  0  0
    3.5884    2.5490  -30.1052 N   0  3  0  0  0  0  0  0  0  0  0  0
    3.4251    3.7295  -30.9142 C   0  0  0  0  0  0  0  0  0  0  0  0
    2.1661    4.4552  -30.5691 C   0  0  0  0  0  0  0  0  0  0  0  0
    4.8524    1.9229  -30.3517 C   0  0  0  0  0  0  0  0  0  0  0  0
    4.6881    0.3830  -30.2914 C   0  0  0  0  0  0  0  0  0  0  0  0
    6.2309   -0.4257  -30.7625 S   0  0  1  0  0  0  0  0  0  0  0  0
  1  3  1  0  0  0  0
  1  9  1  0  0  0  0
  2 12  1  0  0  0  0
  3  5  1  0  0  0  0
  4 12  2  0  0  0  0
  5  7  1  0  0  0  0
  6 12  2  0  0  0  0
  7  8  1  0  0  0  0
  7 10  1  0  0  0  0
  8  9  1  0  0  0  0
 10 11  1  0  0  0  0
 12 11  1  1  0  0  0
M  CHG  2   6  -1   7   1
M  END
>  <CHROM.1>
94.60200071,174.32062749,75.18530161,4.60703933,1.57611602,-30.23714652,3.07005749
0.88860312,-1.21014436

>  <Name>
ligand

>  <RI>
0

>  <Rbt.Current_Directory>
/home/itssahil/PROJECTS/Mol_Feturizer/New_Systems/rnas/4P95

>  <Rbt.Executable>
rbdock ($Id: //depot/dev/client3/rdock/2013.1/src/exe/rbdock.cxx#4 $)

>  <Rbt.Library>
libRbt.so (2013.1, Build901 2013/11/27)

>  <Rbt.Parameter_File>
/export/apps/rDock/src/rDock_2013.1_src/data/scripts/dock_solv.prm

>  <Rbt.Receptor>
prm/pocket_docking_7.prm

>  <SCORE>
-10.9105

>  <SCORE.INTER>
-9.14578

>  <SCORE.INTER.CONST>
1

>  <SCORE.INTER.POLAR>
0

>  <SCORE.INTER.ROT>
3

>  <SCORE.INTER.SOLV>
5.00828

>  <SCORE.INTER.VDW>
-13.3666

>  <SCORE.INTER.norm>
-0.762148

>  <SCORE.INTRA>
-1.76477

>  <SCORE.INTRA.DIHEDRAL>
1.9787

>  <SCORE.INTRA.DIHEDRAL.0>
0.283163

>  <SCORE.INTRA.POLAR>
0

>  <SCORE.INTRA.POLAR.0>
0

>  <SCORE.INTRA.REPUL>
0

>  <SCORE.INTRA.REPUL.0>
0

>  <SCORE.INTRA.SOLV>
-0.658928

>  <SCORE.INTRA.SOLV.lig_0>
-32.2894

>  <SCORE.INTRA.VDW>
-2.42466

>  <SCORE.INTRA.VDW.0>
2.0241

>  <SCORE.INTRA.norm>
-0.147064

>  <SCORE.RESTR>
0

>  <SCORE.RESTR.CAVITY>
0

>  <SCORE.RESTR.norm>
0

>  <SCORE.SYSTEM>
0

>  <SCORE.SYSTEM.CONST>
0

>  <SCORE.SYSTEM.DIHEDRAL>
0

>  <SCORE.SYSTEM.SOLV>
0

>  <SCORE.SYSTEM.norm>
0

>  <SCORE.heavy>
12

>  <SCORE.norm>
-0.909212

>  <RMSD>
2.974

$$$$
ligand
 OpenBabel11021811513D
libRbt.so/2013.1/901 2013/11/27
 12 12  0  0  0  0  0  0  0  0999 V2000
    1.4699    4.5058  -29.2376 O   0  0  0  0  0  0  0  0  0  0  0  0
    5.4534    2.4596  -33.1012 O   0  0  0  0  0  0  0  0  0  0  0  0
    1.7958    3.4638  -28.3967 C   0  0  0  0  0  0  0  0  0  0  0  0
    3.2384    1.5244  -32.6942 O   0  0  0  0  0  0  0  0  0  0  0  0
    3.1870    3.0007  -28.5418 C   0  0  0  0  0  0  0  0  0  0  0  0
    5.0765    0.0549  -33.3012 O   0  5  0  0  0  0  0  0  0  0  0  0
    3.5319    2.7407  -29.9458 N   0  3  0  0  0  0  0  0  0  0  0  0
    3.1998    3.8825  -30.7587 C   0  0  0  0  0  0  0  0  0  0  0  0
    1.7814    4.3026  -30.5526 C   0  0  0  0  0  0  0  0  0  0  0  0
    4.9223    2.4156  -30.0525 C   0  0  0  0  0  0  0  0  0  0  0  0
    5.0834    1.0691  -30.8026 C   0  0  0  0  0  0  0  0  0  0  0  0
    4.7094    1.2848  -32.5547 S   0  0  1  0  0  0  0  0  0  0  0  0
  1  3  1  0  0  0  0
  1  9  1  0  0  0  0
  2 12  1  0  0  0  0
  3  5  1  0  0  0  0
  4 12  2  0  0  0  0
  5  7  1  0  0  0  0
  6 12  2  0  0  0  0
  7  8  1  0  0  0  0
  7 10  1  0  0  0  0
  8  9  1  0  0  0  0
 10 11  1  0  0  0  0
 12 11  1  1  0  0  0
M  CHG  2   6  -1   7   1
M  END
>  <CHROM.1>
126.50007106,72.15154257,49.36385544,3.72951863,2.42325055,-31.03967202,2.34161033
-0.71869812,1.47856598

>  <Name>
ligand

>  <RI>
0

>  <Rbt.Current_Directory>
/home/itssahil/PROJECTS/Mol_Feturizer/New_Systems/rnas/4P95

>  <Rbt.Executable>
rbdock ($Id: //depot/dev/client3/rdock/2013.1/src/exe/rbdock.cxx#4 $)

>  <Rbt.Library>
libRbt.so (2013.1, Build901 2013/11/27)

>  <Rbt.Parameter_File>
/export/apps/rDock/src/rDock_2013.1_src/data/scripts/dock_solv.prm

>  <Rbt.Receptor>
prm/pocket_docking_3.prm

>  <SCORE>
-8.10532

>  <SCORE.INTER>
-6.08232

>  <SCORE.INTER.CONST>
1

>  <SCORE.INTER.POLAR>
0

>  <SCORE.INTER.ROT>
3

>  <SCORE.INTER.SOLV>
4.00366

>  <SCORE.INTER.VDW>
-10.9894

>  <SCORE.INTER.norm>
-0.50686

>  <SCORE.INTRA>
-2.023

>  <SCORE.INTRA.DIHEDRAL>
2.80035

>  <SCORE.INTRA.DIHEDRAL.0>
0.283163

>  <SCORE.INTRA.POLAR>
0

>  <SCORE.INTRA.POLAR.0>
0

>  <SCORE.INTRA.REPUL>
0

>  <SCORE.INTRA.REPUL.0>
0

>  <SCORE.INTRA.SOLV>
-0.0279467

>  <SCORE.INTRA.SOLV.lig_0>
-32.2894

>  <SCORE.INTRA.VDW>
-3.4092

>  <SCORE.INTRA.VDW.0>
2.0241

>  <SCORE.INTRA.norm>
-0.168584

>  <SCORE.RESTR>
0

>  <SCORE.RESTR.CAVITY>
0

>  <SCORE.RESTR.norm>
0

>  <SCORE.SYSTEM>
0

>  <SCORE.SYSTEM.CONST>
0

>  <SCORE.SYSTEM.DIHEDRAL>
0

>  <SCORE.SYSTEM.SOLV>
0

>  <SCORE.SYSTEM.norm>
0

>  <SCORE.heavy>
12

>  <SCORE.norm>
-0.675443

>  <RMSD>
2.979

$$$$
ligand
 OpenBabel11021811513D
libRbt.so/2013.1/901 2013/11/27
 12 12  0  0  0  0  0  0  0  0999 V2000
    1.2895    3.5847  -28.0281 O   0  0  0  0  0  0  0  0  0  0  0  0
    6.7235   -0.4631  -29.9042 O   0  0  0  0  0  0  0  0  0  0  0  0
    2.6605    3.4629  -28.0971 C   0  0  0  0  0  0  0  0  0  0  0  0
    5.5430    1.5723  -30.5444 O   0  0  0  0  0  0  0  0  0  0  0  0
    3.1184    2.5251  -29.1372 C   0  0  0  0  0  0  0  0  0  0  0  0
    5.4775   -0.3707  -32.0027 O   0  5  0  0  0  0  0  0  0  0  0  0
    2.4264    1.2323  -29.0493 N   0  3  0  0  0  0  0  0  0  0  0  0
    1.0004    1.4332  -29.0191 C   0  0  0  0  0  0  0  0  0  0  0  0
    0.6101    2.4014  -27.9510 C   0  0  0  0  0  0  0  0  0  0  0  0
    2.8092    0.4003  -30.1500 C   0  0  0  0  0  0  0  0  0  0  0  0
    4.0167   -0.4797  -29.7386 C   0  0  0  0  0  0  0  0  0  0  0  0
    5.5090    0.0764  -30.5872 S   0  0  1  0  0  0  0  0  0  0  0  0
  1  3  1  0  0  0  0
  1  9  1  0  0  0  0
  2 12  1  0  0  0  0
  3  5  1  0  0  0  0
  4 12  2  0  0  0  0
  5  7  1  0  0  0  0
  6 12  2  0  0  0  0
  7  8  1  0  0  0  0
  7 10  1  0  0  0  0
  8  9  1  0  0  0  0
 10 11  1  0  0  0  0
 12 11  1  1  0  0  0
M  CHG  2   6  -1   7   1
M  END
>  <CHROM.1>
92.26845039,-109.02249034,162.60152480,3.67885060,1.16126667,-29.64125361
-2.45953286,-0.21376545,-2.68158084

>  <Name>
ligand

>  <RI>
0

>  <Rbt.Current_Directory>
/home/itssahil/PROJECTS/Mol_Feturizer/New_Systems/rnas/4P95

>  <Rbt.Executable>
rbdock ($Id: //depot/dev/client3/rdock/2013.1/src/exe/rbdock.cxx#4 $)

>  <Rbt.Library>
libRbt.so (2013.1, Build901 2013/11/27)

>  <Rbt.Parameter_File>
/export/apps/rDock/src/rDock_2013.1_src/data/scripts/dock_solv.prm

>  <Rbt.Receptor>
prm/pocket_docking_3.prm

>  <SCORE>
-8.4781

>  <SCORE.INTER>
-9.56989

>  <SCORE.INTER.CONST>
1

>  <SCORE.INTER.POLAR>
0

>  <SCORE.INTER.ROT>
3

>  <SCORE.INTER.SOLV>
6.34484

>  <SCORE.INTER.VDW>
-14.0949

>  <SCORE.INTER.norm>
-0.797491

>  <SCORE.INTRA>
1.09179

>  <SCORE.INTRA.DIHEDRAL>
6.85138

>  <SCORE.INTRA.DIHEDRAL.0>
0.283163

>  <SCORE.INTRA.POLAR>
0

>  <SCORE.INTRA.POLAR.0>
0

>  <SCORE.INTRA.REPUL>
0

>  <SCORE.INTRA.REPUL.0>
0

>  <SCORE.INTRA.SOLV>
0.627048

>  <SCORE.INTRA.SOLV.lig_0>
-32.2894

>  <SCORE.INTRA.VDW>
-2.64743

>  <SCORE.INTRA.VDW.0>
2.0241

>  <SCORE.INTRA.norm>
0.0909821

>  <SCORE.RESTR>
0

>  <SCORE.RESTR.CAVITY>
0

>  <SCORE.RESTR.norm>
0

>  <SCORE.SYSTEM>
0

>  <SCORE.SYSTEM.CONST>
0

>  <SCORE.SYSTEM.DIHEDRAL>
0

>  <SCORE.SYSTEM.SOLV>
0

>  <SCORE.SYSTEM.norm>
0

>  <SCORE.heavy>
12

>  <SCORE.norm>
-0.706509

>  <RMSD>
2.987

$$$$
ligand
 OpenBabel11021811513D
libRbt.so/2013.1/901 2013/11/27
 12 12  0  0  0  0  0  0  0  0999 V2000
    2.2768    4.5875  -29.5415 O   0  0  0  0  0  0  0  0  0  0  0  0
    7.4098   -0.4314  -29.4359 O   0  0  0  0  0  0  0  0  0  0  0  0
    2.4237    3.5525  -28.6435 C   0  0  0  0  0  0  0  0  0  0  0  0
    7.0617   -0.1222  -31.8296 O   0  0  0  0  0  0  0  0  0  0  0  0
    3.6550    2.7681  -28.8428 C   0  0  0  0  0  0  0  0  0  0  0  0
    6.2332   -2.1296  -30.7385 O   0  5  0  0  0  0  0  0  0  0  0  0
    3.8138    2.3477  -30.2413 N   0  3  0  0  0  0  0  0  0  0  0  0
    3.6861    3.4827  -31.1189 C   0  0  0  0  0  0  0  0  0  0  0  0
    2.4237    4.2356  -30.8538 C   0  0  0  0  0  0  0  0  0  0  0  0
    5.0791    1.6998  -30.4133 C   0  0  0  0  0  0  0  0  0  0  0  0
    4.8998    0.1671  -30.2702 C   0  0  0  0  0  0  0  0  0  0  0  0
    6.4683   -0.6731  -30.5706 S   0  0  1  0  0  0  0  0  0  0  0  0
  1  3  1  0  0  0  0
  1  9  1  0  0  0  0
  2 12  1  0  0  0  0
  3  5  1  0  0  0  0
  4 12  2  0  0  0  0
  5  7  1  0  0  0  0
  6 12  2  0  0  0  0
  7  8  1  0  0  0  0
  7 10  1  0  0  0  0
  8  9  1  0  0  0  0
 10 11  1  0  0  0  0
 12 11  1  1  0  0  0
M  CHG  2   6  -1   7   1
M  END
>  <CHROM.1>
94.47281552,177.00599922,71.33142254,4.83677111,1.36376861,-30.24920381,3.00541009
0.87931726,-1.22570775

>  <Name>
ligand

>  <RI>
0

>  <Rbt.Current_Directory>
/home/itssahil/PROJECTS/Mol_Feturizer/New_Systems/rnas/4P95

>  <Rbt.Executable>
rbdock ($Id: //depot/dev/client3/rdock/2013.1/src/exe/rbdock.cxx#4 $)

>  <Rbt.Library>
libRbt.so (2013.1, Build901 2013/11/27)

>  <Rbt.Parameter_File>
/export/apps/rDock/src/rDock_2013.1_src/data/scripts/dock_solv.prm

>  <Rbt.Receptor>
prm/pocket_docking_8.prm

>  <SCORE>
-10.664

>  <SCORE.INTER>
-8.69653

>  <SCORE.INTER.CONST>
1

>  <SCORE.INTER.POLAR>
0

>  <SCORE.INTER.ROT>
3

>  <SCORE.INTER.SOLV>
5.26922

>  <SCORE.INTER.VDW>
-13.1541

>  <SCORE.INTER.norm>
-0.724711

>  <SCORE.INTRA>
-1.96748

>  <SCORE.INTRA.DIHEDRAL>
1.64191

>  <SCORE.INTRA.DIHEDRAL.0>
0.283163

>  <SCORE.INTRA.POLAR>
0

>  <SCORE.INTRA.POLAR.0>
0

>  <SCORE.INTRA.REPUL>
0

>  <SCORE.INTRA.REPUL.0>
0

>  <SCORE.INTRA.SOLV>
-0.675314

>  <SCORE.INTRA.SOLV.lig_0>
-32.2894

>  <SCORE.INTRA.VDW>
-2.45078

>  <SCORE.INTRA.VDW.0>
2.0241

>  <SCORE.INTRA.norm>
-0.163957

>  <SCORE.RESTR>
0

>  <SCORE.RESTR.CAVITY>
0

>  <SCORE.RESTR.norm>
0

>  <SCORE.SYSTEM>
0

>  <SCORE.SYSTEM.CONST>
0

>  <SCORE.SYSTEM.DIHEDRAL>
0

>  <SCORE.SYSTEM.SOLV>
0

>  <SCORE.SYSTEM.norm>
0

>  <SCORE.heavy>
12

>  <SCORE.norm>
-0.888668

>  <RMSD>
2.989

$$$$
ligand
 OpenBabel11021811513D
libRbt.so/2013.1/901 2013/11/27
 12 12  0  0  0  0  0  0  0  0999 V2000
    3.1987    3.9614  -29.9677 O   0  0  0  0  0  0  0  0  0  0  0  0
    5.3946   -2.8424  -29.0827 O   0  0  0  0  0  0  0  0  0  0  0  0
    2.1774    3.0361  -29.9805 C   0  0  0  0  0  0  0  0  0  0  0  0
    7.1344   -1.1464  -28.8756 O   0  0  0  0  0  0  0  0  0  0  0  0
    2.5945    1.6903  -29.5495 C   0  0  0  0  0  0  0  0  0  0  0  0
    7.1061   -2.6170  -30.8102 O   0  5  0  0  0  0  0  0  0  0  0  0
    3.7955    1.2364  -30.2633 N   0  3  0  0  0  0  0  0  0  0  0  0
    4.8313    2.2335  -30.1770 C   0  0  0  0  0  0  0  0  0  0  0  0
    4.3359    3.5718  -30.6178 C   0  0  0  0  0  0  0  0  0  0  0  0
    4.2358   -0.0159  -29.7264 C   0  0  0  0  0  0  0  0  0  0  0  0
    5.2346   -0.6782  -30.7089 C   0  0  0  0  0  0  0  0  0  0  0  0
    6.2565   -1.8838  -29.8380 S   0  0  1  0  0  0  0  0  0  0  0  0
  1  3  1  0  0  0  0
  1  9  1  0  0  0  0
  2 12  1  0  0  0  0
  3  5  1  0  0  0  0
  4 12  2  0  0  0  0
  5  7  1  0  0  0  0
  6 12  2  0  0  0  0
  7  8  1  0  0  0  0
  7 10  1  0  0  0  0
  8  9  1  0  0  0  0
 10 11  1  0  0  0  0
 12 11  1  6  0  0  0
M  CHG  2   6  -1   7   1
M  END
>  <CHROM.1>
164.33469076,158.68307243,52.40936274,4.87800688,0.27084088,-29.94303941
-2.13203719,-0.21180478,2.95810988

>  <Name>
ligand

>  <RI>
0

>  <Rbt.Current_Directory>
/home/itssahil/PROJECTS/Mol_Feturizer/New_Systems/rnas/4P95

>  <Rbt.Executable>
rbdock ($Id: //depot/dev/client3/rdock/2013.1/src/exe/rbdock.cxx#4 $)

>  <Rbt.Library>
libRbt.so (2013.1, Build901 2013/11/27)

>  <Rbt.Parameter_File>
/export/apps/rDock/src/rDock_2013.1_src/data/scripts/dock_solv.prm

>  <Rbt.Receptor>
prm/pocket_docking_8.prm

>  <SCORE>
-10.4097

>  <SCORE.INTER>
-9.14856

>  <SCORE.INTER.CONST>
1

>  <SCORE.INTER.POLAR>
0

>  <SCORE.INTER.ROT>
3

>  <SCORE.INTER.SOLV>
6.81192

>  <SCORE.INTER.VDW>
-13.9697

>  <SCORE.INTER.norm>
-0.76238

>  <SCORE.INTRA>
-1.26109

>  <SCORE.INTRA.DIHEDRAL>
1.71508

>  <SCORE.INTRA.DIHEDRAL.0>
0.283163

>  <SCORE.INTRA.POLAR>
0

>  <SCORE.INTRA.POLAR.0>
0

>  <SCORE.INTRA.REPUL>
0

>  <SCORE.INTRA.REPUL.0>
0

>  <SCORE.INTRA.SOLV>
-0.674477

>  <SCORE.INTRA.SOLV.lig_0>
-32.2894

>  <SCORE.INTRA.VDW>
-1.78139

>  <SCORE.INTRA.VDW.0>
2.0241

>  <SCORE.INTRA.norm>
-0.105091

>  <SCORE.RESTR>
0

>  <SCORE.RESTR.CAVITY>
0

>  <SCORE.RESTR.norm>
0

>  <SCORE.SYSTEM>
0

>  <SCORE.SYSTEM.CONST>
0

>  <SCORE.SYSTEM.DIHEDRAL>
0

>  <SCORE.SYSTEM.SOLV>
0

>  <SCORE.SYSTEM.norm>
0

>  <SCORE.heavy>
12

>  <SCORE.norm>
-0.867471

>  <RMSD>
2.995

$$$$
ligand
 OpenBabel11021811513D
libRbt.so/2013.1/901 2013/11/27
 12 12  0  0  0  0  0  0  0  0999 V2000
    1.6306    3.7036  -29.7267 O   0  0  0  0  0  0  0  0  0  0  0  0
    5.5786   -3.0761  -29.2677 O   0  0  0  0  0  0  0  0  0  0  0  0
    2.7882    3.8354  -28.9906 C   0  0  0  0  0  0  0  0  0  0  0  0
    6.7881   -0.9975  -28.8638 O   0  0  0  0  0  0  0  0  0  0  0  0
    3.8674    2.9289  -29.4200 C   0  0  0  0  0  0  0  0  0  0  0  0
    6.2604   -1.6645  -31.1405 O   0  5  0  0  0  0  0  0  0  0  0  0
    3.4034    1.5391  -29.5248 N   0  3  0  0  0  0  0  0  0  0  0  0
    2.2154    1.4718  -30.3364 C   0  0  0  0  0  0  0  0  0  0  0  0
    1.1708    2.4227  -29.8512 C   0  0  0  0  0  0  0  0  0  0  0  0
    4.4458    0.7180  -30.0631 C   0  0  0  0  0  0  0  0  0  0  0  0
    4.2278   -0.7514  -29.6216 C   0  0  0  0  0  0  0  0  0  0  0  0
    5.7759   -1.6714  -29.7369 S   0  0  1  0  0  0  0  0  0  0  0  0
  1  3  1  0  0  0  0
  1  9  1  0  0  0  0
  2 12  1  0  0  0  0
  3  5  1  0  0  0  0
  4 12  2  0  0  0  0
  5  7  1  0  0  0  0
  6 12  2  0  0  0  0
  7  8  1  0  0  0  0
  7 10  1  0  0  0  0
  8  9  1  0  0  0  0
 10 11  1  0  0  0  0
 12 11  1  1  0  0  0
M  CHG  2   6  -1   7   1
M  END
>  <CHROM.1>
155.65886643,-158.94317384,178.08718917,4.21919732,0.43487008,-29.71583356
2.24981053,-0.26667031,0.23443190

>  <Name>
ligand

>  <RI>
0

>  <Rbt.Current_Directory>
/home/itssahil/PROJECTS/Mol_Feturizer/New_Systems/rnas/4P95

>  <Rbt.Executable>
rbdock ($Id: //depot/dev/client3/rdock/2013.1/src/exe/rbdock.cxx#4 $)

>  <Rbt.Library>
libRbt.so (2013.1, Build901 2013/11/27)

>  <Rbt.Parameter_File>
/export/apps/rDock/src/rDock_2013.1_src/data/scripts/dock_solv.prm

>  <Rbt.Receptor>
prm/pocket_docking_7.prm

>  <SCORE>
-10.9903

>  <SCORE.INTER>
-9.9333

>  <SCORE.INTER.CONST>
1

>  <SCORE.INTER.POLAR>
0

>  <SCORE.INTER.ROT>
3

>  <SCORE.INTER.SOLV>
6.40772

>  <SCORE.INTER.VDW>
-14.3581

>  <SCORE.INTER.norm>
-0.827775

>  <SCORE.INTRA>
-1.05696

>  <SCORE.INTRA.DIHEDRAL>
2.01959

>  <SCORE.INTRA.DIHEDRAL.0>
0.283163

>  <SCORE.INTRA.POLAR>
0

>  <SCORE.INTRA.POLAR.0>
0

>  <SCORE.INTRA.REPUL>
0

>  <SCORE.INTRA.REPUL.0>
0

>  <SCORE.INTRA.SOLV>
0.157554

>  <SCORE.INTRA.SOLV.lig_0>
-32.2894

>  <SCORE.INTRA.VDW>
-2.14553

>  <SCORE.INTRA.VDW.0>
2.0241

>  <SCORE.INTRA.norm>
-0.0880797

>  <SCORE.RESTR>
0

>  <SCORE.RESTR.CAVITY>
0

>  <SCORE.RESTR.norm>
0

>  <SCORE.SYSTEM>
0

>  <SCORE.SYSTEM.CONST>
0

>  <SCORE.SYSTEM.DIHEDRAL>
0

>  <SCORE.SYSTEM.SOLV>
0

>  <SCORE.SYSTEM.norm>
0

>  <SCORE.heavy>
12

>  <SCORE.norm>
-0.915855

>  <RMSD>
3.006

$$$$
ligand
 OpenBabel11021811513D
libRbt.so/2013.1/901 2013/11/27
 12 12  0  0  0  0  0  0  0  0999 V2000
    1.2885    3.5993  -27.9351 O   0  0  0  0  0  0  0  0  0  0  0  0
    6.6919   -0.4614  -29.9311 O   0  0  0  0  0  0  0  0  0  0  0  0
    2.6576    3.4468  -27.9746 C   0  0  0  0  0  0  0  0  0  0  0  0
    5.5316    1.5886  -30.5614 O   0  0  0  0  0  0  0  0  0  0  0  0
    3.1199    2.5351  -29.0357 C   0  0  0  0  0  0  0  0  0  0  0  0
    5.4214   -0.3565  -32.0142 O   0  5  0  0  0  0  0  0  0  0  0  0
    2.3958    1.2571  -29.0108 N   0  3  0  0  0  0  0  0  0  0  0  0
    0.9746    1.4912  -29.0086 C   0  0  0  0  0  0  0  0  0  0  0  0
    0.5800    2.4308  -27.9167 C   0  0  0  0  0  0  0  0  0  0  0  0
    2.7871    0.4550  -30.1305 C   0  0  0  0  0  0  0  0  0  0  0  0
    3.9875   -0.4405  -29.7320 C   0  0  0  0  0  0  0  0  0  0  0  0
    5.4766    0.0932  -30.6003 S   0  0  1  0  0  0  0  0  0  0  0  0
  1  3  1  0  0  0  0
  1  9  1  0  0  0  0
  2 12  1  0  0  0  0
  3  5  1  0  0  0  0
  4 12  2  0  0  0  0
  5  7  1  0  0  0  0
  6 12  2  0  0  0  0
  7  8  1  0  0  0  0
  7 10  1  0  0  0  0
  8  9  1  0  0  0  0
 10 11  1  0  0  0  0
 12 11  1  1  0  0  0
M  CHG  2   6  -1   7   1
M  END
>  <CHROM.1>
90.76720015,-111.26658846,162.60529696,3.65520194,1.18233427,-29.61625005
-2.44459958,-0.19874585,-2.64085699

>  <Name>
ligand

>  <RI>
0

>  <Rbt.Current_Directory>
/home/itssahil/PROJECTS/Mol_Feturizer/New_Systems/rnas/4P95

>  <Rbt.Executable>
rbdock ($Id: //depot/dev/client3/rdock/2013.1/src/exe/rbdock.cxx#4 $)

>  <Rbt.Library>
libRbt.so (2013.1, Build901 2013/11/27)

>  <Rbt.Parameter_File>
/export/apps/rDock/src/rDock_2013.1_src/data/scripts/dock_solv.prm

>  <Rbt.Receptor>
prm/pocket_docking_3.prm

>  <SCORE>
-8.54528

>  <SCORE.INTER>
-9.63418

>  <SCORE.INTER.CONST>
1

>  <SCORE.INTER.POLAR>
0

>  <SCORE.INTER.ROT>
3

>  <SCORE.INTER.SOLV>
6.36357

>  <SCORE.INTER.VDW>
-14.144

>  <SCORE.INTER.norm>
-0.802849

>  <SCORE.INTRA>
1.08837

>  <SCORE.INTRA.DIHEDRAL>
6.91779

>  <SCORE.INTRA.DIHEDRAL.0>
0.283163

>  <SCORE.INTRA.POLAR>
0

>  <SCORE.INTRA.POLAR.0>
0

>  <SCORE.INTRA.REPUL>
0

>  <SCORE.INTRA.REPUL.0>
0

>  <SCORE.INTRA.SOLV>
0.568017

>  <SCORE.INTRA.SOLV.lig_0>
-32.2894

>  <SCORE.INTRA.VDW>
-2.65453

>  <SCORE.INTRA.VDW.0>
2.0241

>  <SCORE.INTRA.norm>
0.0906976

>  <SCORE.RESTR>
0.000534088

>  <SCORE.RESTR.CAVITY>
0.000534088

>  <SCORE.RESTR.norm>
4.45074e-05

>  <SCORE.SYSTEM>
0

>  <SCORE.SYSTEM.CONST>
0

>  <SCORE.SYSTEM.DIHEDRAL>
0

>  <SCORE.SYSTEM.SOLV>
0

>  <SCORE.SYSTEM.norm>
0

>  <SCORE.heavy>
12

>  <SCORE.norm>
-0.712107

>  <RMSD>
3.009

$$$$
ligand
 OpenBabel11021811513D
libRbt.so/2013.1/901 2013/11/27
 12 12  0  0  0  0  0  0  0  0999 V2000
    1.9306    4.8175  -29.3120 O   0  0  0  0  0  0  0  0  0  0  0  0
    6.6948   -0.6442  -29.3937 O   0  0  0  0  0  0  0  0  0  0  0  0
    2.0199    3.8137  -28.3720 C   0  0  0  0  0  0  0  0  0  0  0  0
    6.6205    0.1350  -31.7032 O   0  0  0  0  0  0  0  0  0  0  0  0
    3.2173    2.9684  -28.5227 C   0  0  0  0  0  0  0  0  0  0  0  0
    5.5738   -1.9758  -31.1069 O   0  5  0  0  0  0  0  0  0  0  0  0
    3.3745    2.4859  -29.9013 N   0  3  0  0  0  0  0  0  0  0  0  0
    3.3085    3.5894  -30.8246 C   0  0  0  0  0  0  0  0  0  0  0  0
    2.0778    4.4073  -30.6072 C   0  0  0  0  0  0  0  0  0  0  0  0
    4.6116    1.7763  -30.0297 C   0  0  0  0  0  0  0  0  0  0  0  0
    4.3237    0.2830  -30.3276 C   0  0  0  0  0  0  0  0  0  0  0  0
    5.8677   -0.5982  -30.6371 S   0  0  1  0  0  0  0  0  0  0  0  0
  1  3  1  0  0  0  0
  1  9  1  0  0  0  0
  2 12  1  0  0  0  0
  3  5  1  0  0  0  0
  4 12  2  0  0  0  0
  5  7  1  0  0  0  0
  6 12  2  0  0  0  0
  7  8  1  0  0  0  0
  7 10  1  0  0  0  0
  8  9  1  0  0  0  0
 10 11  1  0  0  0  0
 12 11  1  1  0  0  0
M  CHG  2   6  -1   7   1
M  END
>  <CHROM.1>
114.21067539,175.00993192,66.42042242,4.33948308,1.48869403,-30.12784377
-3.09686286,-0.93546720,1.86807447

>  <Name>
ligand

>  <RI>
0

>  <Rbt.Current_Directory>
/home/itssahil/PROJECTS/Mol_Feturizer/New_Systems/rnas/4P95

>  <Rbt.Executable>
rbdock ($Id: //depot/dev/client3/rdock/2013.1/src/exe/rbdock.cxx#4 $)

>  <Rbt.Library>
libRbt.so (2013.1, Build901 2013/11/27)

>  <Rbt.Parameter_File>
/export/apps/rDock/src/rDock_2013.1_src/data/scripts/dock_solv.prm

>  <Rbt.Receptor>
prm/pocket_docking_5.prm

>  <SCORE>
-10.4954

>  <SCORE.INTER>
-8.61111

>  <SCORE.INTER.CONST>
1

>  <SCORE.INTER.POLAR>
0

>  <SCORE.INTER.ROT>
3

>  <SCORE.INTER.SOLV>
5.1835

>  <SCORE.INTER.VDW>
-13.0686

>  <SCORE.INTER.norm>
-0.717593

>  <SCORE.INTRA>
-1.88432

>  <SCORE.INTRA.DIHEDRAL>
2.29688

>  <SCORE.INTRA.DIHEDRAL.0>
0.283163

>  <SCORE.INTRA.POLAR>
0

>  <SCORE.INTRA.POLAR.0>
0

>  <SCORE.INTRA.REPUL>
0

>  <SCORE.INTRA.REPUL.0>
0

>  <SCORE.INTRA.SOLV>
-0.697393

>  <SCORE.INTRA.SOLV.lig_0>
-32.2894

>  <SCORE.INTRA.VDW>
-2.68406

>  <SCORE.INTRA.VDW.0>
2.0241

>  <SCORE.INTRA.norm>
-0.157027

>  <SCORE.RESTR>
0

>  <SCORE.RESTR.CAVITY>
0

>  <SCORE.RESTR.norm>
0

>  <SCORE.SYSTEM>
0

>  <SCORE.SYSTEM.CONST>
0

>  <SCORE.SYSTEM.DIHEDRAL>
0

>  <SCORE.SYSTEM.SOLV>
0

>  <SCORE.SYSTEM.norm>
0

>  <SCORE.heavy>
12

>  <SCORE.norm>
-0.874619

>  <RMSD>
3.015

$$$$
ligand
 OpenBabel11021811513D
libRbt.so/2013.1/901 2013/11/27
 12 12  0  0  0  0  0  0  0  0999 V2000
    0.8667    2.7718  -27.8519 O   0  0  0  0  0  0  0  0  0  0  0  0
    4.0944   -0.5276  -29.3996 O   0  0  0  0  0  0  0  0  0  0  0  0
    2.1622    3.0940  -27.5095 C   0  0  0  0  0  0  0  0  0  0  0  0
    6.4804   -0.5830  -29.9001 O   0  0  0  0  0  0  0  0  0  0  0  0
    3.0665    3.2137  -28.6665 C   0  0  0  0  0  0  0  0  0  0  0  0
    4.8640   -0.6822  -31.7122 O   0  5  0  0  0  0  0  0  0  0  0  0
    2.9758    2.0459  -29.5531 N   0  3  0  0  0  0  0  0  0  0  0  0
    1.6012    1.7907  -29.8996 C   0  0  0  0  0  0  0  0  0  0  0  0
    0.7425    1.6928  -28.6814 C   0  0  0  0  0  0  0  0  0  0  0  0
    3.7736    2.2605  -30.7226 C   0  0  0  0  0  0  0  0  0  0  0  0
    5.1982    1.6973  -30.4883 C   0  0  0  0  0  0  0  0  0  0  0  0
    5.1442   -0.1028  -30.3742 S   0  0  1  0  0  0  0  0  0  0  0  0
  1  3  1  0  0  0  0
  1  9  1  0  0  0  0
  2 12  1  0  0  0  0
  3  5  1  0  0  0  0
  4 12  2  0  0  0  0
  5  7  1  0  0  0  0
  6 12  2  0  0  0  0
  7  8  1  0  0  0  0
  7 10  1  0  0  0  0
  8  9  1  0  0  0  0
 10 11  1  0  0  0  0
 12 11  1  6  0  0  0
M  CHG  2   6  -1   7   1
M  END
>  <CHROM.1>
91.77307049,67.89292733,-50.26211361,3.60172326,1.20414992,-29.64475906,2.42617982
0.25232686,0.36186636

>  <Name>
ligand

>  <RI>
0

>  <Rbt.Current_Directory>
/home/itssahil/PROJECTS/Mol_Feturizer/New_Systems/rnas/4P95

>  <Rbt.Executable>
rbdock ($Id: //depot/dev/client3/rdock/2013.1/src/exe/rbdock.cxx#4 $)

>  <Rbt.Library>
libRbt.so (2013.1, Build901 2013/11/27)

>  <Rbt.Parameter_File>
/export/apps/rDock/src/rDock_2013.1_src/data/scripts/dock_solv.prm

>  <Rbt.Receptor>
prm/pocket_docking_3.prm

>  <SCORE>
-11.4289

>  <SCORE.INTER>
-9.42011

>  <SCORE.INTER.CONST>
1

>  <SCORE.INTER.POLAR>
0

>  <SCORE.INTER.ROT>
3

>  <SCORE.INTER.SOLV>
4.58187

>  <SCORE.INTER.VDW>
-13.4074

>  <SCORE.INTER.norm>
-0.785009

>  <SCORE.INTRA>
-2.0088

>  <SCORE.INTRA.DIHEDRAL>
1.59219

>  <SCORE.INTRA.DIHEDRAL.0>
0.283163

>  <SCORE.INTRA.POLAR>
0

>  <SCORE.INTRA.POLAR.0>
0

>  <SCORE.INTRA.REPUL>
0

>  <SCORE.INTRA.REPUL.0>
0

>  <SCORE.INTRA.SOLV>
0.629093

>  <SCORE.INTRA.SOLV.lig_0>
-32.2894

>  <SCORE.INTRA.VDW>
-3.11944

>  <SCORE.INTRA.VDW.0>
2.0241

>  <SCORE.INTRA.norm>
-0.1674

>  <SCORE.RESTR>
0

>  <SCORE.RESTR.CAVITY>
0

>  <SCORE.RESTR.norm>
0

>  <SCORE.SYSTEM>
0

>  <SCORE.SYSTEM.CONST>
0

>  <SCORE.SYSTEM.DIHEDRAL>
0

>  <SCORE.SYSTEM.SOLV>
0

>  <SCORE.SYSTEM.norm>
0

>  <SCORE.heavy>
12

>  <SCORE.norm>
-0.952409

>  <RMSD>
3.017

$$$$
ligand
 OpenBabel11021811513D
libRbt.so/2013.1/901 2013/11/27
 12 12  0  0  0  0  0  0  0  0999 V2000
    1.5813    3.6956  -27.6764 O   0  0  0  0  0  0  0  0  0  0  0  0
    4.9419    0.8707  -29.7094 O   0  0  0  0  0  0  0  0  0  0  0  0
    2.7734    3.6019  -28.3616 C   0  0  0  0  0  0  0  0  0  0  0  0
    4.6189    0.7613  -32.1239 O   0  0  0  0  0  0  0  0  0  0  0  0
    2.6838    2.8024  -29.5959 C   0  0  0  0  0  0  0  0  0  0  0  0
    5.3316   -1.2199  -30.9102 O   0  5  0  0  0  0  0  0  0  0  0  0
    2.0498    1.4990  -29.3570 N   0  3  0  0  0  0  0  0  0  0  0  0
    0.7945    1.6751  -28.6729 C   0  0  0  0  0  0  0  0  0  0  0  0
    0.9584    2.5024  -27.4403 C   0  0  0  0  0  0  0  0  0  0  0  0
    1.8704    0.8108  -30.5998 C   0  0  0  0  0  0  0  0  0  0  0  0
    2.7611   -0.4573  -30.6229 C   0  0  0  0  0  0  0  0  0  0  0  0
    4.4924    0.0029  -30.8396 S   0  0  1  0  0  0  0  0  0  0  0  0
  1  3  1  0  0  0  0
  1  9  1  0  0  0  0
  2 12  1  0  0  0  0
  3  5  1  0  0  0  0
  4 12  2  0  0  0  0
  5  7  1  0  0  0  0
  6 12  2  0  0  0  0
  7  8  1  0  0  0  0
  7 10  1  0  0  0  0
  8  9  1  0  0  0  0
 10 11  1  0  0  0  0
 12 11  1  1  0  0  0
M  CHG  2   6  -1   7   1
M  END
>  <CHROM.1>
114.10235577,-73.33666588,60.57183639,3.10159629,1.23670058,-29.78689766
-2.22800945,-0.25102838,-2.57768819

>  <Name>
ligand

>  <RI>
0

>  <Rbt.Current_Directory>
/home/itssahil/PROJECTS/Mol_Feturizer/New_Systems/rnas/4P95

>  <Rbt.Executable>
rbdock ($Id: //depot/dev/client3/rdock/2013.1/src/exe/rbdock.cxx#4 $)

>  <Rbt.Library>
libRbt.so (2013.1, Build901 2013/11/27)

>  <Rbt.Parameter_File>
/export/apps/rDock/src/rDock_2013.1_src/data/scripts/dock_solv.prm

>  <Rbt.Receptor>
prm/pocket_docking_3.prm

>  <SCORE>
-7.96094

>  <SCORE.INTER>
-5.75979

>  <SCORE.INTER.CONST>
1

>  <SCORE.INTER.POLAR>
0

>  <SCORE.INTER.ROT>
3

>  <SCORE.INTER.SOLV>
4.55819

>  <SCORE.INTER.VDW>
-10.9593

>  <SCORE.INTER.norm>
-0.479983

>  <SCORE.INTRA>
-2.20163

>  <SCORE.INTRA.DIHEDRAL>
2.72832

>  <SCORE.INTRA.DIHEDRAL.0>
0.283163

>  <SCORE.INTRA.POLAR>
0

>  <SCORE.INTRA.POLAR.0>
0

>  <SCORE.INTRA.REPUL>
0

>  <SCORE.INTRA.REPUL.0>
0

>  <SCORE.INTRA.SOLV>
-0.518549

>  <SCORE.INTRA.SOLV.lig_0>
-32.2894

>  <SCORE.INTRA.VDW>
-3.30652

>  <SCORE.INTRA.VDW.0>
2.0241

>  <SCORE.INTRA.norm>
-0.183469

>  <SCORE.RESTR>
0.000483931

>  <SCORE.RESTR.CAVITY>
0.000483931

>  <SCORE.RESTR.norm>
4.03275e-05

>  <SCORE.SYSTEM>
0

>  <SCORE.SYSTEM.CONST>
0

>  <SCORE.SYSTEM.DIHEDRAL>
0

>  <SCORE.SYSTEM.SOLV>
0

>  <SCORE.SYSTEM.norm>
0

>  <SCORE.heavy>
12

>  <SCORE.norm>
-0.663412

>  <RMSD>
3.017

$$$$
ligand
 OpenBabel11021811513D
libRbt.so/2013.1/901 2013/11/27
 12 12  0  0  0  0  0  0  0  0999 V2000
    1.7580    4.4451  -29.8812 O   0  0  0  0  0  0  0  0  0  0  0  0
    6.4263   -0.8987  -28.9321 O   0  0  0  0  0  0  0  0  0  0  0  0
    2.3946    4.1570  -31.0690 C   0  0  0  0  0  0  0  0  0  0  0  0
    7.6559   -0.6374  -31.0217 O   0  0  0  0  0  0  0  0  0  0  0  0
    2.9606    2.7976  -31.1211 C   0  0  0  0  0  0  0  0  0  0  0  0
    5.4327   -1.6189  -31.0436 O   0  5  0  0  0  0  0  0  0  0  0  0
    3.7807    2.5024  -29.9386 N   0  3  0  0  0  0  0  0  0  0  0  0
    3.0413    2.7905  -28.7366 C   0  0  0  0  0  0  0  0  0  0  0  0
    2.4886    4.1779  -28.7576 C   0  0  0  0  0  0  0  0  0  0  0  0
    4.2052    1.1352  -29.9707 C   0  0  0  0  0  0  0  0  0  0  0  0
    5.6010    1.0417  -30.6374 C   0  0  0  0  0  0  0  0  0  0  0  0
    6.2985   -0.6043  -30.3913 S   0  0  1  0  0  0  0  0  0  0  0  0
  1  3  1  0  0  0  0
  1  9  1  0  0  0  0
  2 12  1  0  0  0  0
  3  5  1  0  0  0  0
  4 12  2  0  0  0  0
  5  7  1  0  0  0  0
  6 12  2  0  0  0  0
  7  8  1  0  0  0  0
  7 10  1  0  0  0  0
  8  9  1  0  0  0  0
 10 11  1  0  0  0  0
 12 11  1  6  0  0  0
M  CHG  2   6  -1   7   1
M  END
>  <CHROM.1>
93.57445927,168.58384808,-59.24284787,4.55900484,1.34971040,-30.15365775
3.05427032,-0.85583498,1.56907924

>  <Name>
ligand

>  <RI>
0

>  <Rbt.Current_Directory>
/home/itssahil/PROJECTS/Mol_Feturizer/New_Systems/rnas/4P95

>  <Rbt.Executable>
rbdock ($Id: //depot/dev/client3/rdock/2013.1/src/exe/rbdock.cxx#4 $)

>  <Rbt.Library>
libRbt.so (2013.1, Build901 2013/11/27)

>  <Rbt.Parameter_File>
/export/apps/rDock/src/rDock_2013.1_src/data/scripts/dock_solv.prm

>  <Rbt.Receptor>
prm/pocket_docking_8.prm

>  <SCORE>
-10.0832

>  <SCORE.INTER>
-8.38286

>  <SCORE.INTER.CONST>
1

>  <SCORE.INTER.POLAR>
0

>  <SCORE.INTER.ROT>
3

>  <SCORE.INTER.SOLV>
4.49892

>  <SCORE.INTER.VDW>
-12.6882

>  <SCORE.INTER.norm>
-0.698571

>  <SCORE.INTRA>
-1.70031

>  <SCORE.INTRA.DIHEDRAL>
1.69282

>  <SCORE.INTRA.DIHEDRAL.0>
0.283163

>  <SCORE.INTRA.POLAR>
0

>  <SCORE.INTRA.POLAR.0>
0

>  <SCORE.INTRA.REPUL>
0

>  <SCORE.INTRA.REPUL.0>
0

>  <SCORE.INTRA.SOLV>
-0.0742682

>  <SCORE.INTRA.SOLV.lig_0>
-32.2894

>  <SCORE.INTRA.VDW>
-2.50959

>  <SCORE.INTRA.VDW.0>
2.0241

>  <SCORE.INTRA.norm>
-0.141693

>  <SCORE.RESTR>
0

>  <SCORE.RESTR.CAVITY>
0

>  <SCORE.RESTR.norm>
0

>  <SCORE.SYSTEM>
0

>  <SCORE.SYSTEM.CONST>
0

>  <SCORE.SYSTEM.DIHEDRAL>
0

>  <SCORE.SYSTEM.SOLV>
0

>  <SCORE.SYSTEM.norm>
0

>  <SCORE.heavy>
12

>  <SCORE.norm>
-0.840264

>  <RMSD>
3.017

$$$$
ligand
 OpenBabel11021811513D
libRbt.so/2013.1/901 2013/11/27
 12 12  0  0  0  0  0  0  0  0999 V2000
    1.2802    3.6621  -27.9602 O   0  0  0  0  0  0  0  0  0  0  0  0
    6.5525   -0.6255  -29.9186 O   0  0  0  0  0  0  0  0  0  0  0  0
    2.6457    3.4901  -28.0329 C   0  0  0  0  0  0  0  0  0  0  0  0
    5.4817    1.4964  -30.4640 O   0  0  0  0  0  0  0  0  0  0  0  0
    3.0664    2.5410  -29.0784 C   0  0  0  0  0  0  0  0  0  0  0  0
    5.2745   -0.3868  -31.9860 O   0  5  0  0  0  0  0  0  0  0  0  0
    2.3273    1.2743  -28.9950 N   0  3  0  0  0  0  0  0  0  0  0  0
    0.9098    1.5275  -28.9606 C   0  0  0  0  0  0  0  0  0  0  0  0
    0.5578    2.5044  -27.8871 C   0  0  0  0  0  0  0  0  0  0  0  0
    2.6768    0.4340  -30.1005 C   0  0  0  0  0  0  0  0  0  0  0  0
    3.8531   -0.4906  -29.6967 C   0  0  0  0  0  0  0  0  0  0  0  0
    5.3591    0.0075  -30.5570 S   0  0  1  0  0  0  0  0  0  0  0  0
  1  3  1  0  0  0  0
  1  9  1  0  0  0  0
  2 12  1  0  0  0  0
  3  5  1  0  0  0  0
  4 12  2  0  0  0  0
  5  7  1  0  0  0  0
  6 12  2  0  0  0  0
  7  8  1  0  0  0  0
  7 10  1  0  0  0  0
  8  9  1  0  0  0  0
 10 11  1  0  0  0  0
 12 11  1  1  0  0  0
M  CHG  2   6  -1   7   1
M  END
>  <CHROM.1>
92.19342621,-109.45319011,165.09029103,3.57382173,1.15733150,-29.59563868
-2.42311839,-0.20108715,-2.66957815

>  <Name>
ligand

>  <RI>
0

>  <Rbt.Current_Directory>
/home/itssahil/PROJECTS/Mol_Feturizer/New_Systems/rnas/4P95

>  <Rbt.Executable>
rbdock ($Id: //depot/dev/client3/rdock/2013.1/src/exe/rbdock.cxx#4 $)

>  <Rbt.Library>
libRbt.so (2013.1, Build901 2013/11/27)

>  <Rbt.Parameter_File>
/export/apps/rDock/src/rDock_2013.1_src/data/scripts/dock_solv.prm

>  <Rbt.Receptor>
prm/pocket_docking_3.prm

>  <SCORE>
-8.43668

>  <SCORE.INTER>
-9.44383

>  <SCORE.INTER.CONST>
1

>  <SCORE.INTER.POLAR>
0

>  <SCORE.INTER.ROT>
3

>  <SCORE.INTER.SOLV>
6.23173

>  <SCORE.INTER.VDW>
-13.9731

>  <SCORE.INTER.norm>
-0.786985

>  <SCORE.INTRA>
1.00714

>  <SCORE.INTRA.DIHEDRAL>
6.71034

>  <SCORE.INTRA.DIHEDRAL.0>
0.283163

>  <SCORE.INTRA.POLAR>
0

>  <SCORE.INTRA.POLAR.0>
0

>  <SCORE.INTRA.REPUL>
0

>  <SCORE.INTRA.REPUL.0>
0

>  <SCORE.INTRA.SOLV>
0.665727

>  <SCORE.INTRA.SOLV.lig_0>
-32.2894

>  <SCORE.INTRA.VDW>
-2.68089

>  <SCORE.INTRA.VDW.0>
2.0241

>  <SCORE.INTRA.norm>
0.0839284

>  <SCORE.RESTR>
0

>  <SCORE.RESTR.CAVITY>
0

>  <SCORE.RESTR.norm>
0

>  <SCORE.SYSTEM>
0

>  <SCORE.SYSTEM.CONST>
0

>  <SCORE.SYSTEM.DIHEDRAL>
0

>  <SCORE.SYSTEM.SOLV>
0

>  <SCORE.SYSTEM.norm>
0

>  <SCORE.heavy>
12

>  <SCORE.norm>
-0.703057

>  <RMSD>
3.025

$$$$
ligand
 OpenBabel11021811513D
libRbt.so/2013.1/901 2013/11/27
 12 12  0  0  0  0  0  0  0  0999 V2000
    3.1760    3.7222  -29.7802 O   0  0  0  0  0  0  0  0  0  0  0  0
    7.3849   -1.1475  -28.4269 O   0  0  0  0  0  0  0  0  0  0  0  0
    4.4635    3.3989  -30.1505 C   0  0  0  0  0  0  0  0  0  0  0  0
    6.8601    0.3169  -30.3048 O   0  0  0  0  0  0  0  0  0  0  0  0
    4.6051    2.0211  -30.6530 C   0  0  0  0  0  0  0  0  0  0  0  0
    7.0751   -2.0770  -30.6640 O   0  5  0  0  0  0  0  0  0  0  0  0
    4.0030    1.0420  -29.7382 N   0  3  0  0  0  0  0  0  0  0  0  0
    2.6495    1.4220  -29.4246 C   0  0  0  0  0  0  0  0  0  0  0  0
    2.5802    2.8306  -28.9330 C   0  0  0  0  0  0  0  0  0  0  0  0
    4.0522   -0.2640  -30.3233 C   0  0  0  0  0  0  0  0  0  0  0  0
    4.8545   -1.2153  -29.3998 C   0  0  0  0  0  0  0  0  0  0  0  0
    6.6234   -1.0351  -29.7075 S   0  0  1  0  0  0  0  0  0  0  0  0
  1  3  1  0  0  0  0
  1  9  1  0  0  0  0
  2 12  1  0  0  0  0
  3  5  1  0  0  0  0
  4 12  2  0  0  0  0
  5  7  1  0  0  0  0
  6 12  2  0  0  0  0
  7  8  1  0  0  0  0
  7 10  1  0  0  0  0
  8  9  1  0  0  0  0
 10 11  1  0  0  0  0
 12 11  1  1  0  0  0
M  CHG  2   6  -1   7   1
M  END
>  <CHROM.1>
120.85112991,-83.31918667,142.79924228,5.07573952,0.56311305,-29.78436557
-2.29439766,-0.16880975,3.00277947

>  <Name>
ligand

>  <RI>
0

>  <Rbt.Current_Directory>
/home/itssahil/PROJECTS/Mol_Feturizer/New_Systems/rnas/4P95

>  <Rbt.Executable>
rbdock ($Id: //depot/dev/client3/rdock/2013.1/src/exe/rbdock.cxx#4 $)

>  <Rbt.Library>
libRbt.so (2013.1, Build901 2013/11/27)

>  <Rbt.Parameter_File>
/export/apps/rDock/src/rDock_2013.1_src/data/scripts/dock_solv.prm

>  <Rbt.Receptor>
prm/pocket_docking_8.prm

>  <SCORE>
-11.3552

>  <SCORE.INTER>
-12.2636

>  <SCORE.INTER.CONST>
1

>  <SCORE.INTER.POLAR>
0

>  <SCORE.INTER.ROT>
3

>  <SCORE.INTER.SOLV>
6.50815

>  <SCORE.INTER.VDW>
-15.9451

>  <SCORE.INTER.norm>
-1.02197

>  <SCORE.INTRA>
0.908397

>  <SCORE.INTRA.DIHEDRAL>
6.32424

>  <SCORE.INTRA.DIHEDRAL.0>
0.283163

>  <SCORE.INTRA.POLAR>
0

>  <SCORE.INTRA.POLAR.0>
0

>  <SCORE.INTRA.REPUL>
0

>  <SCORE.INTRA.REPUL.0>
0

>  <SCORE.INTRA.SOLV>
0.634359

>  <SCORE.INTRA.SOLV.lig_0>
-32.2894

>  <SCORE.INTRA.VDW>
-2.5709

>  <SCORE.INTRA.VDW.0>
2.0241

>  <SCORE.INTRA.norm>
0.0756998

>  <SCORE.RESTR>
0

>  <SCORE.RESTR.CAVITY>
0

>  <SCORE.RESTR.norm>
0

>  <SCORE.SYSTEM>
0

>  <SCORE.SYSTEM.CONST>
0

>  <SCORE.SYSTEM.DIHEDRAL>
0

>  <SCORE.SYSTEM.SOLV>
0

>  <SCORE.SYSTEM.norm>
0

>  <SCORE.heavy>
12

>  <SCORE.norm>
-0.94627

>  <RMSD>
3.034

$$$$
ligand
 OpenBabel11021811513D
libRbt.so/2013.1/901 2013/11/27
 12 12  0  0  0  0  0  0  0  0999 V2000
    1.2748    2.9804  -28.0962 O   0  0  0  0  0  0  0  0  0  0  0  0
    3.8747   -1.1618  -29.1074 O   0  0  0  0  0  0  0  0  0  0  0  0
    2.6152    3.2083  -27.8708 C   0  0  0  0  0  0  0  0  0  0  0  0
    6.3036   -1.3333  -28.9749 O   0  0  0  0  0  0  0  0  0  0  0  0
    3.4710    2.8898  -29.0271 C   0  0  0  0  0  0  0  0  0  0  0  0
    5.1668   -1.8730  -31.0540 O   0  5  0  0  0  0  0  0  0  0  0  0
    3.1934    1.5488  -29.5585 N   0  3  0  0  0  0  0  0  0  0  0  0
    1.7827    1.3942  -29.8052 C   0  0  0  0  0  0  0  0  0  0  0  0
    0.9779    1.7439  -28.5966 C   0  0  0  0  0  0  0  0  0  0  0  0
    3.9548    1.3316  -30.7516 C   0  0  0  0  0  0  0  0  0  0  0  0
    5.3361    0.7333  -30.3829 C   0  0  0  0  0  0  0  0  0  0  0  0
    5.1509   -0.9851  -29.8641 S   0  0  1  0  0  0  0  0  0  0  0  0
  1  3  1  0  0  0  0
  1  9  1  0  0  0  0
  2 12  1  0  0  0  0
  3  5  1  0  0  0  0
  4 12  2  0  0  0  0
  5  7  1  0  0  0  0
  6 12  2  0  0  0  0
  7  8  1  0  0  0  0
  7 10  1  0  0  0  0
  8  9  1  0  0  0  0
 10 11  1  0  0  0  0
 12 11  1  6  0  0  0
M  CHG  2   6  -1   7   1
M  END
>  <CHROM.1>
88.99920308,72.58182270,-35.81716233,3.75949830,0.65093698,-29.46022728,2.29692143
0.19493299,0.18331691

>  <Name>
ligand

>  <RI>
0

>  <Rbt.Current_Directory>
/home/itssahil/PROJECTS/Mol_Feturizer/New_Systems/rnas/4P95

>  <Rbt.Executable>
rbdock ($Id: //depot/dev/client3/rdock/2013.1/src/exe/rbdock.cxx#4 $)

>  <Rbt.Library>
libRbt.so (2013.1, Build901 2013/11/27)

>  <Rbt.Parameter_File>
/export/apps/rDock/src/rDock_2013.1_src/data/scripts/dock_solv.prm

>  <Rbt.Receptor>
prm/pocket_docking_7.prm

>  <SCORE>
-12.3533

>  <SCORE.INTER>
-10.8333

>  <SCORE.INTER.CONST>
1

>  <SCORE.INTER.POLAR>
0

>  <SCORE.INTER.ROT>
3

>  <SCORE.INTER.SOLV>
6.40099

>  <SCORE.INTER.VDW>
-14.9559

>  <SCORE.INTER.norm>
-0.902777

>  <SCORE.INTRA>
-1.51995

>  <SCORE.INTRA.DIHEDRAL>
2.8243

>  <SCORE.INTRA.DIHEDRAL.0>
0.283163

>  <SCORE.INTRA.POLAR>
0

>  <SCORE.INTRA.POLAR.0>
0

>  <SCORE.INTRA.REPUL>
0

>  <SCORE.INTRA.REPUL.0>
0

>  <SCORE.INTRA.SOLV>
-0.0136718

>  <SCORE.INTRA.SOLV.lig_0>
-32.2894

>  <SCORE.INTRA.VDW>
-2.92527

>  <SCORE.INTRA.VDW.0>
2.0241

>  <SCORE.INTRA.norm>
-0.126663

>  <SCORE.RESTR>
0

>  <SCORE.RESTR.CAVITY>
0

>  <SCORE.RESTR.norm>
0

>  <SCORE.SYSTEM>
0

>  <SCORE.SYSTEM.CONST>
0

>  <SCORE.SYSTEM.DIHEDRAL>
0

>  <SCORE.SYSTEM.SOLV>
0

>  <SCORE.SYSTEM.norm>
0

>  <SCORE.heavy>
12

>  <SCORE.norm>
-1.02944

>  <RMSD>
3.036

$$$$
ligand
 OpenBabel11021811513D
libRbt.so/2013.1/901 2013/11/27
 12 12  0  0  0  0  0  0  0  0999 V2000
    1.3367    2.9637  -28.0621 O   0  0  0  0  0  0  0  0  0  0  0  0
    3.8685   -1.1019  -29.1173 O   0  0  0  0  0  0  0  0  0  0  0  0
    2.6750    3.1910  -27.8241 C   0  0  0  0  0  0  0  0  0  0  0  0
    6.2897   -1.3493  -28.9652 O   0  0  0  0  0  0  0  0  0  0  0  0
    3.5380    2.9042  -28.9833 C   0  0  0  0  0  0  0  0  0  0  0  0
    5.1526   -1.8599  -31.0515 O   0  5  0  0  0  0  0  0  0  0  0  0
    3.2684    1.5755  -29.5489 N   0  3  0  0  0  0  0  0  0  0  0  0
    1.8596    1.4218  -29.8068 C   0  0  0  0  0  0  0  0  0  0  0  0
    1.0471    1.7387  -28.5942 C   0  0  0  0  0  0  0  0  0  0  0  0
    4.0368    1.3905  -30.7429 C   0  0  0  0  0  0  0  0  0  0  0  0
    5.3986    0.7421  -30.3872 C   0  0  0  0  0  0  0  0  0  0  0  0
    5.1554   -0.9679  -29.8645 S   0  0  1  0  0  0  0  0  0  0  0  0
  1  3  1  0  0  0  0
  1  9  1  0  0  0  0
  2 12  1  0  0  0  0
  3  5  1  0  0  0  0
  4 12  2  0  0  0  0
  5  7  1  0  0  0  0
  6 12  2  0  0  0  0
  7  8  1  0  0  0  0
  7 10  1  0  0  0  0
  8  9  1  0  0  0  0
 10 11  1  0  0  0  0
 12 11  1  6  0  0  0
M  CHG  2   6  -1   7   1
M  END
>  <CHROM.1>
90.99263066,69.72478106,-34.74739329,3.79807525,0.66531289,-29.44969162,2.29318024
0.22726609,0.16659234

>  <Name>
ligand

>  <RI>
0

>  <Rbt.Current_Directory>
/home/itssahil/PROJECTS/Mol_Feturizer/New_Systems/rnas/4P95

>  <Rbt.Executable>
rbdock ($Id: //depot/dev/client3/rdock/2013.1/src/exe/rbdock.cxx#4 $)

>  <Rbt.Library>
libRbt.so (2013.1, Build901 2013/11/27)

>  <Rbt.Parameter_File>
/export/apps/rDock/src/rDock_2013.1_src/data/scripts/dock_solv.prm

>  <Rbt.Receptor>
prm/pocket_docking_7.prm

>  <SCORE>
-12.3159

>  <SCORE.INTER>
-10.7661

>  <SCORE.INTER.CONST>
1

>  <SCORE.INTER.POLAR>
0

>  <SCORE.INTER.ROT>
3

>  <SCORE.INTER.SOLV>
6.50489

>  <SCORE.INTER.VDW>
-14.9457

>  <SCORE.INTER.norm>
-0.897178

>  <SCORE.INTRA>
-1.55038

>  <SCORE.INTRA.DIHEDRAL>
2.8195

>  <SCORE.INTRA.DIHEDRAL.0>
0.283163

>  <SCORE.INTRA.POLAR>
0

>  <SCORE.INTRA.POLAR.0>
0

>  <SCORE.INTRA.REPUL>
0

>  <SCORE.INTRA.REPUL.0>
0

>  <SCORE.INTRA.SOLV>
0.000107383

>  <SCORE.INTRA.SOLV.lig_0>
-32.2894

>  <SCORE.INTRA.VDW>
-2.96019

>  <SCORE.INTRA.VDW.0>
2.0241

>  <SCORE.INTRA.norm>
-0.129199

>  <SCORE.RESTR>
0.000653677

>  <SCORE.RESTR.CAVITY>
0.000653677

>  <SCORE.RESTR.norm>
5.44731e-05

>  <SCORE.SYSTEM>
0

>  <SCORE.SYSTEM.CONST>
0

>  <SCORE.SYSTEM.DIHEDRAL>
0

>  <SCORE.SYSTEM.SOLV>
0

>  <SCORE.SYSTEM.norm>
0

>  <SCORE.heavy>
12

>  <SCORE.norm>
-1.02632

>  <RMSD>
3.038

$$$$
ligand
 OpenBabel11021811513D
libRbt.so/2013.1/901 2013/11/27
 12 12  0  0  0  0  0  0  0  0999 V2000
    1.3817    3.1713  -28.0170 O   0  0  0  0  0  0  0  0  0  0  0  0
    3.8903   -1.2533  -29.0735 O   0  0  0  0  0  0  0  0  0  0  0  0
    2.7416    3.3085  -27.8410 C   0  0  0  0  0  0  0  0  0  0  0  0
    6.3260   -1.3341  -28.9868 O   0  0  0  0  0  0  0  0  0  0  0  0
    3.5334    2.8949  -29.0127 C   0  0  0  0  0  0  0  0  0  0  0  0
    5.1721   -1.8960  -31.0505 O   0  5  0  0  0  0  0  0  0  0  0  0
    3.1435    1.5620  -29.4918 N   0  3  0  0  0  0  0  0  0  0  0  0
    1.7180    1.5024  -29.6893 C   0  0  0  0  0  0  0  0  0  0  0  0
    0.9809    1.9451  -28.4680 C   0  0  0  0  0  0  0  0  0  0  0  0
    3.8472    1.2551  -30.7005 C   0  0  0  0  0  0  0  0  0  0  0  0
    5.2556    0.7082  -30.3553 C   0  0  0  0  0  0  0  0  0  0  0  0
    5.1447   -1.0210  -29.8513 S   0  0  1  0  0  0  0  0  0  0  0  0
  1  3  1  0  0  0  0
  1  9  1  0  0  0  0
  2 12  1  0  0  0  0
  3  5  1  0  0  0  0
  4 12  2  0  0  0  0
  5  7  1  0  0  0  0
  6 12  2  0  0  0  0
  7  8  1  0  0  0  0
  7 10  1  0  0  0  0
  8  9  1  0  0  0  0
 10 11  1  0  0  0  0
 12 11  1  6  0  0  0
M  CHG  2   6  -1   7   1
M  END
>  <CHROM.1>
83.06137304,78.54817765,-36.14053640,3.76285601,0.67479136,-29.41815026,2.25569321
0.09799812,0.27310112

>  <Name>
ligand

>  <RI>
0

>  <Rbt.Current_Directory>
/home/itssahil/PROJECTS/Mol_Feturizer/New_Systems/rnas/4P95

>  <Rbt.Executable>
rbdock ($Id: //depot/dev/client3/rdock/2013.1/src/exe/rbdock.cxx#4 $)

>  <Rbt.Library>
libRbt.so (2013.1, Build901 2013/11/27)

>  <Rbt.Parameter_File>
/export/apps/rDock/src/rDock_2013.1_src/data/scripts/dock_solv.prm

>  <Rbt.Receptor>
prm/pocket_docking_7.prm

>  <SCORE>
-12.3914

>  <SCORE.INTER>
-11.1858

>  <SCORE.INTER.CONST>
1

>  <SCORE.INTER.POLAR>
0

>  <SCORE.INTER.ROT>
3

>  <SCORE.INTER.SOLV>
6.5553

>  <SCORE.INTER.VDW>
-15.2423

>  <SCORE.INTER.norm>
-0.932148

>  <SCORE.INTRA>
-1.20564

>  <SCORE.INTRA.DIHEDRAL>
3.05308

>  <SCORE.INTRA.DIHEDRAL.0>
0.283163

>  <SCORE.INTRA.POLAR>
0

>  <SCORE.INTRA.POLAR.0>
0

>  <SCORE.INTRA.REPUL>
0

>  <SCORE.INTRA.REPUL.0>
0

>  <SCORE.INTRA.SOLV>
-0.0640783

>  <SCORE.INTRA.SOLV.lig_0>
-32.2894

>  <SCORE.INTRA.VDW>
-2.70014

>  <SCORE.INTRA.VDW.0>
2.0241

>  <SCORE.INTRA.norm>
-0.10047

>  <SCORE.RESTR>
0

>  <SCORE.RESTR.CAVITY>
0

>  <SCORE.RESTR.norm>
0

>  <SCORE.SYSTEM>
0

>  <SCORE.SYSTEM.CONST>
0

>  <SCORE.SYSTEM.DIHEDRAL>
0

>  <SCORE.SYSTEM.SOLV>
0

>  <SCORE.SYSTEM.norm>
0

>  <SCORE.heavy>
12

>  <SCORE.norm>
-1.03262

>  <RMSD>
3.044

$$$$
ligand
 OpenBabel11021811513D
libRbt.so/2013.1/901 2013/11/27
 12 12  0  0  0  0  0  0  0  0999 V2000
    2.2691    4.3926  -30.2625 O   0  0  0  0  0  0  0  0  0  0  0  0
    5.1601   -2.0517  -30.2246 O   0  0  0  0  0  0  0  0  0  0  0  0
    3.1312    4.0670  -31.2873 C   0  0  0  0  0  0  0  0  0  0  0  0
    6.8262   -1.0426  -28.7575 O   0  0  0  0  0  0  0  0  0  0  0  0
    3.5489    2.6541  -31.2812 C   0  0  0  0  0  0  0  0  0  0  0  0
    7.3746   -1.4836  -31.0837 O   0  5  0  0  0  0  0  0  0  0  0  0
    4.0358    2.2346  -29.9602 N   0  3  0  0  0  0  0  0  0  0  0  0
    3.0709    2.5714  -28.9451 C   0  0  0  0  0  0  0  0  0  0  0  0
    2.6860    4.0127  -29.0177 C   0  0  0  0  0  0  0  0  0  0  0  0
    4.3111    0.8295  -29.9674 C   0  0  0  0  0  0  0  0  0  0  0  0
    5.7128    0.5795  -30.5793 C   0  0  0  0  0  0  0  0  0  0  0  0
    6.2901   -1.0767  -30.1547 S   0  0  1  0  0  0  0  0  0  0  0  0
  1  3  1  0  0  0  0
  1  9  1  0  0  0  0
  2 12  1  0  0  0  0
  3  5  1  0  0  0  0
  4 12  2  0  0  0  0
  5  7  1  0  0  0  0
  6 12  2  0  0  0  0
  7  8  1  0  0  0  0
  7 10  1  0  0  0  0
  8  9  1  0  0  0  0
 10 11  1  0  0  0  0
 12 11  1  6  0  0  0
M  CHG  2   6  -1   7   1
M  END
>  <CHROM.1>
82.05107852,162.92872984,39.51318994,4.73321651,1.03082355,-30.12757274,-2.85007259
-0.91856325,1.93486415

>  <Name>
ligand

>  <RI>
0

>  <Rbt.Current_Directory>
/home/itssahil/PROJECTS/Mol_Feturizer/New_Systems/rnas/4P95

>  <Rbt.Executable>
rbdock ($Id: //depot/dev/client3/rdock/2013.1/src/exe/rbdock.cxx#4 $)

>  <Rbt.Library>
libRbt.so (2013.1, Build901 2013/11/27)

>  <Rbt.Parameter_File>
/export/apps/rDock/src/rDock_2013.1_src/data/scripts/dock_solv.prm

>  <Rbt.Receptor>
prm/pocket_docking_8.prm

>  <SCORE>
-8.75713

>  <SCORE.INTER>
-7.532

>  <SCORE.INTER.CONST>
1

>  <SCORE.INTER.POLAR>
0

>  <SCORE.INTER.ROT>
3

>  <SCORE.INTER.SOLV>
6.66136

>  <SCORE.INTER.VDW>
-12.8418

>  <SCORE.INTER.norm>
-0.627666

>  <SCORE.INTRA>
-1.22513

>  <SCORE.INTRA.DIHEDRAL>
2.41265

>  <SCORE.INTRA.DIHEDRAL.0>
0.283163

>  <SCORE.INTRA.POLAR>
0

>  <SCORE.INTRA.POLAR.0>
0

>  <SCORE.INTRA.REPUL>
0

>  <SCORE.INTRA.REPUL.0>
0

>  <SCORE.INTRA.SOLV>
-0.731737

>  <SCORE.INTRA.SOLV.lig_0>
-32.2894

>  <SCORE.INTRA.VDW>
-2.06558

>  <SCORE.INTRA.VDW.0>
2.0241

>  <SCORE.INTRA.norm>
-0.102094

>  <SCORE.RESTR>
0

>  <SCORE.RESTR.CAVITY>
0

>  <SCORE.RESTR.norm>
0

>  <SCORE.SYSTEM>
0

>  <SCORE.SYSTEM.CONST>
0

>  <SCORE.SYSTEM.DIHEDRAL>
0

>  <SCORE.SYSTEM.SOLV>
0

>  <SCORE.SYSTEM.norm>
0

>  <SCORE.heavy>
12

>  <SCORE.norm>
-0.72976

>  <RMSD>
3.045

$$$$
ligand
 OpenBabel11021811513D
libRbt.so/2013.1/901 2013/11/27
 12 12  0  0  0  0  0  0  0  0999 V2000
    1.0628    2.8767  -27.8564 O   0  0  0  0  0  0  0  0  0  0  0  0
    3.8963   -0.9360  -29.1410 O   0  0  0  0  0  0  0  0  0  0  0  0
    2.3645    3.0379  -27.4334 C   0  0  0  0  0  0  0  0  0  0  0  0
    6.1165   -0.1706  -29.7978 O   0  0  0  0  0  0  0  0  0  0  0  0
    3.3463    3.0409  -28.5320 C   0  0  0  0  0  0  0  0  0  0  0  0
    4.9852   -1.8685  -31.1182 O   0  5  0  0  0  0  0  0  0  0  0  0
    3.1671    1.8901  -29.4272 N   0  3  0  0  0  0  0  0  0  0  0  0
    1.7955    1.8052  -29.8588 C   0  0  0  0  0  0  0  0  0  0  0  0
    0.8579    1.8183  -28.6963 C   0  0  0  0  0  0  0  0  0  0  0  0
    4.0559    2.0005  -30.5445 C   0  0  0  0  0  0  0  0  0  0  0  0
    4.0756    0.6617  -31.3248 C   0  0  0  0  0  0  0  0  0  0  0  0
    4.7890   -0.6433  -30.3028 S   0  0  1  0  0  0  0  0  0  0  0  0
  1  3  1  0  0  0  0
  1  9  1  0  0  0  0
  2 12  1  0  0  0  0
  3  5  1  0  0  0  0
  4 12  2  0  0  0  0
  5  7  1  0  0  0  0
  6 12  2  0  0  0  0
  7  8  1  0  0  0  0
  7 10  1  0  0  0  0
  8  9  1  0  0  0  0
 10 11  1  0  0  0  0
 12 11  1  6  0  0  0
M  CHG  2   6  -1   7   1
M  END
>  <CHROM.1>
168.46659275,-65.46301074,66.64837514,3.53322668,0.91496774,-29.57606810
2.25951648,0.22621618,0.36640602

>  <Name>
ligand

>  <RI>
0

>  <Rbt.Current_Directory>
/home/itssahil/PROJECTS/Mol_Feturizer/New_Systems/rnas/4P95

>  <Rbt.Executable>
rbdock ($Id: //depot/dev/client3/rdock/2013.1/src/exe/rbdock.cxx#4 $)

>  <Rbt.Library>
libRbt.so (2013.1, Build901 2013/11/27)

>  <Rbt.Parameter_File>
/export/apps/rDock/src/rDock_2013.1_src/data/scripts/dock_solv.prm

>  <Rbt.Receptor>
prm/pocket_docking_3.prm

>  <SCORE>
-10.4888

>  <SCORE.INTER>
-8.1274

>  <SCORE.INTER.CONST>
1

>  <SCORE.INTER.POLAR>
0

>  <SCORE.INTER.ROT>
3

>  <SCORE.INTER.SOLV>
6.08686

>  <SCORE.INTER.VDW>
-13.0472

>  <SCORE.INTER.norm>
-0.677283

>  <SCORE.INTRA>
-2.36136

>  <SCORE.INTRA.DIHEDRAL>
0.136836

>  <SCORE.INTRA.DIHEDRAL.0>
0.283163

>  <SCORE.INTRA.POLAR>
0

>  <SCORE.INTRA.POLAR.0>
0

>  <SCORE.INTRA.REPUL>
0

>  <SCORE.INTRA.REPUL.0>
0

>  <SCORE.INTRA.SOLV>
-0.456999

>  <SCORE.INTRA.SOLV.lig_0>
-32.2894

>  <SCORE.INTRA.VDW>
-2.20127

>  <SCORE.INTRA.VDW.0>
2.0241

>  <SCORE.INTRA.norm>
-0.19678

>  <SCORE.RESTR>
0

>  <SCORE.RESTR.CAVITY>
0

>  <SCORE.RESTR.norm>
0

>  <SCORE.SYSTEM>
0

>  <SCORE.SYSTEM.CONST>
0

>  <SCORE.SYSTEM.DIHEDRAL>
0

>  <SCORE.SYSTEM.SOLV>
0

>  <SCORE.SYSTEM.norm>
0

>  <SCORE.heavy>
12

>  <SCORE.norm>
-0.874063

>  <RMSD>
3.047

$$$$
ligand
 OpenBabel11021811513D
libRbt.so/2013.1/901 2013/11/27
 12 12  0  0  0  0  0  0  0  0999 V2000
    1.8134    4.5249  -29.6207 O   0  0  0  0  0  0  0  0  0  0  0  0
    4.2295   -2.1059  -28.9429 O   0  0  0  0  0  0  0  0  0  0  0  0
    2.4494    4.1843  -30.7948 C   0  0  0  0  0  0  0  0  0  0  0  0
    6.4593   -1.8573  -29.8982 O   0  0  0  0  0  0  0  0  0  0  0  0
    2.6757    2.7362  -30.9453 C   0  0  0  0  0  0  0  0  0  0  0  0
    4.5244   -1.9774  -31.3639 O   0  5  0  0  0  0  0  0  0  0  0  0
    3.3104    2.1564  -29.7541 N   0  3  0  0  0  0  0  0  0  0  0  0
    2.5738    2.5211  -28.5713 C   0  0  0  0  0  0  0  0  0  0  0  0
    2.3725    3.9988  -28.4901 C   0  0  0  0  0  0  0  0  0  0  0  0
    3.3963    0.7338  -29.8930 C   0  0  0  0  0  0  0  0  0  0  0  0
    4.8845    0.3111  -29.9837 C   0  0  0  0  0  0  0  0  0  0  0  0
    5.0170   -1.4872  -30.0517 S   0  0  1  0  0  0  0  0  0  0  0  0
  1  3  1  0  0  0  0
  1  9  1  0  0  0  0
  2 12  1  0  0  0  0
  3  5  1  0  0  0  0
  4 12  2  0  0  0  0
  5  7  1  0  0  0  0
  6 12  2  0  0  0  0
  7  8  1  0  0  0  0
  7 10  1  0  0  0  0
  8  9  1  0  0  0  0
 10 11  1  0  0  0  0
 12 11  1  1  0  0  0
M  CHG  2   6  -1   7   1
M  END
>  <CHROM.1>
114.07954609,176.35440565,-50.87169808,3.79483206,0.83951557,-29.88099117
-3.04727636,-1.09782493,1.74935136

>  <Name>
ligand

>  <RI>
0

>  <Rbt.Current_Directory>
/home/itssahil/PROJECTS/Mol_Feturizer/New_Systems/rnas/4P95

>  <Rbt.Executable>
rbdock ($Id: //depot/dev/client3/rdock/2013.1/src/exe/rbdock.cxx#4 $)

>  <Rbt.Library>
libRbt.so (2013.1, Build901 2013/11/27)

>  <Rbt.Parameter_File>
/export/apps/rDock/src/rDock_2013.1_src/data/scripts/dock_solv.prm

>  <Rbt.Receptor>
prm/pocket_docking_6.prm

>  <SCORE>
-9.83676

>  <SCORE.INTER>
-8.23575

>  <SCORE.INTER.CONST>
1

>  <SCORE.INTER.POLAR>
0

>  <SCORE.INTER.ROT>
3

>  <SCORE.INTER.SOLV>
6.79142

>  <SCORE.INTER.VDW>
-13.3543

>  <SCORE.INTER.norm>
-0.686313

>  <SCORE.INTRA>
-1.60101

>  <SCORE.INTRA.DIHEDRAL>
2.36059

>  <SCORE.INTRA.DIHEDRAL.0>
0.283163

>  <SCORE.INTRA.POLAR>
0

>  <SCORE.INTRA.POLAR.0>
0

>  <SCORE.INTRA.REPUL>
0

>  <SCORE.INTRA.REPUL.0>
0

>  <SCORE.INTRA.SOLV>
-0.163881

>  <SCORE.INTRA.SOLV.lig_0>
-32.2894

>  <SCORE.INTRA.VDW>
-2.69937

>  <SCORE.INTRA.VDW.0>
2.0241

>  <SCORE.INTRA.norm>
-0.133418

>  <SCORE.RESTR>
0

>  <SCORE.RESTR.CAVITY>
0

>  <SCORE.RESTR.norm>
0

>  <SCORE.SYSTEM>
0

>  <SCORE.SYSTEM.CONST>
0

>  <SCORE.SYSTEM.DIHEDRAL>
0

>  <SCORE.SYSTEM.SOLV>
0

>  <SCORE.SYSTEM.norm>
0

>  <SCORE.heavy>
12

>  <SCORE.norm>
-0.81973

>  <RMSD>
3.049

$$$$
ligand
 OpenBabel11021811513D
libRbt.so/2013.1/901 2013/11/27
 12 12  0  0  0  0  0  0  0  0999 V2000
    0.7742    2.7400  -27.8572 O   0  0  0  0  0  0  0  0  0  0  0  0
    4.0109   -0.4782  -29.4556 O   0  0  0  0  0  0  0  0  0  0  0  0
    2.0590    3.0676  -27.4813 C   0  0  0  0  0  0  0  0  0  0  0  0
    6.4065   -0.5409  -29.9067 O   0  0  0  0  0  0  0  0  0  0  0  0
    2.9827    3.2327  -28.6173 C   0  0  0  0  0  0  0  0  0  0  0  0
    4.8287   -0.5744  -31.7549 O   0  5  0  0  0  0  0  0  0  0  0  0
    2.9230    2.0907  -29.5394 N   0  3  0  0  0  0  0  0  0  0  0  0
    1.5584    1.8292  -29.9188 C   0  0  0  0  0  0  0  0  0  0  0  0
    0.6789    1.6847  -28.7203 C   0  0  0  0  0  0  0  0  0  0  0  0
    3.7393    2.3497  -30.6871 C   0  0  0  0  0  0  0  0  0  0  0  0
    5.1565    1.7665  -30.4569 C   0  0  0  0  0  0  0  0  0  0  0  0
    5.0849   -0.0355  -30.3952 S   0  0  1  0  0  0  0  0  0  0  0  0
  1  3  1  0  0  0  0
  1  9  1  0  0  0  0
  2 12  1  0  0  0  0
  3  5  1  0  0  0  0
  4 12  2  0  0  0  0
  5  7  1  0  0  0  0
  6 12  2  0  0  0  0
  7  8  1  0  0  0  0
  7 10  1  0  0  0  0
  8  9  1  0  0  0  0
 10 11  1  0  0  0  0
 12 11  1  6  0  0  0
M  CHG  2   6  -1   7   1
M  END
>  <CHROM.1>
93.15071684,66.99447850,-49.53228371,3.53795105,1.24539395,-29.65011614,2.43733665
0.25842372,0.36886801

>  <Name>
ligand

>  <RI>
0

>  <Rbt.Current_Directory>
/home/itssahil/PROJECTS/Mol_Feturizer/New_Systems/rnas/4P95

>  <Rbt.Executable>
rbdock ($Id: //depot/dev/client3/rdock/2013.1/src/exe/rbdock.cxx#4 $)

>  <Rbt.Library>
libRbt.so (2013.1, Build901 2013/11/27)

>  <Rbt.Parameter_File>
/export/apps/rDock/src/rDock_2013.1_src/data/scripts/dock_solv.prm

>  <Rbt.Receptor>
prm/pocket_docking_3.prm

>  <SCORE>
-11.3914

>  <SCORE.INTER>
-9.39963

>  <SCORE.INTER.CONST>
1

>  <SCORE.INTER.POLAR>
0

>  <SCORE.INTER.ROT>
3

>  <SCORE.INTER.SOLV>
4.54428

>  <SCORE.INTER.VDW>
-13.3812

>  <SCORE.INTER.norm>
-0.783303

>  <SCORE.INTRA>
-1.99386

>  <SCORE.INTRA.DIHEDRAL>
1.66455

>  <SCORE.INTRA.DIHEDRAL.0>
0.283163

>  <SCORE.INTRA.POLAR>
0

>  <SCORE.INTRA.POLAR.0>
0

>  <SCORE.INTRA.REPUL>
0

>  <SCORE.INTRA.REPUL.0>
0

>  <SCORE.INTRA.SOLV>
0.6382

>  <SCORE.INTRA.SOLV.lig_0>
-32.2894

>  <SCORE.INTRA.VDW>
-3.14523

>  <SCORE.INTRA.VDW.0>
2.0241

>  <SCORE.INTRA.norm>
-0.166155

>  <SCORE.RESTR>
0.00208725

>  <SCORE.RESTR.CAVITY>
0.00208725

>  <SCORE.RESTR.norm>
0.000173938

>  <SCORE.SYSTEM>
0

>  <SCORE.SYSTEM.CONST>
0

>  <SCORE.SYSTEM.DIHEDRAL>
0

>  <SCORE.SYSTEM.SOLV>
0

>  <SCORE.SYSTEM.norm>
0

>  <SCORE.heavy>
12

>  <SCORE.norm>
-0.949283

>  <RMSD>
3.052

$$$$
ligand
 OpenBabel11021811513D
libRbt.so/2013.1/901 2013/11/27
 12 12  0  0  0  0  0  0  0  0999 V2000
    1.7287    4.5024  -29.9030 O   0  0  0  0  0  0  0  0  0  0  0  0
    6.2071   -0.9548  -28.8022 O   0  0  0  0  0  0  0  0  0  0  0  0
    2.4540    4.2458  -31.0464 C   0  0  0  0  0  0  0  0  0  0  0  0
    7.5566   -0.6960  -30.8168 O   0  0  0  0  0  0  0  0  0  0  0  0
    2.9842    2.8727  -31.1137 C   0  0  0  0  0  0  0  0  0  0  0  0
    5.3234   -1.6420  -30.9728 O   0  5  0  0  0  0  0  0  0  0  0  0
    3.6941    2.5009  -29.8826 N   0  3  0  0  0  0  0  0  0  0  0  0
    2.8651    2.7601  -28.7335 C   0  0  0  0  0  0  0  0  0  0  0  0
    2.3551    4.1639  -28.7365 C   0  0  0  0  0  0  0  0  0  0  0  0
    4.0813    1.1236  -29.9420 C   0  0  0  0  0  0  0  0  0  0  0  0
    5.5092    1.0121  -30.5338 C   0  0  0  0  0  0  0  0  0  0  0  0
    6.1665   -0.6466  -30.2637 S   0  0  1  0  0  0  0  0  0  0  0  0
  1  3  1  0  0  0  0
  1  9  1  0  0  0  0
  2 12  1  0  0  0  0
  3  5  1  0  0  0  0
  4 12  2  0  0  0  0
  5  7  1  0  0  0  0
  6 12  2  0  0  0  0
  7  8  1  0  0  0  0
  7 10  1  0  0  0  0
  8  9  1  0  0  0  0
 10 11  1  0  0  0  0
 12 11  1  6  0  0  0
M  CHG  2   6  -1   7   1
M  END
>  <CHROM.1>
91.94066231,166.75899392,-59.06462250,4.46134865,1.34164469,-30.08346966
-3.09686555,-0.87625133,1.71413279

>  <Name>
ligand

>  <RI>
0

>  <Rbt.Current_Directory>
/home/itssahil/PROJECTS/Mol_Feturizer/New_Systems/rnas/4P95

>  <Rbt.Executable>
rbdock ($Id: //depot/dev/client3/rdock/2013.1/src/exe/rbdock.cxx#4 $)

>  <Rbt.Library>
libRbt.so (2013.1, Build901 2013/11/27)

>  <Rbt.Parameter_File>
/export/apps/rDock/src/rDock_2013.1_src/data/scripts/dock_solv.prm

>  <Rbt.Receptor>
prm/pocket_docking_6.prm

>  <SCORE>
-10.1787

>  <SCORE.INTER>
-8.54195

>  <SCORE.INTER.CONST>
1

>  <SCORE.INTER.POLAR>
0

>  <SCORE.INTER.ROT>
3

>  <SCORE.INTER.SOLV>
4.71235

>  <SCORE.INTER.VDW>
-12.8654

>  <SCORE.INTER.norm>
-0.711829

>  <SCORE.INTRA>
-1.63674

>  <SCORE.INTRA.DIHEDRAL>
1.75242

>  <SCORE.INTRA.DIHEDRAL.0>
0.283163

>  <SCORE.INTRA.POLAR>
0

>  <SCORE.INTRA.POLAR.0>
0

>  <SCORE.INTRA.REPUL>
0

>  <SCORE.INTRA.REPUL.0>
0

>  <SCORE.INTRA.SOLV>
-0.075322

>  <SCORE.INTRA.SOLV.lig_0>
-32.2894

>  <SCORE.INTRA.VDW>
-2.47529

>  <SCORE.INTRA.VDW.0>
2.0241

>  <SCORE.INTRA.norm>
-0.136395

>  <SCORE.RESTR>
0

>  <SCORE.RESTR.CAVITY>
0

>  <SCORE.RESTR.norm>
0

>  <SCORE.SYSTEM>
0

>  <SCORE.SYSTEM.CONST>
0

>  <SCORE.SYSTEM.DIHEDRAL>
0

>  <SCORE.SYSTEM.SOLV>
0

>  <SCORE.SYSTEM.norm>
0

>  <SCORE.heavy>
12

>  <SCORE.norm>
-0.848224

>  <RMSD>
3.057

$$$$
ligand
 OpenBabel11021811513D
libRbt.so/2013.1/901 2013/11/27
 12 12  0  0  0  0  0  0  0  0999 V2000
    1.7388    4.4875  -29.6607 O   0  0  0  0  0  0  0  0  0  0  0  0
    6.1643   -0.9447  -28.7870 O   0  0  0  0  0  0  0  0  0  0  0  0
    2.3611    4.2656  -30.8701 C   0  0  0  0  0  0  0  0  0  0  0  0
    7.5659   -0.6916  -30.7664 O   0  0  0  0  0  0  0  0  0  0  0  0
    2.8694    2.8919  -31.0294 C   0  0  0  0  0  0  0  0  0  0  0  0
    5.3482   -1.6636  -30.9737 O   0  5  0  0  0  0  0  0  0  0  0  0
    3.6779    2.4721  -29.8770 N   0  3  0  0  0  0  0  0  0  0  0  0
    2.9529    2.6972  -28.6530 C   0  0  0  0  0  0  0  0  0  0  0  0
    2.4590    4.1039  -28.5644 C   0  0  0  0  0  0  0  0  0  0  0  0
    4.0444    1.0949  -30.0164 C   0  0  0  0  0  0  0  0  0  0  0  0
    5.4933    0.9967  -30.5574 C   0  0  0  0  0  0  0  0  0  0  0  0
    6.1606   -0.6518  -30.2521 S   0  0  1  0  0  0  0  0  0  0  0  0
  1  3  1  0  0  0  0
  1  9  1  0  0  0  0
  2 12  1  0  0  0  0
  3  5  1  0  0  0  0
  4 12  2  0  0  0  0
  5  7  1  0  0  0  0
  6 12  2  0  0  0  0
  7  8  1  0  0  0  0
  7 10  1  0  0  0  0
  8  9  1  0  0  0  0
 10 11  1  0  0  0  0
 12 11  1  6  0  0  0
M  CHG  2   6  -1   7   1
M  END
>  <CHROM.1>
99.43859658,162.04381200,-59.51679438,4.45437149,1.32765648,-30.02586690
-3.09440214,0.87685102,-1.51882742

>  <Name>
ligand

>  <RI>
0

>  <Rbt.Current_Directory>
/home/itssahil/PROJECTS/Mol_Feturizer/New_Systems/rnas/4P95

>  <Rbt.Executable>
rbdock ($Id: //depot/dev/client3/rdock/2013.1/src/exe/rbdock.cxx#4 $)

>  <Rbt.Library>
libRbt.so (2013.1, Build901 2013/11/27)

>  <Rbt.Parameter_File>
/export/apps/rDock/src/rDock_2013.1_src/data/scripts/dock_solv.prm

>  <Rbt.Receptor>
prm/pocket_docking_8.prm

>  <SCORE>
-9.97691

>  <SCORE.INTER>
-8.68835

>  <SCORE.INTER.CONST>
1

>  <SCORE.INTER.POLAR>
0

>  <SCORE.INTER.ROT>
3

>  <SCORE.INTER.SOLV>
4.83552

>  <SCORE.INTER.VDW>
-13.0041

>  <SCORE.INTER.norm>
-0.72403

>  <SCORE.INTRA>
-1.28856

>  <SCORE.INTRA.DIHEDRAL>
2.68266

>  <SCORE.INTRA.DIHEDRAL.0>
0.283163

>  <SCORE.INTRA.POLAR>
0

>  <SCORE.INTRA.POLAR.0>
0

>  <SCORE.INTRA.REPUL>
0

>  <SCORE.INTRA.REPUL.0>
0

>  <SCORE.INTRA.SOLV>
-0.0708412

>  <SCORE.INTRA.SOLV.lig_0>
-32.2894

>  <SCORE.INTRA.VDW>
-2.59447

>  <SCORE.INTRA.VDW.0>
2.0241

>  <SCORE.INTRA.norm>
-0.10738

>  <SCORE.RESTR>
0

>  <SCORE.RESTR.CAVITY>
0

>  <SCORE.RESTR.norm>
0

>  <SCORE.SYSTEM>
0

>  <SCORE.SYSTEM.CONST>
0

>  <SCORE.SYSTEM.DIHEDRAL>
0

>  <SCORE.SYSTEM.SOLV>
0

>  <SCORE.SYSTEM.norm>
0

>  <SCORE.heavy>
12

>  <SCORE.norm>
-0.831409

>  <RMSD>
3.058

$$$$
ligand
 OpenBabel11021811513D
libRbt.so/2013.1/901 2013/11/27
 12 12  0  0  0  0  0  0  0  0999 V2000
    0.9575    2.8052  -27.8451 O   0  0  0  0  0  0  0  0  0  0  0  0
    3.3445   -0.7145  -31.5855 O   0  0  0  0  0  0  0  0  0  0  0  0
    2.2403    3.1078  -27.4426 C   0  0  0  0  0  0  0  0  0  0  0  0
    3.7377   -0.9298  -29.1885 O   0  0  0  0  0  0  0  0  0  0  0  0
    3.2126    3.1468  -28.5490 C   0  0  0  0  0  0  0  0  0  0  0  0
    5.4388   -1.6632  -30.7616 O   0  5  0  0  0  0  0  0  0  0  0  0
    3.1375    1.9407  -29.3842 N   0  3  0  0  0  0  0  0  0  0  0  0
    1.7779    1.7070  -29.7984 C   0  0  0  0  0  0  0  0  0  0  0  0
    0.8484    1.6914  -28.6295 C   0  0  0  0  0  0  0  0  0  0  0  0
    4.0071    2.0769  -30.5137 C   0  0  0  0  0  0  0  0  0  0  0  0
    5.1152    0.9954  -30.4475 C   0  0  0  0  0  0  0  0  0  0  0  0
    4.3811   -0.6517  -30.5112 S   0  0  1  0  0  0  0  0  0  0  0  0
  1  3  1  0  0  0  0
  1  9  1  0  0  0  0
  2 12  1  0  0  0  0
  3  5  1  0  0  0  0
  4 12  2  0  0  0  0
  5  7  1  0  0  0  0
  6 12  2  0  0  0  0
  7  8  1  0  0  0  0
  7 10  1  0  0  0  0
  8  9  1  0  0  0  0
 10 11  1  0  0  0  0
 12 11  1  1  0  0  0
M  CHG  2   6  -1   7   1
M  END
>  <CHROM.1>
116.72559208,61.57290939,45.57008927,3.30201329,0.91000694,-29.65535483,2.19583053
0.35272043,0.35714513

>  <Name>
ligand

>  <RI>
0

>  <Rbt.Current_Directory>
/home/itssahil/PROJECTS/Mol_Feturizer/New_Systems/rnas/4P95

>  <Rbt.Executable>
rbdock ($Id: //depot/dev/client3/rdock/2013.1/src/exe/rbdock.cxx#4 $)

>  <Rbt.Library>
libRbt.so (2013.1, Build901 2013/11/27)

>  <Rbt.Parameter_File>
/export/apps/rDock/src/rDock_2013.1_src/data/scripts/dock_solv.prm

>  <Rbt.Receptor>
prm/pocket_docking_3.prm

>  <SCORE>
-10.4883

>  <SCORE.INTER>
-8.16678

>  <SCORE.INTER.CONST>
1

>  <SCORE.INTER.POLAR>
0

>  <SCORE.INTER.ROT>
3

>  <SCORE.INTER.SOLV>
6.64594

>  <SCORE.INTER.VDW>
-13.2598

>  <SCORE.INTER.norm>
-0.680565

>  <SCORE.INTRA>
-2.3215

>  <SCORE.INTRA.DIHEDRAL>
2.56341

>  <SCORE.INTRA.DIHEDRAL.0>
0.283163

>  <SCORE.INTRA.POLAR>
0

>  <SCORE.INTRA.POLAR.0>
0

>  <SCORE.INTRA.REPUL>
0

>  <SCORE.INTRA.REPUL.0>
0

>  <SCORE.INTRA.SOLV>
-0.016606

>  <SCORE.INTRA.SOLV.lig_0>
-32.2894

>  <SCORE.INTRA.VDW>
-3.5949

>  <SCORE.INTRA.VDW.0>
2.0241

>  <SCORE.INTRA.norm>
-0.193458

>  <SCORE.RESTR>
0

>  <SCORE.RESTR.CAVITY>
0

>  <SCORE.RESTR.norm>
0

>  <SCORE.SYSTEM>
0

>  <SCORE.SYSTEM.CONST>
0

>  <SCORE.SYSTEM.DIHEDRAL>
0

>  <SCORE.SYSTEM.SOLV>
0

>  <SCORE.SYSTEM.norm>
0

>  <SCORE.heavy>
12

>  <SCORE.norm>
-0.874024

>  <RMSD>
3.062

$$$$
ligand
 OpenBabel11021811513D
libRbt.so/2013.1/901 2013/11/27
 12 12  0  0  0  0  0  0  0  0999 V2000
    1.7419    4.4641  -29.7145 O   0  0  0  0  0  0  0  0  0  0  0  0
    6.1770   -0.9582  -28.7707 O   0  0  0  0  0  0  0  0  0  0  0  0
    2.3343    4.2041  -30.9314 C   0  0  0  0  0  0  0  0  0  0  0  0
    7.5700   -0.7325  -30.7594 O   0  0  0  0  0  0  0  0  0  0  0  0
    2.8461    2.8281  -31.0570 C   0  0  0  0  0  0  0  0  0  0  0  0
    5.3487   -1.7010  -30.9448 O   0  5  0  0  0  0  0  0  0  0  0  0
    3.6863    2.4518  -29.9123 N   0  3  0  0  0  0  0  0  0  0  0  0
    2.9916    2.7150  -28.6783 C   0  0  0  0  0  0  0  0  0  0  0  0
    2.4921    4.1216  -28.6248 C   0  0  0  0  0  0  0  0  0  0  0  0
    4.0570    1.0725  -30.0141 C   0  0  0  0  0  0  0  0  0  0  0  0
    5.5029    0.9638  -30.5611 C   0  0  0  0  0  0  0  0  0  0  0  0
    6.1673   -0.6828  -30.2392 S   0  0  1  0  0  0  0  0  0  0  0  0
  1  3  1  0  0  0  0
  1  9  1  0  0  0  0
  2 12  1  0  0  0  0
  3  5  1  0  0  0  0
  4 12  2  0  0  0  0
  5  7  1  0  0  0  0
  6 12  2  0  0  0  0
  7  8  1  0  0  0  0
  7 10  1  0  0  0  0
  8  9  1  0  0  0  0
 10 11  1  0  0  0  0
 12 11  1  6  0  0  0
M  CHG  2   6  -1   7   1
M  END
>  <CHROM.1>
100.60545341,163.07205661,-59.49892426,4.46092854,1.30108491,-30.03912069
-3.05448566,0.87459285,-1.58469800

>  <Name>
ligand

>  <RI>
0

>  <Rbt.Current_Directory>
/home/itssahil/PROJECTS/Mol_Feturizer/New_Systems/rnas/4P95

>  <Rbt.Executable>
rbdock ($Id: //depot/dev/client3/rdock/2013.1/src/exe/rbdock.cxx#4 $)

>  <Rbt.Library>
libRbt.so (2013.1, Build901 2013/11/27)

>  <Rbt.Parameter_File>
/export/apps/rDock/src/rDock_2013.1_src/data/scripts/dock_solv.prm

>  <Rbt.Receptor>
prm/pocket_docking_5.prm

>  <SCORE>
-9.94956

>  <SCORE.INTER>
-8.61829

>  <SCORE.INTER.CONST>
1

>  <SCORE.INTER.POLAR>
0

>  <SCORE.INTER.ROT>
3

>  <SCORE.INTER.SOLV>
4.75022

>  <SCORE.INTER.VDW>
-12.9289

>  <SCORE.INTER.norm>
-0.718191

>  <SCORE.INTRA>
-1.33126

>  <SCORE.INTRA.DIHEDRAL>
2.62624

>  <SCORE.INTRA.DIHEDRAL.0>
0.283163

>  <SCORE.INTRA.POLAR>
0

>  <SCORE.INTRA.POLAR.0>
0

>  <SCORE.INTRA.REPUL>
0

>  <SCORE.INTRA.REPUL.0>
0

>  <SCORE.INTRA.SOLV>
-0.0716218

>  <SCORE.INTRA.SOLV.lig_0>
-32.2894

>  <SCORE.INTRA.VDW>
-2.60857

>  <SCORE.INTRA.VDW.0>
2.0241

>  <SCORE.INTRA.norm>
-0.110939

>  <SCORE.RESTR>
0

>  <SCORE.RESTR.CAVITY>
0

>  <SCORE.RESTR.norm>
0

>  <SCORE.SYSTEM>
0

>  <SCORE.SYSTEM.CONST>
0

>  <SCORE.SYSTEM.DIHEDRAL>
0

>  <SCORE.SYSTEM.SOLV>
0

>  <SCORE.SYSTEM.norm>
0

>  <SCORE.heavy>
12

>  <SCORE.norm>
-0.82913

>  <RMSD>
3.062

$$$$
ligand
 OpenBabel11021811513D
libRbt.so/2013.1/901 2013/11/27
 12 12  0  0  0  0  0  0  0  0999 V2000
    1.9293    4.8445  -29.4324 O   0  0  0  0  0  0  0  0  0  0  0  0
    6.3126   -0.8477  -29.0852 O   0  0  0  0  0  0  0  0  0  0  0  0
    1.9979    3.8901  -28.4406 C   0  0  0  0  0  0  0  0  0  0  0  0
    6.7355   -0.0169  -31.3385 O   0  0  0  0  0  0  0  0  0  0  0  0
    3.1756    3.0111  -28.5473 C   0  0  0  0  0  0  0  0  0  0  0  0
    5.4654   -2.0651  -31.0255 O   0  5  0  0  0  0  0  0  0  0  0  0
    3.3192    2.4528  -29.8985 N   0  3  0  0  0  0  0  0  0  0  0  0
    3.2762    3.5072  -30.8789 C   0  0  0  0  0  0  0  0  0  0  0  0
    2.0647    4.3631  -30.7042 C   0  0  0  0  0  0  0  0  0  0  0  0
    4.5397    1.7097  -29.9901 C   0  0  0  0  0  0  0  0  0  0  0  0
    4.2291    0.2552  -30.4255 C   0  0  0  0  0  0  0  0  0  0  0  0
    5.7467   -0.7204  -30.4621 S   0  0  1  0  0  0  0  0  0  0  0  0
  1  3  1  0  0  0  0
  1  9  1  0  0  0  0
  2 12  1  0  0  0  0
  3  5  1  0  0  0  0
  4 12  2  0  0  0  0
  5  7  1  0  0  0  0
  6 12  2  0  0  0  0
  7  8  1  0  0  0  0
  7 10  1  0  0  0  0
  8  9  1  0  0  0  0
 10 11  1  0  0  0  0
 12 11  1  1  0  0  0
M  CHG  2   6  -1   7   1
M  END
>  <CHROM.1>
122.94239965,-177.02343955,64.86535482,4.26457909,1.42438631,-30.06838294
-3.09462529,-0.95652352,1.81160375

>  <Name>
ligand

>  <RI>
0

>  <Rbt.Current_Directory>
/home/itssahil/PROJECTS/Mol_Feturizer/New_Systems/rnas/4P95

>  <Rbt.Executable>
rbdock ($Id: //depot/dev/client3/rdock/2013.1/src/exe/rbdock.cxx#4 $)

>  <Rbt.Library>
libRbt.so (2013.1, Build901 2013/11/27)

>  <Rbt.Parameter_File>
/export/apps/rDock/src/rDock_2013.1_src/data/scripts/dock_solv.prm

>  <Rbt.Receptor>
prm/pocket_docking_5.prm

>  <SCORE>
-10.4427

>  <SCORE.INTER>
-8.50027

>  <SCORE.INTER.CONST>
1

>  <SCORE.INTER.POLAR>
0

>  <SCORE.INTER.ROT>
3

>  <SCORE.INTER.SOLV>
5.46412

>  <SCORE.INTER.VDW>
-13.0882

>  <SCORE.INTER.norm>
-0.708356

>  <SCORE.INTRA>
-1.94247

>  <SCORE.INTRA.DIHEDRAL>
2.1977

>  <SCORE.INTRA.DIHEDRAL.0>
0.283163

>  <SCORE.INTRA.POLAR>
0

>  <SCORE.INTRA.POLAR.0>
0

>  <SCORE.INTRA.REPUL>
0

>  <SCORE.INTRA.REPUL.0>
0

>  <SCORE.INTRA.SOLV>
-0.702858

>  <SCORE.INTRA.SOLV.lig_0>
-32.2894

>  <SCORE.INTRA.VDW>
-2.68989

>  <SCORE.INTRA.VDW.0>
2.0241

>  <SCORE.INTRA.norm>
-0.161872

>  <SCORE.RESTR>
0

>  <SCORE.RESTR.CAVITY>
0

>  <SCORE.RESTR.norm>
0

>  <SCORE.SYSTEM>
0

>  <SCORE.SYSTEM.CONST>
0

>  <SCORE.SYSTEM.DIHEDRAL>
0

>  <SCORE.SYSTEM.SOLV>
0

>  <SCORE.SYSTEM.norm>
0

>  <SCORE.heavy>
12

>  <SCORE.norm>
-0.870228

>  <RMSD>
3.065

$$$$
ligand
 OpenBabel11021811513D
libRbt.so/2013.1/901 2013/11/27
 12 12  0  0  0  0  0  0  0  0999 V2000
    0.8985    2.8113  -27.8576 O   0  0  0  0  0  0  0  0  0  0  0  0
    3.3966   -0.6750  -31.6558 O   0  0  0  0  0  0  0  0  0  0  0  0
    2.1723    3.1368  -27.4444 C   0  0  0  0  0  0  0  0  0  0  0  0
    3.6681   -0.9144  -29.2442 O   0  0  0  0  0  0  0  0  0  0  0  0
    3.1556    3.1812  -28.5408 C   0  0  0  0  0  0  0  0  0  0  0  0
    5.4505   -1.6239  -30.7361 O   0  5  0  0  0  0  0  0  0  0  0  0
    3.1076    1.9669  -29.3662 N   0  3  0  0  0  0  0  0  0  0  0  0
    1.7562    1.7090  -29.7926 C   0  0  0  0  0  0  0  0  0  0  0  0
    0.8147    1.6893  -28.6333 C   0  0  0  0  0  0  0  0  0  0  0  0
    3.9869    2.1066  -30.4877 C   0  0  0  0  0  0  0  0  0  0  0  0
    5.0990    1.0300  -30.4111 C   0  0  0  0  0  0  0  0  0  0  0  0
    4.3767   -0.6195  -30.5294 S   0  0  1  0  0  0  0  0  0  0  0  0
  1  3  1  0  0  0  0
  1  9  1  0  0  0  0
  2 12  1  0  0  0  0
  3  5  1  0  0  0  0
  4 12  2  0  0  0  0
  5  7  1  0  0  0  0
  6 12  2  0  0  0  0
  7  8  1  0  0  0  0
  7 10  1  0  0  0  0
  8  9  1  0  0  0  0
 10 11  1  0  0  0  0
 12 11  1  1  0  0  0
M  CHG  2   6  -1   7   1
M  END
>  <CHROM.1>
117.51816811,63.21131695,46.94432562,3.27813982,0.93470904,-29.66126601,2.20282484
0.34713222,0.36319028

>  <Name>
ligand

>  <RI>
0

>  <Rbt.Current_Directory>
/home/itssahil/PROJECTS/Mol_Feturizer/New_Systems/rnas/4P95

>  <Rbt.Executable>
rbdock ($Id: //depot/dev/client3/rdock/2013.1/src/exe/rbdock.cxx#4 $)

>  <Rbt.Library>
libRbt.so (2013.1, Build901 2013/11/27)

>  <Rbt.Parameter_File>
/export/apps/rDock/src/rDock_2013.1_src/data/scripts/dock_solv.prm

>  <Rbt.Receptor>
prm/pocket_docking_3.prm

>  <SCORE>
-10.4991

>  <SCORE.INTER>
-8.16227

>  <SCORE.INTER.CONST>
1

>  <SCORE.INTER.POLAR>
0

>  <SCORE.INTER.ROT>
3

>  <SCORE.INTER.SOLV>
6.58346

>  <SCORE.INTER.VDW>
-13.236

>  <SCORE.INTER.norm>
-0.680189

>  <SCORE.INTRA>
-2.33685

>  <SCORE.INTRA.DIHEDRAL>
2.51582

>  <SCORE.INTRA.DIHEDRAL.0>
0.283163

>  <SCORE.INTRA.POLAR>
0

>  <SCORE.INTRA.POLAR.0>
0

>  <SCORE.INTRA.REPUL>
0

>  <SCORE.INTRA.REPUL.0>
0

>  <SCORE.INTRA.SOLV>
-0.0125809

>  <SCORE.INTRA.SOLV.lig_0>
-32.2894

>  <SCORE.INTRA.VDW>
-3.58847

>  <SCORE.INTRA.VDW.0>
2.0241

>  <SCORE.INTRA.norm>
-0.194737

>  <SCORE.RESTR>
0

>  <SCORE.RESTR.CAVITY>
0

>  <SCORE.RESTR.norm>
0

>  <SCORE.SYSTEM>
0

>  <SCORE.SYSTEM.CONST>
0

>  <SCORE.SYSTEM.DIHEDRAL>
0

>  <SCORE.SYSTEM.SOLV>
0

>  <SCORE.SYSTEM.norm>
0

>  <SCORE.heavy>
12

>  <SCORE.norm>
-0.874926

>  <RMSD>
3.071

$$$$
ligand
 OpenBabel11021811513D
libRbt.so/2013.1/901 2013/11/27
 12 12  0  0  0  0  0  0  0  0999 V2000
    1.6155    3.9130  -29.6911 O   0  0  0  0  0  0  0  0  0  0  0  0
    5.3118   -3.0002  -28.9944 O   0  0  0  0  0  0  0  0  0  0  0  0
    2.6370    3.7991  -28.7731 C   0  0  0  0  0  0  0  0  0  0  0  0
    6.5411   -0.8942  -28.9910 O   0  0  0  0  0  0  0  0  0  0  0  0
    3.6898    2.8503  -29.1759 C   0  0  0  0  0  0  0  0  0  0  0  0
    5.8631   -1.8930  -31.1003 O   0  5  0  0  0  0  0  0  0  0  0  0
    3.1301    1.5544  -29.5824 N   0  3  0  0  0  0  0  0  0  0  0  0
    2.0972    1.7464  -30.5678 C   0  0  0  0  0  0  0  0  0  0  0  0
    1.0728    2.7265  -30.0979 C   0  0  0  0  0  0  0  0  0  0  0  0
    4.1727    0.7100  -30.0827 C   0  0  0  0  0  0  0  0  0  0  0  0
    3.9352   -0.7449  -29.6046 C   0  0  0  0  0  0  0  0  0  0  0  0
    5.4741   -1.6841  -29.6827 S   0  0  1  0  0  0  0  0  0  0  0  0
  1  3  1  0  0  0  0
  1  9  1  0  0  0  0
  2 12  1  0  0  0  0
  3  5  1  0  0  0  0
  4 12  2  0  0  0  0
  5  7  1  0  0  0  0
  6 12  2  0  0  0  0
  7  8  1  0  0  0  0
  7 10  1  0  0  0  0
  8  9  1  0  0  0  0
 10 11  1  0  0  0  0
 12 11  1  1  0  0  0
M  CHG  2   6  -1   7   1
M  END
>  <CHROM.1>
140.87565787,-159.33378572,169.67865199,3.99317194,0.48042338,-29.69411851
-2.27686414,0.47968351,-2.75561768

>  <Name>
ligand

>  <RI>
0

>  <Rbt.Current_Directory>
/home/itssahil/PROJECTS/Mol_Feturizer/New_Systems/rnas/4P95

>  <Rbt.Executable>
rbdock ($Id: //depot/dev/client3/rdock/2013.1/src/exe/rbdock.cxx#4 $)

>  <Rbt.Library>
libRbt.so (2013.1, Build901 2013/11/27)

>  <Rbt.Parameter_File>
/export/apps/rDock/src/rDock_2013.1_src/data/scripts/dock_solv.prm

>  <Rbt.Receptor>
prm/pocket_docking_7.prm

>  <SCORE>
-10.9155

>  <SCORE.INTER>
-10.0158

>  <SCORE.INTER.CONST>
1

>  <SCORE.INTER.POLAR>
0

>  <SCORE.INTER.ROT>
3

>  <SCORE.INTER.SOLV>
6.71145

>  <SCORE.INTER.VDW>
-14.5143

>  <SCORE.INTER.norm>
-0.834646

>  <SCORE.INTRA>
-0.899764

>  <SCORE.INTRA.DIHEDRAL>
3.09367

>  <SCORE.INTRA.DIHEDRAL.0>
0.283163

>  <SCORE.INTRA.POLAR>
0

>  <SCORE.INTRA.POLAR.0>
0

>  <SCORE.INTRA.REPUL>
0

>  <SCORE.INTRA.REPUL.0>
0

>  <SCORE.INTRA.SOLV>
0.0963512

>  <SCORE.INTRA.SOLV.lig_0>
-32.2894

>  <SCORE.INTRA.VDW>
-2.49477

>  <SCORE.INTRA.VDW.0>
2.0241

>  <SCORE.INTRA.norm>
-0.0749803

>  <SCORE.RESTR>
0

>  <SCORE.RESTR.CAVITY>
0

>  <SCORE.RESTR.norm>
0

>  <SCORE.SYSTEM>
0

>  <SCORE.SYSTEM.CONST>
0

>  <SCORE.SYSTEM.DIHEDRAL>
0

>  <SCORE.SYSTEM.SOLV>
0

>  <SCORE.SYSTEM.norm>
0

>  <SCORE.heavy>
12

>  <SCORE.norm>
-0.909626

>  <RMSD>
3.078

$$$$
ligand
 OpenBabel11021811513D
libRbt.so/2013.1/901 2013/11/27
 12 12  0  0  0  0  0  0  0  0999 V2000
    1.9935    4.8498  -29.5113 O   0  0  0  0  0  0  0  0  0  0  0  0
    6.3911   -0.8867  -29.0444 O   0  0  0  0  0  0  0  0  0  0  0  0
    2.0561    3.9154  -28.5002 C   0  0  0  0  0  0  0  0  0  0  0  0
    6.7744   -0.0187  -31.2907 O   0  0  0  0  0  0  0  0  0  0  0  0
    3.2320    3.0316  -28.5849 C   0  0  0  0  0  0  0  0  0  0  0  0
    5.5243   -2.0811  -30.9903 O   0  5  0  0  0  0  0  0  0  0  0  0
    3.3791    2.4459  -29.9240 N   0  3  0  0  0  0  0  0  0  0  0  0
    3.3423    3.4804  -30.9256 C   0  0  0  0  0  0  0  0  0  0  0  0
    2.1323    4.3425  -30.7726 C   0  0  0  0  0  0  0  0  0  0  0  0
    4.5981    1.6981  -29.9961 C   0  0  0  0  0  0  0  0  0  0  0  0
    4.2798    0.2203  -30.3370 C   0  0  0  0  0  0  0  0  0  0  0  0
    5.8039   -0.7430  -30.4107 S   0  0  1  0  0  0  0  0  0  0  0  0
  1  3  1  0  0  0  0
  1  9  1  0  0  0  0
  2 12  1  0  0  0  0
  3  5  1  0  0  0  0
  4 12  2  0  0  0  0
  5  7  1  0  0  0  0
  6 12  2  0  0  0  0
  7  8  1  0  0  0  0
  7 10  1  0  0  0  0
  8  9  1  0  0  0  0
 10 11  1  0  0  0  0
 12 11  1  1  0  0  0
M  CHG  2   6  -1   7   1
M  END
>  <CHROM.1>
120.26369732,-179.25727488,69.43504744,4.32394682,1.41244708,-30.06742248
-3.08396544,-0.95728014,1.80094939

>  <Name>
ligand

>  <RI>
0

>  <Rbt.Current_Directory>
/home/itssahil/PROJECTS/Mol_Feturizer/New_Systems/rnas/4P95

>  <Rbt.Executable>
rbdock ($Id: //depot/dev/client3/rdock/2013.1/src/exe/rbdock.cxx#4 $)

>  <Rbt.Library>
libRbt.so (2013.1, Build901 2013/11/27)

>  <Rbt.Parameter_File>
/export/apps/rDock/src/rDock_2013.1_src/data/scripts/dock_solv.prm

>  <Rbt.Receptor>
prm/pocket_docking_7.prm

>  <SCORE>
-10.4524

>  <SCORE.INTER>
-8.61717

>  <SCORE.INTER.CONST>
1

>  <SCORE.INTER.POLAR>
0

>  <SCORE.INTER.ROT>
3

>  <SCORE.INTER.SOLV>
5.57524

>  <SCORE.INTER.VDW>
-13.2032

>  <SCORE.INTER.norm>
-0.718098

>  <SCORE.INTRA>
-1.83524

>  <SCORE.INTRA.DIHEDRAL>
2.3615

>  <SCORE.INTRA.DIHEDRAL.0>
0.283163

>  <SCORE.INTRA.POLAR>
0

>  <SCORE.INTRA.POLAR.0>
0

>  <SCORE.INTRA.REPUL>
0

>  <SCORE.INTRA.REPUL.0>
0

>  <SCORE.INTRA.SOLV>
-0.686798

>  <SCORE.INTRA.SOLV.lig_0>
-32.2894

>  <SCORE.INTRA.VDW>
-2.67259

>  <SCORE.INTRA.VDW.0>
2.0241

>  <SCORE.INTRA.norm>
-0.152937

>  <SCORE.RESTR>
0

>  <SCORE.RESTR.CAVITY>
0

>  <SCORE.RESTR.norm>
0

>  <SCORE.SYSTEM>
0

>  <SCORE.SYSTEM.CONST>
0

>  <SCORE.SYSTEM.DIHEDRAL>
0

>  <SCORE.SYSTEM.SOLV>
0

>  <SCORE.SYSTEM.norm>
0

>  <SCORE.heavy>
12

>  <SCORE.norm>
-0.871034

>  <RMSD>
3.080

$$$$
ligand
 OpenBabel11021811513D
libRbt.so/2013.1/901 2013/11/27
 12 12  0  0  0  0  0  0  0  0999 V2000
    2.6861    3.7146  -30.2702 O   0  0  0  0  0  0  0  0  0  0  0  0
    6.0774   -2.5477  -29.4491 O   0  0  0  0  0  0  0  0  0  0  0  0
    2.0169    2.5408  -30.5412 C   0  0  0  0  0  0  0  0  0  0  0  0
    7.6319   -0.8763  -28.5908 O   0  0  0  0  0  0  0  0  0  0  0  0
    2.7113    1.3380  -30.0493 C   0  0  0  0  0  0  0  0  0  0  0  0
    8.0666   -1.9433  -30.7306 O   0  5  0  0  0  0  0  0  0  0  0  0
    4.1192    1.3112  -30.4677 N   0  3  0  0  0  0  0  0  0  0  0  0
    4.7644    2.5513  -30.1205 C   0  0  0  0  0  0  0  0  0  0  0  0
    4.0016    3.7254  -30.6405 C   0  0  0  0  0  0  0  0  0  0  0  0
    4.7840    0.1950  -29.8656 C   0  0  0  0  0  0  0  0  0  0  0  0
    6.0870   -0.1140  -30.6455 C   0  0  0  0  0  0  0  0  0  0  0  0
    7.0022   -1.4369  -29.8277 S   0  0  1  0  0  0  0  0  0  0  0  0
  1  3  1  0  0  0  0
  1  9  1  0  0  0  0
  2 12  1  0  0  0  0
  3  5  1  0  0  0  0
  4 12  2  0  0  0  0
  5  7  1  0  0  0  0
  6 12  2  0  0  0  0
  7  8  1  0  0  0  0
  7 10  1  0  0  0  0
  8  9  1  0  0  0  0
 10 11  1  0  0  0  0
 12 11  1  6  0  0  0
M  CHG  2   6  -1   7   1
M  END
>  <CHROM.1>
161.22669667,175.71543657,45.35850396,5.22758483,0.46050078,-30.06077748
-2.30452207,0.00723754,3.01856285

>  <Name>
ligand

>  <RI>
0

>  <Rbt.Current_Directory>
/home/itssahil/PROJECTS/Mol_Feturizer/New_Systems/rnas/4P95

>  <Rbt.Executable>
rbdock ($Id: //depot/dev/client3/rdock/2013.1/src/exe/rbdock.cxx#4 $)

>  <Rbt.Library>
libRbt.so (2013.1, Build901 2013/11/27)

>  <Rbt.Parameter_File>
/export/apps/rDock/src/rDock_2013.1_src/data/scripts/dock_solv.prm

>  <Rbt.Receptor>
prm/pocket_docking_6.prm

>  <SCORE>
-10.6258

>  <SCORE.INTER>
-8.751

>  <SCORE.INTER.CONST>
1

>  <SCORE.INTER.POLAR>
0

>  <SCORE.INTER.ROT>
3

>  <SCORE.INTER.SOLV>
6.46669

>  <SCORE.INTER.VDW>
-13.5896

>  <SCORE.INTER.norm>
-0.72925

>  <SCORE.INTRA>
-1.87478

>  <SCORE.INTRA.DIHEDRAL>
0.724638

>  <SCORE.INTRA.DIHEDRAL.0>
0.283163

>  <SCORE.INTRA.POLAR>
0

>  <SCORE.INTRA.POLAR.0>
0

>  <SCORE.INTRA.REPUL>
0

>  <SCORE.INTRA.REPUL.0>
0

>  <SCORE.INTRA.SOLV>
-0.730494

>  <SCORE.INTRA.SOLV.lig_0>
-32.2894

>  <SCORE.INTRA.VDW>
-1.87186

>  <SCORE.INTRA.VDW.0>
2.0241

>  <SCORE.INTRA.norm>
-0.156232

>  <SCORE.RESTR>
0

>  <SCORE.RESTR.CAVITY>
0

>  <SCORE.RESTR.norm>
0

>  <SCORE.SYSTEM>
0

>  <SCORE.SYSTEM.CONST>
0

>  <SCORE.SYSTEM.DIHEDRAL>
0

>  <SCORE.SYSTEM.SOLV>
0

>  <SCORE.SYSTEM.norm>
0

>  <SCORE.heavy>
12

>  <SCORE.norm>
-0.885482

>  <RMSD>
3.089

$$$$
ligand
 OpenBabel11021811513D
libRbt.so/2013.1/901 2013/11/27
 12 12  0  0  0  0  0  0  0  0999 V2000
    3.2428    3.5902  -29.8215 O   0  0  0  0  0  0  0  0  0  0  0  0
    7.3597   -1.0016  -28.2855 O   0  0  0  0  0  0  0  0  0  0  0  0
    4.5158    3.2671  -30.2391 C   0  0  0  0  0  0  0  0  0  0  0  0
    6.8991    0.1221  -30.4002 O   0  0  0  0  0  0  0  0  0  0  0  0
    4.6452    1.8807  -30.7208 C   0  0  0  0  0  0  0  0  0  0  0  0
    7.2332   -2.2848  -30.3596 O   0  5  0  0  0  0  0  0  0  0  0  0
    4.0881    0.9160  -29.7632 N   0  3  0  0  0  0  0  0  0  0  0  0
    2.7464    1.2943  -29.4005 C   0  0  0  0  0  0  0  0  0  0  0  0
    2.6886    2.7118  -28.9334 C   0  0  0  0  0  0  0  0  0  0  0  0
    4.1212   -0.4007  -30.3249 C   0  0  0  0  0  0  0  0  0  0  0  0
    4.9024   -1.3477  -29.3791 C   0  0  0  0  0  0  0  0  0  0  0  0
    6.6788   -1.1297  -29.6093 S   0  0  1  0  0  0  0  0  0  0  0  0
  1  3  1  0  0  0  0
  1  9  1  0  0  0  0
  2 12  1  0  0  0  0
  3  5  1  0  0  0  0
  4 12  2  0  0  0  0
  5  7  1  0  0  0  0
  6 12  2  0  0  0  0
  7  8  1  0  0  0  0
  7 10  1  0  0  0  0
  8  9  1  0  0  0  0
 10 11  1  0  0  0  0
 12 11  1  1  0  0  0
M  CHG  2   6  -1   7   1
M  END
>  <CHROM.1>
123.90221266,-80.01083039,132.83287327,5.14060010,0.44948359,-29.75272628
-2.29328664,-0.16737640,2.96868900

>  <Name>
ligand

>  <RI>
0

>  <Rbt.Current_Directory>
/home/itssahil/PROJECTS/Mol_Feturizer/New_Systems/rnas/4P95

>  <Rbt.Executable>
rbdock ($Id: //depot/dev/client3/rdock/2013.1/src/exe/rbdock.cxx#4 $)

>  <Rbt.Library>
libRbt.so (2013.1, Build901 2013/11/27)

>  <Rbt.Parameter_File>
/export/apps/rDock/src/rDock_2013.1_src/data/scripts/dock_solv.prm

>  <Rbt.Receptor>
prm/pocket_docking_8.prm

>  <SCORE>
-11.6859

>  <SCORE.INTER>
-12.7219

>  <SCORE.INTER.CONST>
1

>  <SCORE.INTER.POLAR>
0

>  <SCORE.INTER.ROT>
3

>  <SCORE.INTER.SOLV>
7.22059

>  <SCORE.INTER.VDW>
-16.4881

>  <SCORE.INTER.norm>
-1.06016

>  <SCORE.INTRA>
1.036

>  <SCORE.INTRA.DIHEDRAL>
6.62178

>  <SCORE.INTRA.DIHEDRAL.0>
0.283163

>  <SCORE.INTRA.POLAR>
0

>  <SCORE.INTRA.POLAR.0>
0

>  <SCORE.INTRA.REPUL>
0

>  <SCORE.INTRA.REPUL.0>
0

>  <SCORE.INTRA.SOLV>
0.517103

>  <SCORE.INTRA.SOLV.lig_0>
-32.2894

>  <SCORE.INTRA.VDW>
-2.53344

>  <SCORE.INTRA.VDW.0>
2.0241

>  <SCORE.INTRA.norm>
0.0863331

>  <SCORE.RESTR>
0

>  <SCORE.RESTR.CAVITY>
0

>  <SCORE.RESTR.norm>
0

>  <SCORE.SYSTEM>
0

>  <SCORE.SYSTEM.CONST>
0

>  <SCORE.SYSTEM.DIHEDRAL>
0

>  <SCORE.SYSTEM.SOLV>
0

>  <SCORE.SYSTEM.norm>
0

>  <SCORE.heavy>
12

>  <SCORE.norm>
-0.973824

>  <RMSD>
3.093

$$$$
ligand
 OpenBabel11021811513D
libRbt.so/2013.1/901 2013/11/27
 12 12  0  0  0  0  0  0  0  0999 V2000
    0.8475    2.7920  -27.8604 O   0  0  0  0  0  0  0  0  0  0  0  0
    3.4358   -0.6037  -31.7352 O   0  0  0  0  0  0  0  0  0  0  0  0
    2.1154    3.0905  -27.4102 C   0  0  0  0  0  0  0  0  0  0  0  0
    3.5433   -0.7785  -29.3053 O   0  0  0  0  0  0  0  0  0  0  0  0
    3.1177    3.1822  -28.4863 C   0  0  0  0  0  0  0  0  0  0  0  0
    5.4081   -1.5569  -30.6555 O   0  5  0  0  0  0  0  0  0  0  0  0
    3.0786    2.0093  -29.3699 N   0  3  0  0  0  0  0  0  0  0  0  0
    1.7336    1.7795  -29.8313 C   0  0  0  0  0  0  0  0  0  0  0  0
    0.7720    1.7091  -28.6906 C   0  0  0  0  0  0  0  0  0  0  0  0
    3.9778    2.1980  -30.4682 C   0  0  0  0  0  0  0  0  0  0  0  0
    5.0808    1.1101  -30.4273 C   0  0  0  0  0  0  0  0  0  0  0  0
    4.3401   -0.5310  -30.5481 S   0  0  1  0  0  0  0  0  0  0  0  0
  1  3  1  0  0  0  0
  1  9  1  0  0  0  0
  2 12  1  0  0  0  0
  3  5  1  0  0  0  0
  4 12  2  0  0  0  0
  5  7  1  0  0  0  0
  6 12  2  0  0  0  0
  7  8  1  0  0  0  0
  7 10  1  0  0  0  0
  8  9  1  0  0  0  0
 10 11  1  0  0  0  0
 12 11  1  1  0  0  0
M  CHG  2   6  -1   7   1
M  END
>  <CHROM.1>
117.70906103,60.07348472,52.45652040,3.24173654,0.98900263,-29.67006420,2.21013421
0.33657836,0.38489332

>  <Name>
ligand

>  <RI>
0

>  <Rbt.Current_Directory>
/home/itssahil/PROJECTS/Mol_Feturizer/New_Systems/rnas/4P95

>  <Rbt.Executable>
rbdock ($Id: //depot/dev/client3/rdock/2013.1/src/exe/rbdock.cxx#4 $)

>  <Rbt.Library>
libRbt.so (2013.1, Build901 2013/11/27)

>  <Rbt.Parameter_File>
/export/apps/rDock/src/rDock_2013.1_src/data/scripts/dock_solv.prm

>  <Rbt.Receptor>
prm/pocket_docking_3.prm

>  <SCORE>
-10.4579

>  <SCORE.INTER>
-8.06801

>  <SCORE.INTER.CONST>
1

>  <SCORE.INTER.POLAR>
0

>  <SCORE.INTER.ROT>
3

>  <SCORE.INTER.SOLV>
6.56528

>  <SCORE.INTER.VDW>
-13.1671

>  <SCORE.INTER.norm>
-0.672335

>  <SCORE.INTRA>
-2.38991

>  <SCORE.INTRA.DIHEDRAL>
2.22814

>  <SCORE.INTRA.DIHEDRAL.0>
0.283163

>  <SCORE.INTRA.POLAR>
0

>  <SCORE.INTRA.POLAR.0>
0

>  <SCORE.INTRA.REPUL>
0

>  <SCORE.INTRA.REPUL.0>
0

>  <SCORE.INTRA.SOLV>
0.123293

>  <SCORE.INTRA.SOLV.lig_0>
-32.2894

>  <SCORE.INTRA.VDW>
-3.56563

>  <SCORE.INTRA.VDW.0>
2.0241

>  <SCORE.INTRA.norm>
-0.199159

>  <SCORE.RESTR>
0

>  <SCORE.RESTR.CAVITY>
0

>  <SCORE.RESTR.norm>
0

>  <SCORE.SYSTEM>
0

>  <SCORE.SYSTEM.CONST>
0

>  <SCORE.SYSTEM.DIHEDRAL>
0

>  <SCORE.SYSTEM.SOLV>
0

>  <SCORE.SYSTEM.norm>
0

>  <SCORE.heavy>
12

>  <SCORE.norm>
-0.871494

>  <RMSD>
3.097

$$$$
ligand
 OpenBabel11021811513D
libRbt.so/2013.1/901 2013/11/27
 12 12  0  0  0  0  0  0  0  0999 V2000
    0.7391    2.6953  -27.9200 O   0  0  0  0  0  0  0  0  0  0  0  0
    3.5405   -0.1147  -31.9259 O   0  0  0  0  0  0  0  0  0  0  0  0
    1.9567    3.0794  -27.4012 C   0  0  0  0  0  0  0  0  0  0  0  0
    3.7217   -0.5407  -29.5317 O   0  0  0  0  0  0  0  0  0  0  0  0
    2.9823    3.3341  -28.4280 C   0  0  0  0  0  0  0  0  0  0  0  0
    5.5807   -1.0859  -30.9991 O   0  5  0  0  0  0  0  0  0  0  0  0
    3.0850    2.2234  -29.3839 N   0  3  0  0  0  0  0  0  0  0  0  0
    1.7846    1.9010  -29.9127 C   0  0  0  0  0  0  0  0  0  0  0  0
    0.7954    1.6670  -28.8184 C   0  0  0  0  0  0  0  0  0  0  0  0
    3.9996    2.5663  -30.4309 C   0  0  0  0  0  0  0  0  0  0  0  0
    5.1456    1.5242  -30.4796 C   0  0  0  0  0  0  0  0  0  0  0  0
    4.4730   -0.1269  -30.7586 S   0  0  1  0  0  0  0  0  0  0  0  0
  1  3  1  0  0  0  0
  1  9  1  0  0  0  0
  2 12  1  0  0  0  0
  3  5  1  0  0  0  0
  4 12  2  0  0  0  0
  5  7  1  0  0  0  0
  6 12  2  0  0  0  0
  7  8  1  0  0  0  0
  7 10  1  0  0  0  0
  8  9  1  0  0  0  0
 10 11  1  0  0  0  0
 12 11  1  1  0  0  0
M  CHG  2   6  -1   7   1
M  END
>  <CHROM.1>
121.80324913,58.72435148,50.38508277,3.28311399,1.23424181,-29.78470359,2.27972117
0.35413663,0.43831915

>  <Name>
ligand

>  <RI>
0

>  <Rbt.Current_Directory>
/home/itssahil/PROJECTS/Mol_Feturizer/New_Systems/rnas/4P95

>  <Rbt.Executable>
rbdock ($Id: //depot/dev/client3/rdock/2013.1/src/exe/rbdock.cxx#4 $)

>  <Rbt.Library>
libRbt.so (2013.1, Build901 2013/11/27)

>  <Rbt.Parameter_File>
/export/apps/rDock/src/rDock_2013.1_src/data/scripts/dock_solv.prm

>  <Rbt.Receptor>
prm/pocket_docking_3.prm

>  <SCORE>
-10.1625

>  <SCORE.INTER>
-7.81446

>  <SCORE.INTER.CONST>
1

>  <SCORE.INTER.POLAR>
0

>  <SCORE.INTER.ROT>
3

>  <SCORE.INTER.SOLV>
5.69093

>  <SCORE.INTER.VDW>
-12.7066

>  <SCORE.INTER.norm>
-0.651205

>  <SCORE.INTRA>
-2.34807

>  <SCORE.INTRA.DIHEDRAL>
2.30087

>  <SCORE.INTRA.DIHEDRAL.0>
0.283163

>  <SCORE.INTRA.POLAR>
0

>  <SCORE.INTRA.POLAR.0>
0

>  <SCORE.INTRA.REPUL>
0

>  <SCORE.INTRA.REPUL.0>
0

>  <SCORE.INTRA.SOLV>
0.107817

>  <SCORE.INTRA.SOLV.lig_0>
-32.2894

>  <SCORE.INTRA.VDW>
-3.55242

>  <SCORE.INTRA.VDW.0>
2.0241

>  <SCORE.INTRA.norm>
-0.195673

>  <SCORE.RESTR>
0

>  <SCORE.RESTR.CAVITY>
0

>  <SCORE.RESTR.norm>
0

>  <SCORE.SYSTEM>
0

>  <SCORE.SYSTEM.CONST>
0

>  <SCORE.SYSTEM.DIHEDRAL>
0

>  <SCORE.SYSTEM.SOLV>
0

>  <SCORE.SYSTEM.norm>
0

>  <SCORE.heavy>
12

>  <SCORE.norm>
-0.846878

>  <RMSD>
3.099

$$$$
ligand
 OpenBabel11021811513D
libRbt.so/2013.1/901 2013/11/27
 12 12  0  0  0  0  0  0  0  0999 V2000
    3.2574    3.5940  -29.7655 O   0  0  0  0  0  0  0  0  0  0  0  0
    7.3422   -0.9922  -28.2599 O   0  0  0  0  0  0  0  0  0  0  0  0
    4.5510    3.2658  -30.1093 C   0  0  0  0  0  0  0  0  0  0  0  0
    6.8994    0.1213  -30.3837 O   0  0  0  0  0  0  0  0  0  0  0  0
    4.6961    1.8905  -30.6175 C   0  0  0  0  0  0  0  0  0  0  0  0
    7.2458   -2.2837  -30.3305 O   0  5  0  0  0  0  0  0  0  0  0  0
    4.0686    0.9090  -29.7226 N   0  3  0  0  0  0  0  0  0  0  0  0
    2.7106    1.2945  -29.4365 C   0  0  0  0  0  0  0  0  0  0  0  0
    2.6381    2.7004  -28.9374 C   0  0  0  0  0  0  0  0  0  0  0  0
    4.1235   -0.3935  -30.3149 C   0  0  0  0  0  0  0  0  0  0  0  0
    4.8992   -1.3555  -29.3797 C   0  0  0  0  0  0  0  0  0  0  0  0
    6.6770   -1.1288  -29.5907 S   0  0  1  0  0  0  0  0  0  0  0  0
  1  3  1  0  0  0  0
  1  9  1  0  0  0  0
  2 12  1  0  0  0  0
  3  5  1  0  0  0  0
  4 12  2  0  0  0  0
  5  7  1  0  0  0  0
  6 12  2  0  0  0  0
  7  8  1  0  0  0  0
  7 10  1  0  0  0  0
  8  9  1  0  0  0  0
 10 11  1  0  0  0  0
 12 11  1  1  0  0  0
M  CHG  2   6  -1   7   1
M  END
>  <CHROM.1>
120.88679198,-80.68182715,131.57281798,5.13963321,0.45001749,-29.72161512
-2.29042813,-0.12752711,3.01185451

>  <Name>
ligand

>  <RI>
0

>  <Rbt.Current_Directory>
/home/itssahil/PROJECTS/Mol_Feturizer/New_Systems/rnas/4P95

>  <Rbt.Executable>
rbdock ($Id: //depot/dev/client3/rdock/2013.1/src/exe/rbdock.cxx#4 $)

>  <Rbt.Library>
libRbt.so (2013.1, Build901 2013/11/27)

>  <Rbt.Parameter_File>
/export/apps/rDock/src/rDock_2013.1_src/data/scripts/dock_solv.prm

>  <Rbt.Receptor>
prm/pocket_docking_8.prm

>  <SCORE>
-11.6245

>  <SCORE.INTER>
-12.8555

>  <SCORE.INTER.CONST>
1

>  <SCORE.INTER.POLAR>
0

>  <SCORE.INTER.ROT>
3

>  <SCORE.INTER.SOLV>
7.38573

>  <SCORE.INTER.VDW>
-16.6323

>  <SCORE.INTER.norm>
-1.07129

>  <SCORE.INTRA>
1.23106

>  <SCORE.INTRA.DIHEDRAL>
6.81532

>  <SCORE.INTRA.DIHEDRAL.0>
0.283163

>  <SCORE.INTRA.POLAR>
0

>  <SCORE.INTRA.POLAR.0>
0

>  <SCORE.INTRA.REPUL>
0

>  <SCORE.INTRA.REPUL.0>
0

>  <SCORE.INTRA.SOLV>
0.499721

>  <SCORE.INTRA.SOLV.lig_0>
-32.2894

>  <SCORE.INTRA.VDW>
-2.42646

>  <SCORE.INTRA.VDW.0>
2.0241

>  <SCORE.INTRA.norm>
0.102588

>  <SCORE.RESTR>
0

>  <SCORE.RESTR.CAVITY>
0

>  <SCORE.RESTR.norm>
0

>  <SCORE.SYSTEM>
0

>  <SCORE.SYSTEM.CONST>
0

>  <SCORE.SYSTEM.DIHEDRAL>
0

>  <SCORE.SYSTEM.SOLV>
0

>  <SCORE.SYSTEM.norm>
0

>  <SCORE.heavy>
12

>  <SCORE.norm>
-0.968706

>  <RMSD>
3.100

$$$$
ligand
 OpenBabel11021811513D
libRbt.so/2013.1/901 2013/11/27
 12 12  0  0  0  0  0  0  0  0999 V2000
    1.7077    4.5155  -29.3370 O   0  0  0  0  0  0  0  0  0  0  0  0
    3.2931   -2.1016  -31.1615 O   0  0  0  0  0  0  0  0  0  0  0  0
    2.5781    4.2199  -30.3638 C   0  0  0  0  0  0  0  0  0  0  0  0
    4.3593   -2.2327  -28.9723 O   0  0  0  0  0  0  0  0  0  0  0  0
    2.7062    2.7769  -30.6323 C   0  0  0  0  0  0  0  0  0  0  0  0
    5.7265   -2.0202  -30.9703 O   0  5  0  0  0  0  0  0  0  0  0  0
    2.9785    2.0156  -29.4058 N   0  3  0  0  0  0  0  0  0  0  0  0
    2.0109    2.3457  -28.3911 C   0  0  0  0  0  0  0  0  0  0  0  0
    1.9264    3.8218  -28.1800 C   0  0  0  0  0  0  0  0  0  0  0  0
    2.9704    0.6128  -29.6927 C   0  0  0  0  0  0  0  0  0  0  0  0
    4.3808    0.1714  -30.1594 C   0  0  0  0  0  0  0  0  0  0  0  0
    4.4436   -1.6232  -30.3369 S   0  0  1  0  0  0  0  0  0  0  0  0
  1  3  1  0  0  0  0
  1  9  1  0  0  0  0
  2 12  1  0  0  0  0
  3  5  1  0  0  0  0
  4 12  2  0  0  0  0
  5  7  1  0  0  0  0
  6 12  2  0  0  0  0
  7  8  1  0  0  0  0
  7 10  1  0  0  0  0
  8  9  1  0  0  0  0
 10 11  1  0  0  0  0
 12 11  1  1  0  0  0
M  CHG  2   6  -1   7   1
M  END
>  <CHROM.1>
86.85513923,173.28736041,50.30632342,3.38792864,0.73328328,-29.86271340,-2.53138259
-1.07653218,2.43069956

>  <Name>
ligand

>  <RI>
0

>  <Rbt.Current_Directory>
/home/itssahil/PROJECTS/Mol_Feturizer/New_Systems/rnas/4P95

>  <Rbt.Executable>
rbdock ($Id: //depot/dev/client3/rdock/2013.1/src/exe/rbdock.cxx#4 $)

>  <Rbt.Library>
libRbt.so (2013.1, Build901 2013/11/27)

>  <Rbt.Parameter_File>
/export/apps/rDock/src/rDock_2013.1_src/data/scripts/dock_solv.prm

>  <Rbt.Receptor>
prm/pocket_docking_4.prm

>  <SCORE>
-9.22705

>  <SCORE.INTER>
-7.14362

>  <SCORE.INTER.CONST>
1

>  <SCORE.INTER.POLAR>
0

>  <SCORE.INTER.ROT>
3

>  <SCORE.INTER.SOLV>
8.36994

>  <SCORE.INTER.VDW>
-13.1524

>  <SCORE.INTER.norm>
-0.595302

>  <SCORE.INTRA>
-2.08342

>  <SCORE.INTRA.DIHEDRAL>
1.15591

>  <SCORE.INTRA.DIHEDRAL.0>
0.283163

>  <SCORE.INTRA.POLAR>
0

>  <SCORE.INTRA.POLAR.0>
0

>  <SCORE.INTRA.REPUL>
0

>  <SCORE.INTRA.REPUL.0>
0

>  <SCORE.INTRA.SOLV>
-0.730224

>  <SCORE.INTRA.SOLV.lig_0>
-32.2894

>  <SCORE.INTRA.VDW>
-2.29627

>  <SCORE.INTRA.VDW.0>
2.0241

>  <SCORE.INTRA.norm>
-0.173619

>  <SCORE.RESTR>
0

>  <SCORE.RESTR.CAVITY>
0

>  <SCORE.RESTR.norm>
0

>  <SCORE.SYSTEM>
0

>  <SCORE.SYSTEM.CONST>
0

>  <SCORE.SYSTEM.DIHEDRAL>
0

>  <SCORE.SYSTEM.SOLV>
0

>  <SCORE.SYSTEM.norm>
0

>  <SCORE.heavy>
12

>  <SCORE.norm>
-0.768921

>  <RMSD>
3.101

$$$$
ligand
 OpenBabel11021811513D
libRbt.so/2013.1/901 2013/11/27
 12 12  0  0  0  0  0  0  0  0999 V2000
    1.4997    3.9818  -29.5877 O   0  0  0  0  0  0  0  0  0  0  0  0
    5.1262   -2.9489  -28.9210 O   0  0  0  0  0  0  0  0  0  0  0  0
    2.5755    3.8716  -28.7334 C   0  0  0  0  0  0  0  0  0  0  0  0
    6.3719   -0.8583  -29.0762 O   0  0  0  0  0  0  0  0  0  0  0  0
    3.5887    2.9005  -29.1820 C   0  0  0  0  0  0  0  0  0  0  0  0
    5.5897   -1.9508  -31.1013 O   0  5  0  0  0  0  0  0  0  0  0  0
    2.9881    1.6049  -29.5263 N   0  3  0  0  0  0  0  0  0  0  0  0
    1.8978    1.7920  -30.4487 C   0  0  0  0  0  0  0  0  0  0  0  0
    0.9175    2.7953  -29.9355 C   0  0  0  0  0  0  0  0  0  0  0  0
    3.9864    0.7365  -30.0736 C   0  0  0  0  0  0  0  0  0  0  0  0
    3.7420   -0.7113  -29.5776 C   0  0  0  0  0  0  0  0  0  0  0  0
    5.2677   -1.6693  -29.6794 S   0  0  1  0  0  0  0  0  0  0  0  0
  1  3  1  0  0  0  0
  1  9  1  0  0  0  0
  2 12  1  0  0  0  0
  3  5  1  0  0  0  0
  4 12  2  0  0  0  0
  5  7  1  0  0  0  0
  6 12  2  0  0  0  0
  7  8  1  0  0  0  0
  7 10  1  0  0  0  0
  8  9  1  0  0  0  0
 10 11  1  0  0  0  0
 12 11  1  1  0  0  0
M  CHG  2   6  -1   7   1
M  END
>  <CHROM.1>
142.14787492,-157.58183144,166.99406743,3.82279051,0.51606501,-29.65671555
-2.23716380,0.42938818,-2.79672309

>  <Name>
ligand

>  <RI>
0

>  <Rbt.Current_Directory>
/home/itssahil/PROJECTS/Mol_Feturizer/New_Systems/rnas/4P95

>  <Rbt.Executable>
rbdock ($Id: //depot/dev/client3/rdock/2013.1/src/exe/rbdock.cxx#4 $)

>  <Rbt.Library>
libRbt.so (2013.1, Build901 2013/11/27)

>  <Rbt.Parameter_File>
/export/apps/rDock/src/rDock_2013.1_src/data/scripts/dock_solv.prm

>  <Rbt.Receptor>
prm/pocket_docking_5.prm

>  <SCORE>
-10.8514

>  <SCORE.INTER>
-10.1247

>  <SCORE.INTER.CONST>
1

>  <SCORE.INTER.POLAR>
0

>  <SCORE.INTER.ROT>
3

>  <SCORE.INTER.SOLV>
6.91217

>  <SCORE.INTER.VDW>
-14.6539

>  <SCORE.INTER.norm>
-0.843727

>  <SCORE.INTRA>
-0.726648

>  <SCORE.INTRA.DIHEDRAL>
3.38579

>  <SCORE.INTRA.DIHEDRAL.0>
0.283163

>  <SCORE.INTRA.POLAR>
0

>  <SCORE.INTRA.POLAR.0>
0

>  <SCORE.INTRA.REPUL>
0

>  <SCORE.INTRA.REPUL.0>
0

>  <SCORE.INTRA.SOLV>
0.0826792

>  <SCORE.INTRA.SOLV.lig_0>
-32.2894

>  <SCORE.INTRA.VDW>
-2.46088

>  <SCORE.INTRA.VDW.0>
2.0241

>  <SCORE.INTRA.norm>
-0.060554

>  <SCORE.RESTR>
0

>  <SCORE.RESTR.CAVITY>
0

>  <SCORE.RESTR.norm>
0

>  <SCORE.SYSTEM>
0

>  <SCORE.SYSTEM.CONST>
0

>  <SCORE.SYSTEM.DIHEDRAL>
0

>  <SCORE.SYSTEM.SOLV>
0

>  <SCORE.SYSTEM.norm>
0

>  <SCORE.heavy>
12

>  <SCORE.norm>
-0.904281

>  <RMSD>
3.108

$$$$
ligand
 OpenBabel11021811513D
libRbt.so/2013.1/901 2013/11/27
 12 12  0  0  0  0  0  0  0  0999 V2000
    1.9767    4.8906  -29.5369 O   0  0  0  0  0  0  0  0  0  0  0  0
    5.0012   -1.5985  -28.9267 O   0  0  0  0  0  0  0  0  0  0  0  0
    1.9405    3.9757  -28.5069 C   0  0  0  0  0  0  0  0  0  0  0  0
    6.7001   -0.3242  -30.1252 O   0  0  0  0  0  0  0  0  0  0  0  0
    3.0661    3.0251  -28.5216 C   0  0  0  0  0  0  0  0  0  0  0  0
    5.3971   -2.0044  -31.3022 O   0  5  0  0  0  0  0  0  0  0  0  0
    3.2385    2.4038  -29.8415 N   0  3  0  0  0  0  0  0  0  0  0  0
    3.3059    3.4174  -30.8627 C   0  0  0  0  0  0  0  0  0  0  0  0
    2.1419    4.3498  -30.7810 C   0  0  0  0  0  0  0  0  0  0  0  0
    4.4145    1.5868  -29.8442 C   0  0  0  0  0  0  0  0  0  0  0  0
    4.1491    0.2998  -30.6657 C   0  0  0  0  0  0  0  0  0  0  0  0
    5.3551   -0.9719  -30.2361 S   0  0  1  0  0  0  0  0  0  0  0  0
  1  3  1  0  0  0  0
  1  9  1  0  0  0  0
  2 12  1  0  0  0  0
  3  5  1  0  0  0  0
  4 12  2  0  0  0  0
  5  7  1  0  0  0  0
  6 12  2  0  0  0  0
  7  8  1  0  0  0  0
  7 10  1  0  0  0  0
  8  9  1  0  0  0  0
 10 11  1  0  0  0  0
 12 11  1  6  0  0  0
M  CHG  2   6  -1   7   1
M  END
>  <CHROM.1>
141.51832485,-160.76064466,77.21575327,4.06228286,1.29508187,-29.95949109
-2.98920214,-1.02786099,1.86654167

>  <Name>
ligand

>  <RI>
0

>  <Rbt.Current_Directory>
/home/itssahil/PROJECTS/Mol_Feturizer/New_Systems/rnas/4P95

>  <Rbt.Executable>
rbdock ($Id: //depot/dev/client3/rdock/2013.1/src/exe/rbdock.cxx#4 $)

>  <Rbt.Library>
libRbt.so (2013.1, Build901 2013/11/27)

>  <Rbt.Parameter_File>
/export/apps/rDock/src/rDock_2013.1_src/data/scripts/dock_solv.prm

>  <Rbt.Receptor>
prm/pocket_docking_4.prm

>  <SCORE>
-9.74434

>  <SCORE.INTER>
-8.66282

>  <SCORE.INTER.CONST>
1

>  <SCORE.INTER.POLAR>
0

>  <SCORE.INTER.ROT>
3

>  <SCORE.INTER.SOLV>
5.8505

>  <SCORE.INTER.VDW>
-13.3254

>  <SCORE.INTER.norm>
-0.721902

>  <SCORE.INTRA>
-1.08152

>  <SCORE.INTRA.DIHEDRAL>
3.38849

>  <SCORE.INTRA.DIHEDRAL.0>
0.283163

>  <SCORE.INTRA.POLAR>
0

>  <SCORE.INTRA.POLAR.0>
0

>  <SCORE.INTRA.REPUL>
0

>  <SCORE.INTRA.REPUL.0>
0

>  <SCORE.INTRA.SOLV>
-0.647074

>  <SCORE.INTRA.SOLV.lig_0>
-32.2894

>  <SCORE.INTRA.VDW>
-2.45223

>  <SCORE.INTRA.VDW.0>
2.0241

>  <SCORE.INTRA.norm>
-0.0901268

>  <SCORE.RESTR>
0

>  <SCORE.RESTR.CAVITY>
0

>  <SCORE.RESTR.norm>
0

>  <SCORE.SYSTEM>
0

>  <SCORE.SYSTEM.CONST>
0

>  <SCORE.SYSTEM.DIHEDRAL>
0

>  <SCORE.SYSTEM.SOLV>
0

>  <SCORE.SYSTEM.norm>
0

>  <SCORE.heavy>
12

>  <SCORE.norm>
-0.812028

>  <RMSD>
3.110

$$$$
ligand
 OpenBabel11021811513D
libRbt.so/2013.1/901 2013/11/27
 12 12  0  0  0  0  0  0  0  0999 V2000
    1.8929    4.9177  -29.4334 O   0  0  0  0  0  0  0  0  0  0  0  0
    6.3001   -0.8386  -29.0594 O   0  0  0  0  0  0  0  0  0  0  0  0
    1.9139    3.9417  -28.4606 C   0  0  0  0  0  0  0  0  0  0  0  0
    6.6703    0.0917  -31.2829 O   0  0  0  0  0  0  0  0  0  0  0  0
    3.0878    3.0548  -28.5392 C   0  0  0  0  0  0  0  0  0  0  0  0
    5.4264   -1.9812  -31.0332 O   0  5  0  0  0  0  0  0  0  0  0  0
    3.2812    2.5244  -29.8954 N   0  3  0  0  0  0  0  0  0  0  0  0
    3.2861    3.5998  -30.8536 C   0  0  0  0  0  0  0  0  0  0  0  0
    2.0754    4.4624  -30.7089 C   0  0  0  0  0  0  0  0  0  0  0  0
    4.4984    1.7725  -29.9542 C   0  0  0  0  0  0  0  0  0  0  0  0
    4.1799    0.2984  -30.3109 C   0  0  0  0  0  0  0  0  0  0  0  0
    5.7058   -0.6589  -30.4184 S   0  0  1  0  0  0  0  0  0  0  0  0
  1  3  1  0  0  0  0
  1  9  1  0  0  0  0
  2 12  1  0  0  0  0
  3  5  1  0  0  0  0
  4 12  2  0  0  0  0
  5  7  1  0  0  0  0
  6 12  2  0  0  0  0
  7  8  1  0  0  0  0
  7 10  1  0  0  0  0
  8  9  1  0  0  0  0
 10 11  1  0  0  0  0
 12 11  1  1  0  0  0
M  CHG  2   6  -1   7   1
M  END
>  <CHROM.1>
117.94556299,178.99474944,70.37816143,4.22500912,1.49075430,-30.04347961
-3.01654784,-0.95252242,1.89764628

>  <Name>
ligand

>  <RI>
0

>  <Rbt.Current_Directory>
/home/itssahil/PROJECTS/Mol_Feturizer/New_Systems/rnas/4P95

>  <Rbt.Executable>
rbdock ($Id: //depot/dev/client3/rdock/2013.1/src/exe/rbdock.cxx#4 $)

>  <Rbt.Library>
libRbt.so (2013.1, Build901 2013/11/27)

>  <Rbt.Parameter_File>
/export/apps/rDock/src/rDock_2013.1_src/data/scripts/dock_solv.prm

>  <Rbt.Receptor>
prm/pocket_docking_5.prm

>  <SCORE>
-10.4716

>  <SCORE.INTER>
-8.66824

>  <SCORE.INTER.CONST>
1

>  <SCORE.INTER.POLAR>
0

>  <SCORE.INTER.ROT>
3

>  <SCORE.INTER.SOLV>
5.53222

>  <SCORE.INTER.VDW>
-13.2229

>  <SCORE.INTER.norm>
-0.722353

>  <SCORE.INTRA>
-1.80334

>  <SCORE.INTRA.DIHEDRAL>
2.41171

>  <SCORE.INTRA.DIHEDRAL.0>
0.283163

>  <SCORE.INTRA.POLAR>
0

>  <SCORE.INTRA.POLAR.0>
0

>  <SCORE.INTRA.REPUL>
0

>  <SCORE.INTRA.REPUL.0>
0

>  <SCORE.INTRA.SOLV>
-0.683114

>  <SCORE.INTRA.SOLV.lig_0>
-32.2894

>  <SCORE.INTRA.VDW>
-2.66764

>  <SCORE.INTRA.VDW.0>
2.0241

>  <SCORE.INTRA.norm>
-0.150278

>  <SCORE.RESTR>
0

>  <SCORE.RESTR.CAVITY>
0

>  <SCORE.RESTR.norm>
0

>  <SCORE.SYSTEM>
0

>  <SCORE.SYSTEM.CONST>
0

>  <SCORE.SYSTEM.DIHEDRAL>
0

>  <SCORE.SYSTEM.SOLV>
0

>  <SCORE.SYSTEM.norm>
0

>  <SCORE.heavy>
12

>  <SCORE.norm>
-0.872631

>  <RMSD>
3.110

$$$$
ligand
 OpenBabel11021811513D
libRbt.so/2013.1/901 2013/11/27
 12 12  0  0  0  0  0  0  0  0999 V2000
    1.9355    4.9239  -29.5050 O   0  0  0  0  0  0  0  0  0  0  0  0
    6.1295   -0.8970  -28.9755 O   0  0  0  0  0  0  0  0  0  0  0  0
    1.9572    3.9785  -28.5025 C   0  0  0  0  0  0  0  0  0  0  0  0
    6.7525   -0.0151  -31.1620 O   0  0  0  0  0  0  0  0  0  0  0  0
    3.1215    3.0777  -28.5654 C   0  0  0  0  0  0  0  0  0  0  0  0
    5.4091   -2.0349  -31.0129 O   0  5  0  0  0  0  0  0  0  0  0  0
    3.2953    2.5034  -29.9063 N   0  3  0  0  0  0  0  0  0  0  0  0
    3.3006    3.5484  -30.8975 C   0  0  0  0  0  0  0  0  0  0  0  0
    2.1001    4.4274  -30.7675 C   0  0  0  0  0  0  0  0  0  0  0  0
    4.5044    1.7378  -29.9541 C   0  0  0  0  0  0  0  0  0  0  0  0
    4.1889    0.3013  -30.4425 C   0  0  0  0  0  0  0  0  0  0  0  0
    5.6790   -0.7151  -30.3884 S   0  0  1  0  0  0  0  0  0  0  0  0
  1  3  1  0  0  0  0
  1  9  1  0  0  0  0
  2 12  1  0  0  0  0
  3  5  1  0  0  0  0
  4 12  2  0  0  0  0
  5  7  1  0  0  0  0
  6 12  2  0  0  0  0
  7  8  1  0  0  0  0
  7 10  1  0  0  0  0
  8  9  1  0  0  0  0
 10 11  1  0  0  0  0
 12 11  1  6  0  0  0
M  CHG  2   6  -1   7   1
M  END
>  <CHROM.1>
125.32207678,-175.66637499,65.46175819,4.22586060,1.45821291,-30.04847562
-3.04251911,-0.96686715,1.84660898

>  <Name>
ligand

>  <RI>
0

>  <Rbt.Current_Directory>
/home/itssahil/PROJECTS/Mol_Feturizer/New_Systems/rnas/4P95

>  <Rbt.Executable>
rbdock ($Id: //depot/dev/client3/rdock/2013.1/src/exe/rbdock.cxx#4 $)

>  <Rbt.Library>
libRbt.so (2013.1, Build901 2013/11/27)

>  <Rbt.Parameter_File>
/export/apps/rDock/src/rDock_2013.1_src/data/scripts/dock_solv.prm

>  <Rbt.Receptor>
prm/pocket_docking_6.prm

>  <SCORE>
-10.4246

>  <SCORE.INTER>
-8.49959

>  <SCORE.INTER.CONST>
1

>  <SCORE.INTER.POLAR>
0

>  <SCORE.INTER.ROT>
3

>  <SCORE.INTER.SOLV>
5.61224

>  <SCORE.INTER.VDW>
-13.1371

>  <SCORE.INTER.norm>
-0.708299

>  <SCORE.INTRA>
-1.92501

>  <SCORE.INTRA.DIHEDRAL>
2.21145

>  <SCORE.INTRA.DIHEDRAL.0>
0.283163

>  <SCORE.INTRA.POLAR>
0

>  <SCORE.INTRA.POLAR.0>
0

>  <SCORE.INTRA.REPUL>
0

>  <SCORE.INTRA.REPUL.0>
0

>  <SCORE.INTRA.SOLV>
-0.700741

>  <SCORE.INTRA.SOLV.lig_0>
-32.2894

>  <SCORE.INTRA.VDW>
-2.68037

>  <SCORE.INTRA.VDW.0>
2.0241

>  <SCORE.INTRA.norm>
-0.160418

>  <SCORE.RESTR>
0

>  <SCORE.RESTR.CAVITY>
0

>  <SCORE.RESTR.norm>
0

>  <SCORE.SYSTEM>
0

>  <SCORE.SYSTEM.CONST>
0

>  <SCORE.SYSTEM.DIHEDRAL>
0

>  <SCORE.SYSTEM.SOLV>
0

>  <SCORE.SYSTEM.norm>
0

>  <SCORE.heavy>
12

>  <SCORE.norm>
-0.868717

>  <RMSD>
3.110

$$$$
ligand
 OpenBabel11021811513D
libRbt.so/2013.1/901 2013/11/27
 12 12  0  0  0  0  0  0  0  0999 V2000
    0.8129    2.8106  -27.8475 O   0  0  0  0  0  0  0  0  0  0  0  0
    3.5018   -0.5582  -31.7902 O   0  0  0  0  0  0  0  0  0  0  0  0
    2.0704    3.1510  -27.3979 C   0  0  0  0  0  0  0  0  0  0  0  0
    3.4790   -0.7768  -29.3616 O   0  0  0  0  0  0  0  0  0  0  0  0
    3.0778    3.2361  -28.4697 C   0  0  0  0  0  0  0  0  0  0  0  0
    5.4128   -1.5341  -30.6238 O   0  5  0  0  0  0  0  0  0  0  0  0
    3.0720    2.0386  -29.3204 N   0  3  0  0  0  0  0  0  0  0  0  0
    1.7359    1.7647  -29.7837 C   0  0  0  0  0  0  0  0  0  0  0  0
    0.7683    1.7036  -28.6476 C   0  0  0  0  0  0  0  0  0  0  0  0
    3.9743    2.2176  -30.4178 C   0  0  0  0  0  0  0  0  0  0  0  0
    5.0759    1.1289  -30.3654 C   0  0  0  0  0  0  0  0  0  0  0  0
    4.3414   -0.5084  -30.5553 S   0  0  1  0  0  0  0  0  0  0  0  0
  1  3  1  0  0  0  0
  1  9  1  0  0  0  0
  2 12  1  0  0  0  0
  3  5  1  0  0  0  0
  4 12  2  0  0  0  0
  5  7  1  0  0  0  0
  6 12  2  0  0  0  0
  7  8  1  0  0  0  0
  7 10  1  0  0  0  0
  8  9  1  0  0  0  0
 10 11  1  0  0  0  0
 12 11  1  1  0  0  0
M  CHG  2   6  -1   7   1
M  END
>  <CHROM.1>
119.52945116,62.79642284,53.56386709,3.23231869,1.01168977,-29.65643320,2.21108528
0.33929152,0.38843475

>  <Name>
ligand

>  <RI>
0

>  <Rbt.Current_Directory>
/home/itssahil/PROJECTS/Mol_Feturizer/New_Systems/rnas/4P95

>  <Rbt.Executable>
rbdock ($Id: //depot/dev/client3/rdock/2013.1/src/exe/rbdock.cxx#4 $)

>  <Rbt.Library>
libRbt.so (2013.1, Build901 2013/11/27)

>  <Rbt.Parameter_File>
/export/apps/rDock/src/rDock_2013.1_src/data/scripts/dock_solv.prm

>  <Rbt.Receptor>
prm/pocket_docking_3.prm

>  <SCORE>
-10.4492

>  <SCORE.INTER>
-8.09933

>  <SCORE.INTER.CONST>
1

>  <SCORE.INTER.POLAR>
0

>  <SCORE.INTER.ROT>
3

>  <SCORE.INTER.SOLV>
6.70815

>  <SCORE.INTER.VDW>
-13.2356

>  <SCORE.INTER.norm>
-0.674944

>  <SCORE.INTRA>
-2.36622

>  <SCORE.INTRA.DIHEDRAL>
2.22544

>  <SCORE.INTRA.DIHEDRAL.0>
0.283163

>  <SCORE.INTRA.POLAR>
0

>  <SCORE.INTRA.POLAR.0>
0

>  <SCORE.INTRA.REPUL>
0

>  <SCORE.INTRA.REPUL.0>
0

>  <SCORE.INTRA.SOLV>
0.0999703

>  <SCORE.INTRA.SOLV.lig_0>
-32.2894

>  <SCORE.INTRA.VDW>
-3.52892

>  <SCORE.INTRA.VDW.0>
2.0241

>  <SCORE.INTRA.norm>
-0.197185

>  <SCORE.RESTR>
0.0163295

>  <SCORE.RESTR.CAVITY>
0.0163295

>  <SCORE.RESTR.norm>
0.00136079

>  <SCORE.SYSTEM>
0

>  <SCORE.SYSTEM.CONST>
0

>  <SCORE.SYSTEM.DIHEDRAL>
0

>  <SCORE.SYSTEM.SOLV>
0

>  <SCORE.SYSTEM.norm>
0

>  <SCORE.heavy>
12

>  <SCORE.norm>
-0.870768

>  <RMSD>
3.113

$$$$
ligand
 OpenBabel11021811513D
libRbt.so/2013.1/901 2013/11/27
 12 12  0  0  0  0  0  0  0  0999 V2000
    1.9358    4.8390  -29.2408 O   0  0  0  0  0  0  0  0  0  0  0  0
    6.4016   -0.8790  -29.0077 O   0  0  0  0  0  0  0  0  0  0  0  0
    1.9695    3.7910  -28.3465 C   0  0  0  0  0  0  0  0  0  0  0  0
    6.7111    0.0818  -31.2275 O   0  0  0  0  0  0  0  0  0  0  0  0
    3.1494    2.9218  -28.4994 C   0  0  0  0  0  0  0  0  0  0  0  0
    5.4891   -2.0036  -30.9742 O   0  5  0  0  0  0  0  0  0  0  0  0
    3.3388    2.4992  -29.8935 N   0  3  0  0  0  0  0  0  0  0  0  0
    3.3305    3.6454  -30.7657 C   0  0  0  0  0  0  0  0  0  0  0  0
    2.1144    4.4849  -30.5487 C   0  0  0  0  0  0  0  0  0  0  0  0
    4.5611    1.7635  -30.0164 C   0  0  0  0  0  0  0  0  0  0  0  0
    4.2434    0.2570  -30.1933 C   0  0  0  0  0  0  0  0  0  0  0  0
    5.7734   -0.6869  -30.3496 S   0  0  1  0  0  0  0  0  0  0  0  0
  1  3  1  0  0  0  0
  1  9  1  0  0  0  0
  2 12  1  0  0  0  0
  3  5  1  0  0  0  0
  4 12  2  0  0  0  0
  5  7  1  0  0  0  0
  6 12  2  0  0  0  0
  7  8  1  0  0  0  0
  7 10  1  0  0  0  0
  8  9  1  0  0  0  0
 10 11  1  0  0  0  0
 12 11  1  1  0  0  0
M  CHG  2   6  -1   7   1
M  END
>  <CHROM.1>
106.25418444,-179.98675646,78.01171419,4.28433889,1.45261095,-29.96938565
2.94724204,0.93996137,-1.14936013

>  <Name>
ligand

>  <RI>
0

>  <Rbt.Current_Directory>
/home/itssahil/PROJECTS/Mol_Feturizer/New_Systems/rnas/4P95

>  <Rbt.Executable>
rbdock ($Id: //depot/dev/client3/rdock/2013.1/src/exe/rbdock.cxx#4 $)

>  <Rbt.Library>
libRbt.so (2013.1, Build901 2013/11/27)

>  <Rbt.Parameter_File>
/export/apps/rDock/src/rDock_2013.1_src/data/scripts/dock_solv.prm

>  <Rbt.Receptor>
prm/pocket_docking_5.prm

>  <SCORE>
-10.6317

>  <SCORE.INTER>
-9.0911

>  <SCORE.INTER.CONST>
1

>  <SCORE.INTER.POLAR>
0

>  <SCORE.INTER.ROT>
3

>  <SCORE.INTER.SOLV>
5.80445

>  <SCORE.INTER.VDW>
-13.5955

>  <SCORE.INTER.norm>
-0.757592

>  <SCORE.INTRA>
-1.54056

>  <SCORE.INTRA.DIHEDRAL>
2.65883

>  <SCORE.INTRA.DIHEDRAL.0>
0.283163

>  <SCORE.INTRA.POLAR>
0

>  <SCORE.INTRA.POLAR.0>
0

>  <SCORE.INTRA.REPUL>
0

>  <SCORE.INTRA.REPUL.0>
0

>  <SCORE.INTRA.SOLV>
-0.647431

>  <SCORE.INTRA.SOLV.lig_0>
-32.2894

>  <SCORE.INTRA.VDW>
-2.54626

>  <SCORE.INTRA.VDW.0>
2.0241

>  <SCORE.INTRA.norm>
-0.12838

>  <SCORE.RESTR>
0

>  <SCORE.RESTR.CAVITY>
0

>  <SCORE.RESTR.norm>
0

>  <SCORE.SYSTEM>
0

>  <SCORE.SYSTEM.CONST>
0

>  <SCORE.SYSTEM.DIHEDRAL>
0

>  <SCORE.SYSTEM.SOLV>
0

>  <SCORE.SYSTEM.norm>
0

>  <SCORE.heavy>
12

>  <SCORE.norm>
-0.885972

>  <RMSD>
3.114

$$$$
ligand
 OpenBabel11021811513D
libRbt.so/2013.1/901 2013/11/27
 12 12  0  0  0  0  0  0  0  0999 V2000
    1.6260    4.4999  -29.4781 O   0  0  0  0  0  0  0  0  0  0  0  0
    4.0968   -1.9199  -29.0236 O   0  0  0  0  0  0  0  0  0  0  0  0
    1.9944    4.2441  -30.7812 C   0  0  0  0  0  0  0  0  0  0  0  0
    6.4693   -1.6317  -29.5083 O   0  0  0  0  0  0  0  0  0  0  0  0
    2.3074    2.8276  -31.0392 C   0  0  0  0  0  0  0  0  0  0  0  0
    4.8781   -1.8219  -31.3354 O   0  5  0  0  0  0  0  0  0  0  0  0
    3.2550    2.2900  -30.0538 N   0  3  0  0  0  0  0  0  0  0  0  0
    2.7892    2.5599  -28.7178 C   0  0  0  0  0  0  0  0  0  0  0  0
    2.4814    4.0095  -28.5318 C   0  0  0  0  0  0  0  0  0  0  0  0
    3.4326    0.8852  -30.2666 C   0  0  0  0  0  0  0  0  0  0  0  0
    4.9005    0.4959  -29.9574 C   0  0  0  0  0  0  0  0  0  0  0  0
    5.0815   -1.2995  -29.9606 S   0  0  1  0  0  0  0  0  0  0  0  0
  1  3  1  0  0  0  0
  1  9  1  0  0  0  0
  2 12  1  0  0  0  0
  3  5  1  0  0  0  0
  4 12  2  0  0  0  0
  5  7  1  0  0  0  0
  6 12  2  0  0  0  0
  7  8  1  0  0  0  0
  7 10  1  0  0  0  0
  8  9  1  0  0  0  0
 10 11  1  0  0  0  0
 12 11  1  6  0  0  0
M  CHG  2   6  -1   7   1
M  END
>  <CHROM.1>
144.67436509,170.91328835,-54.30115804,3.77280741,0.96356743,-29.89246734
-2.84865582,1.02894336,-1.86725776

>  <Name>
ligand

>  <RI>
0

>  <Rbt.Current_Directory>
/home/itssahil/PROJECTS/Mol_Feturizer/New_Systems/rnas/4P95

>  <Rbt.Executable>
rbdock ($Id: //depot/dev/client3/rdock/2013.1/src/exe/rbdock.cxx#4 $)

>  <Rbt.Library>
libRbt.so (2013.1, Build901 2013/11/27)

>  <Rbt.Parameter_File>
/export/apps/rDock/src/rDock_2013.1_src/data/scripts/dock_solv.prm

>  <Rbt.Receptor>
prm/pocket_docking_5.prm

>  <SCORE>
-10.1632

>  <SCORE.INTER>
-8.40649

>  <SCORE.INTER.CONST>
1

>  <SCORE.INTER.POLAR>
0

>  <SCORE.INTER.ROT>
3

>  <SCORE.INTER.SOLV>
5.69505

>  <SCORE.INTER.VDW>
-13.1027

>  <SCORE.INTER.norm>
-0.700541

>  <SCORE.INTRA>
-1.75669

>  <SCORE.INTRA.DIHEDRAL>
1.58577

>  <SCORE.INTRA.DIHEDRAL.0>
0.283163

>  <SCORE.INTRA.POLAR>
0

>  <SCORE.INTRA.POLAR.0>
0

>  <SCORE.INTRA.REPUL>
0

>  <SCORE.INTRA.REPUL.0>
0

>  <SCORE.INTRA.SOLV>
-0.121117

>  <SCORE.INTRA.SOLV.lig_0>
-32.2894

>  <SCORE.INTRA.VDW>
-2.48902

>  <SCORE.INTRA.VDW.0>
2.0241

>  <SCORE.INTRA.norm>
-0.146391

>  <SCORE.RESTR>
0

>  <SCORE.RESTR.CAVITY>
0

>  <SCORE.RESTR.norm>
0

>  <SCORE.SYSTEM>
0

>  <SCORE.SYSTEM.CONST>
0

>  <SCORE.SYSTEM.DIHEDRAL>
0

>  <SCORE.SYSTEM.SOLV>
0

>  <SCORE.SYSTEM.norm>
0

>  <SCORE.heavy>
12

>  <SCORE.norm>
-0.846932

>  <RMSD>
3.120

$$$$
ligand
 OpenBabel11021811513D
libRbt.so/2013.1/901 2013/11/27
 12 12  0  0  0  0  0  0  0  0999 V2000
    1.6861    4.5740  -29.4738 O   0  0  0  0  0  0  0  0  0  0  0  0
    4.0220   -1.8596  -29.0452 O   0  0  0  0  0  0  0  0  0  0  0  0
    2.1015    4.3624  -30.7707 C   0  0  0  0  0  0  0  0  0  0  0  0
    6.4066   -1.6415  -29.5063 O   0  0  0  0  0  0  0  0  0  0  0  0
    2.3995    2.9514  -31.0726 C   0  0  0  0  0  0  0  0  0  0  0  0
    4.8295   -1.7932  -31.3491 O   0  5  0  0  0  0  0  0  0  0  0  0
    3.2974    2.3573  -30.0732 N   0  3  0  0  0  0  0  0  0  0  0  0
    2.7836    2.5836  -28.7468 C   0  0  0  0  0  0  0  0  0  0  0  0
    2.4943    4.0304  -28.5151 C   0  0  0  0  0  0  0  0  0  0  0  0
    3.4585    0.9588  -30.3349 C   0  0  0  0  0  0  0  0  0  0  0  0
    4.9042    0.5284  -29.9794 C   0  0  0  0  0  0  0  0  0  0  0  0
    5.0336   -1.2714  -29.9741 S   0  0  1  0  0  0  0  0  0  0  0  0
  1  3  1  0  0  0  0
  1  9  1  0  0  0  0
  2 12  1  0  0  0  0
  3  5  1  0  0  0  0
  4 12  2  0  0  0  0
  5  7  1  0  0  0  0
  6 12  2  0  0  0  0
  7  8  1  0  0  0  0
  7 10  1  0  0  0  0
  8  9  1  0  0  0  0
 10 11  1  0  0  0  0
 12 11  1  6  0  0  0
M  CHG  2   6  -1   7   1
M  END
>  <CHROM.1>
144.88103942,168.35149984,-55.50087214,3.77462892,1.01405007,-29.90756245
-2.92946413,1.06154990,-1.76977843

>  <Name>
ligand

>  <RI>
0

>  <Rbt.Current_Directory>
/home/itssahil/PROJECTS/Mol_Feturizer/New_Systems/rnas/4P95

>  <Rbt.Executable>
rbdock ($Id: //depot/dev/client3/rdock/2013.1/src/exe/rbdock.cxx#4 $)

>  <Rbt.Library>
libRbt.so (2013.1, Build901 2013/11/27)

>  <Rbt.Parameter_File>
/export/apps/rDock/src/rDock_2013.1_src/data/scripts/dock_solv.prm

>  <Rbt.Receptor>
prm/pocket_docking_6.prm

>  <SCORE>
-10.2121

>  <SCORE.INTER>
-8.5316

>  <SCORE.INTER.CONST>
1

>  <SCORE.INTER.POLAR>
0

>  <SCORE.INTER.ROT>
3

>  <SCORE.INTER.SOLV>
5.77696

>  <SCORE.INTER.VDW>
-13.2134

>  <SCORE.INTER.norm>
-0.710967

>  <SCORE.INTRA>
-1.6805

>  <SCORE.INTRA.DIHEDRAL>
1.73049

>  <SCORE.INTRA.DIHEDRAL.0>
0.283163

>  <SCORE.INTRA.POLAR>
0

>  <SCORE.INTRA.POLAR.0>
0

>  <SCORE.INTRA.REPUL>
0

>  <SCORE.INTRA.REPUL.0>
0

>  <SCORE.INTRA.SOLV>
-0.107328

>  <SCORE.INTRA.SOLV.lig_0>
-32.2894

>  <SCORE.INTRA.VDW>
-2.49208

>  <SCORE.INTRA.VDW.0>
2.0241

>  <SCORE.INTRA.norm>
-0.140041

>  <SCORE.RESTR>
0

>  <SCORE.RESTR.CAVITY>
0

>  <SCORE.RESTR.norm>
0

>  <SCORE.SYSTEM>
0

>  <SCORE.SYSTEM.CONST>
0

>  <SCORE.SYSTEM.DIHEDRAL>
0

>  <SCORE.SYSTEM.SOLV>
0

>  <SCORE.SYSTEM.norm>
0

>  <SCORE.heavy>
12

>  <SCORE.norm>
-0.851008

>  <RMSD>
3.126

$$$$
ligand
 OpenBabel11021811513D
libRbt.so/2013.1/901 2013/11/27
 12 12  0  0  0  0  0  0  0  0999 V2000
    0.7297    2.7510  -27.8728 O   0  0  0  0  0  0  0  0  0  0  0  0
    3.4599   -0.2889  -31.8005 O   0  0  0  0  0  0  0  0  0  0  0  0
    1.9580    3.1601  -27.4003 C   0  0  0  0  0  0  0  0  0  0  0  0
    3.6622   -0.6331  -29.3949 O   0  0  0  0  0  0  0  0  0  0  0  0
    2.9669    3.3424  -28.4585 C   0  0  0  0  0  0  0  0  0  0  0  0
    5.5049   -1.2365  -30.8600 O   0  5  0  0  0  0  0  0  0  0  0  0
    3.0476    2.1723  -29.3430 N   0  3  0  0  0  0  0  0  0  0  0  0
    1.7366    1.8247  -29.8280 C   0  0  0  0  0  0  0  0  0  0  0  0
    0.7653    1.6671  -28.7044 C   0  0  0  0  0  0  0  0  0  0  0  0
    3.9457    2.4421  -30.4251 C   0  0  0  0  0  0  0  0  0  0  0  0
    5.0852    1.3918  -30.4266 C   0  0  0  0  0  0  0  0  0  0  0  0
    4.4034   -0.2650  -30.6423 S   0  0  1  0  0  0  0  0  0  0  0  0
  1  3  1  0  0  0  0
  1  9  1  0  0  0  0
  2 12  1  0  0  0  0
  3  5  1  0  0  0  0
  4 12  2  0  0  0  0
  5  7  1  0  0  0  0
  6 12  2  0  0  0  0
  7  8  1  0  0  0  0
  7 10  1  0  0  0  0
  8  9  1  0  0  0  0
 10 11  1  0  0  0  0
 12 11  1  1  0  0  0
M  CHG  2   6  -1   7   1
M  END
>  <CHROM.1>
121.81971823,60.56342213,49.51225126,3.23544855,1.16038949,-29.70917107,2.26214132
0.36538141,0.39508590

>  <Name>
ligand

>  <RI>
0

>  <Rbt.Current_Directory>
/home/itssahil/PROJECTS/Mol_Feturizer/New_Systems/rnas/4P95

>  <Rbt.Executable>
rbdock ($Id: //depot/dev/client3/rdock/2013.1/src/exe/rbdock.cxx#4 $)

>  <Rbt.Library>
libRbt.so (2013.1, Build901 2013/11/27)

>  <Rbt.Parameter_File>
/export/apps/rDock/src/rDock_2013.1_src/data/scripts/dock_solv.prm

>  <Rbt.Receptor>
prm/pocket_docking_3.prm

>  <SCORE>
-10.2509

>  <SCORE.INTER>
-7.89189

>  <SCORE.INTER.CONST>
1

>  <SCORE.INTER.POLAR>
0

>  <SCORE.INTER.ROT>
3

>  <SCORE.INTER.SOLV>
5.99718

>  <SCORE.INTER.VDW>
-12.8603

>  <SCORE.INTER.norm>
-0.657657

>  <SCORE.INTRA>
-2.35906

>  <SCORE.INTRA.DIHEDRAL>
2.33447

>  <SCORE.INTRA.DIHEDRAL.0>
0.283163

>  <SCORE.INTRA.POLAR>
0

>  <SCORE.INTRA.POLAR.0>
0

>  <SCORE.INTRA.REPUL>
0

>  <SCORE.INTRA.REPUL.0>
0

>  <SCORE.INTRA.SOLV>
0.0674199

>  <SCORE.INTRA.SOLV.lig_0>
-32.2894

>  <SCORE.INTRA.VDW>
-3.56001

>  <SCORE.INTRA.VDW.0>
2.0241

>  <SCORE.INTRA.norm>
-0.196588

>  <SCORE.RESTR>
0

>  <SCORE.RESTR.CAVITY>
0

>  <SCORE.RESTR.norm>
0

>  <SCORE.SYSTEM>
0

>  <SCORE.SYSTEM.CONST>
0

>  <SCORE.SYSTEM.DIHEDRAL>
0

>  <SCORE.SYSTEM.SOLV>
0

>  <SCORE.SYSTEM.norm>
0

>  <SCORE.heavy>
12

>  <SCORE.norm>
-0.854246

>  <RMSD>
3.134

$$$$
ligand
 OpenBabel11021811513D
libRbt.so/2013.1/901 2013/11/27
 12 12  0  0  0  0  0  0  0  0999 V2000
    1.4451    4.3326  -28.8111 O   0  0  0  0  0  0  0  0  0  0  0  0
    3.5204   -0.1920  -29.7227 O   0  0  0  0  0  0  0  0  0  0  0  0
    1.9903    3.3311  -28.0371 C   0  0  0  0  0  0  0  0  0  0  0  0
    5.9169   -0.6073  -29.8992 O   0  0  0  0  0  0  0  0  0  0  0  0
    3.3699    2.9776  -28.4149 C   0  0  0  0  0  0  0  0  0  0  0  0
    4.4555   -1.1594  -31.7609 O   0  5  0  0  0  0  0  0  0  0  0  0
    3.4935    2.7267  -29.8570 N   0  3  0  0  0  0  0  0  0  0  0  0
    2.9389    3.8275  -30.6022 C   0  0  0  0  0  0  0  0  0  0  0  0
    1.5463    4.1369  -30.1598 C   0  0  0  0  0  0  0  0  0  0  0  0
    4.8677    2.5111  -30.1968 C   0  0  0  0  0  0  0  0  0  0  0  0
    4.9625    1.4531  -31.3252 C   0  0  0  0  0  0  0  0  0  0  0  0
    4.6896   -0.1991  -30.6529 S   0  0  1  0  0  0  0  0  0  0  0  0
  1  3  1  0  0  0  0
  1  9  1  0  0  0  0
  2 12  1  0  0  0  0
  3  5  1  0  0  0  0
  4 12  2  0  0  0  0
  5  7  1  0  0  0  0
  6 12  2  0  0  0  0
  7  8  1  0  0  0  0
  7 10  1  0  0  0  0
  8  9  1  0  0  0  0
 10 11  1  0  0  0  0
 12 11  1  6  0  0  0
M  CHG  2   6  -1   7   1
M  END
>  <CHROM.1>
144.65375777,-76.21466157,44.92616524,3.71046322,1.67640899,-30.02213912
2.79492188,0.98697323,-0.81545263

>  <Name>
ligand

>  <RI>
0

>  <Rbt.Current_Directory>
/home/itssahil/PROJECTS/Mol_Feturizer/New_Systems/rnas/4P95

>  <Rbt.Executable>
rbdock ($Id: //depot/dev/client3/rdock/2013.1/src/exe/rbdock.cxx#4 $)

>  <Rbt.Library>
libRbt.so (2013.1, Build901 2013/11/27)

>  <Rbt.Parameter_File>
/export/apps/rDock/src/rDock_2013.1_src/data/scripts/dock_solv.prm

>  <Rbt.Receptor>
prm/pocket_docking_3.prm

>  <SCORE>
-10.0824

>  <SCORE.INTER>
-8.00924

>  <SCORE.INTER.CONST>
1

>  <SCORE.INTER.POLAR>
0

>  <SCORE.INTER.ROT>
3

>  <SCORE.INTER.SOLV>
5.39066

>  <SCORE.INTER.VDW>
-12.7364

>  <SCORE.INTER.norm>
-0.667437

>  <SCORE.INTRA>
-2.07397

>  <SCORE.INTRA.DIHEDRAL>
2.60393

>  <SCORE.INTRA.DIHEDRAL.0>
0.283163

>  <SCORE.INTRA.POLAR>
0

>  <SCORE.INTRA.POLAR.0>
0

>  <SCORE.INTRA.REPUL>
0

>  <SCORE.INTRA.REPUL.0>
0

>  <SCORE.INTRA.SOLV>
-0.590809

>  <SCORE.INTRA.SOLV.lig_0>
-32.2894

>  <SCORE.INTRA.VDW>
-3.08054

>  <SCORE.INTRA.VDW.0>
2.0241

>  <SCORE.INTRA.norm>
-0.172831

>  <SCORE.RESTR>
0.000806185

>  <SCORE.RESTR.CAVITY>
0.000806185

>  <SCORE.RESTR.norm>
6.71821e-05

>  <SCORE.SYSTEM>
0

>  <SCORE.SYSTEM.CONST>
0

>  <SCORE.SYSTEM.DIHEDRAL>
0

>  <SCORE.SYSTEM.SOLV>
0

>  <SCORE.SYSTEM.norm>
0

>  <SCORE.heavy>
12

>  <SCORE.norm>
-0.840201

>  <RMSD>
3.143

$$$$
ligand
 OpenBabel11021811513D
libRbt.so/2013.1/901 2013/11/27
 12 12  0  0  0  0  0  0  0  0999 V2000
    1.9086    4.5611  -29.2052 O   0  0  0  0  0  0  0  0  0  0  0  0
    2.3437   -0.0082  -30.3038 O   0  0  0  0  0  0  0  0  0  0  0  0
    2.3499    3.6006  -28.3210 C   0  0  0  0  0  0  0  0  0  0  0  0
    3.8733   -1.9074  -30.3053 O   0  0  0  0  0  0  0  0  0  0  0  0
    3.6129    2.9597  -28.7272 C   0  0  0  0  0  0  0  0  0  0  0  0
    3.7624   -0.4450  -32.2433 O   0  5  0  0  0  0  0  0  0  0  0  0
    3.5627    2.4872  -30.1172 N   0  3  0  0  0  0  0  0  0  0  0  0
    3.1310    3.5502  -30.9880 C   0  0  0  0  0  0  0  0  0  0  0  0
    1.8538    4.1597  -30.5103 C   0  0  0  0  0  0  0  0  0  0  0  0
    4.8465    1.9871  -30.5072 C   0  0  0  0  0  0  0  0  0  0  0  0
    4.9918    0.5155  -30.0437 C   0  0  0  0  0  0  0  0  0  0  0  0
    3.6802   -0.4948  -30.7616 S   0  0  1  0  0  0  0  0  0  0  0  0
  1  3  1  0  0  0  0
  1  9  1  0  0  0  0
  2 12  1  0  0  0  0
  3  5  1  0  0  0  0
  4 12  2  0  0  0  0
  5  7  1  0  0  0  0
  6 12  2  0  0  0  0
  7  8  1  0  0  0  0
  7 10  1  0  0  0  0
  8  9  1  0  0  0  0
 10 11  1  0  0  0  0
 12 11  1  1  0  0  0
M  CHG  2   6  -1   7   1
M  END
>  <CHROM.1>
83.89919132,58.45174647,-61.47301869,3.34483096,1.49027026,-30.23848283,2.34004154
-1.18401731,1.00903075

>  <Name>
ligand

>  <RI>
0

>  <Rbt.Current_Directory>
/home/itssahil/PROJECTS/Mol_Feturizer/New_Systems/rnas/4P95

>  <Rbt.Executable>
rbdock ($Id: //depot/dev/client3/rdock/2013.1/src/exe/rbdock.cxx#4 $)

>  <Rbt.Library>
libRbt.so (2013.1, Build901 2013/11/27)

>  <Rbt.Parameter_File>
/export/apps/rDock/src/rDock_2013.1_src/data/scripts/dock_solv.prm

>  <Rbt.Receptor>
prm/pocket_docking_4.prm

>  <SCORE>
-9.82703

>  <SCORE.INTER>
-7.74175

>  <SCORE.INTER.CONST>
1

>  <SCORE.INTER.POLAR>
0

>  <SCORE.INTER.ROT>
3

>  <SCORE.INTER.SOLV>
5.18082

>  <SCORE.INTER.VDW>
-12.4881

>  <SCORE.INTER.norm>
-0.645146

>  <SCORE.INTRA>
-2.08528

>  <SCORE.INTRA.DIHEDRAL>
0.619306

>  <SCORE.INTRA.DIHEDRAL.0>
0.283163

>  <SCORE.INTRA.POLAR>
0

>  <SCORE.INTRA.POLAR.0>
0

>  <SCORE.INTRA.REPUL>
0

>  <SCORE.INTRA.REPUL.0>
0

>  <SCORE.INTRA.SOLV>
1.2299

>  <SCORE.INTRA.SOLV.lig_0>
-32.2894

>  <SCORE.INTRA.VDW>
-3.00988

>  <SCORE.INTRA.VDW.0>
2.0241

>  <SCORE.INTRA.norm>
-0.173773

>  <SCORE.RESTR>
0

>  <SCORE.RESTR.CAVITY>
0

>  <SCORE.RESTR.norm>
0

>  <SCORE.SYSTEM>
0

>  <SCORE.SYSTEM.CONST>
0

>  <SCORE.SYSTEM.DIHEDRAL>
0

>  <SCORE.SYSTEM.SOLV>
0

>  <SCORE.SYSTEM.norm>
0

>  <SCORE.heavy>
12

>  <SCORE.norm>
-0.818919

>  <RMSD>
3.143

$$$$
ligand
 OpenBabel11021811513D
libRbt.so/2013.1/901 2013/11/27
 12 12  0  0  0  0  0  0  0  0999 V2000
    0.5941    2.5132  -28.1786 O   0  0  0  0  0  0  0  0  0  0  0  0
    5.4002    2.9101  -32.8286 O   0  0  0  0  0  0  0  0  0  0  0  0
    1.5902    3.0633  -27.4012 C   0  0  0  0  0  0  0  0  0  0  0  0
    3.5066    1.3969  -32.5615 O   0  0  0  0  0  0  0  0  0  0  0  0
    2.7816    3.4685  -28.1676 C   0  0  0  0  0  0  0  0  0  0  0  0
    5.7519    0.4937  -32.7838 O   0  5  0  0  0  0  0  0  0  0  0  0
    3.2598    2.3903  -29.0433 N   0  3  0  0  0  0  0  0  0  0  0  0
    2.1777    1.8897  -29.8514 C   0  0  0  0  0  0  0  0  0  0  0  0
    1.0025    1.5097  -29.0115 C   0  0  0  0  0  0  0  0  0  0  0  0
    4.3368    2.8672  -29.8575 C   0  0  0  0  0  0  0  0  0  0  0  0
    5.1208    1.6625  -30.4370 C   0  0  0  0  0  0  0  0  0  0  0  0
    4.9506    1.6157  -32.2329 S   0  0  1  0  0  0  0  0  0  0  0  0
  1  3  1  0  0  0  0
  1  9  1  0  0  0  0
  2 12  1  0  0  0  0
  3  5  1  0  0  0  0
  4 12  2  0  0  0  0
  5  7  1  0  0  0  0
  6 12  2  0  0  0  0
  7  8  1  0  0  0  0
  7 10  1  0  0  0  0
  8  9  1  0  0  0  0
 10 11  1  0  0  0  0
 12 11  1  1  0  0  0
M  CHG  2   6  -1   7   1
M  END
>  <CHROM.1>
162.31960601,114.80371260,56.09695499,3.53713331,2.08591398,-30.44200584
2.32549725,0.37169995,1.00230695

>  <Name>
ligand

>  <RI>
0

>  <Rbt.Current_Directory>
/home/itssahil/PROJECTS/Mol_Feturizer/New_Systems/rnas/4P95

>  <Rbt.Executable>
rbdock ($Id: //depot/dev/client3/rdock/2013.1/src/exe/rbdock.cxx#4 $)

>  <Rbt.Library>
libRbt.so (2013.1, Build901 2013/11/27)

>  <Rbt.Parameter_File>
/export/apps/rDock/src/rDock_2013.1_src/data/scripts/dock_solv.prm

>  <Rbt.Receptor>
prm/pocket_docking_3.prm

>  <SCORE>
-7.98656

>  <SCORE.INTER>
-8.42389

>  <SCORE.INTER.CONST>
1

>  <SCORE.INTER.POLAR>
0

>  <SCORE.INTER.ROT>
3

>  <SCORE.INTER.SOLV>
5.92041

>  <SCORE.INTER.VDW>
-13.1894

>  <SCORE.INTER.norm>
-0.701991

>  <SCORE.INTRA>
0.437329

>  <SCORE.INTRA.DIHEDRAL>
5.58667

>  <SCORE.INTRA.DIHEDRAL.0>
0.283163

>  <SCORE.INTRA.POLAR>
0

>  <SCORE.INTRA.POLAR.0>
0

>  <SCORE.INTRA.REPUL>
0

>  <SCORE.INTRA.REPUL.0>
0

>  <SCORE.INTRA.SOLV>
-0.278037

>  <SCORE.INTRA.SOLV.lig_0>
-32.2894

>  <SCORE.INTRA.VDW>
-2.21699

>  <SCORE.INTRA.VDW.0>
2.0241

>  <SCORE.INTRA.norm>
0.0364441

>  <SCORE.RESTR>
0

>  <SCORE.RESTR.CAVITY>
0

>  <SCORE.RESTR.norm>
0

>  <SCORE.SYSTEM>
0

>  <SCORE.SYSTEM.CONST>
0

>  <SCORE.SYSTEM.DIHEDRAL>
0

>  <SCORE.SYSTEM.SOLV>
0

>  <SCORE.SYSTEM.norm>
0

>  <SCORE.heavy>
12

>  <SCORE.norm>
-0.665547

>  <RMSD>
3.168

$$$$
ligand
 OpenBabel11021811513D
libRbt.so/2013.1/901 2013/11/27
 12 12  0  0  0  0  0  0  0  0999 V2000
    1.7300    4.5494  -28.9081 O   0  0  0  0  0  0  0  0  0  0  0  0
    6.2396   -0.2853  -30.0351 O   0  0  0  0  0  0  0  0  0  0  0  0
    2.1340    4.3459  -30.2099 C   0  0  0  0  0  0  0  0  0  0  0  0
    5.1188    1.8624  -30.3135 O   0  0  0  0  0  0  0  0  0  0  0  0
    1.9913    2.9506  -30.6612 C   0  0  0  0  0  0  0  0  0  0  0  0
    4.9413    0.1737  -32.0521 O   0  5  0  0  0  0  0  0  0  0  0  0
    2.5967    2.0058  -29.7131 N   0  3  0  0  0  0  0  0  0  0  0  0
    2.1023    2.2515  -28.3827 C   0  0  0  0  0  0  0  0  0  0  0  0
    2.2685    3.6848  -27.9970 C   0  0  0  0  0  0  0  0  0  0  0  0
    2.3259    0.6619  -30.1264 C   0  0  0  0  0  0  0  0  0  0  0  0
    3.5397   -0.2394  -29.7857 C   0  0  0  0  0  0  0  0  0  0  0  0
    5.0280    0.3933  -30.5863 S   0  0  1  0  0  0  0  0  0  0  0  0
  1  3  1  0  0  0  0
  1  9  1  0  0  0  0
  2 12  1  0  0  0  0
  3  5  1  0  0  0  0
  4 12  2  0  0  0  0
  5  7  1  0  0  0  0
  6 12  2  0  0  0  0
  7  8  1  0  0  0  0
  7 10  1  0  0  0  0
  8  9  1  0  0  0  0
 10 11  1  0  0  0  0
 12 11  1  1  0  0  0
M  CHG  2   6  -1   7   1
M  END
>  <CHROM.1>
144.88823766,-57.74646285,167.89312484,3.53960684,1.71473217,-29.97899818
-2.69251083,-0.77958979,2.57931517

>  <Name>
ligand

>  <RI>
0

>  <Rbt.Current_Directory>
/home/itssahil/PROJECTS/Mol_Feturizer/New_Systems/rnas/4P95

>  <Rbt.Executable>
rbdock ($Id: //depot/dev/client3/rdock/2013.1/src/exe/rbdock.cxx#4 $)

>  <Rbt.Library>
libRbt.so (2013.1, Build901 2013/11/27)

>  <Rbt.Parameter_File>
/export/apps/rDock/src/rDock_2013.1_src/data/scripts/dock_solv.prm

>  <Rbt.Receptor>
prm/pocket_docking_3.prm

>  <SCORE>
-8.8196

>  <SCORE.INTER>
-7.63747

>  <SCORE.INTER.CONST>
1

>  <SCORE.INTER.POLAR>
0

>  <SCORE.INTER.ROT>
3

>  <SCORE.INTER.SOLV>
5.30731

>  <SCORE.INTER.VDW>
-12.4607

>  <SCORE.INTER.norm>
-0.636456

>  <SCORE.INTRA>
-1.18213

>  <SCORE.INTRA.DIHEDRAL>
1.49779

>  <SCORE.INTRA.DIHEDRAL.0>
0.283163

>  <SCORE.INTRA.POLAR>
0

>  <SCORE.INTRA.POLAR.0>
0

>  <SCORE.INTRA.REPUL>
0

>  <SCORE.INTRA.REPUL.0>
0

>  <SCORE.INTRA.SOLV>
2.13361

>  <SCORE.INTRA.SOLV.lig_0>
-32.2894

>  <SCORE.INTRA.VDW>
-2.99783

>  <SCORE.INTRA.VDW.0>
2.0241

>  <SCORE.INTRA.norm>
-0.0985107

>  <SCORE.RESTR>
0

>  <SCORE.RESTR.CAVITY>
0

>  <SCORE.RESTR.norm>
0

>  <SCORE.SYSTEM>
0

>  <SCORE.SYSTEM.CONST>
0

>  <SCORE.SYSTEM.DIHEDRAL>
0

>  <SCORE.SYSTEM.SOLV>
0

>  <SCORE.SYSTEM.norm>
0

>  <SCORE.heavy>
12

>  <SCORE.norm>
-0.734966

>  <RMSD>
3.179

$$$$
ligand
 OpenBabel11021811513D
libRbt.so/2013.1/901 2013/11/27
 12 12  0  0  0  0  0  0  0  0999 V2000
    1.4284    4.3278  -28.7291 O   0  0  0  0  0  0  0  0  0  0  0  0
    3.6045   -0.1508  -29.6502 O   0  0  0  0  0  0  0  0  0  0  0  0
    1.9823    3.3191  -27.9708 C   0  0  0  0  0  0  0  0  0  0  0  0
    5.9975   -0.5474  -29.9007 O   0  0  0  0  0  0  0  0  0  0  0  0
    3.3673    2.9884  -28.3493 C   0  0  0  0  0  0  0  0  0  0  0  0
    4.4869   -1.0849  -31.7271 O   0  5  0  0  0  0  0  0  0  0  0  0
    3.4993    2.7646  -29.7952 N   0  3  0  0  0  0  0  0  0  0  0  0
    2.9347    3.8719  -30.5229 C   0  0  0  0  0  0  0  0  0  0  0  0
    1.5369    4.1572  -30.0806 C   0  0  0  0  0  0  0  0  0  0  0  0
    4.8772    2.5711  -30.1332 C   0  0  0  0  0  0  0  0  0  0  0  0
    4.9893    1.5251  -31.2712 C   0  0  0  0  0  0  0  0  0  0  0  0
    4.7465   -0.1377  -30.6135 S   0  0  1  0  0  0  0  0  0  0  0  0
  1  3  1  0  0  0  0
  1  9  1  0  0  0  0
  2 12  1  0  0  0  0
  3  5  1  0  0  0  0
  4 12  2  0  0  0  0
  5  7  1  0  0  0  0
  6 12  2  0  0  0  0
  7  8  1  0  0  0  0
  7 10  1  0  0  0  0
  8  9  1  0  0  0  0
 10 11  1  0  0  0  0
 12 11  1  6  0  0  0
M  CHG  2   6  -1   7   1
M  END
>  <CHROM.1>
144.15437708,-76.52684989,43.20558204,3.73592069,1.71746804,-29.96633849
2.79780319,0.97117314,-0.80324779

>  <Name>
ligand

>  <RI>
0

>  <Rbt.Current_Directory>
/home/itssahil/PROJECTS/Mol_Feturizer/New_Systems/rnas/4P95

>  <Rbt.Executable>
rbdock ($Id: //depot/dev/client3/rdock/2013.1/src/exe/rbdock.cxx#4 $)

>  <Rbt.Library>
libRbt.so (2013.1, Build901 2013/11/27)

>  <Rbt.Parameter_File>
/export/apps/rDock/src/rDock_2013.1_src/data/scripts/dock_solv.prm

>  <Rbt.Receptor>
prm/pocket_docking_3.prm

>  <SCORE>
-10.0653

>  <SCORE.INTER>
-8.08706

>  <SCORE.INTER.CONST>
1

>  <SCORE.INTER.POLAR>
0

>  <SCORE.INTER.ROT>
3

>  <SCORE.INTER.SOLV>
5.53905

>  <SCORE.INTER.VDW>
-12.8377

>  <SCORE.INTER.norm>
-0.673922

>  <SCORE.INTRA>
-1.97829

>  <SCORE.INTRA.DIHEDRAL>
2.78454

>  <SCORE.INTRA.DIHEDRAL.0>
0.283163

>  <SCORE.INTRA.POLAR>
0

>  <SCORE.INTRA.POLAR.0>
0

>  <SCORE.INTRA.REPUL>
0

>  <SCORE.INTRA.REPUL.0>
0

>  <SCORE.INTRA.SOLV>
-0.587085

>  <SCORE.INTRA.SOLV.lig_0>
-32.2894

>  <SCORE.INTRA.VDW>
-3.07702

>  <SCORE.INTRA.VDW.0>
2.0241

>  <SCORE.INTRA.norm>
-0.164857

>  <SCORE.RESTR>
0

>  <SCORE.RESTR.CAVITY>
0

>  <SCORE.RESTR.norm>
0

>  <SCORE.SYSTEM>
0

>  <SCORE.SYSTEM.CONST>
0

>  <SCORE.SYSTEM.DIHEDRAL>
0

>  <SCORE.SYSTEM.SOLV>
0

>  <SCORE.SYSTEM.norm>
0

>  <SCORE.heavy>
12

>  <SCORE.norm>
-0.838779

>  <RMSD>
3.180

$$$$
ligand
 OpenBabel11021811513D
libRbt.so/2013.1/901 2013/11/27
 12 12  0  0  0  0  0  0  0  0999 V2000
    2.0393    4.8811  -29.3687 O   0  0  0  0  0  0  0  0  0  0  0  0
    6.2693   -0.9331  -28.7535 O   0  0  0  0  0  0  0  0  0  0  0  0
    2.0752    3.8803  -28.4220 C   0  0  0  0  0  0  0  0  0  0  0  0
    6.8687    0.0053  -30.9230 O   0  0  0  0  0  0  0  0  0  0  0  0
    3.2466    2.9948  -28.5429 C   0  0  0  0  0  0  0  0  0  0  0  0
    5.5746   -2.0488  -30.8120 O   0  5  0  0  0  0  0  0  0  0  0  0
    3.4168    2.4994  -29.9153 N   0  3  0  0  0  0  0  0  0  0  0  0
    3.4072    3.5993  -30.8453 C   0  0  0  0  0  0  0  0  0  0  0  0
    2.2001    4.4588  -30.6584 C   0  0  0  0  0  0  0  0  0  0  0  0
    4.6320    1.7484  -30.0136 C   0  0  0  0  0  0  0  0  0  0  0  0
    4.2990    0.2459  -30.1963 C   0  0  0  0  0  0  0  0  0  0  0  0
    5.8132   -0.7351  -30.1625 S   0  0  1  0  0  0  0  0  0  0  0  0
  1  3  1  0  0  0  0
  1  9  1  0  0  0  0
  2 12  1  0  0  0  0
  3  5  1  0  0  0  0
  4 12  2  0  0  0  0
  5  7  1  0  0  0  0
  6 12  2  0  0  0  0
  7  8  1  0  0  0  0
  7 10  1  0  0  0  0
  8  9  1  0  0  0  0
 10 11  1  0  0  0  0
 12 11  1  6  0  0  0
M  CHG  2   6  -1   7   1
M  END
>  <CHROM.1>
109.69415811,-174.55530096,79.03900679,4.34969714,1.43828877,-29.91350220
2.94696507,0.95105157,-1.21184797

>  <Name>
ligand

>  <RI>
0

>  <Rbt.Current_Directory>
/home/itssahil/PROJECTS/Mol_Feturizer/New_Systems/rnas/4P95

>  <Rbt.Executable>
rbdock ($Id: //depot/dev/client3/rdock/2013.1/src/exe/rbdock.cxx#4 $)

>  <Rbt.Library>
libRbt.so (2013.1, Build901 2013/11/27)

>  <Rbt.Parameter_File>
/export/apps/rDock/src/rDock_2013.1_src/data/scripts/dock_solv.prm

>  <Rbt.Receptor>
prm/pocket_docking_6.prm

>  <SCORE>
-10.6731

>  <SCORE.INTER>
-9.27753

>  <SCORE.INTER.CONST>
1

>  <SCORE.INTER.POLAR>
0

>  <SCORE.INTER.ROT>
3

>  <SCORE.INTER.SOLV>
6.2846

>  <SCORE.INTER.VDW>
-13.8799

>  <SCORE.INTER.norm>
-0.773127

>  <SCORE.INTRA>
-1.39559

>  <SCORE.INTRA.DIHEDRAL>
2.96845

>  <SCORE.INTRA.DIHEDRAL.0>
0.283163

>  <SCORE.INTRA.POLAR>
0

>  <SCORE.INTRA.POLAR.0>
0

>  <SCORE.INTRA.REPUL>
0

>  <SCORE.INTRA.REPUL.0>
0

>  <SCORE.INTRA.SOLV>
-0.641409

>  <SCORE.INTRA.SOLV.lig_0>
-32.2894

>  <SCORE.INTRA.VDW>
-2.55911

>  <SCORE.INTRA.VDW.0>
2.0241

>  <SCORE.INTRA.norm>
-0.116299

>  <SCORE.RESTR>
0

>  <SCORE.RESTR.CAVITY>
0

>  <SCORE.RESTR.norm>
0

>  <SCORE.SYSTEM>
0

>  <SCORE.SYSTEM.CONST>
0

>  <SCORE.SYSTEM.DIHEDRAL>
0

>  <SCORE.SYSTEM.SOLV>
0

>  <SCORE.SYSTEM.norm>
0

>  <SCORE.heavy>
12

>  <SCORE.norm>
-0.889426

>  <RMSD>
3.194

$$$$
ligand
 OpenBabel11021811513D
libRbt.so/2013.1/901 2013/11/27
 12 12  0  0  0  0  0  0  0  0999 V2000
    0.6820    3.4223  -26.9811 O   0  0  0  0  0  0  0  0  0  0  0  0
    6.0245    0.9922  -30.9220 O   0  0  0  0  0  0  0  0  0  0  0  0
    2.0212    3.3357  -26.6674 C   0  0  0  0  0  0  0  0  0  0  0  0
    4.2494    0.4415  -32.5007 O   0  0  0  0  0  0  0  0  0  0  0  0
    2.8819    3.0458  -27.8276 C   0  0  0  0  0  0  0  0  0  0  0  0
    5.3461   -1.3308  -31.2506 O   0  5  0  0  0  0  0  0  0  0  0  0
    2.3920    1.8938  -28.5962 N   0  3  0  0  0  0  0  0  0  0  0  0
    0.9996    2.0688  -28.9207 C   0  0  0  0  0  0  0  0  0  0  0  0
    0.1909    2.3701  -27.7017 C   0  0  0  0  0  0  0  0  0  0  0  0
    3.1825    1.7267  -29.7784 C   0  0  0  0  0  0  0  0  0  0  0  0
    3.6258    0.2467  -29.9002 C   0  0  0  0  0  0  0  0  0  0  0  0
    4.8753    0.0761  -31.1909 S   0  0  1  0  0  0  0  0  0  0  0  0
  1  3  1  0  0  0  0
  1  9  1  0  0  0  0
  2 12  1  0  0  0  0
  3  5  1  0  0  0  0
  4 12  2  0  0  0  0
  5  7  1  0  0  0  0
  6 12  2  0  0  0  0
  7  8  1  0  0  0  0
  7 10  1  0  0  0  0
  8  9  1  0  0  0  0
 10 11  1  0  0  0  0
 12 11  1  1  0  0  0
M  CHG  2   6  -1   7   1
M  END
>  <CHROM.1>
130.96602255,-169.04262732,55.50018923,3.25191063,1.36346934,-29.56689448
-2.23331024,-0.05544740,-2.26192404

>  <Name>
ligand

>  <RI>
0

>  <Rbt.Current_Directory>
/home/itssahil/PROJECTS/Mol_Feturizer/New_Systems/rnas/4P95

>  <Rbt.Executable>
rbdock ($Id: //depot/dev/client3/rdock/2013.1/src/exe/rbdock.cxx#4 $)

>  <Rbt.Library>
libRbt.so (2013.1, Build901 2013/11/27)

>  <Rbt.Parameter_File>
/export/apps/rDock/src/rDock_2013.1_src/data/scripts/dock_solv.prm

>  <Rbt.Receptor>
prm/pocket_docking_4.prm

>  <SCORE>
-9.97494

>  <SCORE.INTER>
-8.12595

>  <SCORE.INTER.CONST>
1

>  <SCORE.INTER.POLAR>
0

>  <SCORE.INTER.ROT>
3

>  <SCORE.INTER.SOLV>
5.58746

>  <SCORE.INTER.VDW>
-12.8798

>  <SCORE.INTER.norm>
-0.677163

>  <SCORE.INTRA>
-1.84899

>  <SCORE.INTRA.DIHEDRAL>
2.36147

>  <SCORE.INTRA.DIHEDRAL.0>
0.283163

>  <SCORE.INTRA.POLAR>
0

>  <SCORE.INTRA.POLAR.0>
0

>  <SCORE.INTRA.REPUL>
0

>  <SCORE.INTRA.REPUL.0>
0

>  <SCORE.INTRA.SOLV>
-0.725624

>  <SCORE.INTRA.SOLV.lig_0>
-32.2894

>  <SCORE.INTRA.VDW>
-2.66691

>  <SCORE.INTRA.VDW.0>
2.0241

>  <SCORE.INTRA.norm>
-0.154082

>  <SCORE.RESTR>
0

>  <SCORE.RESTR.CAVITY>
0

>  <SCORE.RESTR.norm>
0

>  <SCORE.SYSTEM>
0

>  <SCORE.SYSTEM.CONST>
0

>  <SCORE.SYSTEM.DIHEDRAL>
0

>  <SCORE.SYSTEM.SOLV>
0

>  <SCORE.SYSTEM.norm>
0

>  <SCORE.heavy>
12

>  <SCORE.norm>
-0.831245

>  <RMSD>
3.197

$$$$
ligand
 OpenBabel11021811513D
libRbt.so/2013.1/901 2013/11/27
 12 12  0  0  0  0  0  0  0  0999 V2000
    1.7187    4.5791  -28.8929 O   0  0  0  0  0  0  0  0  0  0  0  0
    6.2388   -0.2482  -29.9935 O   0  0  0  0  0  0  0  0  0  0  0  0
    2.0591    4.3854  -30.2143 C   0  0  0  0  0  0  0  0  0  0  0  0
    5.1235    1.8900  -30.3549 O   0  0  0  0  0  0  0  0  0  0  0  0
    1.9217    2.9880  -30.6607 C   0  0  0  0  0  0  0  0  0  0  0  0
    4.9632    0.1449  -32.0387 O   0  5  0  0  0  0  0  0  0  0  0  0
    2.5942    2.0546  -29.7472 N   0  3  0  0  0  0  0  0  0  0  0  0
    2.1641    2.2886  -28.3926 C   0  0  0  0  0  0  0  0  0  0  0  0
    2.3210    3.7246  -28.0127 C   0  0  0  0  0  0  0  0  0  0  0  0
    2.3297    0.7059  -30.1490 C   0  0  0  0  0  0  0  0  0  0  0  0
    3.5364   -0.1919  -29.7754 C   0  0  0  0  0  0  0  0  0  0  0  0
    5.0340    0.4129  -30.5800 S   0  0  1  0  0  0  0  0  0  0  0  0
  1  3  1  0  0  0  0
  1  9  1  0  0  0  0
  2 12  1  0  0  0  0
  3  5  1  0  0  0  0
  4 12  2  0  0  0  0
  5  7  1  0  0  0  0
  6 12  2  0  0  0  0
  7  8  1  0  0  0  0
  7 10  1  0  0  0  0
  8  9  1  0  0  0  0
 10 11  1  0  0  0  0
 12 11  1  1  0  0  0
M  CHG  2   6  -1   7   1
M  END
>  <CHROM.1>
149.13882185,-58.75077202,167.39615341,3.53948051,1.74459788,-29.98106970
-2.90024251,-0.84889106,2.28629705

>  <Name>
ligand

>  <RI>
0

>  <Rbt.Current_Directory>
/home/itssahil/PROJECTS/Mol_Feturizer/New_Systems/rnas/4P95

>  <Rbt.Executable>
rbdock ($Id: //depot/dev/client3/rdock/2013.1/src/exe/rbdock.cxx#4 $)

>  <Rbt.Library>
libRbt.so (2013.1, Build901 2013/11/27)

>  <Rbt.Parameter_File>
/export/apps/rDock/src/rDock_2013.1_src/data/scripts/dock_solv.prm

>  <Rbt.Receptor>
prm/pocket_docking_3.prm

>  <SCORE>
-8.87337

>  <SCORE.INTER>
-7.61553

>  <SCORE.INTER.CONST>
1

>  <SCORE.INTER.POLAR>
0

>  <SCORE.INTER.ROT>
3

>  <SCORE.INTER.SOLV>
5.2817

>  <SCORE.INTER.VDW>
-12.4376

>  <SCORE.INTER.norm>
-0.634627

>  <SCORE.INTRA>
-1.26208

>  <SCORE.INTRA.DIHEDRAL>
1.24656

>  <SCORE.INTRA.DIHEDRAL.0>
0.283163

>  <SCORE.INTRA.POLAR>
0

>  <SCORE.INTRA.POLAR.0>
0

>  <SCORE.INTRA.REPUL>
0

>  <SCORE.INTRA.REPUL.0>
0

>  <SCORE.INTRA.SOLV>
2.00817

>  <SCORE.INTRA.SOLV.lig_0>
-32.2894

>  <SCORE.INTRA.VDW>
-2.88944

>  <SCORE.INTRA.VDW.0>
2.0241

>  <SCORE.INTRA.norm>
-0.105173

>  <SCORE.RESTR>
0.00423635

>  <SCORE.RESTR.CAVITY>
0.00423635

>  <SCORE.RESTR.norm>
0.00035303

>  <SCORE.SYSTEM>
0

>  <SCORE.SYSTEM.CONST>
0

>  <SCORE.SYSTEM.DIHEDRAL>
0

>  <SCORE.SYSTEM.SOLV>
0

>  <SCORE.SYSTEM.norm>
0

>  <SCORE.heavy>
12

>  <SCORE.norm>
-0.739448

>  <RMSD>
3.202

$$$$
ligand
 OpenBabel11021811513D
libRbt.so/2013.1/901 2013/11/27
 12 12  0  0  0  0  0  0  0  0999 V2000
    1.6841    4.6105  -29.0855 O   0  0  0  0  0  0  0  0  0  0  0  0
    3.1688   -2.0463  -31.0961 O   0  0  0  0  0  0  0  0  0  0  0  0
    2.0654    4.2888  -30.3702 C   0  0  0  0  0  0  0  0  0  0  0  0
    4.2245   -2.1042  -28.8987 O   0  0  0  0  0  0  0  0  0  0  0  0
    2.1564    2.8385  -30.6135 C   0  0  0  0  0  0  0  0  0  0  0  0
    5.6030   -2.0289  -30.8988 O   0  5  0  0  0  0  0  0  0  0  0  0
    2.9583    2.1619  -29.5854 N   0  3  0  0  0  0  0  0  0  0  0  0
    2.4817    2.5135  -28.2724 C   0  0  0  0  0  0  0  0  0  0  0  0
    2.4045    3.9952  -28.1007 C   0  0  0  0  0  0  0  0  0  0  0  0
    2.9157    0.7453  -29.7899 C   0  0  0  0  0  0  0  0  0  0  0  0
    4.3218    0.2385  -30.1993 C   0  0  0  0  0  0  0  0  0  0  0  0
    4.3310   -1.5636  -30.2905 S   0  0  1  0  0  0  0  0  0  0  0  0
  1  3  1  0  0  0  0
  1  9  1  0  0  0  0
  2 12  1  0  0  0  0
  3  5  1  0  0  0  0
  4 12  2  0  0  0  0
  5  7  1  0  0  0  0
  6 12  2  0  0  0  0
  7  8  1  0  0  0  0
  7 10  1  0  0  0  0
  8  9  1  0  0  0  0
 10 11  1  0  0  0  0
 12 11  1  1  0  0  0
M  CHG  2   6  -1   7   1
M  END
>  <CHROM.1>
113.08666211,173.99994591,49.08555443,3.31801783,0.82439582,-29.82466963
-2.77352161,1.16224474,-1.78164857

>  <Name>
ligand

>  <RI>
0

>  <Rbt.Current_Directory>
/home/itssahil/PROJECTS/Mol_Feturizer/New_Systems/rnas/4P95

>  <Rbt.Executable>
rbdock ($Id: //depot/dev/client3/rdock/2013.1/src/exe/rbdock.cxx#4 $)

>  <Rbt.Library>
libRbt.so (2013.1, Build901 2013/11/27)

>  <Rbt.Parameter_File>
/export/apps/rDock/src/rDock_2013.1_src/data/scripts/dock_solv.prm

>  <Rbt.Receptor>
prm/pocket_docking_5.prm

>  <SCORE>
-9.13887

>  <SCORE.INTER>
-7.31043

>  <SCORE.INTER.CONST>
1

>  <SCORE.INTER.POLAR>
0

>  <SCORE.INTER.ROT>
3

>  <SCORE.INTER.SOLV>
8.61303

>  <SCORE.INTER.VDW>
-13.3446

>  <SCORE.INTER.norm>
-0.609202

>  <SCORE.INTRA>
-1.82844

>  <SCORE.INTRA.DIHEDRAL>
2.44788

>  <SCORE.INTRA.DIHEDRAL.0>
0.283163

>  <SCORE.INTRA.POLAR>
0

>  <SCORE.INTRA.POLAR.0>
0

>  <SCORE.INTRA.REPUL>
0

>  <SCORE.INTRA.REPUL.0>
0

>  <SCORE.INTRA.SOLV>
-0.736609

>  <SCORE.INTRA.SOLV.lig_0>
-32.2894

>  <SCORE.INTRA.VDW>
-2.68408

>  <SCORE.INTRA.VDW.0>
2.0241

>  <SCORE.INTRA.norm>
-0.15237

>  <SCORE.RESTR>
0

>  <SCORE.RESTR.CAVITY>
0

>  <SCORE.RESTR.norm>
0

>  <SCORE.SYSTEM>
0

>  <SCORE.SYSTEM.CONST>
0

>  <SCORE.SYSTEM.DIHEDRAL>
0

>  <SCORE.SYSTEM.SOLV>
0

>  <SCORE.SYSTEM.norm>
0

>  <SCORE.heavy>
12

>  <SCORE.norm>
-0.761573

>  <RMSD>
3.226

$$$$
ligand
 OpenBabel11021811513D
libRbt.so/2013.1/901 2013/11/27
 12 12  0  0  0  0  0  0  0  0999 V2000
    0.5498    3.3970  -27.0555 O   0  0  0  0  0  0  0  0  0  0  0  0
    5.9688    0.9919  -30.8910 O   0  0  0  0  0  0  0  0  0  0  0  0
    1.8908    3.3747  -26.7387 C   0  0  0  0  0  0  0  0  0  0  0  0
    4.2243    0.2569  -32.4283 O   0  0  0  0  0  0  0  0  0  0  0  0
    2.7630    3.0603  -27.8839 C   0  0  0  0  0  0  0  0  0  0  0  0
    5.4073   -1.3779  -31.0740 O   0  5  0  0  0  0  0  0  0  0  0  0
    2.3163    1.8552  -28.5953 N   0  3  0  0  0  0  0  0  0  0  0  0
    0.9189    1.9634  -28.9272 C   0  0  0  0  0  0  0  0  0  0  0  0
    0.0982    2.2938  -27.7238 C   0  0  0  0  0  0  0  0  0  0  0  0
    3.1138    1.6598  -29.7684 C   0  0  0  0  0  0  0  0  0  0  0  0
    3.6096    0.1923  -29.8192 C   0  0  0  0  0  0  0  0  0  0  0  0
    4.8668    0.0048  -31.1000 S   0  0  1  0  0  0  0  0  0  0  0  0
  1  3  1  0  0  0  0
  1  9  1  0  0  0  0
  2 12  1  0  0  0  0
  3  5  1  0  0  0  0
  4 12  2  0  0  0  0
  5  7  1  0  0  0  0
  6 12  2  0  0  0  0
  7  8  1  0  0  0  0
  7 10  1  0  0  0  0
  8  9  1  0  0  0  0
 10 11  1  0  0  0  0
 12 11  1  1  0  0  0
M  CHG  2   6  -1   7   1
M  END
>  <CHROM.1>
131.02936875,-169.00821787,54.34683960,3.19589077,1.30970409,-29.53964036
-2.25743978,-0.08283308,-2.31241165

>  <Name>
ligand

>  <RI>
0

>  <Rbt.Current_Directory>
/home/itssahil/PROJECTS/Mol_Feturizer/New_Systems/rnas/4P95

>  <Rbt.Executable>
rbdock ($Id: //depot/dev/client3/rdock/2013.1/src/exe/rbdock.cxx#4 $)

>  <Rbt.Library>
libRbt.so (2013.1, Build901 2013/11/27)

>  <Rbt.Parameter_File>
/export/apps/rDock/src/rDock_2013.1_src/data/scripts/dock_solv.prm

>  <Rbt.Receptor>
prm/pocket_docking_4.prm

>  <SCORE>
-9.91968

>  <SCORE.INTER>
-8.08431

>  <SCORE.INTER.CONST>
1

>  <SCORE.INTER.POLAR>
0

>  <SCORE.INTER.ROT>
3

>  <SCORE.INTER.SOLV>
5.62373

>  <SCORE.INTER.VDW>
-12.8641

>  <SCORE.INTER.norm>
-0.673693

>  <SCORE.INTRA>
-1.83585

>  <SCORE.INTRA.DIHEDRAL>
2.38656

>  <SCORE.INTRA.DIHEDRAL.0>
0.283163

>  <SCORE.INTRA.POLAR>
0

>  <SCORE.INTRA.POLAR.0>
0

>  <SCORE.INTRA.REPUL>
0

>  <SCORE.INTRA.REPUL.0>
0

>  <SCORE.INTRA.SOLV>
-0.72779

>  <SCORE.INTRA.SOLV.lig_0>
-32.2894

>  <SCORE.INTRA.VDW>
-2.66524

>  <SCORE.INTRA.VDW.0>
2.0241

>  <SCORE.INTRA.norm>
-0.152988

>  <SCORE.RESTR>
0.000490215

>  <SCORE.RESTR.CAVITY>
0.000490215

>  <SCORE.RESTR.norm>
4.08512e-05

>  <SCORE.SYSTEM>
0

>  <SCORE.SYSTEM.CONST>
0

>  <SCORE.SYSTEM.DIHEDRAL>
0

>  <SCORE.SYSTEM.SOLV>
0

>  <SCORE.SYSTEM.norm>
0

>  <SCORE.heavy>
12

>  <SCORE.norm>
-0.82664

>  <RMSD>
3.228

$$$$
ligand
 OpenBabel11021811513D
libRbt.so/2013.1/901 2013/11/27
 12 12  0  0  0  0  0  0  0  0999 V2000
    1.2271    3.1863  -27.1561 O   0  0  0  0  0  0  0  0  0  0  0  0
    3.6421   -0.9647  -29.1296 O   0  0  0  0  0  0  0  0  0  0  0  0
    2.6016    3.1402  -27.0675 C   0  0  0  0  0  0  0  0  0  0  0  0
    5.5710    0.2620  -29.9788 O   0  0  0  0  0  0  0  0  0  0  0  0
    3.2764    3.0891  -28.3763 C   0  0  0  0  0  0  0  0  0  0  0  0
    4.6481   -1.5797  -31.2684 O   0  5  0  0  0  0  0  0  0  0  0  0
    2.7166    2.0396  -29.2383 N   0  3  0  0  0  0  0  0  0  0  0  0
    1.2843    2.1711  -29.3150 C   0  0  0  0  0  0  0  0  0  0  0  0
    0.6698    2.2277  -27.9549 C   0  0  0  0  0  0  0  0  0  0  0  0
    3.3136    2.1084  -30.5380 C   0  0  0  0  0  0  0  0  0  0  0  0
    3.2370    0.7177  -31.2175 C   0  0  0  0  0  0  0  0  0  0  0  0
    4.3125   -0.4521  -30.3625 S   0  0  1  0  0  0  0  0  0  0  0  0
  1  3  1  0  0  0  0
  1  9  1  0  0  0  0
  2 12  1  0  0  0  0
  3  5  1  0  0  0  0
  4 12  2  0  0  0  0
  5  7  1  0  0  0  0
  6 12  2  0  0  0  0
  7  8  1  0  0  0  0
  7 10  1  0  0  0  0
  8  9  1  0  0  0  0
 10 11  1  0  0  0  0
 12 11  1  6  0  0  0
M  CHG  2   6  -1   7   1
M  END
>  <CHROM.1>
155.05327172,-68.24733114,80.13237705,3.18937358,1.11857296,-29.40224773
-2.13776695,0.13506586,-2.39612128

>  <Name>
ligand

>  <RI>
0

>  <Rbt.Current_Directory>
/home/itssahil/PROJECTS/Mol_Feturizer/New_Systems/rnas/4P95

>  <Rbt.Executable>
rbdock ($Id: //depot/dev/client3/rdock/2013.1/src/exe/rbdock.cxx#4 $)

>  <Rbt.Library>
libRbt.so (2013.1, Build901 2013/11/27)

>  <Rbt.Parameter_File>
/export/apps/rDock/src/rDock_2013.1_src/data/scripts/dock_solv.prm

>  <Rbt.Receptor>
prm/pocket_docking_8.prm

>  <SCORE>
-10.0912

>  <SCORE.INTER>
-8.03546

>  <SCORE.INTER.CONST>
1

>  <SCORE.INTER.POLAR>
0

>  <SCORE.INTER.ROT>
3

>  <SCORE.INTER.SOLV>
6.24975

>  <SCORE.INTER.VDW>
-13.0402

>  <SCORE.INTER.norm>
-0.669621

>  <SCORE.INTRA>
-2.05579

>  <SCORE.INTRA.DIHEDRAL>
1.758

>  <SCORE.INTRA.DIHEDRAL.0>
0.283163

>  <SCORE.INTRA.POLAR>
0

>  <SCORE.INTRA.POLAR.0>
0

>  <SCORE.INTRA.REPUL>
0

>  <SCORE.INTRA.REPUL.0>
0

>  <SCORE.INTRA.SOLV>
-0.248882

>  <SCORE.INTRA.SOLV.lig_0>
-32.2894

>  <SCORE.INTRA.VDW>
-2.81035

>  <SCORE.INTRA.VDW.0>
2.0241

>  <SCORE.INTRA.norm>
-0.171316

>  <SCORE.RESTR>
0

>  <SCORE.RESTR.CAVITY>
0

>  <SCORE.RESTR.norm>
0

>  <SCORE.SYSTEM>
0

>  <SCORE.SYSTEM.CONST>
0

>  <SCORE.SYSTEM.DIHEDRAL>
0

>  <SCORE.SYSTEM.SOLV>
0

>  <SCORE.SYSTEM.norm>
0

>  <SCORE.heavy>
12

>  <SCORE.norm>
-0.840937

>  <RMSD>
3.243

$$$$
ligand
 OpenBabel11021811513D
libRbt.so/2013.1/901 2013/11/27
 12 12  0  0  0  0  0  0  0  0999 V2000
    1.2177    4.0072  -28.7102 O   0  0  0  0  0  0  0  0  0  0  0  0
    3.4095   -0.2810  -29.5597 O   0  0  0  0  0  0  0  0  0  0  0  0
    1.9684    3.2469  -27.8397 C   0  0  0  0  0  0  0  0  0  0  0  0
    5.8329   -0.5043  -29.4058 O   0  0  0  0  0  0  0  0  0  0  0  0
    3.3542    3.0290  -28.2903 C   0  0  0  0  0  0  0  0  0  0  0  0
    4.6637   -1.3552  -31.3591 O   0  5  0  0  0  0  0  0  0  0  0  0
    3.4076    2.5441  -29.6760 N   0  3  0  0  0  0  0  0  0  0  0  0
    2.6343    3.4049  -30.5337 C   0  0  0  0  0  0  0  0  0  0  0  0
    1.2474    3.5896  -30.0111 C   0  0  0  0  0  0  0  0  0  0  0  0
    4.7695    2.4666  -30.1115 C   0  0  0  0  0  0  0  0  0  0  0  0
    4.9185    1.3208  -31.1443 C   0  0  0  0  0  0  0  0  0  0  0  0
    4.6845   -0.2768  -30.3386 S   0  0  1  0  0  0  0  0  0  0  0  0
  1  3  1  0  0  0  0
  1  9  1  0  0  0  0
  2 12  1  0  0  0  0
  3  5  1  0  0  0  0
  4 12  2  0  0  0  0
  5  7  1  0  0  0  0
  6 12  2  0  0  0  0
  7  8  1  0  0  0  0
  7 10  1  0  0  0  0
  8  9  1  0  0  0  0
 10 11  1  0  0  0  0
 12 11  1  6  0  0  0
M  CHG  2   6  -1   7   1
M  END
>  <CHROM.1>
149.35022467,-68.35285128,51.64170990,3.62924103,1.52344544,-29.80357616
-3.13677910,0.96831376,-1.24865797

>  <Name>
ligand

>  <RI>
0

>  <Rbt.Current_Directory>
/home/itssahil/PROJECTS/Mol_Feturizer/New_Systems/rnas/4P95

>  <Rbt.Executable>
rbdock ($Id: //depot/dev/client3/rdock/2013.1/src/exe/rbdock.cxx#4 $)

>  <Rbt.Library>
libRbt.so (2013.1, Build901 2013/11/27)

>  <Rbt.Parameter_File>
/export/apps/rDock/src/rDock_2013.1_src/data/scripts/dock_solv.prm

>  <Rbt.Receptor>
prm/pocket_docking_4.prm

>  <SCORE>
-10.6032

>  <SCORE.INTER>
-7.95133

>  <SCORE.INTER.CONST>
1

>  <SCORE.INTER.POLAR>
0

>  <SCORE.INTER.ROT>
3

>  <SCORE.INTER.SOLV>
6.02608

>  <SCORE.INTER.VDW>
-12.9096

>  <SCORE.INTER.norm>
-0.662611

>  <SCORE.INTRA>
-2.6519

>  <SCORE.INTRA.DIHEDRAL>
1.29138

>  <SCORE.INTRA.DIHEDRAL.0>
0.283163

>  <SCORE.INTRA.POLAR>
0

>  <SCORE.INTRA.POLAR.0>
0

>  <SCORE.INTRA.REPUL>
0

>  <SCORE.INTRA.REPUL.0>
0

>  <SCORE.INTRA.SOLV>
-0.517131

>  <SCORE.INTRA.SOLV.lig_0>
-32.2894

>  <SCORE.INTRA.VDW>
-3.03903

>  <SCORE.INTRA.VDW.0>
2.0241

>  <SCORE.INTRA.norm>
-0.220992

>  <SCORE.RESTR>
0

>  <SCORE.RESTR.CAVITY>
0

>  <SCORE.RESTR.norm>
0

>  <SCORE.SYSTEM>
0

>  <SCORE.SYSTEM.CONST>
0

>  <SCORE.SYSTEM.DIHEDRAL>
0

>  <SCORE.SYSTEM.SOLV>
0

>  <SCORE.SYSTEM.norm>
0

>  <SCORE.heavy>
12

>  <SCORE.norm>
-0.883603

>  <RMSD>
3.257

$$$$
ligand
 OpenBabel11021811513D
libRbt.so/2013.1/901 2013/11/27
 12 12  0  0  0  0  0  0  0  0999 V2000
    2.2340    4.8178  -29.6715 O   0  0  0  0  0  0  0  0  0  0  0  0
    4.5616   -2.5741  -28.9061 O   0  0  0  0  0  0  0  0  0  0  0  0
    2.0645    3.8681  -28.6873 C   0  0  0  0  0  0  0  0  0  0  0  0
    6.1633   -0.7370  -28.9847 O   0  0  0  0  0  0  0  0  0  0  0  0
    3.0533    2.7771  -28.7429 C   0  0  0  0  0  0  0  0  0  0  0  0
    5.3852   -1.7496  -31.0524 O   0  5  0  0  0  0  0  0  0  0  0  0
    3.1558    2.2017  -30.0907 N   0  3  0  0  0  0  0  0  0  0  0  0
    3.3691    3.2445  -31.0612 C   0  0  0  0  0  0  0  0  0  0  0  0
    2.3393    4.3193  -30.9397 C   0  0  0  0  0  0  0  0  0  0  0  0
    4.2121    1.2357  -30.1276 C   0  0  0  0  0  0  0  0  0  0  0  0
    3.6552   -0.1559  -29.7337 C   0  0  0  0  0  0  0  0  0  0  0  0
    4.9923   -1.3662  -29.6729 S   0  0  1  0  0  0  0  0  0  0  0  0
  1  3  1  0  0  0  0
  1  9  1  0  0  0  0
  2 12  1  0  0  0  0
  3  5  1  0  0  0  0
  4 12  2  0  0  0  0
  5  7  1  0  0  0  0
  6 12  2  0  0  0  0
  7  8  1  0  0  0  0
  7 10  1  0  0  0  0
  8  9  1  0  0  0  0
 10 11  1  0  0  0  0
 12 11  1  6  0  0  0
M  CHG  2   6  -1   7   1
M  END
>  <CHROM.1>
88.70875224,-176.42495586,162.65042942,3.91278839,1.01738913,-29.78731862
2.66069851,1.07093850,-1.07275811

>  <Name>
ligand

>  <RI>
0

>  <Rbt.Current_Directory>
/home/itssahil/PROJECTS/Mol_Feturizer/New_Systems/rnas/4P95

>  <Rbt.Executable>
rbdock ($Id: //depot/dev/client3/rdock/2013.1/src/exe/rbdock.cxx#4 $)

>  <Rbt.Library>
libRbt.so (2013.1, Build901 2013/11/27)

>  <Rbt.Parameter_File>
/export/apps/rDock/src/rDock_2013.1_src/data/scripts/dock_solv.prm

>  <Rbt.Receptor>
prm/pocket_docking_5.prm

>  <SCORE>
-11.7411

>  <SCORE.INTER>
-10.2815

>  <SCORE.INTER.CONST>
1

>  <SCORE.INTER.POLAR>
0

>  <SCORE.INTER.ROT>
3

>  <SCORE.INTER.SOLV>
6.85034

>  <SCORE.INTER.VDW>
-14.7378

>  <SCORE.INTER.norm>
-0.856794

>  <SCORE.INTRA>
-1.45955

>  <SCORE.INTRA.DIHEDRAL>
1.59739

>  <SCORE.INTRA.DIHEDRAL.0>
0.283163

>  <SCORE.INTRA.POLAR>
0

>  <SCORE.INTRA.POLAR.0>
0

>  <SCORE.INTRA.REPUL>
0

>  <SCORE.INTRA.REPUL.0>
0

>  <SCORE.INTRA.SOLV>
0.0222763

>  <SCORE.INTRA.SOLV.lig_0>
-32.2894

>  <SCORE.INTRA.VDW>
-2.26938

>  <SCORE.INTRA.VDW.0>
2.0241

>  <SCORE.INTRA.norm>
-0.121629

>  <SCORE.RESTR>
0

>  <SCORE.RESTR.CAVITY>
0

>  <SCORE.RESTR.norm>
0

>  <SCORE.SYSTEM>
0

>  <SCORE.SYSTEM.CONST>
0

>  <SCORE.SYSTEM.DIHEDRAL>
0

>  <SCORE.SYSTEM.SOLV>
0

>  <SCORE.SYSTEM.norm>
0

>  <SCORE.heavy>
12

>  <SCORE.norm>
-0.978423

>  <RMSD>
3.279

$$$$
ligand
 OpenBabel11021811513D
libRbt.so/2013.1/901 2013/11/27
 12 12  0  0  0  0  0  0  0  0999 V2000
    2.2453    4.7419  -29.7679 O   0  0  0  0  0  0  0  0  0  0  0  0
    4.6252   -2.6158  -28.8359 O   0  0  0  0  0  0  0  0  0  0  0  0
    2.0842    3.8129  -28.7628 C   0  0  0  0  0  0  0  0  0  0  0  0
    6.2131   -0.7679  -28.9389 O   0  0  0  0  0  0  0  0  0  0  0  0
    3.0798    2.7273  -28.7969 C   0  0  0  0  0  0  0  0  0  0  0  0
    5.4492   -1.8193  -30.9926 O   0  5  0  0  0  0  0  0  0  0  0  0
    3.1830    2.1233  -30.1320 N   0  3  0  0  0  0  0  0  0  0  0  0
    3.3874    3.1460  -31.1256 C   0  0  0  0  0  0  0  0  0  0  0  0
    2.3509    4.2166  -31.0251 C   0  0  0  0  0  0  0  0  0  0  0  0
    4.2454    1.1634  -30.1504 C   0  0  0  0  0  0  0  0  0  0  0  0
    3.7029   -0.2181  -29.7046 C   0  0  0  0  0  0  0  0  0  0  0  0
    5.0490   -1.4170  -29.6205 S   0  0  1  0  0  0  0  0  0  0  0  0
  1  3  1  0  0  0  0
  1  9  1  0  0  0  0
  2 12  1  0  0  0  0
  3  5  1  0  0  0  0
  4 12  2  0  0  0  0
  5  7  1  0  0  0  0
  6 12  2  0  0  0  0
  7  8  1  0  0  0  0
  7 10  1  0  0  0  0
  8  9  1  0  0  0  0
 10 11  1  0  0  0  0
 12 11  1  6  0  0  0
M  CHG  2   6  -1   7   1
M  END
>  <CHROM.1>
87.87452898,-176.41453693,163.93928935,3.95099581,0.95356644,-29.79484227
2.66925748,1.06442463,-1.10542290

>  <Name>
ligand

>  <RI>
0

>  <Rbt.Current_Directory>
/home/itssahil/PROJECTS/Mol_Feturizer/New_Systems/rnas/4P95

>  <Rbt.Executable>
rbdock ($Id: //depot/dev/client3/rdock/2013.1/src/exe/rbdock.cxx#4 $)

>  <Rbt.Library>
libRbt.so (2013.1, Build901 2013/11/27)

>  <Rbt.Parameter_File>
/export/apps/rDock/src/rDock_2013.1_src/data/scripts/dock_solv.prm

>  <Rbt.Receptor>
prm/pocket_docking_6.prm

>  <SCORE>
-11.7545

>  <SCORE.INTER>
-10.2422

>  <SCORE.INTER.CONST>
1

>  <SCORE.INTER.POLAR>
0

>  <SCORE.INTER.ROT>
3

>  <SCORE.INTER.SOLV>
6.7947

>  <SCORE.INTER.VDW>
-14.693

>  <SCORE.INTER.norm>
-0.853513

>  <SCORE.INTRA>
-1.51233

>  <SCORE.INTRA.DIHEDRAL>
1.45509

>  <SCORE.INTRA.DIHEDRAL.0>
0.283163

>  <SCORE.INTRA.POLAR>
0

>  <SCORE.INTRA.POLAR.0>
0

>  <SCORE.INTRA.REPUL>
0

>  <SCORE.INTRA.REPUL.0>
0

>  <SCORE.INTRA.SOLV>
0.0336045

>  <SCORE.INTRA.SOLV.lig_0>
-32.2894

>  <SCORE.INTRA.VDW>
-2.25668

>  <SCORE.INTRA.VDW.0>
2.0241

>  <SCORE.INTRA.norm>
-0.126028

>  <SCORE.RESTR>
0

>  <SCORE.RESTR.CAVITY>
0

>  <SCORE.RESTR.norm>
0

>  <SCORE.SYSTEM>
0

>  <SCORE.SYSTEM.CONST>
0

>  <SCORE.SYSTEM.DIHEDRAL>
0

>  <SCORE.SYSTEM.SOLV>
0

>  <SCORE.SYSTEM.norm>
0

>  <SCORE.heavy>
12

>  <SCORE.norm>
-0.979541

>  <RMSD>
3.282

$$$$
ligand
 OpenBabel11021811513D
libRbt.so/2013.1/901 2013/11/27
 12 12  0  0  0  0  0  0  0  0999 V2000
    2.2369    4.8076  -29.5270 O   0  0  0  0  0  0  0  0  0  0  0  0
    4.5666   -2.5845  -28.9004 O   0  0  0  0  0  0  0  0  0  0  0  0
    2.1240    3.8585  -28.5342 C   0  0  0  0  0  0  0  0  0  0  0  0
    6.1551   -0.7376  -29.0108 O   0  0  0  0  0  0  0  0  0  0  0  0
    3.1078    2.7673  -28.6457 C   0  0  0  0  0  0  0  0  0  0  0  0
    5.3595   -1.7701  -31.0620 O   0  5  0  0  0  0  0  0  0  0  0  0
    3.1329    2.1912  -29.9968 N   0  3  0  0  0  0  0  0  0  0  0  0
    3.2904    3.2334  -30.9785 C   0  0  0  0  0  0  0  0  0  0  0  0
    2.2693    4.3085  -30.7988 C   0  0  0  0  0  0  0  0  0  0  0  0
    4.1852    1.2250  -30.0937 C   0  0  0  0  0  0  0  0  0  0  0  0
    3.6345   -0.1783  -29.7343 C   0  0  0  0  0  0  0  0  0  0  0  0
    4.9802   -1.3793  -29.6807 S   0  0  1  0  0  0  0  0  0  0  0  0
  1  3  1  0  0  0  0
  1  9  1  0  0  0  0
  2 12  1  0  0  0  0
  3  5  1  0  0  0  0
  4 12  2  0  0  0  0
  5  7  1  0  0  0  0
  6 12  2  0  0  0  0
  7  8  1  0  0  0  0
  7 10  1  0  0  0  0
  8  9  1  0  0  0  0
 10 11  1  0  0  0  0
 12 11  1  6  0  0  0
M  CHG  2   6  -1   7   1
M  END
>  <CHROM.1>
91.44301777,-174.04187809,160.57852479,3.90104737,1.00566032,-29.73577892
2.77039861,1.09775511,-1.17117283

>  <Name>
ligand

>  <RI>
0

>  <Rbt.Current_Directory>
/home/itssahil/PROJECTS/Mol_Feturizer/New_Systems/rnas/4P95

>  <Rbt.Executable>
rbdock ($Id: //depot/dev/client3/rdock/2013.1/src/exe/rbdock.cxx#4 $)

>  <Rbt.Library>
libRbt.so (2013.1, Build901 2013/11/27)

>  <Rbt.Parameter_File>
/export/apps/rDock/src/rDock_2013.1_src/data/scripts/dock_solv.prm

>  <Rbt.Receptor>
prm/pocket_docking_5.prm

>  <SCORE>
-11.6716

>  <SCORE.INTER>
-10.3556

>  <SCORE.INTER.CONST>
1

>  <SCORE.INTER.POLAR>
0

>  <SCORE.INTER.ROT>
3

>  <SCORE.INTER.SOLV>
7.052

>  <SCORE.INTER.VDW>
-14.8544

>  <SCORE.INTER.norm>
-0.862971

>  <SCORE.INTRA>
-1.31591

>  <SCORE.INTRA.DIHEDRAL>
2.00941

>  <SCORE.INTRA.DIHEDRAL.0>
0.283163

>  <SCORE.INTRA.POLAR>
0

>  <SCORE.INTRA.POLAR.0>
0

>  <SCORE.INTRA.REPUL>
0

>  <SCORE.INTRA.REPUL.0>
0

>  <SCORE.INTRA.SOLV>
0.00454586

>  <SCORE.INTRA.SOLV.lig_0>
-32.2894

>  <SCORE.INTRA.VDW>
-2.32288

>  <SCORE.INTRA.VDW.0>
2.0241

>  <SCORE.INTRA.norm>
-0.109659

>  <SCORE.RESTR>
0

>  <SCORE.RESTR.CAVITY>
0

>  <SCORE.RESTR.norm>
0

>  <SCORE.SYSTEM>
0

>  <SCORE.SYSTEM.CONST>
0

>  <SCORE.SYSTEM.DIHEDRAL>
0

>  <SCORE.SYSTEM.SOLV>
0

>  <SCORE.SYSTEM.norm>
0

>  <SCORE.heavy>
12

>  <SCORE.norm>
-0.972629

>  <RMSD>
3.283

$$$$
ligand
 OpenBabel11021811513D
libRbt.so/2013.1/901 2013/11/27
 12 12  0  0  0  0  0  0  0  0999 V2000
    3.2185    4.4027  -30.7177 O   0  0  0  0  0  0  0  0  0  0  0  0
    5.3998   -2.8974  -28.8933 O   0  0  0  0  0  0  0  0  0  0  0  0
    2.8638    3.5546  -29.6910 C   0  0  0  0  0  0  0  0  0  0  0  0
    7.0046   -1.0780  -28.6468 O   0  0  0  0  0  0  0  0  0  0  0  0
    3.8516    2.4919  -29.4349 C   0  0  0  0  0  0  0  0  0  0  0  0
    6.5891   -2.0321  -30.8430 O   0  5  0  0  0  0  0  0  0  0  0  0
    4.2240    1.7844  -30.6673 N   0  3  0  0  0  0  0  0  0  0  0  0
    4.6184    2.7277  -31.6818 C   0  0  0  0  0  0  0  0  0  0  0  0
    3.5772    3.7800  -31.8801 C   0  0  0  0  0  0  0  0  0  0  0  0
    5.2735    0.8497  -30.3928 C   0  0  0  0  0  0  0  0  0  0  0  0
    4.6687   -0.4498  -29.8037 C   0  0  0  0  0  0  0  0  0  0  0  0
    5.9659   -1.6768  -29.5430 S   0  0  1  0  0  0  0  0  0  0  0  0
  1  3  1  0  0  0  0
  1  9  1  0  0  0  0
  2 12  1  0  0  0  0
  3  5  1  0  0  0  0
  4 12  2  0  0  0  0
  5  7  1  0  0  0  0
  6 12  2  0  0  0  0
  7  8  1  0  0  0  0
  7 10  1  0  0  0  0
  8  9  1  0  0  0  0
 10 11  1  0  0  0  0
 12 11  1  6  0  0  0
M  CHG  2   6  -1   7   1
M  END
>  <CHROM.1>
81.73350852,176.63862742,176.34289279,4.91397700,0.65523992,-30.10692025
2.36236909,0.94655184,-0.91935008

>  <Name>
ligand

>  <RI>
0

>  <Rbt.Current_Directory>
/home/itssahil/PROJECTS/Mol_Feturizer/New_Systems/rnas/4P95

>  <Rbt.Executable>
rbdock ($Id: //depot/dev/client3/rdock/2013.1/src/exe/rbdock.cxx#4 $)

>  <Rbt.Library>
libRbt.so (2013.1, Build901 2013/11/27)

>  <Rbt.Parameter_File>
/export/apps/rDock/src/rDock_2013.1_src/data/scripts/dock_solv.prm

>  <Rbt.Receptor>
prm/pocket_docking_8.prm

>  <SCORE>
-12.1985

>  <SCORE.INTER>
-10.4271

>  <SCORE.INTER.CONST>
1

>  <SCORE.INTER.POLAR>
0

>  <SCORE.INTER.ROT>
3

>  <SCORE.INTER.SOLV>
6.46382

>  <SCORE.INTER.VDW>
-14.706

>  <SCORE.INTER.norm>
-0.868927

>  <SCORE.INTRA>
-1.77142

>  <SCORE.INTRA.DIHEDRAL>
0.544084

>  <SCORE.INTRA.DIHEDRAL.0>
0.283163

>  <SCORE.INTRA.POLAR>
0

>  <SCORE.INTRA.POLAR.0>
0

>  <SCORE.INTRA.REPUL>
0

>  <SCORE.INTRA.REPUL.0>
0

>  <SCORE.INTRA.SOLV>
0.142168

>  <SCORE.INTRA.SOLV.lig_0>
-32.2894

>  <SCORE.INTRA.VDW>
-2.11455

>  <SCORE.INTRA.VDW.0>
2.0241

>  <SCORE.INTRA.norm>
-0.147618

>  <SCORE.RESTR>
0

>  <SCORE.RESTR.CAVITY>
0

>  <SCORE.RESTR.norm>
0

>  <SCORE.SYSTEM>
0

>  <SCORE.SYSTEM.CONST>
0

>  <SCORE.SYSTEM.DIHEDRAL>
0

>  <SCORE.SYSTEM.SOLV>
0

>  <SCORE.SYSTEM.norm>
0

>  <SCORE.heavy>
12

>  <SCORE.norm>
-1.01655

>  <RMSD>
3.285

$$$$
ligand
 OpenBabel11021811513D
libRbt.so/2013.1/901 2013/11/27
 12 12  0  0  0  0  0  0  0  0999 V2000
    1.4778    4.4780  -29.1610 O   0  0  0  0  0  0  0  0  0  0  0  0
    2.5763   -0.1428  -29.9807 O   0  0  0  0  0  0  0  0  0  0  0  0
    1.9359    3.6369  -28.1700 C   0  0  0  0  0  0  0  0  0  0  0  0
    4.7606   -1.0089  -29.3288 O   0  0  0  0  0  0  0  0  0  0  0  0
    3.2828    3.0984  -28.4284 C   0  0  0  0  0  0  0  0  0  0  0  0
    3.8761   -1.5031  -31.5378 O   0  5  0  0  0  0  0  0  0  0  0  0
    3.3901    2.5194  -29.7742 N   0  3  0  0  0  0  0  0  0  0  0  0
    2.9307    3.4642  -30.7597 C   0  0  0  0  0  0  0  0  0  0  0  0
    1.5670    3.9754  -30.4287 C   0  0  0  0  0  0  0  0  0  0  0  0
    4.7429    2.1239  -30.0267 C   0  0  0  0  0  0  0  0  0  0  0  0
    4.7640    1.0051  -31.0989 C   0  0  0  0  0  0  0  0  0  0  0  0
    3.9488   -0.4760  -30.4680 S   0  0  1  0  0  0  0  0  0  0  0  0
  1  3  1  0  0  0  0
  1  9  1  0  0  0  0
  2 12  1  0  0  0  0
  3  5  1  0  0  0  0
  4 12  2  0  0  0  0
  5  7  1  0  0  0  0
  6 12  2  0  0  0  0
  7  8  1  0  0  0  0
  7 10  1  0  0  0  0
  8  9  1  0  0  0  0
 10 11  1  0  0  0  0
 12 11  1  6  0  0  0
M  CHG  2   6  -1   7   1
M  END
>  <CHROM.1>
155.37686275,-64.78717372,53.94979574,3.32999864,1.50297538,-29.98310868
2.76938413,-1.14603652,1.42042267

>  <Name>
ligand

>  <RI>
0

>  <Rbt.Current_Directory>
/home/itssahil/PROJECTS/Mol_Feturizer/New_Systems/rnas/4P95

>  <Rbt.Executable>
rbdock ($Id: //depot/dev/client3/rdock/2013.1/src/exe/rbdock.cxx#4 $)

>  <Rbt.Library>
libRbt.so (2013.1, Build901 2013/11/27)

>  <Rbt.Parameter_File>
/export/apps/rDock/src/rDock_2013.1_src/data/scripts/dock_solv.prm

>  <Rbt.Receptor>
prm/pocket_docking_7.prm

>  <SCORE>
-10.6168

>  <SCORE.INTER>
-7.81531

>  <SCORE.INTER.CONST>
1

>  <SCORE.INTER.POLAR>
0

>  <SCORE.INTER.ROT>
3

>  <SCORE.INTER.SOLV>
6.82613

>  <SCORE.INTER.VDW>
-13.0856

>  <SCORE.INTER.norm>
-0.651276

>  <SCORE.INTRA>
-2.80147

>  <SCORE.INTRA.DIHEDRAL>
0.674917

>  <SCORE.INTRA.DIHEDRAL.0>
0.283163

>  <SCORE.INTRA.POLAR>
0

>  <SCORE.INTRA.POLAR.0>
0

>  <SCORE.INTRA.REPUL>
0

>  <SCORE.INTRA.REPUL.0>
0

>  <SCORE.INTRA.SOLV>
-0.48828

>  <SCORE.INTRA.SOLV.lig_0>
-32.2894

>  <SCORE.INTRA.VDW>
-2.89479

>  <SCORE.INTRA.VDW.0>
2.0241

>  <SCORE.INTRA.norm>
-0.233456

>  <SCORE.RESTR>
0

>  <SCORE.RESTR.CAVITY>
0

>  <SCORE.RESTR.norm>
0

>  <SCORE.SYSTEM>
0

>  <SCORE.SYSTEM.CONST>
0

>  <SCORE.SYSTEM.DIHEDRAL>
0

>  <SCORE.SYSTEM.SOLV>
0

>  <SCORE.SYSTEM.norm>
0

>  <SCORE.heavy>
12

>  <SCORE.norm>
-0.884732

>  <RMSD>
3.312

$$$$
ligand
 OpenBabel11021811513D
libRbt.so/2013.1/901 2013/11/27
 12 12  0  0  0  0  0  0  0  0999 V2000
    1.5988    4.5515  -29.0159 O   0  0  0  0  0  0  0  0  0  0  0  0
    2.6256   -0.0836  -29.8948 O   0  0  0  0  0  0  0  0  0  0  0  0
    2.0150    3.5901  -28.1205 C   0  0  0  0  0  0  0  0  0  0  0  0
    4.8408   -0.9332  -29.3314 O   0  0  0  0  0  0  0  0  0  0  0  0
    3.3429    3.0312  -28.4290 C   0  0  0  0  0  0  0  0  0  0  0  0
    3.8450   -1.4879  -31.4778 O   0  5  0  0  0  0  0  0  0  0  0  0
    3.4410    2.5988  -29.8295 N   0  3  0  0  0  0  0  0  0  0  0  0
    3.0274    3.6626  -30.7081 C   0  0  0  0  0  0  0  0  0  0  0  0
    1.6810    4.1872  -30.3305 C   0  0  0  0  0  0  0  0  0  0  0  0
    4.7802    2.1810  -30.1164 C   0  0  0  0  0  0  0  0  0  0  0  0
    4.7528    1.0308  -31.1547 C   0  0  0  0  0  0  0  0  0  0  0  0
    3.9716   -0.4315  -30.4421 S   0  0  1  0  0  0  0  0  0  0  0  0
  1  3  1  0  0  0  0
  1  9  1  0  0  0  0
  2 12  1  0  0  0  0
  3  5  1  0  0  0  0
  4 12  2  0  0  0  0
  5  7  1  0  0  0  0
  6 12  2  0  0  0  0
  7  8  1  0  0  0  0
  7 10  1  0  0  0  0
  8  9  1  0  0  0  0
 10 11  1  0  0  0  0
 12 11  1  6  0  0  0
M  CHG  2   6  -1   7   1
M  END
>  <CHROM.1>
146.88673188,-65.80026109,53.70359067,3.38267701,1.56182202,-29.95519810
2.49950403,1.09231369,-0.61597712

>  <Name>
ligand

>  <RI>
0

>  <Rbt.Current_Directory>
/home/itssahil/PROJECTS/Mol_Feturizer/New_Systems/rnas/4P95

>  <Rbt.Executable>
rbdock ($Id: //depot/dev/client3/rdock/2013.1/src/exe/rbdock.cxx#4 $)

>  <Rbt.Library>
libRbt.so (2013.1, Build901 2013/11/27)

>  <Rbt.Parameter_File>
/export/apps/rDock/src/rDock_2013.1_src/data/scripts/dock_solv.prm

>  <Rbt.Receptor>
prm/pocket_docking_3.prm

>  <SCORE>
-11.1146

>  <SCORE.INTER>
-8.35081

>  <SCORE.INTER.CONST>
1

>  <SCORE.INTER.POLAR>
0

>  <SCORE.INTER.ROT>
3

>  <SCORE.INTER.SOLV>
7.12502

>  <SCORE.INTER.VDW>
-13.5422

>  <SCORE.INTER.norm>
-0.695901

>  <SCORE.INTRA>
-2.76377

>  <SCORE.INTRA.DIHEDRAL>
1.24605

>  <SCORE.INTRA.DIHEDRAL.0>
0.283163

>  <SCORE.INTRA.POLAR>
0

>  <SCORE.INTRA.POLAR.0>
0

>  <SCORE.INTRA.REPUL>
0

>  <SCORE.INTRA.REPUL.0>
0

>  <SCORE.INTRA.SOLV>
-0.486526

>  <SCORE.INTRA.SOLV.lig_0>
-32.2894

>  <SCORE.INTRA.VDW>
-3.14353

>  <SCORE.INTRA.VDW.0>
2.0241

>  <SCORE.INTRA.norm>
-0.230314

>  <SCORE.RESTR>
0

>  <SCORE.RESTR.CAVITY>
0

>  <SCORE.RESTR.norm>
0

>  <SCORE.SYSTEM>
0

>  <SCORE.SYSTEM.CONST>
0

>  <SCORE.SYSTEM.DIHEDRAL>
0

>  <SCORE.SYSTEM.SOLV>
0

>  <SCORE.SYSTEM.norm>
0

>  <SCORE.heavy>
12

>  <SCORE.norm>
-0.926215

>  <RMSD>
3.324

$$$$
ligand
 OpenBabel11021811513D
libRbt.so/2013.1/901 2013/11/27
 12 12  0  0  0  0  0  0  0  0999 V2000
    0.4396    3.3675  -27.1368 O   0  0  0  0  0  0  0  0  0  0  0  0
    6.3524    0.7875  -30.5062 O   0  0  0  0  0  0  0  0  0  0  0  0
    1.7078    3.3911  -26.5977 C   0  0  0  0  0  0  0  0  0  0  0  0
    4.8532    1.5521  -32.2709 O   0  0  0  0  0  0  0  0  0  0  0  0
    2.7781    3.2438  -27.5994 C   0  0  0  0  0  0  0  0  0  0  0  0
    5.0944   -0.8272  -31.8385 O   0  5  0  0  0  0  0  0  0  0  0  0
    2.5456    2.0920  -28.4811 N   0  3  0  0  0  0  0  0  0  0  0  0
    1.2182    2.1519  -29.0371 C   0  0  0  0  0  0  0  0  0  0  0  0
    0.1876    2.3123  -27.9679 C   0  0  0  0  0  0  0  0  0  0  0  0
    3.5383    2.0613  -29.5125 C   0  0  0  0  0  0  0  0  0  0  0  0
    3.6854    0.6141  -30.0470 C   0  0  0  0  0  0  0  0  0  0  0  0
    5.0621    0.5174  -31.2095 S   0  0  1  0  0  0  0  0  0  0  0  0
  1  3  1  0  0  0  0
  1  9  1  0  0  0  0
  2 12  1  0  0  0  0
  3  5  1  0  0  0  0
  4 12  2  0  0  0  0
  5  7  1  0  0  0  0
  6 12  2  0  0  0  0
  7  8  1  0  0  0  0
  7 10  1  0  0  0  0
  8  9  1  0  0  0  0
 10 11  1  0  0  0  0
 12 11  1  1  0  0  0
M  CHG  2   6  -1   7   1
M  END
>  <CHROM.1>
156.12766697,-173.45045613,65.27546627,3.34528096,1.63304458,-29.56728533
2.29538331,0.06947221,0.93066881

>  <Name>
ligand

>  <RI>
0

>  <Rbt.Current_Directory>
/home/itssahil/PROJECTS/Mol_Feturizer/New_Systems/rnas/4P95

>  <Rbt.Executable>
rbdock ($Id: //depot/dev/client3/rdock/2013.1/src/exe/rbdock.cxx#4 $)

>  <Rbt.Library>
libRbt.so (2013.1, Build901 2013/11/27)

>  <Rbt.Parameter_File>
/export/apps/rDock/src/rDock_2013.1_src/data/scripts/dock_solv.prm

>  <Rbt.Receptor>
prm/pocket_docking_6.prm

>  <SCORE>
-11.2332

>  <SCORE.INTER>
-9.13031

>  <SCORE.INTER.CONST>
1

>  <SCORE.INTER.POLAR>
0

>  <SCORE.INTER.ROT>
3

>  <SCORE.INTER.SOLV>
5.27268

>  <SCORE.INTER.VDW>
-13.4444

>  <SCORE.INTER.norm>
-0.760859

>  <SCORE.INTRA>
-2.10287

>  <SCORE.INTRA.DIHEDRAL>
0.721823

>  <SCORE.INTRA.DIHEDRAL.0>
0.283163

>  <SCORE.INTRA.POLAR>
0

>  <SCORE.INTRA.POLAR.0>
0

>  <SCORE.INTRA.REPUL>
0

>  <SCORE.INTRA.REPUL.0>
0

>  <SCORE.INTRA.SOLV>
-0.695213

>  <SCORE.INTRA.SOLV.lig_0>
-32.2894

>  <SCORE.INTRA.VDW>
-2.11618

>  <SCORE.INTRA.VDW.0>
2.0241

>  <SCORE.INTRA.norm>
-0.175239

>  <SCORE.RESTR>
0

>  <SCORE.RESTR.CAVITY>
0

>  <SCORE.RESTR.norm>
0

>  <SCORE.SYSTEM>
0

>  <SCORE.SYSTEM.CONST>
0

>  <SCORE.SYSTEM.DIHEDRAL>
0

>  <SCORE.SYSTEM.SOLV>
0

>  <SCORE.SYSTEM.norm>
0

>  <SCORE.heavy>
12

>  <SCORE.norm>
-0.936098

>  <RMSD>
3.336

$$$$
ligand
 OpenBabel11021811513D
libRbt.so/2013.1/901 2013/11/27
 12 12  0  0  0  0  0  0  0  0999 V2000
    0.4407    3.3680  -27.1079 O   0  0  0  0  0  0  0  0  0  0  0  0
    6.3456    0.8003  -30.5094 O   0  0  0  0  0  0  0  0  0  0  0  0
    1.7158    3.3984  -26.5861 C   0  0  0  0  0  0  0  0  0  0  0  0
    4.8393    1.5732  -32.2645 O   0  0  0  0  0  0  0  0  0  0  0  0
    2.7733    3.2556  -27.6021 C   0  0  0  0  0  0  0  0  0  0  0  0
    5.0830   -0.8082  -31.8449 O   0  5  0  0  0  0  0  0  0  0  0  0
    2.5346    2.1019  -28.4796 N   0  3  0  0  0  0  0  0  0  0  0  0
    1.1995    2.1546  -29.0176 C   0  0  0  0  0  0  0  0  0  0  0  0
    0.1827    2.3109  -27.9347 C   0  0  0  0  0  0  0  0  0  0  0  0
    3.5134    2.0752  -29.5244 C   0  0  0  0  0  0  0  0  0  0  0  0
    3.6804    0.6236  -30.0408 C   0  0  0  0  0  0  0  0  0  0  0  0
    5.0527    0.5333  -31.2091 S   0  0  1  0  0  0  0  0  0  0  0  0
  1  3  1  0  0  0  0
  1  9  1  0  0  0  0
  2 12  1  0  0  0  0
  3  5  1  0  0  0  0
  4 12  2  0  0  0  0
  5  7  1  0  0  0  0
  6 12  2  0  0  0  0
  7  8  1  0  0  0  0
  7 10  1  0  0  0  0
  8  9  1  0  0  0  0
 10 11  1  0  0  0  0
 12 11  1  1  0  0  0
M  CHG  2   6  -1   7   1
M  END
>  <CHROM.1>
155.03492518,-172.90995259,66.63200459,3.33673228,1.64393331,-29.56094413
2.29445958,0.07849519,0.92742433

>  <Name>
ligand

>  <RI>
0

>  <Rbt.Current_Directory>
/home/itssahil/PROJECTS/Mol_Feturizer/New_Systems/rnas/4P95

>  <Rbt.Executable>
rbdock ($Id: //depot/dev/client3/rdock/2013.1/src/exe/rbdock.cxx#4 $)

>  <Rbt.Library>
libRbt.so (2013.1, Build901 2013/11/27)

>  <Rbt.Parameter_File>
/export/apps/rDock/src/rDock_2013.1_src/data/scripts/dock_solv.prm

>  <Rbt.Receptor>
prm/pocket_docking_5.prm

>  <SCORE>
-11.2174

>  <SCORE.INTER>
-9.14754

>  <SCORE.INTER.CONST>
1

>  <SCORE.INTER.POLAR>
0

>  <SCORE.INTER.ROT>
3

>  <SCORE.INTER.SOLV>
5.27303

>  <SCORE.INTER.VDW>
-13.456

>  <SCORE.INTER.norm>
-0.762295

>  <SCORE.INTRA>
-2.06986

>  <SCORE.INTRA.DIHEDRAL>
0.857021

>  <SCORE.INTRA.DIHEDRAL.0>
0.283163

>  <SCORE.INTRA.POLAR>
0

>  <SCORE.INTRA.POLAR.0>
0

>  <SCORE.INTRA.REPUL>
0

>  <SCORE.INTRA.REPUL.0>
0

>  <SCORE.INTRA.SOLV>
-0.690863

>  <SCORE.INTRA.SOLV.lig_0>
-32.2894

>  <SCORE.INTRA.VDW>
-2.15294

>  <SCORE.INTRA.VDW.0>
2.0241

>  <SCORE.INTRA.norm>
-0.172489

>  <SCORE.RESTR>
0

>  <SCORE.RESTR.CAVITY>
0

>  <SCORE.RESTR.norm>
0

>  <SCORE.SYSTEM>
0

>  <SCORE.SYSTEM.CONST>
0

>  <SCORE.SYSTEM.DIHEDRAL>
0

>  <SCORE.SYSTEM.SOLV>
0

>  <SCORE.SYSTEM.norm>
0

>  <SCORE.heavy>
12

>  <SCORE.norm>
-0.934784

>  <RMSD>
3.346

$$$$
ligand
 OpenBabel11021811513D
libRbt.so/2013.1/901 2013/11/27
 12 12  0  0  0  0  0  0  0  0999 V2000
    1.5795    4.5652  -28.9422 O   0  0  0  0  0  0  0  0  0  0  0  0
    2.6185   -0.1765  -29.7649 O   0  0  0  0  0  0  0  0  0  0  0  0
    2.0285    3.6385  -28.0262 C   0  0  0  0  0  0  0  0  0  0  0  0
    4.8815   -0.9923  -29.3657 O   0  0  0  0  0  0  0  0  0  0  0  0
    3.3412    3.0615  -28.3650 C   0  0  0  0  0  0  0  0  0  0  0  0
    3.7591   -1.5198  -31.4558 O   0  5  0  0  0  0  0  0  0  0  0  0
    3.3816    2.5729  -29.7497 N   0  3  0  0  0  0  0  0  0  0  0  0
    2.9363    3.6025  -30.6531 C   0  0  0  0  0  0  0  0  0  0  0  0
    1.6077    4.1481  -30.2433 C   0  0  0  0  0  0  0  0  0  0  0  0
    4.7069    2.1377  -30.0730 C   0  0  0  0  0  0  0  0  0  0  0  0
    4.6374    1.0093  -31.1330 C   0  0  0  0  0  0  0  0  0  0  0  0
    3.9325   -0.4843  -30.4059 S   0  0  1  0  0  0  0  0  0  0  0  0
  1  3  1  0  0  0  0
  1  9  1  0  0  0  0
  2 12  1  0  0  0  0
  3  5  1  0  0  0  0
  4 12  2  0  0  0  0
  5  7  1  0  0  0  0
  6 12  2  0  0  0  0
  7  8  1  0  0  0  0
  7 10  1  0  0  0  0
  8  9  1  0  0  0  0
 10 11  1  0  0  0  0
 12 11  1  6  0  0  0
M  CHG  2   6  -1   7   1
M  END
>  <CHROM.1>
150.59018318,-69.06489474,53.55975112,3.34138288,1.53108862,-29.90134342
2.82318854,1.17879200,-0.96508173

>  <Name>
ligand

>  <RI>
0

>  <Rbt.Current_Directory>
/home/itssahil/PROJECTS/Mol_Feturizer/New_Systems/rnas/4P95

>  <Rbt.Executable>
rbdock ($Id: //depot/dev/client3/rdock/2013.1/src/exe/rbdock.cxx#4 $)

>  <Rbt.Library>
libRbt.so (2013.1, Build901 2013/11/27)

>  <Rbt.Parameter_File>
/export/apps/rDock/src/rDock_2013.1_src/data/scripts/dock_solv.prm

>  <Rbt.Receptor>
prm/pocket_docking_3.prm

>  <SCORE>
-11.0468

>  <SCORE.INTER>
-8.37617

>  <SCORE.INTER.CONST>
1

>  <SCORE.INTER.POLAR>
0

>  <SCORE.INTER.ROT>
3

>  <SCORE.INTER.SOLV>
7.37342

>  <SCORE.INTER.VDW>
-13.6419

>  <SCORE.INTER.norm>
-0.698014

>  <SCORE.INTRA>
-2.67154

>  <SCORE.INTRA.DIHEDRAL>
1.19688

>  <SCORE.INTRA.DIHEDRAL.0>
0.283163

>  <SCORE.INTRA.POLAR>
0

>  <SCORE.INTRA.POLAR.0>
0

>  <SCORE.INTRA.REPUL>
0

>  <SCORE.INTRA.REPUL.0>
0

>  <SCORE.INTRA.SOLV>
-0.521992

>  <SCORE.INTRA.SOLV.lig_0>
-32.2894

>  <SCORE.INTRA.VDW>
-3.00898

>  <SCORE.INTRA.VDW.0>
2.0241

>  <SCORE.INTRA.norm>
-0.222628

>  <SCORE.RESTR>
0.000886523

>  <SCORE.RESTR.CAVITY>
0.000886523

>  <SCORE.RESTR.norm>
7.38769e-05

>  <SCORE.SYSTEM>
0

>  <SCORE.SYSTEM.CONST>
0

>  <SCORE.SYSTEM.DIHEDRAL>
0

>  <SCORE.SYSTEM.SOLV>
0

>  <SCORE.SYSTEM.norm>
0

>  <SCORE.heavy>
12

>  <SCORE.norm>
-0.920569

>  <RMSD>
3.348

$$$$
ligand
 OpenBabel11021811513D
libRbt.so/2013.1/901 2013/11/27
 12 12  0  0  0  0  0  0  0  0999 V2000
    1.8205    4.6740  -29.3365 O   0  0  0  0  0  0  0  0  0  0  0  0
    2.8077   -0.0800  -29.6069 O   0  0  0  0  0  0  0  0  0  0  0  0
    2.0632    3.6454  -28.4520 C   0  0  0  0  0  0  0  0  0  0  0  0
    5.0275   -0.9752  -29.1403 O   0  0  0  0  0  0  0  0  0  0  0  0
    3.3701    2.9938  -28.6481 C   0  0  0  0  0  0  0  0  0  0  0  0
    3.8481   -1.6593  -31.1522 O   0  5  0  0  0  0  0  0  0  0  0  0
    3.5854    2.6138  -30.0507 N   0  3  0  0  0  0  0  0  0  0  0  0
    3.3514    3.7435  -30.9131 C   0  0  0  0  0  0  0  0  0  0  0  0
    2.0160    4.3595  -30.6520 C   0  0  0  0  0  0  0  0  0  0  0  0
    4.9119    2.1010  -30.2171 C   0  0  0  0  0  0  0  0  0  0  0  0
    4.8698    0.8359  -31.1112 C   0  0  0  0  0  0  0  0  0  0  0  0
    4.0935   -0.5287  -30.2216 S   0  0  1  0  0  0  0  0  0  0  0  0
  1  3  1  0  0  0  0
  1  9  1  0  0  0  0
  2 12  1  0  0  0  0
  3  5  1  0  0  0  0
  4 12  2  0  0  0  0
  5  7  1  0  0  0  0
  6 12  2  0  0  0  0
  7  8  1  0  0  0  0
  7 10  1  0  0  0  0
  8  9  1  0  0  0  0
 10 11  1  0  0  0  0
 12 11  1  6  0  0  0
M  CHG  2   6  -1   7   1
M  END
>  <CHROM.1>
136.64617488,-70.16769848,48.96045656,3.53309930,1.53941106,-29.97682306
2.20109292,0.93783262,-0.40680076

>  <Name>
ligand

>  <RI>
0

>  <Rbt.Current_Directory>
/home/itssahil/PROJECTS/Mol_Feturizer/New_Systems/rnas/4P95

>  <Rbt.Executable>
rbdock ($Id: //depot/dev/client3/rdock/2013.1/src/exe/rbdock.cxx#4 $)

>  <Rbt.Library>
libRbt.so (2013.1, Build901 2013/11/27)

>  <Rbt.Parameter_File>
/export/apps/rDock/src/rDock_2013.1_src/data/scripts/dock_solv.prm

>  <Rbt.Receptor>
prm/pocket_docking_4.prm

>  <SCORE>
-11.3025

>  <SCORE.INTER>
-8.90208

>  <SCORE.INTER.CONST>
1

>  <SCORE.INTER.POLAR>
0

>  <SCORE.INTER.ROT>
3

>  <SCORE.INTER.SOLV>
8.18734

>  <SCORE.INTER.VDW>
-14.2638

>  <SCORE.INTER.norm>
-0.74184

>  <SCORE.INTRA>
-2.40043

>  <SCORE.INTRA.DIHEDRAL>
2.27369

>  <SCORE.INTRA.DIHEDRAL.0>
0.283163

>  <SCORE.INTRA.POLAR>
0

>  <SCORE.INTRA.POLAR.0>
0

>  <SCORE.INTRA.REPUL>
0

>  <SCORE.INTRA.REPUL.0>
0

>  <SCORE.INTRA.SOLV>
-0.530116

>  <SCORE.INTRA.SOLV.lig_0>
-32.2894

>  <SCORE.INTRA.VDW>
-3.27222

>  <SCORE.INTRA.VDW.0>
2.0241

>  <SCORE.INTRA.norm>
-0.200036

>  <SCORE.RESTR>
0

>  <SCORE.RESTR.CAVITY>
0

>  <SCORE.RESTR.norm>
0

>  <SCORE.SYSTEM>
0

>  <SCORE.SYSTEM.CONST>
0

>  <SCORE.SYSTEM.DIHEDRAL>
0

>  <SCORE.SYSTEM.SOLV>
0

>  <SCORE.SYSTEM.norm>
0

>  <SCORE.heavy>
12

>  <SCORE.norm>
-0.941876

>  <RMSD>
3.353

$$$$
ligand
 OpenBabel11021811513D
libRbt.so/2013.1/901 2013/11/27
 12 12  0  0  0  0  0  0  0  0999 V2000
    0.4101    3.3363  -27.1075 O   0  0  0  0  0  0  0  0  0  0  0  0
    6.3340    0.8775  -30.5000 O   0  0  0  0  0  0  0  0  0  0  0  0
    1.6883    3.3846  -26.5947 C   0  0  0  0  0  0  0  0  0  0  0  0
    4.8235    1.5517  -32.2917 O   0  0  0  0  0  0  0  0  0  0  0  0
    2.7405    3.2540  -27.6178 C   0  0  0  0  0  0  0  0  0  0  0  0
    5.1379   -0.8077  -31.8014 O   0  5  0  0  0  0  0  0  0  0  0  0
    2.5110    2.0957  -28.4918 N   0  3  0  0  0  0  0  0  0  0  0  0
    1.1716    2.1298  -29.0205 C   0  0  0  0  0  0  0  0  0  0  0  0
    0.1604    2.2744  -27.9308 C   0  0  0  0  0  0  0  0  0  0  0  0
    3.4828    2.0803  -29.5433 C   0  0  0  0  0  0  0  0  0  0  0  0
    3.6708    0.6290  -30.0535 C   0  0  0  0  0  0  0  0  0  0  0  0
    5.0581    0.5495  -31.2048 S   0  0  1  0  0  0  0  0  0  0  0  0
  1  3  1  0  0  0  0
  1  9  1  0  0  0  0
  2 12  1  0  0  0  0
  3  5  1  0  0  0  0
  4 12  2  0  0  0  0
  5  7  1  0  0  0  0
  6 12  2  0  0  0  0
  7  8  1  0  0  0  0
  7 10  1  0  0  0  0
  8  9  1  0  0  0  0
 10 11  1  0  0  0  0
 12 11  1  1  0  0  0
M  CHG  2   6  -1   7   1
M  END
>  <CHROM.1>
154.74934651,-171.73205759,64.69504880,3.32480503,1.64340984,-29.56293263
2.30317729,0.09025479,0.92205238

>  <Name>
ligand

>  <RI>
0

>  <Rbt.Current_Directory>
/home/itssahil/PROJECTS/Mol_Feturizer/New_Systems/rnas/4P95

>  <Rbt.Executable>
rbdock ($Id: //depot/dev/client3/rdock/2013.1/src/exe/rbdock.cxx#4 $)

>  <Rbt.Library>
libRbt.so (2013.1, Build901 2013/11/27)

>  <Rbt.Parameter_File>
/export/apps/rDock/src/rDock_2013.1_src/data/scripts/dock_solv.prm

>  <Rbt.Receptor>
prm/pocket_docking_5.prm

>  <SCORE>
-11.2364

>  <SCORE.INTER>
-9.15762

>  <SCORE.INTER.CONST>
1

>  <SCORE.INTER.POLAR>
0

>  <SCORE.INTER.ROT>
3

>  <SCORE.INTER.SOLV>
5.19072

>  <SCORE.INTER.VDW>
-13.4353

>  <SCORE.INTER.norm>
-0.763135

>  <SCORE.INTRA>
-2.07879

>  <SCORE.INTRA.DIHEDRAL>
0.881117

>  <SCORE.INTRA.DIHEDRAL.0>
0.283163

>  <SCORE.INTRA.POLAR>
0

>  <SCORE.INTRA.POLAR.0>
0

>  <SCORE.INTRA.REPUL>
0

>  <SCORE.INTRA.REPUL.0>
0

>  <SCORE.INTRA.SOLV>
-0.697357

>  <SCORE.INTRA.SOLV.lig_0>
-32.2894

>  <SCORE.INTRA.VDW>
-2.17067

>  <SCORE.INTRA.VDW.0>
2.0241

>  <SCORE.INTRA.norm>
-0.173233

>  <SCORE.RESTR>
0

>  <SCORE.RESTR.CAVITY>
0

>  <SCORE.RESTR.norm>
0

>  <SCORE.SYSTEM>
0

>  <SCORE.SYSTEM.CONST>
0

>  <SCORE.SYSTEM.DIHEDRAL>
0

>  <SCORE.SYSTEM.SOLV>
0

>  <SCORE.SYSTEM.norm>
0

>  <SCORE.heavy>
12

>  <SCORE.norm>
-0.936368

>  <RMSD>
3.353

$$$$
ligand
 OpenBabel11021811513D
libRbt.so/2013.1/901 2013/11/27
 12 12  0  0  0  0  0  0  0  0999 V2000
    0.4579    3.3546  -27.2063 O   0  0  0  0  0  0  0  0  0  0  0  0
    6.4615    0.4456  -30.2575 O   0  0  0  0  0  0  0  0  0  0  0  0
    1.7086    3.4016  -26.6296 C   0  0  0  0  0  0  0  0  0  0  0  0
    5.3791    1.8530  -31.9291 O   0  0  0  0  0  0  0  0  0  0  0  0
    2.8112    3.2831  -27.5998 C   0  0  0  0  0  0  0  0  0  0  0  0
    5.1450   -0.5629  -32.0504 O   0  5  0  0  0  0  0  0  0  0  0  0
    2.6294    2.1322  -28.4944 N   0  3  0  0  0  0  0  0  0  0  0  0
    1.3181    2.1675  -29.0893 C   0  0  0  0  0  0  0  0  0  0  0  0
    0.2531    2.2996  -28.0505 C   0  0  0  0  0  0  0  0  0  0  0  0
    3.6528    2.1289  -29.4959 C   0  0  0  0  0  0  0  0  0  0  0  0
    3.7666    0.7129  -30.1154 C   0  0  0  0  0  0  0  0  0  0  0  0
    5.2559    0.5948  -31.1275 S   0  0  1  0  0  0  0  0  0  0  0  0
  1  3  1  0  0  0  0
  1  9  1  0  0  0  0
  2 12  1  0  0  0  0
  3  5  1  0  0  0  0
  4 12  2  0  0  0  0
  5  7  1  0  0  0  0
  6 12  2  0  0  0  0
  7  8  1  0  0  0  0
  7 10  1  0  0  0  0
  8  9  1  0  0  0  0
 10 11  1  0  0  0  0
 12 11  1  1  0  0  0
M  CHG  2   6  -1   7   1
M  END
>  <CHROM.1>
160.70392228,-168.53510174,76.78352564,3.46982447,1.68188189,-29.54503608
2.33251190,0.06211649,0.92974931

>  <Name>
ligand

>  <RI>
0

>  <Rbt.Current_Directory>
/home/itssahil/PROJECTS/Mol_Feturizer/New_Systems/rnas/4P95

>  <Rbt.Executable>
rbdock ($Id: //depot/dev/client3/rdock/2013.1/src/exe/rbdock.cxx#4 $)

>  <Rbt.Library>
libRbt.so (2013.1, Build901 2013/11/27)

>  <Rbt.Parameter_File>
/export/apps/rDock/src/rDock_2013.1_src/data/scripts/dock_solv.prm

>  <Rbt.Receptor>
prm/pocket_docking_4.prm

>  <SCORE>
-11.1979

>  <SCORE.INTER>
-9.7486

>  <SCORE.INTER.CONST>
1

>  <SCORE.INTER.POLAR>
0

>  <SCORE.INTER.ROT>
3

>  <SCORE.INTER.SOLV>
5.70142

>  <SCORE.INTER.VDW>
-13.9995

>  <SCORE.INTER.norm>
-0.812383

>  <SCORE.INTRA>
-1.44933

>  <SCORE.INTRA.DIHEDRAL>
1.40697

>  <SCORE.INTRA.DIHEDRAL.0>
0.283163

>  <SCORE.INTRA.POLAR>
0

>  <SCORE.INTRA.POLAR.0>
0

>  <SCORE.INTRA.REPUL>
0

>  <SCORE.INTRA.REPUL.0>
0

>  <SCORE.INTRA.SOLV>
-0.64724

>  <SCORE.INTRA.SOLV.lig_0>
-32.2894

>  <SCORE.INTRA.VDW>
-1.8292

>  <SCORE.INTRA.VDW.0>
2.0241

>  <SCORE.INTRA.norm>
-0.120778

>  <SCORE.RESTR>
0

>  <SCORE.RESTR.CAVITY>
0

>  <SCORE.RESTR.norm>
0

>  <SCORE.SYSTEM>
0

>  <SCORE.SYSTEM.CONST>
0

>  <SCORE.SYSTEM.DIHEDRAL>
0

>  <SCORE.SYSTEM.SOLV>
0

>  <SCORE.SYSTEM.norm>
0

>  <SCORE.heavy>
12

>  <SCORE.norm>
-0.933161

>  <RMSD>
3.355

$$$$
ligand
 OpenBabel11021811513D
libRbt.so/2013.1/901 2013/11/27
 12 12  0  0  0  0  0  0  0  0999 V2000
    0.4510    3.3640  -27.1597 O   0  0  0  0  0  0  0  0  0  0  0  0
    6.4311    0.5197  -30.3617 O   0  0  0  0  0  0  0  0  0  0  0  0
    1.7114    3.4199  -26.6052 C   0  0  0  0  0  0  0  0  0  0  0  0
    5.1971    1.8193  -32.0154 O   0  0  0  0  0  0  0  0  0  0  0  0
    2.7972    3.2924  -27.5929 C   0  0  0  0  0  0  0  0  0  0  0  0
    5.0559   -0.6069  -32.0363 O   0  5  0  0  0  0  0  0  0  0  0  0
    2.6025    2.1311  -28.4712 N   0  3  0  0  0  0  0  0  0  0  0  0
    1.2810    2.1572  -29.0437 C   0  0  0  0  0  0  0  0  0  0  0  0
    0.2338    2.2991  -27.9882 C   0  0  0  0  0  0  0  0  0  0  0  0
    3.6084    2.1183  -29.4901 C   0  0  0  0  0  0  0  0  0  0  0  0
    3.7402    0.6871  -30.0699 C   0  0  0  0  0  0  0  0  0  0  0  0
    5.1722    0.5887  -31.1635 S   0  0  1  0  0  0  0  0  0  0  0  0
  1  3  1  0  0  0  0
  1  9  1  0  0  0  0
  2 12  1  0  0  0  0
  3  5  1  0  0  0  0
  4 12  2  0  0  0  0
  5  7  1  0  0  0  0
  6 12  2  0  0  0  0
  7  8  1  0  0  0  0
  7 10  1  0  0  0  0
  8  9  1  0  0  0  0
 10 11  1  0  0  0  0
 12 11  1  1  0  0  0
M  CHG  2   6  -1   7   1
M  END
>  <CHROM.1>
159.24417223,-171.08164735,76.49504675,3.41865693,1.67984480,-29.54623569
2.31617559,0.07845482,0.92388841

>  <Name>
ligand

>  <RI>
0

>  <Rbt.Current_Directory>
/home/itssahil/PROJECTS/Mol_Feturizer/New_Systems/rnas/4P95

>  <Rbt.Executable>
rbdock ($Id: //depot/dev/client3/rdock/2013.1/src/exe/rbdock.cxx#4 $)

>  <Rbt.Library>
libRbt.so (2013.1, Build901 2013/11/27)

>  <Rbt.Parameter_File>
/export/apps/rDock/src/rDock_2013.1_src/data/scripts/dock_solv.prm

>  <Rbt.Receptor>
prm/pocket_docking_4.prm

>  <SCORE>
-11.1863

>  <SCORE.INTER>
-9.59333

>  <SCORE.INTER.CONST>
1

>  <SCORE.INTER.POLAR>
0

>  <SCORE.INTER.ROT>
3

>  <SCORE.INTER.SOLV>
5.62347

>  <SCORE.INTER.VDW>
-13.87

>  <SCORE.INTER.norm>
-0.799444

>  <SCORE.INTRA>
-1.59298

>  <SCORE.INTRA.DIHEDRAL>
1.27504

>  <SCORE.INTRA.DIHEDRAL.0>
0.283163

>  <SCORE.INTRA.POLAR>
0

>  <SCORE.INTRA.POLAR.0>
0

>  <SCORE.INTRA.REPUL>
0

>  <SCORE.INTRA.REPUL.0>
0

>  <SCORE.INTRA.SOLV>
-0.649328

>  <SCORE.INTRA.SOLV.lig_0>
-32.2894

>  <SCORE.INTRA.VDW>
-1.90583

>  <SCORE.INTRA.VDW.0>
2.0241

>  <SCORE.INTRA.norm>
-0.132748

>  <SCORE.RESTR>
0

>  <SCORE.RESTR.CAVITY>
0

>  <SCORE.RESTR.norm>
0

>  <SCORE.SYSTEM>
0

>  <SCORE.SYSTEM.CONST>
0

>  <SCORE.SYSTEM.DIHEDRAL>
0

>  <SCORE.SYSTEM.SOLV>
0

>  <SCORE.SYSTEM.norm>
0

>  <SCORE.heavy>
12

>  <SCORE.norm>
-0.932192

>  <RMSD>
3.359

$$$$
ligand
 OpenBabel11021811513D
libRbt.so/2013.1/901 2013/11/27
 12 12  0  0  0  0  0  0  0  0999 V2000
    2.8025    1.6130  -30.1339 O   0  0  0  0  0  0  0  0  0  0  0  0
    8.3899   -3.0953  -30.6399 O   0  0  0  0  0  0  0  0  0  0  0  0
    3.9671    2.3396  -30.0116 C   0  0  0  0  0  0  0  0  0  0  0  0
    9.9691   -1.6214  -29.5084 O   0  0  0  0  0  0  0  0  0  0  0  0
    5.1521    1.6514  -30.5529 C   0  0  0  0  0  0  0  0  0  0  0  0
    9.1289   -1.0282  -31.7103 O   0  5  0  0  0  0  0  0  0  0  0  0
    5.2689    0.2801  -30.0390 N   0  3  0  0  0  0  0  0  0  0  0  0
    4.0311   -0.4303  -30.2331 C   0  0  0  0  0  0  0  0  0  0  0  0
    2.8743    0.3292  -29.6712 C   0  0  0  0  0  0  0  0  0  0  0  0
    6.3575   -0.3897  -30.6846 C   0  0  0  0  0  0  0  0  0  0  0  0
    7.4304   -0.7677  -29.6321 C   0  0  0  0  0  0  0  0  0  0  0  0
    8.7810   -1.6705  -30.4176 S   0  0  1  0  0  0  0  0  0  0  0  0
  1  3  1  0  0  0  0
  1  9  1  0  0  0  0
  2 12  1  0  0  0  0
  3  5  1  0  0  0  0
  4 12  2  0  0  0  0
  5  7  1  0  0  0  0
  6 12  2  0  0  0  0
  7  8  1  0  0  0  0
  7 10  1  0  0  0  0
  8  9  1  0  0  0  0
 10 11  1  0  0  0  0
 12 11  1  1  0  0  0
M  CHG  2   6  -1   7   1
M  END
>  <CHROM.1>
117.31961113,177.79163942,-78.94919124,6.47766070,-0.39856091,-30.29261653
2.64587508,0.11839555,-0.09294915

>  <Name>
ligand

>  <RI>
0

>  <Rbt.Current_Directory>
/home/itssahil/PROJECTS/Mol_Feturizer/New_Systems/rnas/4P95

>  <Rbt.Executable>
rbdock ($Id: //depot/dev/client3/rdock/2013.1/src/exe/rbdock.cxx#4 $)

>  <Rbt.Library>
libRbt.so (2013.1, Build901 2013/11/27)

>  <Rbt.Parameter_File>
/export/apps/rDock/src/rDock_2013.1_src/data/scripts/dock_solv.prm

>  <Rbt.Receptor>
prm/pocket_docking_8.prm

>  <SCORE>
-9.6942

>  <SCORE.INTER>
-8.61023

>  <SCORE.INTER.CONST>
1

>  <SCORE.INTER.POLAR>
0

>  <SCORE.INTER.ROT>
3

>  <SCORE.INTER.SOLV>
6.99718

>  <SCORE.INTER.VDW>
-13.6725

>  <SCORE.INTER.norm>
-0.717519

>  <SCORE.INTRA>
-1.08397

>  <SCORE.INTRA.DIHEDRAL>
2.89177

>  <SCORE.INTRA.DIHEDRAL.0>
0.283163

>  <SCORE.INTRA.POLAR>
0

>  <SCORE.INTRA.POLAR.0>
0

>  <SCORE.INTRA.REPUL>
0

>  <SCORE.INTRA.REPUL.0>
0

>  <SCORE.INTRA.SOLV>
0.199076

>  <SCORE.INTRA.SOLV.lig_0>
-32.2894

>  <SCORE.INTRA.VDW>
-2.6294

>  <SCORE.INTRA.VDW.0>
2.0241

>  <SCORE.INTRA.norm>
-0.0903312

>  <SCORE.RESTR>
0

>  <SCORE.RESTR.CAVITY>
0

>  <SCORE.RESTR.norm>
0

>  <SCORE.SYSTEM>
0

>  <SCORE.SYSTEM.CONST>
0

>  <SCORE.SYSTEM.DIHEDRAL>
0

>  <SCORE.SYSTEM.SOLV>
0

>  <SCORE.SYSTEM.norm>
0

>  <SCORE.heavy>
12

>  <SCORE.norm>
-0.80785

>  <RMSD>
3.359

$$$$
ligand
 OpenBabel11021811513D
libRbt.so/2013.1/901 2013/11/27
 12 12  0  0  0  0  0  0  0  0999 V2000
    1.5524    4.4114  -28.9870 O   0  0  0  0  0  0  0  0  0  0  0  0
    3.1109   -0.2034  -29.4581 O   0  0  0  0  0  0  0  0  0  0  0  0
    2.0110    3.4170  -28.1503 C   0  0  0  0  0  0  0  0  0  0  0  0
    5.4748   -0.6933  -29.1135 O   0  0  0  0  0  0  0  0  0  0  0  0
    3.3671    2.9455  -28.4813 C   0  0  0  0  0  0  0  0  0  0  0  0
    4.3174   -1.6218  -31.0383 O   0  5  0  0  0  0  0  0  0  0  0  0
    3.4952    2.6083  -29.9053 N   0  3  0  0  0  0  0  0  0  0  0  0
    3.0340    3.7038  -30.7188 C   0  0  0  0  0  0  0  0  0  0  0  0
    1.6607    4.1359  -30.3212 C   0  0  0  0  0  0  0  0  0  0  0  0
    4.8554    2.2766  -30.2057 C   0  0  0  0  0  0  0  0  0  0  0  0
    4.8946    1.0116  -31.1001 C   0  0  0  0  0  0  0  0  0  0  0  0
    4.4173   -0.4417  -30.1428 S   0  0  1  0  0  0  0  0  0  0  0  0
  1  3  1  0  0  0  0
  1  9  1  0  0  0  0
  2 12  1  0  0  0  0
  3  5  1  0  0  0  0
  4 12  2  0  0  0  0
  5  7  1  0  0  0  0
  6 12  2  0  0  0  0
  7  8  1  0  0  0  0
  7 10  1  0  0  0  0
  8  9  1  0  0  0  0
 10 11  1  0  0  0  0
 12 11  1  6  0  0  0
M  CHG  2   6  -1   7   1
M  END
>  <CHROM.1>
135.79998530,-70.78621992,52.51460293,3.60357902,1.53425217,-29.82729884
2.48107632,0.95025686,-0.63011027

>  <Name>
ligand

>  <RI>
0

>  <Rbt.Current_Directory>
/home/itssahil/PROJECTS/Mol_Feturizer/New_Systems/rnas/4P95

>  <Rbt.Executable>
rbdock ($Id: //depot/dev/client3/rdock/2013.1/src/exe/rbdock.cxx#4 $)

>  <Rbt.Library>
libRbt.so (2013.1, Build901 2013/11/27)

>  <Rbt.Parameter_File>
/export/apps/rDock/src/rDock_2013.1_src/data/scripts/dock_solv.prm

>  <Rbt.Receptor>
prm/pocket_docking_7.prm

>  <SCORE>
-11.7009

>  <SCORE.INTER>
-9.23208

>  <SCORE.INTER.CONST>
1

>  <SCORE.INTER.POLAR>
0

>  <SCORE.INTER.ROT>
3

>  <SCORE.INTER.SOLV>
7.57332

>  <SCORE.INTER.VDW>
-14.2792

>  <SCORE.INTER.norm>
-0.76934

>  <SCORE.INTRA>
-2.46877

>  <SCORE.INTRA.DIHEDRAL>
2.21702

>  <SCORE.INTRA.DIHEDRAL.0>
0.283163

>  <SCORE.INTRA.POLAR>
0

>  <SCORE.INTRA.POLAR.0>
0

>  <SCORE.INTRA.REPUL>
0

>  <SCORE.INTRA.REPUL.0>
0

>  <SCORE.INTRA.SOLV>
-0.534353

>  <SCORE.INTRA.SOLV.lig_0>
-32.2894

>  <SCORE.INTRA.VDW>
-3.31011

>  <SCORE.INTRA.VDW.0>
2.0241

>  <SCORE.INTRA.norm>
-0.205731

>  <SCORE.RESTR>
0

>  <SCORE.RESTR.CAVITY>
0

>  <SCORE.RESTR.norm>
0

>  <SCORE.SYSTEM>
0

>  <SCORE.SYSTEM.CONST>
0

>  <SCORE.SYSTEM.DIHEDRAL>
0

>  <SCORE.SYSTEM.SOLV>
0

>  <SCORE.SYSTEM.norm>
0

>  <SCORE.heavy>
12

>  <SCORE.norm>
-0.975071

>  <RMSD>
3.361

$$$$
ligand
 OpenBabel11021811513D
libRbt.so/2013.1/901 2013/11/27
 12 12  0  0  0  0  0  0  0  0999 V2000
    0.6166    3.4077  -26.8369 O   0  0  0  0  0  0  0  0  0  0  0  0
    6.1943    1.1604  -30.5698 O   0  0  0  0  0  0  0  0  0  0  0  0
    1.9481    3.3284  -26.4905 C   0  0  0  0  0  0  0  0  0  0  0  0
    4.5956    1.2187  -32.4103 O   0  0  0  0  0  0  0  0  0  0  0  0
    2.8494    3.1613  -27.6441 C   0  0  0  0  0  0  0  0  0  0  0  0
    5.3105   -0.9180  -31.4993 O   0  5  0  0  0  0  0  0  0  0  0  0
    2.4140    2.0676  -28.5229 N   0  3  0  0  0  0  0  0  0  0  0  0
    1.0271    2.2346  -28.8741 C   0  0  0  0  0  0  0  0  0  0  0  0
    0.1758    2.4092  -27.6593 C   0  0  0  0  0  0  0  0  0  0  0  0
    3.2422    2.0229  -29.6901 C   0  0  0  0  0  0  0  0  0  0  0  0
    3.6123    0.5517  -30.0066 C   0  0  0  0  0  0  0  0  0  0  0  0
    4.9961    0.4937  -31.1633 S   0  0  1  0  0  0  0  0  0  0  0  0
  1  3  1  0  0  0  0
  1  9  1  0  0  0  0
  2 12  1  0  0  0  0
  3  5  1  0  0  0  0
  4 12  2  0  0  0  0
  5  7  1  0  0  0  0
  6 12  2  0  0  0  0
  7  8  1  0  0  0  0
  7 10  1  0  0  0  0
  8  9  1  0  0  0  0
 10 11  1  0  0  0  0
 12 11  1  1  0  0  0
M  CHG  2   6  -1   7   1
M  END
>  <CHROM.1>
136.65494109,-164.34094735,60.60064137,3.30422350,1.62165542,-29.49807554
-2.26912864,-0.05357656,-2.18577821

>  <Name>
ligand

>  <RI>
0

>  <Rbt.Current_Directory>
/home/itssahil/PROJECTS/Mol_Feturizer/New_Systems/rnas/4P95

>  <Rbt.Executable>
rbdock ($Id: //depot/dev/client3/rdock/2013.1/src/exe/rbdock.cxx#4 $)

>  <Rbt.Library>
libRbt.so (2013.1, Build901 2013/11/27)

>  <Rbt.Parameter_File>
/export/apps/rDock/src/rDock_2013.1_src/data/scripts/dock_solv.prm

>  <Rbt.Receptor>
prm/pocket_docking_8.prm

>  <SCORE>
-10.7646

>  <SCORE.INTER>
-9.05286

>  <SCORE.INTER.CONST>
1

>  <SCORE.INTER.POLAR>
0

>  <SCORE.INTER.ROT>
3

>  <SCORE.INTER.SOLV>
5.09783

>  <SCORE.INTER.VDW>
-13.3345

>  <SCORE.INTER.norm>
-0.754405

>  <SCORE.INTRA>
-1.7117

>  <SCORE.INTRA.DIHEDRAL>
2.51436

>  <SCORE.INTRA.DIHEDRAL.0>
0.283163

>  <SCORE.INTRA.POLAR>
0

>  <SCORE.INTRA.POLAR.0>
0

>  <SCORE.INTRA.REPUL>
0

>  <SCORE.INTRA.REPUL.0>
0

>  <SCORE.INTRA.SOLV>
-0.711827

>  <SCORE.INTRA.SOLV.lig_0>
-32.2894

>  <SCORE.INTRA.VDW>
-2.61297

>  <SCORE.INTRA.VDW.0>
2.0241

>  <SCORE.INTRA.norm>
-0.142642

>  <SCORE.RESTR>
0

>  <SCORE.RESTR.CAVITY>
0

>  <SCORE.RESTR.norm>
0

>  <SCORE.SYSTEM>
0

>  <SCORE.SYSTEM.CONST>
0

>  <SCORE.SYSTEM.DIHEDRAL>
0

>  <SCORE.SYSTEM.SOLV>
0

>  <SCORE.SYSTEM.norm>
0

>  <SCORE.heavy>
12

>  <SCORE.norm>
-0.897047

>  <RMSD>
3.361

$$$$
ligand
 OpenBabel11021811513D
libRbt.so/2013.1/901 2013/11/27
 12 12  0  0  0  0  0  0  0  0999 V2000
    0.6153    2.2707  -27.3209 O   0  0  0  0  0  0  0  0  0  0  0  0
    3.5190    0.5232  -31.4581 O   0  0  0  0  0  0  0  0  0  0  0  0
    0.6701    1.8213  -28.6225 C   0  0  0  0  0  0  0  0  0  0  0  0
    5.9105    0.9886  -31.3557 O   0  0  0  0  0  0  0  0  0  0  0  0
    2.0402    1.7205  -29.1552 C   0  0  0  0  0  0  0  0  0  0  0  0
    4.6020    1.8006  -33.2358 O   0  5  0  0  0  0  0  0  0  0  0  0
    2.8027    2.9570  -28.9374 N   0  3  0  0  0  0  0  0  0  0  0  0
    2.7328    3.3464  -27.5524 C   0  0  0  0  0  0  0  0  0  0  0  0
    1.3183    3.4172  -27.0782 C   0  0  0  0  0  0  0  0  0  0  0  0
    4.1595    2.7713  -29.3555 C   0  0  0  0  0  0  0  0  0  0  0  0
    4.2779    3.0602  -30.8735 C   0  0  0  0  0  0  0  0  0  0  0  0
    4.5787    1.5272  -31.7766 S   0  0  1  0  0  0  0  0  0  0  0  0
  1  3  1  0  0  0  0
  1  9  1  0  0  0  0
  2 12  1  0  0  0  0
  3  5  1  0  0  0  0
  4 12  2  0  0  0  0
  5  7  1  0  0  0  0
  6 12  2  0  0  0  0
  7  8  1  0  0  0  0
  7 10  1  0  0  0  0
  8  9  1  0  0  0  0
 10 11  1  0  0  0  0
 12 11  1  1  0  0  0
M  CHG  2   6  -1   7   1
M  END
>  <CHROM.1>
85.98256135,-109.76118873,54.82766912,3.26210231,2.09063466,-29.96254541
2.30486530,0.43964905,0.92540543

>  <Name>
ligand

>  <RI>
0

>  <Rbt.Current_Directory>
/home/itssahil/PROJECTS/Mol_Feturizer/New_Systems/rnas/4P95

>  <Rbt.Executable>
rbdock ($Id: //depot/dev/client3/rdock/2013.1/src/exe/rbdock.cxx#4 $)

>  <Rbt.Library>
libRbt.so (2013.1, Build901 2013/11/27)

>  <Rbt.Parameter_File>
/export/apps/rDock/src/rDock_2013.1_src/data/scripts/dock_solv.prm

>  <Rbt.Receptor>
prm/pocket_docking_7.prm

>  <SCORE>
-9.09034

>  <SCORE.INTER>
-9.06163

>  <SCORE.INTER.CONST>
1

>  <SCORE.INTER.POLAR>
0

>  <SCORE.INTER.ROT>
3

>  <SCORE.INTER.SOLV>
7.13599

>  <SCORE.INTER.VDW>
-14.0198

>  <SCORE.INTER.norm>
-0.755136

>  <SCORE.INTRA>
-0.0287112

>  <SCORE.INTRA.DIHEDRAL>
5.91872

>  <SCORE.INTRA.DIHEDRAL.0>
0.283163

>  <SCORE.INTRA.POLAR>
0

>  <SCORE.INTRA.POLAR.0>
0

>  <SCORE.INTRA.REPUL>
0

>  <SCORE.INTRA.REPUL.0>
0

>  <SCORE.INTRA.SOLV>
-0.771615

>  <SCORE.INTRA.SOLV.lig_0>
-32.2894

>  <SCORE.INTRA.VDW>
-2.60227

>  <SCORE.INTRA.VDW.0>
2.0241

>  <SCORE.INTRA.norm>
-0.0023926

>  <SCORE.RESTR>
0

>  <SCORE.RESTR.CAVITY>
0

>  <SCORE.RESTR.norm>
0

>  <SCORE.SYSTEM>
0

>  <SCORE.SYSTEM.CONST>
0

>  <SCORE.SYSTEM.DIHEDRAL>
0

>  <SCORE.SYSTEM.SOLV>
0

>  <SCORE.SYSTEM.norm>
0

>  <SCORE.heavy>
12

>  <SCORE.norm>
-0.757529

>  <RMSD>
3.365

$$$$
ligand
 OpenBabel11021811513D
libRbt.so/2013.1/901 2013/11/27
 12 12  0  0  0  0  0  0  0  0999 V2000
    1.5718    4.4240  -28.9315 O   0  0  0  0  0  0  0  0  0  0  0  0
    3.0992   -0.2191  -29.4572 O   0  0  0  0  0  0  0  0  0  0  0  0
    2.0331    3.4322  -28.0933 C   0  0  0  0  0  0  0  0  0  0  0  0
    5.4632   -0.7086  -29.1133 O   0  0  0  0  0  0  0  0  0  0  0  0
    3.3850    2.9541  -28.4321 C   0  0  0  0  0  0  0  0  0  0  0  0
    4.3123   -1.6147  -31.0525 O   0  5  0  0  0  0  0  0  0  0  0  0
    3.5010    2.6092  -29.8553 N   0  3  0  0  0  0  0  0  0  0  0  0
    3.0376    3.7023  -30.6709 C   0  0  0  0  0  0  0  0  0  0  0  0
    1.6689    4.1413  -30.2651 C   0  0  0  0  0  0  0  0  0  0  0  0
    4.8577    2.2710  -30.1644 C   0  0  0  0  0  0  0  0  0  0  0  0
    4.8843    1.0204  -31.0792 C   0  0  0  0  0  0  0  0  0  0  0  0
    4.4077   -0.4460  -30.1418 S   0  0  1  0  0  0  0  0  0  0  0  0
  1  3  1  0  0  0  0
  1  9  1  0  0  0  0
  2 12  1  0  0  0  0
  3  5  1  0  0  0  0
  4 12  2  0  0  0  0
  5  7  1  0  0  0  0
  6 12  2  0  0  0  0
  7  8  1  0  0  0  0
  7 10  1  0  0  0  0
  8  9  1  0  0  0  0
 10 11  1  0  0  0  0
 12 11  1  6  0  0  0
M  CHG  2   6  -1   7   1
M  END
>  <CHROM.1>
137.08863121,-71.16731613,53.23164064,3.60482034,1.53492039,-29.80037000
2.49770870,0.96813028,-0.64097233

>  <Name>
ligand

>  <RI>
0

>  <Rbt.Current_Directory>
/home/itssahil/PROJECTS/Mol_Feturizer/New_Systems/rnas/4P95

>  <Rbt.Executable>
rbdock ($Id: //depot/dev/client3/rdock/2013.1/src/exe/rbdock.cxx#4 $)

>  <Rbt.Library>
libRbt.so (2013.1, Build901 2013/11/27)

>  <Rbt.Parameter_File>
/export/apps/rDock/src/rDock_2013.1_src/data/scripts/dock_solv.prm

>  <Rbt.Receptor>
prm/pocket_docking_8.prm

>  <SCORE>
-11.7428

>  <SCORE.INTER>
-9.25802

>  <SCORE.INTER.CONST>
1

>  <SCORE.INTER.POLAR>
0

>  <SCORE.INTER.ROT>
3

>  <SCORE.INTER.SOLV>
7.6654

>  <SCORE.INTER.VDW>
-14.3271

>  <SCORE.INTER.norm>
-0.771502

>  <SCORE.INTRA>
-2.48481

>  <SCORE.INTRA.DIHEDRAL>
2.16034

>  <SCORE.INTRA.DIHEDRAL.0>
0.283163

>  <SCORE.INTRA.POLAR>
0

>  <SCORE.INTRA.POLAR.0>
0

>  <SCORE.INTRA.REPUL>
0

>  <SCORE.INTRA.REPUL.0>
0

>  <SCORE.INTRA.SOLV>
-0.537249

>  <SCORE.INTRA.SOLV.lig_0>
-32.2894

>  <SCORE.INTRA.VDW>
-3.29636

>  <SCORE.INTRA.VDW.0>
2.0241

>  <SCORE.INTRA.norm>
-0.207068

>  <SCORE.RESTR>
0

>  <SCORE.RESTR.CAVITY>
0

>  <SCORE.RESTR.norm>
0

>  <SCORE.SYSTEM>
0

>  <SCORE.SYSTEM.CONST>
0

>  <SCORE.SYSTEM.DIHEDRAL>
0

>  <SCORE.SYSTEM.SOLV>
0

>  <SCORE.SYSTEM.norm>
0

>  <SCORE.heavy>
12

>  <SCORE.norm>
-0.978569

>  <RMSD>
3.368

$$$$
ligand
 OpenBabel11021811513D
libRbt.so/2013.1/901 2013/11/27
 12 12  0  0  0  0  0  0  0  0999 V2000
    1.8652    4.6813  -29.3123 O   0  0  0  0  0  0  0  0  0  0  0  0
    2.7964   -0.0848  -29.5851 O   0  0  0  0  0  0  0  0  0  0  0  0
    2.1312    3.6778  -28.4060 C   0  0  0  0  0  0  0  0  0  0  0  0
    5.0130   -0.9817  -29.1067 O   0  0  0  0  0  0  0  0  0  0  0  0
    3.4313    3.0183  -28.6198 C   0  0  0  0  0  0  0  0  0  0  0  0
    3.8347   -1.6818  -31.1136 O   0  5  0  0  0  0  0  0  0  0  0  0
    3.6069    2.5981  -30.0164 N   0  3  0  0  0  0  0  0  0  0  0  0
    3.3503    3.7032  -30.9038 C   0  0  0  0  0  0  0  0  0  0  0  0
    2.0235    4.3291  -30.6233 C   0  0  0  0  0  0  0  0  0  0  0  0
    4.9276    2.0780  -30.2051 C   0  0  0  0  0  0  0  0  0  0  0  0
    4.8632    0.8110  -31.0950 C   0  0  0  0  0  0  0  0  0  0  0  0
    4.0818   -0.5429  -30.1935 S   0  0  1  0  0  0  0  0  0  0  0  0
  1  3  1  0  0  0  0
  1  9  1  0  0  0  0
  2 12  1  0  0  0  0
  3  5  1  0  0  0  0
  4 12  2  0  0  0  0
  5  7  1  0  0  0  0
  6 12  2  0  0  0  0
  7  8  1  0  0  0  0
  7 10  1  0  0  0  0
  8  9  1  0  0  0  0
 10 11  1  0  0  0  0
 12 11  1  6  0  0  0
M  CHG  2   6  -1   7   1
M  END
>  <CHROM.1>
138.25228757,-69.63643119,49.85023848,3.54361774,1.52928110,-29.94983015
2.21852745,0.97327257,-0.43284379

>  <Name>
ligand

>  <RI>
0

>  <Rbt.Current_Directory>
/home/itssahil/PROJECTS/Mol_Feturizer/New_Systems/rnas/4P95

>  <Rbt.Executable>
rbdock ($Id: //depot/dev/client3/rdock/2013.1/src/exe/rbdock.cxx#4 $)

>  <Rbt.Library>
libRbt.so (2013.1, Build901 2013/11/27)

>  <Rbt.Parameter_File>
/export/apps/rDock/src/rDock_2013.1_src/data/scripts/dock_solv.prm

>  <Rbt.Receptor>
prm/pocket_docking_4.prm

>  <SCORE>
-11.3278

>  <SCORE.INTER>
-8.86074

>  <SCORE.INTER.CONST>
1

>  <SCORE.INTER.POLAR>
0

>  <SCORE.INTER.ROT>
3

>  <SCORE.INTER.SOLV>
8.45527

>  <SCORE.INTER.VDW>
-14.3256

>  <SCORE.INTER.norm>
-0.738395

>  <SCORE.INTRA>
-2.46739

>  <SCORE.INTRA.DIHEDRAL>
2.11089

>  <SCORE.INTRA.DIHEDRAL.0>
0.283163

>  <SCORE.INTRA.POLAR>
0

>  <SCORE.INTRA.POLAR.0>
0

>  <SCORE.INTRA.REPUL>
0

>  <SCORE.INTRA.REPUL.0>
0

>  <SCORE.INTRA.SOLV>
-0.524061

>  <SCORE.INTRA.SOLV.lig_0>
-32.2894

>  <SCORE.INTRA.VDW>
-3.2608

>  <SCORE.INTRA.VDW.0>
2.0241

>  <SCORE.INTRA.norm>
-0.205615

>  <SCORE.RESTR>
0.000280996

>  <SCORE.RESTR.CAVITY>
0.000280996

>  <SCORE.RESTR.norm>
2.34163e-05

>  <SCORE.SYSTEM>
0

>  <SCORE.SYSTEM.CONST>
0

>  <SCORE.SYSTEM.DIHEDRAL>
0

>  <SCORE.SYSTEM.SOLV>
0

>  <SCORE.SYSTEM.norm>
0

>  <SCORE.heavy>
12

>  <SCORE.norm>
-0.943987

>  <RMSD>
3.369

$$$$
ligand
 OpenBabel11021811513D
libRbt.so/2013.1/901 2013/11/27
 12 12  0  0  0  0  0  0  0  0999 V2000
    0.5892    3.4111  -26.8393 O   0  0  0  0  0  0  0  0  0  0  0  0
    6.1672    1.1605  -30.5809 O   0  0  0  0  0  0  0  0  0  0  0  0
    1.9179    3.3145  -26.4864 C   0  0  0  0  0  0  0  0  0  0  0  0
    4.5440    1.1639  -32.4007 O   0  0  0  0  0  0  0  0  0  0  0  0
    2.8228    3.1379  -27.6357 C   0  0  0  0  0  0  0  0  0  0  0  0
    5.3003   -0.9461  -31.4615 O   0  5  0  0  0  0  0  0  0  0  0  0
    2.3781    2.0513  -28.5185 N   0  3  0  0  0  0  0  0  0  0  0  0
    0.9952    2.2363  -28.8764 C   0  0  0  0  0  0  0  0  0  0  0  0
    0.1401    2.4196  -27.6656 C   0  0  0  0  0  0  0  0  0  0  0  0
    3.2116    1.9981  -29.6816 C   0  0  0  0  0  0  0  0  0  0  0  0
    3.6016    0.5268  -29.9726 C   0  0  0  0  0  0  0  0  0  0  0  0
    4.9708    0.4670  -31.1465 S   0  0  1  0  0  0  0  0  0  0  0  0
  1  3  1  0  0  0  0
  1  9  1  0  0  0  0
  2 12  1  0  0  0  0
  3  5  1  0  0  0  0
  4 12  2  0  0  0  0
  5  7  1  0  0  0  0
  6 12  2  0  0  0  0
  7  8  1  0  0  0  0
  7 10  1  0  0  0  0
  8  9  1  0  0  0  0
 10 11  1  0  0  0  0
 12 11  1  1  0  0  0
M  CHG  2   6  -1   7   1
M  END
>  <CHROM.1>
134.87583269,-165.38495208,60.82128133,3.27591814,1.60410801,-29.48884540
-2.26965841,-0.04104378,-2.18166599

>  <Name>
ligand

>  <RI>
0

>  <Rbt.Current_Directory>
/home/itssahil/PROJECTS/Mol_Feturizer/New_Systems/rnas/4P95

>  <Rbt.Executable>
rbdock ($Id: //depot/dev/client3/rdock/2013.1/src/exe/rbdock.cxx#4 $)

>  <Rbt.Library>
libRbt.so (2013.1, Build901 2013/11/27)

>  <Rbt.Parameter_File>
/export/apps/rDock/src/rDock_2013.1_src/data/scripts/dock_solv.prm

>  <Rbt.Receptor>
prm/pocket_docking_6.prm

>  <SCORE>
-10.7686

>  <SCORE.INTER>
-9.02834

>  <SCORE.INTER.CONST>
1

>  <SCORE.INTER.POLAR>
0

>  <SCORE.INTER.ROT>
3

>  <SCORE.INTER.SOLV>
5.11874

>  <SCORE.INTER.VDW>
-13.3251

>  <SCORE.INTER.norm>
-0.752362

>  <SCORE.INTRA>
-1.74028

>  <SCORE.INTRA.DIHEDRAL>
2.49471

>  <SCORE.INTRA.DIHEDRAL.0>
0.283163

>  <SCORE.INTRA.POLAR>
0

>  <SCORE.INTRA.POLAR.0>
0

>  <SCORE.INTRA.REPUL>
0

>  <SCORE.INTRA.REPUL.0>
0

>  <SCORE.INTRA.SOLV>
-0.711734

>  <SCORE.INTRA.SOLV.lig_0>
-32.2894

>  <SCORE.INTRA.VDW>
-2.63177

>  <SCORE.INTRA.VDW.0>
2.0241

>  <SCORE.INTRA.norm>
-0.145023

>  <SCORE.RESTR>
0

>  <SCORE.RESTR.CAVITY>
0

>  <SCORE.RESTR.norm>
0

>  <SCORE.SYSTEM>
0

>  <SCORE.SYSTEM.CONST>
0

>  <SCORE.SYSTEM.DIHEDRAL>
0

>  <SCORE.SYSTEM.SOLV>
0

>  <SCORE.SYSTEM.norm>
0

>  <SCORE.heavy>
12

>  <SCORE.norm>
-0.897385

>  <RMSD>
3.370

$$$$
ligand
 OpenBabel11021811513D
libRbt.so/2013.1/901 2013/11/27
 12 12  0  0  0  0  0  0  0  0999 V2000
    1.6249    4.5825  -29.0001 O   0  0  0  0  0  0  0  0  0  0  0  0
    2.5298   -0.0599  -29.8522 O   0  0  0  0  0  0  0  0  0  0  0  0
    2.0170    3.6085  -28.1075 C   0  0  0  0  0  0  0  0  0  0  0  0
    4.7179   -0.9532  -29.2519 O   0  0  0  0  0  0  0  0  0  0  0  0
    3.3316    3.0191  -28.4164 C   0  0  0  0  0  0  0  0  0  0  0  0
    3.7242   -1.5306  -31.3932 O   0  5  0  0  0  0  0  0  0  0  0  0
    3.4211    2.5891  -29.8182 N   0  3  0  0  0  0  0  0  0  0  0  0
    3.0341    3.6654  -30.6937 C   0  0  0  0  0  0  0  0  0  0  0  0
    1.7000    4.2207  -30.3158 C   0  0  0  0  0  0  0  0  0  0  0  0
    4.7503    2.1405  -30.1050 C   0  0  0  0  0  0  0  0  0  0  0  0
    4.6945    0.9705  -31.1197 C   0  0  0  0  0  0  0  0  0  0  0  0
    3.8704   -0.4546  -30.3806 S   0  0  1  0  0  0  0  0  0  0  0  0
  1  3  1  0  0  0  0
  1  9  1  0  0  0  0
  2 12  1  0  0  0  0
  3  5  1  0  0  0  0
  4 12  2  0  0  0  0
  5  7  1  0  0  0  0
  6 12  2  0  0  0  0
  7  8  1  0  0  0  0
  7 10  1  0  0  0  0
  8  9  1  0  0  0  0
 10 11  1  0  0  0  0
 12 11  1  6  0  0  0
M  CHG  2   6  -1   7   1
M  END
>  <CHROM.1>
145.44473486,-65.01792176,53.98814919,3.33352710,1.55246684,-29.91861522
2.39589183,1.07936188,-0.52108418

>  <Name>
ligand

>  <RI>
0

>  <Rbt.Current_Directory>
/home/itssahil/PROJECTS/Mol_Feturizer/New_Systems/rnas/4P95

>  <Rbt.Executable>
rbdock ($Id: //depot/dev/client3/rdock/2013.1/src/exe/rbdock.cxx#4 $)

>  <Rbt.Library>
libRbt.so (2013.1, Build901 2013/11/27)

>  <Rbt.Parameter_File>
/export/apps/rDock/src/rDock_2013.1_src/data/scripts/dock_solv.prm

>  <Rbt.Receptor>
prm/pocket_docking_3.prm

>  <SCORE>
-11.2901

>  <SCORE.INTER>
-8.51826

>  <SCORE.INTER.CONST>
1

>  <SCORE.INTER.POLAR>
0

>  <SCORE.INTER.ROT>
3

>  <SCORE.INTER.SOLV>
7.64241

>  <SCORE.INTER.VDW>
-13.8263

>  <SCORE.INTER.norm>
-0.709855

>  <SCORE.INTRA>
-2.77187

>  <SCORE.INTRA.DIHEDRAL>
1.2964

>  <SCORE.INTRA.DIHEDRAL.0>
0.283163

>  <SCORE.INTRA.POLAR>
0

>  <SCORE.INTRA.POLAR.0>
0

>  <SCORE.INTRA.REPUL>
0

>  <SCORE.INTRA.REPUL.0>
0

>  <SCORE.INTRA.SOLV>
-0.476601

>  <SCORE.INTRA.SOLV.lig_0>
-32.2894

>  <SCORE.INTRA.VDW>
-3.18177

>  <SCORE.INTRA.VDW.0>
2.0241

>  <SCORE.INTRA.norm>
-0.230989

>  <SCORE.RESTR>
0

>  <SCORE.RESTR.CAVITY>
0

>  <SCORE.RESTR.norm>
0

>  <SCORE.SYSTEM>
0

>  <SCORE.SYSTEM.CONST>
0

>  <SCORE.SYSTEM.DIHEDRAL>
0

>  <SCORE.SYSTEM.SOLV>
0

>  <SCORE.SYSTEM.norm>
0

>  <SCORE.heavy>
12

>  <SCORE.norm>
-0.940844

>  <RMSD>
3.371

$$$$
ligand
 OpenBabel11021811513D
libRbt.so/2013.1/901 2013/11/27
 12 12  0  0  0  0  0  0  0  0999 V2000
    1.8117    4.6774  -29.3407 O   0  0  0  0  0  0  0  0  0  0  0  0
    2.7863   -0.0568  -29.5832 O   0  0  0  0  0  0  0  0  0  0  0  0
    2.0798    3.6865  -28.4212 C   0  0  0  0  0  0  0  0  0  0  0  0
    4.9858   -1.0106  -29.1373 O   0  0  0  0  0  0  0  0  0  0  0  0
    3.3880    3.0374  -28.6171 C   0  0  0  0  0  0  0  0  0  0  0  0
    3.7852   -1.6361  -31.1556 O   0  5  0  0  0  0  0  0  0  0  0  0
    3.5793    2.6037  -30.0075 N   0  3  0  0  0  0  0  0  0  0  0  0
    3.3193    3.6965  -30.9091 C   0  0  0  0  0  0  0  0  0  0  0  0
    1.9842    4.3124  -30.6464 C   0  0  0  0  0  0  0  0  0  0  0  0
    4.9065    2.0946  -30.1796 C   0  0  0  0  0  0  0  0  0  0  0  0
    4.8650    0.8338  -31.0797 C   0  0  0  0  0  0  0  0  0  0  0  0
    4.0595   -0.5259  -30.2087 S   0  0  1  0  0  0  0  0  0  0  0  0
  1  3  1  0  0  0  0
  1  9  1  0  0  0  0
  2 12  1  0  0  0  0
  3  5  1  0  0  0  0
  4 12  2  0  0  0  0
  5  7  1  0  0  0  0
  6 12  2  0  0  0  0
  7  8  1  0  0  0  0
  7 10  1  0  0  0  0
  8  9  1  0  0  0  0
 10 11  1  0  0  0  0
 12 11  1  6  0  0  0
M  CHG  2   6  -1   7   1
M  END
>  <CHROM.1>
139.39443728,-68.86682295,47.51201611,3.51306966,1.53905128,-29.95985768
2.22459902,0.96816436,-0.43530092

>  <Name>
ligand

>  <RI>
0

>  <Rbt.Current_Directory>
/home/itssahil/PROJECTS/Mol_Feturizer/New_Systems/rnas/4P95

>  <Rbt.Executable>
rbdock ($Id: //depot/dev/client3/rdock/2013.1/src/exe/rbdock.cxx#4 $)

>  <Rbt.Library>
libRbt.so (2013.1, Build901 2013/11/27)

>  <Rbt.Parameter_File>
/export/apps/rDock/src/rDock_2013.1_src/data/scripts/dock_solv.prm

>  <Rbt.Receptor>
prm/pocket_docking_4.prm

>  <SCORE>
-11.3844

>  <SCORE.INTER>
-8.95921

>  <SCORE.INTER.CONST>
1

>  <SCORE.INTER.POLAR>
0

>  <SCORE.INTER.ROT>
3

>  <SCORE.INTER.SOLV>
8.27077

>  <SCORE.INTER.VDW>
-14.3297

>  <SCORE.INTER.norm>
-0.746601

>  <SCORE.INTRA>
-2.42518

>  <SCORE.INTRA.DIHEDRAL>
2.11348

>  <SCORE.INTRA.DIHEDRAL.0>
0.283163

>  <SCORE.INTRA.POLAR>
0

>  <SCORE.INTRA.POLAR.0>
0

>  <SCORE.INTRA.REPUL>
0

>  <SCORE.INTRA.REPUL.0>
0

>  <SCORE.INTRA.SOLV>
-0.517238

>  <SCORE.INTRA.SOLV.lig_0>
-32.2894

>  <SCORE.INTRA.VDW>
-3.2233

>  <SCORE.INTRA.VDW.0>
2.0241

>  <SCORE.INTRA.norm>
-0.202098

>  <SCORE.RESTR>
0

>  <SCORE.RESTR.CAVITY>
0

>  <SCORE.RESTR.norm>
0

>  <SCORE.SYSTEM>
0

>  <SCORE.SYSTEM.CONST>
0

>  <SCORE.SYSTEM.DIHEDRAL>
0

>  <SCORE.SYSTEM.SOLV>
0

>  <SCORE.SYSTEM.norm>
0

>  <SCORE.heavy>
12

>  <SCORE.norm>
-0.948699

>  <RMSD>
3.372

$$$$
ligand
 OpenBabel11021811513D
libRbt.so/2013.1/901 2013/11/27
 12 12  0  0  0  0  0  0  0  0999 V2000
    1.7050    4.5993  -29.0222 O   0  0  0  0  0  0  0  0  0  0  0  0
    2.5259   -0.0012  -29.8539 O   0  0  0  0  0  0  0  0  0  0  0  0
    2.0638    3.5921  -28.1526 C   0  0  0  0  0  0  0  0  0  0  0  0
    4.6806   -0.9410  -29.2054 O   0  0  0  0  0  0  0  0  0  0  0  0
    3.3718    2.9864  -28.4579 C   0  0  0  0  0  0  0  0  0  0  0  0
    3.6915   -1.5493  -31.3403 O   0  5  0  0  0  0  0  0  0  0  0  0
    3.4760    2.5959  -29.8703 N   0  3  0  0  0  0  0  0  0  0  0  0
    3.1240    3.7047  -30.7196 C   0  0  0  0  0  0  0  0  0  0  0  0
    1.7947    4.2747  -30.3467 C   0  0  0  0  0  0  0  0  0  0  0  0
    4.8009    2.1300  -30.1491 C   0  0  0  0  0  0  0  0  0  0  0  0
    4.7327    0.9290  -31.1263 C   0  0  0  0  0  0  0  0  0  0  0  0
    3.8595   -0.4499  -30.3566 S   0  0  1  0  0  0  0  0  0  0  0  0
  1  3  1  0  0  0  0
  1  9  1  0  0  0  0
  2 12  1  0  0  0  0
  3  5  1  0  0  0  0
  4 12  2  0  0  0  0
  5  7  1  0  0  0  0
  6 12  2  0  0  0  0
  7  8  1  0  0  0  0
  7 10  1  0  0  0  0
  8  9  1  0  0  0  0
 10 11  1  0  0  0  0
 12 11  1  6  0  0  0
M  CHG  2   6  -1   7   1
M  END
>  <CHROM.1>
141.68571236,-63.31679038,53.43362527,3.36221354,1.55886538,-29.92620254
2.25491621,1.01784886,-0.38156558

>  <Name>
ligand

>  <RI>
0

>  <Rbt.Current_Directory>
/home/itssahil/PROJECTS/Mol_Feturizer/New_Systems/rnas/4P95

>  <Rbt.Executable>
rbdock ($Id: //depot/dev/client3/rdock/2013.1/src/exe/rbdock.cxx#4 $)

>  <Rbt.Library>
libRbt.so (2013.1, Build901 2013/11/27)

>  <Rbt.Parameter_File>
/export/apps/rDock/src/rDock_2013.1_src/data/scripts/dock_solv.prm

>  <Rbt.Receptor>
prm/pocket_docking_3.prm

>  <SCORE>
-11.2549

>  <SCORE.INTER>
-8.51321

>  <SCORE.INTER.CONST>
1

>  <SCORE.INTER.POLAR>
0

>  <SCORE.INTER.ROT>
3

>  <SCORE.INTER.SOLV>
7.89405

>  <SCORE.INTER.VDW>
-13.9068

>  <SCORE.INTER.norm>
-0.709434

>  <SCORE.INTRA>
-2.74171

>  <SCORE.INTRA.DIHEDRAL>
1.48464

>  <SCORE.INTRA.DIHEDRAL.0>
0.283163

>  <SCORE.INTRA.POLAR>
0

>  <SCORE.INTRA.POLAR.0>
0

>  <SCORE.INTRA.REPUL>
0

>  <SCORE.INTRA.REPUL.0>
0

>  <SCORE.INTRA.SOLV>
-0.457417

>  <SCORE.INTRA.SOLV.lig_0>
-32.2894

>  <SCORE.INTRA.VDW>
-3.25532

>  <SCORE.INTRA.VDW.0>
2.0241

>  <SCORE.INTRA.norm>
-0.228476

>  <SCORE.RESTR>
0

>  <SCORE.RESTR.CAVITY>
0

>  <SCORE.RESTR.norm>
0

>  <SCORE.SYSTEM>
0

>  <SCORE.SYSTEM.CONST>
0

>  <SCORE.SYSTEM.DIHEDRAL>
0

>  <SCORE.SYSTEM.SOLV>
0

>  <SCORE.SYSTEM.norm>
0

>  <SCORE.heavy>
12

>  <SCORE.norm>
-0.937909

>  <RMSD>
3.375

$$$$
ligand
 OpenBabel11021811513D
libRbt.so/2013.1/901 2013/11/27
 12 12  0  0  0  0  0  0  0  0999 V2000
    1.8032    4.7119  -29.3633 O   0  0  0  0  0  0  0  0  0  0  0  0
    2.7857   -0.1021  -29.5837 O   0  0  0  0  0  0  0  0  0  0  0  0
    2.0444    3.7179  -28.4397 C   0  0  0  0  0  0  0  0  0  0  0  0
    5.0076   -0.9961  -29.1249 O   0  0  0  0  0  0  0  0  0  0  0  0
    3.3489    3.0552  -28.6125 C   0  0  0  0  0  0  0  0  0  0  0  0
    3.8381   -1.6504  -31.1523 O   0  5  0  0  0  0  0  0  0  0  0  0
    3.5605    2.6200  -29.9995 N   0  3  0  0  0  0  0  0  0  0  0  0
    3.3282    3.7158  -30.9050 C   0  0  0  0  0  0  0  0  0  0  0  0
    1.9952    4.3456  -30.6658 C   0  0  0  0  0  0  0  0  0  0  0  0
    4.8851    2.0970  -30.1481 C   0  0  0  0  0  0  0  0  0  0  0  0
    4.8491    0.8480  -31.0649 C   0  0  0  0  0  0  0  0  0  0  0  0
    4.0755   -0.5349  -30.2015 S   0  0  1  0  0  0  0  0  0  0  0  0
  1  3  1  0  0  0  0
  1  9  1  0  0  0  0
  2 12  1  0  0  0  0
  3  5  1  0  0  0  0
  4 12  2  0  0  0  0
  5  7  1  0  0  0  0
  6 12  2  0  0  0  0
  7  8  1  0  0  0  0
  7 10  1  0  0  0  0
  8  9  1  0  0  0  0
 10 11  1  0  0  0  0
 12 11  1  6  0  0  0
M  CHG  2   6  -1   7   1
M  END
>  <CHROM.1>
140.14213392,-71.44987361,49.06343753,3.51312911,1.54641563,-29.95745550
2.23466458,0.97234216,-0.45122534

>  <Name>
ligand

>  <RI>
0

>  <Rbt.Current_Directory>
/home/itssahil/PROJECTS/Mol_Feturizer/New_Systems/rnas/4P95

>  <Rbt.Executable>
rbdock ($Id: //depot/dev/client3/rdock/2013.1/src/exe/rbdock.cxx#4 $)

>  <Rbt.Library>
libRbt.so (2013.1, Build901 2013/11/27)

>  <Rbt.Parameter_File>
/export/apps/rDock/src/rDock_2013.1_src/data/scripts/dock_solv.prm

>  <Rbt.Receptor>
prm/pocket_docking_4.prm

>  <SCORE>
-11.3922

>  <SCORE.INTER>
-8.98966

>  <SCORE.INTER.CONST>
1

>  <SCORE.INTER.POLAR>
0

>  <SCORE.INTER.ROT>
3

>  <SCORE.INTER.SOLV>
8.25489

>  <SCORE.INTER.VDW>
-14.3447

>  <SCORE.INTER.norm>
-0.749139

>  <SCORE.INTRA>
-2.40249

>  <SCORE.INTRA.DIHEDRAL>
2.18126

>  <SCORE.INTRA.DIHEDRAL.0>
0.283163

>  <SCORE.INTRA.POLAR>
0

>  <SCORE.INTRA.POLAR.0>
0

>  <SCORE.INTRA.REPUL>
0

>  <SCORE.INTRA.REPUL.0>
0

>  <SCORE.INTRA.SOLV>
-0.544433

>  <SCORE.INTRA.SOLV.lig_0>
-32.2894

>  <SCORE.INTRA.VDW>
-3.22091

>  <SCORE.INTRA.VDW.0>
2.0241

>  <SCORE.INTRA.norm>
-0.200208

>  <SCORE.RESTR>
0

>  <SCORE.RESTR.CAVITY>
0

>  <SCORE.RESTR.norm>
0

>  <SCORE.SYSTEM>
0

>  <SCORE.SYSTEM.CONST>
0

>  <SCORE.SYSTEM.DIHEDRAL>
0

>  <SCORE.SYSTEM.SOLV>
0

>  <SCORE.SYSTEM.norm>
0

>  <SCORE.heavy>
12

>  <SCORE.norm>
-0.949346

>  <RMSD>
3.377

$$$$
ligand
 OpenBabel11021811513D
libRbt.so/2013.1/901 2013/11/27
 12 12  0  0  0  0  0  0  0  0999 V2000
    1.5893    4.5853  -28.8722 O   0  0  0  0  0  0  0  0  0  0  0  0
    2.6271   -0.0521  -29.7236 O   0  0  0  0  0  0  0  0  0  0  0  0
    2.0024    3.5784  -28.0268 C   0  0  0  0  0  0  0  0  0  0  0  0
    4.8746   -0.9160  -29.3379 O   0  0  0  0  0  0  0  0  0  0  0  0
    3.3172    3.0140  -28.3786 C   0  0  0  0  0  0  0  0  0  0  0  0
    3.7106   -1.4577  -31.4014 O   0  5  0  0  0  0  0  0  0  0  0  0
    3.3899    2.6437  -29.7983 N   0  3  0  0  0  0  0  0  0  0  0  0
    2.9813    3.7521  -30.6224 C   0  0  0  0  0  0  0  0  0  0  0  0
    1.6483    4.2793  -30.2029 C   0  0  0  0  0  0  0  0  0  0  0  0
    4.7185    2.2192  -30.1223 C   0  0  0  0  0  0  0  0  0  0  0  0
    4.6557    1.0547  -31.1429 C   0  0  0  0  0  0  0  0  0  0  0  0
    3.9242   -0.4057  -30.3756 S   0  0  1  0  0  0  0  0  0  0  0  0
  1  3  1  0  0  0  0
  1  9  1  0  0  0  0
  2 12  1  0  0  0  0
  3  5  1  0  0  0  0
  4 12  2  0  0  0  0
  5  7  1  0  0  0  0
  6 12  2  0  0  0  0
  7  8  1  0  0  0  0
  7 10  1  0  0  0  0
  8  9  1  0  0  0  0
 10 11  1  0  0  0  0
 12 11  1  6  0  0  0
M  CHG  2   6  -1   7   1
M  END
>  <CHROM.1>
143.25732566,-66.86687621,51.42525749,3.34227118,1.59413738,-29.88404301
2.41550010,1.06344548,-0.51885227

>  <Name>
ligand

>  <RI>
0

>  <Rbt.Current_Directory>
/home/itssahil/PROJECTS/Mol_Feturizer/New_Systems/rnas/4P95

>  <Rbt.Executable>
rbdock ($Id: //depot/dev/client3/rdock/2013.1/src/exe/rbdock.cxx#4 $)

>  <Rbt.Library>
libRbt.so (2013.1, Build901 2013/11/27)

>  <Rbt.Parameter_File>
/export/apps/rDock/src/rDock_2013.1_src/data/scripts/dock_solv.prm

>  <Rbt.Receptor>
prm/pocket_docking_3.prm

>  <SCORE>
-11.2665

>  <SCORE.INTER>
-8.62438

>  <SCORE.INTER.CONST>
1

>  <SCORE.INTER.POLAR>
0

>  <SCORE.INTER.ROT>
3

>  <SCORE.INTER.SOLV>
7.49761

>  <SCORE.INTER.VDW>
-13.8488

>  <SCORE.INTER.norm>
-0.718698

>  <SCORE.INTRA>
-2.64317

>  <SCORE.INTRA.DIHEDRAL>
1.59325

>  <SCORE.INTRA.DIHEDRAL.0>
0.283163

>  <SCORE.INTRA.POLAR>
0

>  <SCORE.INTRA.POLAR.0>
0

>  <SCORE.INTRA.REPUL>
0

>  <SCORE.INTRA.REPUL.0>
0

>  <SCORE.INTRA.SOLV>
-0.497868

>  <SCORE.INTRA.SOLV.lig_0>
-32.2894

>  <SCORE.INTRA.VDW>
-3.19086

>  <SCORE.INTRA.VDW.0>
2.0241

>  <SCORE.INTRA.norm>
-0.220264

>  <SCORE.RESTR>
0.00107673

>  <SCORE.RESTR.CAVITY>
0.00107673

>  <SCORE.RESTR.norm>
8.97278e-05

>  <SCORE.SYSTEM>
0

>  <SCORE.SYSTEM.CONST>
0

>  <SCORE.SYSTEM.DIHEDRAL>
0

>  <SCORE.SYSTEM.SOLV>
0

>  <SCORE.SYSTEM.norm>
0

>  <SCORE.heavy>
12

>  <SCORE.norm>
-0.938873

>  <RMSD>
3.379

$$$$
ligand
 OpenBabel11021811513D
libRbt.so/2013.1/901 2013/11/27
 12 12  0  0  0  0  0  0  0  0999 V2000
    1.5182    4.4242  -28.9751 O   0  0  0  0  0  0  0  0  0  0  0  0
    3.1100   -0.1845  -29.4623 O   0  0  0  0  0  0  0  0  0  0  0  0
    1.9720    3.4459  -28.1170 C   0  0  0  0  0  0  0  0  0  0  0  0
    5.4640   -0.7129  -29.1074 O   0  0  0  0  0  0  0  0  0  0  0  0
    3.3380    2.9833  -28.4185 C   0  0  0  0  0  0  0  0  0  0  0  0
    4.3204   -1.5593  -31.0777 O   0  5  0  0  0  0  0  0  0  0  0  0
    3.4936    2.6279  -29.8353 N   0  3  0  0  0  0  0  0  0  0  0  0
    3.0358    3.7076  -30.6716 C   0  0  0  0  0  0  0  0  0  0  0  0
    1.6518    4.1314  -30.3033 C   0  0  0  0  0  0  0  0  0  0  0  0
    4.8618    2.3056  -30.1081 C   0  0  0  0  0  0  0  0  0  0  0  0
    4.9269    1.0680  -31.0385 C   0  0  0  0  0  0  0  0  0  0  0  0
    4.4221   -0.4130  -30.1395 S   0  0  1  0  0  0  0  0  0  0  0  0
  1  3  1  0  0  0  0
  1  9  1  0  0  0  0
  2 12  1  0  0  0  0
  3  5  1  0  0  0  0
  4 12  2  0  0  0  0
  5  7  1  0  0  0  0
  6 12  2  0  0  0  0
  7  8  1  0  0  0  0
  7 10  1  0  0  0  0
  8  9  1  0  0  0  0
 10 11  1  0  0  0  0
 12 11  1  6  0  0  0
M  CHG  2   6  -1   7   1
M  END
>  <CHROM.1>
138.43349982,-70.68823701,51.33453377,3.59808427,1.55748954,-29.80067264
2.49563659,0.95052668,-0.63567739

>  <Name>
ligand

>  <RI>
0

>  <Rbt.Current_Directory>
/home/itssahil/PROJECTS/Mol_Feturizer/New_Systems/rnas/4P95

>  <Rbt.Executable>
rbdock ($Id: //depot/dev/client3/rdock/2013.1/src/exe/rbdock.cxx#4 $)

>  <Rbt.Library>
libRbt.so (2013.1, Build901 2013/11/27)

>  <Rbt.Parameter_File>
/export/apps/rDock/src/rDock_2013.1_src/data/scripts/dock_solv.prm

>  <Rbt.Receptor>
prm/pocket_docking_8.prm

>  <SCORE>
-11.8226

>  <SCORE.INTER>
-9.34711

>  <SCORE.INTER.CONST>
1

>  <SCORE.INTER.POLAR>
0

>  <SCORE.INTER.ROT>
3

>  <SCORE.INTER.SOLV>
7.52258

>  <SCORE.INTER.VDW>
-14.3389

>  <SCORE.INTER.norm>
-0.778926

>  <SCORE.INTRA>
-2.47549

>  <SCORE.INTRA.DIHEDRAL>
2.11669

>  <SCORE.INTRA.DIHEDRAL.0>
0.283163

>  <SCORE.INTRA.POLAR>
0

>  <SCORE.INTRA.POLAR.0>
0

>  <SCORE.INTRA.REPUL>
0

>  <SCORE.INTRA.REPUL.0>
0

>  <SCORE.INTRA.SOLV>
-0.533989

>  <SCORE.INTRA.SOLV.lig_0>
-32.2894

>  <SCORE.INTRA.VDW>
-3.26684

>  <SCORE.INTRA.VDW.0>
2.0241

>  <SCORE.INTRA.norm>
-0.206291

>  <SCORE.RESTR>
0

>  <SCORE.RESTR.CAVITY>
0

>  <SCORE.RESTR.norm>
0

>  <SCORE.SYSTEM>
0

>  <SCORE.SYSTEM.CONST>
0

>  <SCORE.SYSTEM.DIHEDRAL>
0

>  <SCORE.SYSTEM.SOLV>
0

>  <SCORE.SYSTEM.norm>
0

>  <SCORE.heavy>
12

>  <SCORE.norm>
-0.985216

>  <RMSD>
3.379

$$$$
ligand
 OpenBabel11021811513D
libRbt.so/2013.1/901 2013/11/27
 12 12  0  0  0  0  0  0  0  0999 V2000
    1.6039    4.5701  -28.9489 O   0  0  0  0  0  0  0  0  0  0  0  0
    2.5278   -0.0439  -29.8308 O   0  0  0  0  0  0  0  0  0  0  0  0
    2.0008    3.5807  -28.0754 C   0  0  0  0  0  0  0  0  0  0  0  0
    4.7210   -0.9356  -29.2470 O   0  0  0  0  0  0  0  0  0  0  0  0
    3.3171    3.0021  -28.3971 C   0  0  0  0  0  0  0  0  0  0  0  0
    3.7114   -1.5141  -31.3806 O   0  5  0  0  0  0  0  0  0  0  0  0
    3.4063    2.5992  -29.8069 N   0  3  0  0  0  0  0  0  0  0  0  0
    3.0141    3.6905  -30.6613 C   0  0  0  0  0  0  0  0  0  0  0  0
    1.6786    4.2336  -30.2713 C   0  0  0  0  0  0  0  0  0  0  0  0
    4.7367    2.1610  -30.1039 C   0  0  0  0  0  0  0  0  0  0  0  0
    4.6821    0.9877  -31.1149 C   0  0  0  0  0  0  0  0  0  0  0  0
    3.8646   -0.4379  -30.3693 S   0  0  1  0  0  0  0  0  0  0  0  0
  1  3  1  0  0  0  0
  1  9  1  0  0  0  0
  2 12  1  0  0  0  0
  3  5  1  0  0  0  0
  4 12  2  0  0  0  0
  5  7  1  0  0  0  0
  6 12  2  0  0  0  0
  7  8  1  0  0  0  0
  7 10  1  0  0  0  0
  8  9  1  0  0  0  0
 10 11  1  0  0  0  0
 12 11  1  6  0  0  0
M  CHG  2   6  -1   7   1
M  END
>  <CHROM.1>
144.10115191,-64.56637384,53.62545781,3.32171855,1.56129735,-29.89882864
2.36581783,1.05804948,-0.47957063

>  <Name>
ligand

>  <RI>
0

>  <Rbt.Current_Directory>
/home/itssahil/PROJECTS/Mol_Feturizer/New_Systems/rnas/4P95

>  <Rbt.Executable>
rbdock ($Id: //depot/dev/client3/rdock/2013.1/src/exe/rbdock.cxx#4 $)

>  <Rbt.Library>
libRbt.so (2013.1, Build901 2013/11/27)

>  <Rbt.Parameter_File>
/export/apps/rDock/src/rDock_2013.1_src/data/scripts/dock_solv.prm

>  <Rbt.Receptor>
prm/pocket_docking_3.prm

>  <SCORE>
-11.2757

>  <SCORE.INTER>
-8.51648

>  <SCORE.INTER.CONST>
1

>  <SCORE.INTER.POLAR>
0

>  <SCORE.INTER.ROT>
3

>  <SCORE.INTER.SOLV>
7.67636

>  <SCORE.INTER.VDW>
-13.8364

>  <SCORE.INTER.norm>
-0.709707

>  <SCORE.INTRA>
-2.75925

>  <SCORE.INTRA.DIHEDRAL>
1.37223

>  <SCORE.INTRA.DIHEDRAL.0>
0.283163

>  <SCORE.INTRA.POLAR>
0

>  <SCORE.INTRA.POLAR.0>
0

>  <SCORE.INTRA.REPUL>
0

>  <SCORE.INTRA.REPUL.0>
0

>  <SCORE.INTRA.SOLV>
-0.471708

>  <SCORE.INTRA.SOLV.lig_0>
-32.2894

>  <SCORE.INTRA.VDW>
-3.20951

>  <SCORE.INTRA.VDW.0>
2.0241

>  <SCORE.INTRA.norm>
-0.229937

>  <SCORE.RESTR>
0

>  <SCORE.RESTR.CAVITY>
0

>  <SCORE.RESTR.norm>
0

>  <SCORE.SYSTEM>
0

>  <SCORE.SYSTEM.CONST>
0

>  <SCORE.SYSTEM.DIHEDRAL>
0

>  <SCORE.SYSTEM.SOLV>
0

>  <SCORE.SYSTEM.norm>
0

>  <SCORE.heavy>
12

>  <SCORE.norm>
-0.939644

>  <RMSD>
3.382

$$$$
ligand
 OpenBabel11021811513D
libRbt.so/2013.1/901 2013/11/27
 12 12  0  0  0  0  0  0  0  0999 V2000
    1.4899    4.4454  -28.9863 O   0  0  0  0  0  0  0  0  0  0  0  0
    3.1022   -0.1831  -29.4606 O   0  0  0  0  0  0  0  0  0  0  0  0
    1.9135    3.4383  -28.1463 C   0  0  0  0  0  0  0  0  0  0  0  0
    5.4605   -0.6999  -29.1176 O   0  0  0  0  0  0  0  0  0  0  0  0
    3.2806    2.9682  -28.4307 C   0  0  0  0  0  0  0  0  0  0  0  0
    4.3133   -1.5449  -31.0864 O   0  5  0  0  0  0  0  0  0  0  0  0
    3.4636    2.6505  -29.8532 N   0  3  0  0  0  0  0  0  0  0  0  0
    3.0366    3.7584  -30.6687 C   0  0  0  0  0  0  0  0  0  0  0  0
    1.6496    4.1881  -30.3189 C   0  0  0  0  0  0  0  0  0  0  0  0
    4.8338    2.3197  -30.1050 C   0  0  0  0  0  0  0  0  0  0  0  0
    4.9055    1.0855  -31.0395 C   0  0  0  0  0  0  0  0  0  0  0  0
    4.4127   -0.4017  -30.1442 S   0  0  1  0  0  0  0  0  0  0  0  0
  1  3  1  0  0  0  0
  1  9  1  0  0  0  0
  2 12  1  0  0  0  0
  3  5  1  0  0  0  0
  4 12  2  0  0  0  0
  5  7  1  0  0  0  0
  6 12  2  0  0  0  0
  7  8  1  0  0  0  0
  7 10  1  0  0  0  0
  8  9  1  0  0  0  0
 10 11  1  0  0  0  0
 12 11  1  6  0  0  0
M  CHG  2   6  -1   7   1
M  END
>  <CHROM.1>
137.00956278,-72.00287584,51.17920730,3.57848012,1.57351659,-29.80886642
2.46458908,0.92976955,-0.60037094

>  <Name>
ligand

>  <RI>
0

>  <Rbt.Current_Directory>
/home/itssahil/PROJECTS/Mol_Feturizer/New_Systems/rnas/4P95

>  <Rbt.Executable>
rbdock ($Id: //depot/dev/client3/rdock/2013.1/src/exe/rbdock.cxx#4 $)

>  <Rbt.Library>
libRbt.so (2013.1, Build901 2013/11/27)

>  <Rbt.Parameter_File>
/export/apps/rDock/src/rDock_2013.1_src/data/scripts/dock_solv.prm

>  <Rbt.Receptor>
prm/pocket_docking_8.prm

>  <SCORE>
-11.7793

>  <SCORE.INTER>
-9.37489

>  <SCORE.INTER.CONST>
1

>  <SCORE.INTER.POLAR>
0

>  <SCORE.INTER.ROT>
3

>  <SCORE.INTER.SOLV>
7.46105

>  <SCORE.INTER.VDW>
-14.3369

>  <SCORE.INTER.norm>
-0.781241

>  <SCORE.INTRA>
-2.40438

>  <SCORE.INTRA.DIHEDRAL>
2.30347

>  <SCORE.INTRA.DIHEDRAL.0>
0.283163

>  <SCORE.INTRA.POLAR>
0

>  <SCORE.INTRA.POLAR.0>
0

>  <SCORE.INTRA.REPUL>
0

>  <SCORE.INTRA.REPUL.0>
0

>  <SCORE.INTRA.SOLV>
-0.551031

>  <SCORE.INTRA.SOLV.lig_0>
-32.2894

>  <SCORE.INTRA.VDW>
-3.2806

>  <SCORE.INTRA.VDW.0>
2.0241

>  <SCORE.INTRA.norm>
-0.200365

>  <SCORE.RESTR>
0

>  <SCORE.RESTR.CAVITY>
0

>  <SCORE.RESTR.norm>
0

>  <SCORE.SYSTEM>
0

>  <SCORE.SYSTEM.CONST>
0

>  <SCORE.SYSTEM.DIHEDRAL>
0

>  <SCORE.SYSTEM.SOLV>
0

>  <SCORE.SYSTEM.norm>
0

>  <SCORE.heavy>
12

>  <SCORE.norm>
-0.981606

>  <RMSD>
3.382

$$$$
ligand
 OpenBabel11021811513D
libRbt.so/2013.1/901 2013/11/27
 12 12  0  0  0  0  0  0  0  0999 V2000
    1.5757    4.5649  -28.8697 O   0  0  0  0  0  0  0  0  0  0  0  0
    2.5703   -0.0608  -29.7504 O   0  0  0  0  0  0  0  0  0  0  0  0
    2.0007    3.5825  -28.0015 C   0  0  0  0  0  0  0  0  0  0  0  0
    4.7975   -0.9537  -29.3161 O   0  0  0  0  0  0  0  0  0  0  0  0
    3.3158    3.0162  -28.3488 C   0  0  0  0  0  0  0  0  0  0  0  0
    3.6770   -1.4700  -31.4099 O   0  5  0  0  0  0  0  0  0  0  0  0
    3.3797    2.6094  -29.7589 N   0  3  0  0  0  0  0  0  0  0  0  0
    2.9588    3.6938  -30.6084 C   0  0  0  0  0  0  0  0  0  0  0  0
    1.6262    4.2247  -30.1923 C   0  0  0  0  0  0  0  0  0  0  0  0
    4.7081    2.1837  -30.0821 C   0  0  0  0  0  0  0  0  0  0  0  0
    4.6453    1.0294  -31.1143 C   0  0  0  0  0  0  0  0  0  0  0  0
    3.8783   -0.4263  -30.3733 S   0  0  1  0  0  0  0  0  0  0  0  0
  1  3  1  0  0  0  0
  1  9  1  0  0  0  0
  2 12  1  0  0  0  0
  3  5  1  0  0  0  0
  4 12  2  0  0  0  0
  5  7  1  0  0  0  0
  6 12  2  0  0  0  0
  7  8  1  0  0  0  0
  7 10  1  0  0  0  0
  8  9  1  0  0  0  0
 10 11  1  0  0  0  0
 12 11  1  6  0  0  0
M  CHG  2   6  -1   7   1
M  END
>  <CHROM.1>
145.47050976,-65.82865370,51.89427465,3.31410636,1.56966811,-29.87101716
2.46232243,1.09380471,-0.56885661

>  <Name>
ligand

>  <RI>
0

>  <Rbt.Current_Directory>
/home/itssahil/PROJECTS/Mol_Feturizer/New_Systems/rnas/4P95

>  <Rbt.Executable>
rbdock ($Id: //depot/dev/client3/rdock/2013.1/src/exe/rbdock.cxx#4 $)

>  <Rbt.Library>
libRbt.so (2013.1, Build901 2013/11/27)

>  <Rbt.Parameter_File>
/export/apps/rDock/src/rDock_2013.1_src/data/scripts/dock_solv.prm

>  <Rbt.Receptor>
prm/pocket_docking_3.prm

>  <SCORE>
-11.2582

>  <SCORE.INTER>
-8.56329

>  <SCORE.INTER.CONST>
1

>  <SCORE.INTER.POLAR>
0

>  <SCORE.INTER.ROT>
3

>  <SCORE.INTER.SOLV>
7.58431

>  <SCORE.INTER.VDW>
-13.837

>  <SCORE.INTER.norm>
-0.713607

>  <SCORE.INTRA>
-2.6949

>  <SCORE.INTRA.DIHEDRAL>
1.39219

>  <SCORE.INTRA.DIHEDRAL.0>
0.283163

>  <SCORE.INTRA.POLAR>
0

>  <SCORE.INTRA.POLAR.0>
0

>  <SCORE.INTRA.REPUL>
0

>  <SCORE.INTRA.REPUL.0>
0

>  <SCORE.INTRA.SOLV>
-0.489055

>  <SCORE.INTRA.SOLV.lig_0>
-32.2894

>  <SCORE.INTRA.VDW>
-3.14647

>  <SCORE.INTRA.VDW.0>
2.0241

>  <SCORE.INTRA.norm>
-0.224575

>  <SCORE.RESTR>
0

>  <SCORE.RESTR.CAVITY>
0

>  <SCORE.RESTR.norm>
0

>  <SCORE.SYSTEM>
0

>  <SCORE.SYSTEM.CONST>
0

>  <SCORE.SYSTEM.DIHEDRAL>
0

>  <SCORE.SYSTEM.SOLV>
0

>  <SCORE.SYSTEM.norm>
0

>  <SCORE.heavy>
12

>  <SCORE.norm>
-0.938183

>  <RMSD>
3.387

$$$$
ligand
 OpenBabel11021811513D
libRbt.so/2013.1/901 2013/11/27
 12 12  0  0  0  0  0  0  0  0999 V2000
    1.5947    4.5559  -28.9742 O   0  0  0  0  0  0  0  0  0  0  0  0
    2.5316   -0.0133  -29.8081 O   0  0  0  0  0  0  0  0  0  0  0  0
    2.0021    3.5820  -28.0884 C   0  0  0  0  0  0  0  0  0  0  0  0
    4.7083   -0.9532  -29.2377 O   0  0  0  0  0  0  0  0  0  0  0  0
    3.3230    3.0109  -28.4049 C   0  0  0  0  0  0  0  0  0  0  0  0
    3.6754   -1.5050  -31.3673 O   0  5  0  0  0  0  0  0  0  0  0  0
    3.4130    2.5899  -29.8094 N   0  3  0  0  0  0  0  0  0  0  0  0
    3.0094    3.6660  -30.6776 C   0  0  0  0  0  0  0  0  0  0  0  0
    1.6698    4.2024  -30.2922 C   0  0  0  0  0  0  0  0  0  0  0  0
    4.7468    2.1596  -30.1032 C   0  0  0  0  0  0  0  0  0  0  0  0
    4.7009    0.9748  -31.1011 C   0  0  0  0  0  0  0  0  0  0  0  0
    3.8569   -0.4346  -30.3544 S   0  0  1  0  0  0  0  0  0  0  0  0
  1  3  1  0  0  0  0
  1  9  1  0  0  0  0
  2 12  1  0  0  0  0
  3  5  1  0  0  0  0
  4 12  2  0  0  0  0
  5  7  1  0  0  0  0
  6 12  2  0  0  0  0
  7  8  1  0  0  0  0
  7 10  1  0  0  0  0
  8  9  1  0  0  0  0
 10 11  1  0  0  0  0
 12 11  1  6  0  0  0
M  CHG  2   6  -1   7   1
M  END
>  <CHROM.1>
144.25202110,-63.04958912,51.86265970,3.31810706,1.55748776,-29.89804562
2.35862010,1.05243298,-0.47631879

>  <Name>
ligand

>  <RI>
0

>  <Rbt.Current_Directory>
/home/itssahil/PROJECTS/Mol_Feturizer/New_Systems/rnas/4P95

>  <Rbt.Executable>
rbdock ($Id: //depot/dev/client3/rdock/2013.1/src/exe/rbdock.cxx#4 $)

>  <Rbt.Library>
libRbt.so (2013.1, Build901 2013/11/27)

>  <Rbt.Parameter_File>
/export/apps/rDock/src/rDock_2013.1_src/data/scripts/dock_solv.prm

>  <Rbt.Receptor>
prm/pocket_docking_3.prm

>  <SCORE>
-11.2843

>  <SCORE.INTER>
-8.55362

>  <SCORE.INTER.CONST>
1

>  <SCORE.INTER.POLAR>
0

>  <SCORE.INTER.ROT>
3

>  <SCORE.INTER.SOLV>
7.70456

>  <SCORE.INTER.VDW>
-13.8706

>  <SCORE.INTER.norm>
-0.712802

>  <SCORE.INTRA>
-2.73073

>  <SCORE.INTRA.DIHEDRAL>
1.37562

>  <SCORE.INTRA.DIHEDRAL.0>
0.283163

>  <SCORE.INTRA.POLAR>
0

>  <SCORE.INTRA.POLAR.0>
0

>  <SCORE.INTRA.REPUL>
0

>  <SCORE.INTRA.REPUL.0>
0

>  <SCORE.INTRA.SOLV>
-0.461113

>  <SCORE.INTRA.SOLV.lig_0>
-32.2894

>  <SCORE.INTRA.VDW>
-3.18798

>  <SCORE.INTRA.VDW.0>
2.0241

>  <SCORE.INTRA.norm>
-0.227561

>  <SCORE.RESTR>
0

>  <SCORE.RESTR.CAVITY>
0

>  <SCORE.RESTR.norm>
0

>  <SCORE.SYSTEM>
0

>  <SCORE.SYSTEM.CONST>
0

>  <SCORE.SYSTEM.DIHEDRAL>
0

>  <SCORE.SYSTEM.SOLV>
0

>  <SCORE.SYSTEM.norm>
0

>  <SCORE.heavy>
12

>  <SCORE.norm>
-0.940362

>  <RMSD>
3.389

$$$$
ligand
 OpenBabel11021811513D
libRbt.so/2013.1/901 2013/11/27
 12 12  0  0  0  0  0  0  0  0999 V2000
    1.6069    4.5801  -28.9619 O   0  0  0  0  0  0  0  0  0  0  0  0
    2.5449   -0.0228  -29.7680 O   0  0  0  0  0  0  0  0  0  0  0  0
    2.0099    3.6017  -28.0790 C   0  0  0  0  0  0  0  0  0  0  0  0
    4.7370   -0.9689  -29.2722 O   0  0  0  0  0  0  0  0  0  0  0  0
    3.3248    3.0205  -28.4017 C   0  0  0  0  0  0  0  0  0  0  0  0
    3.6430   -1.4953  -31.3775 O   0  5  0  0  0  0  0  0  0  0  0  0
    3.4059    2.6007  -29.8071 N   0  3  0  0  0  0  0  0  0  0  0  0
    3.0076    3.6813  -30.6721 C   0  0  0  0  0  0  0  0  0  0  0  0
    1.6739    4.2278  -30.2806 C   0  0  0  0  0  0  0  0  0  0  0  0
    4.7350    2.1601  -30.1068 C   0  0  0  0  0  0  0  0  0  0  0  0
    4.6758    0.9815  -31.1112 C   0  0  0  0  0  0  0  0  0  0  0  0
    3.8538   -0.4371  -30.3575 S   0  0  1  0  0  0  0  0  0  0  0  0
  1  3  1  0  0  0  0
  1  9  1  0  0  0  0
  2 12  1  0  0  0  0
  3  5  1  0  0  0  0
  4 12  2  0  0  0  0
  5  7  1  0  0  0  0
  6 12  2  0  0  0  0
  7  8  1  0  0  0  0
  7 10  1  0  0  0  0
  8  9  1  0  0  0  0
 10 11  1  0  0  0  0
 12 11  1  6  0  0  0
M  CHG  2   6  -1   7   1
M  END
>  <CHROM.1>
144.51418876,-64.30924534,51.16404797,3.31706750,1.56412543,-29.89659073
2.37729969,1.06803291,-0.49793623

>  <Name>
ligand

>  <RI>
0

>  <Rbt.Current_Directory>
/home/itssahil/PROJECTS/Mol_Feturizer/New_Systems/rnas/4P95

>  <Rbt.Executable>
rbdock ($Id: //depot/dev/client3/rdock/2013.1/src/exe/rbdock.cxx#4 $)

>  <Rbt.Library>
libRbt.so (2013.1, Build901 2013/11/27)

>  <Rbt.Parameter_File>
/export/apps/rDock/src/rDock_2013.1_src/data/scripts/dock_solv.prm

>  <Rbt.Receptor>
prm/pocket_docking_3.prm

>  <SCORE>
-11.2981

>  <SCORE.INTER>
-8.61216

>  <SCORE.INTER.CONST>
1

>  <SCORE.INTER.POLAR>
0

>  <SCORE.INTER.ROT>
3

>  <SCORE.INTER.SOLV>
7.6976

>  <SCORE.INTER.VDW>
-13.9073

>  <SCORE.INTER.norm>
-0.71768

>  <SCORE.INTRA>
-2.68722

>  <SCORE.INTRA.DIHEDRAL>
1.42061

>  <SCORE.INTRA.DIHEDRAL.0>
0.283163

>  <SCORE.INTRA.POLAR>
0

>  <SCORE.INTRA.POLAR.0>
0

>  <SCORE.INTRA.REPUL>
0

>  <SCORE.INTRA.REPUL.0>
0

>  <SCORE.INTRA.SOLV>
-0.474702

>  <SCORE.INTRA.SOLV.lig_0>
-32.2894

>  <SCORE.INTRA.VDW>
-3.16017

>  <SCORE.INTRA.VDW.0>
2.0241

>  <SCORE.INTRA.norm>
-0.223935

>  <SCORE.RESTR>
0.00128125

>  <SCORE.RESTR.CAVITY>
0.00128125

>  <SCORE.RESTR.norm>
0.000106771

>  <SCORE.SYSTEM>
0

>  <SCORE.SYSTEM.CONST>
0

>  <SCORE.SYSTEM.DIHEDRAL>
0

>  <SCORE.SYSTEM.SOLV>
0

>  <SCORE.SYSTEM.norm>
0

>  <SCORE.heavy>
12

>  <SCORE.norm>
-0.941508

>  <RMSD>
3.390

$$$$
ligand
 OpenBabel11021811513D
libRbt.so/2013.1/901 2013/11/27
 12 12  0  0  0  0  0  0  0  0999 V2000
    1.6267    4.5946  -29.0063 O   0  0  0  0  0  0  0  0  0  0  0  0
    2.5447    0.0236  -29.7552 O   0  0  0  0  0  0  0  0  0  0  0  0
    2.0117    3.6043  -28.1285 C   0  0  0  0  0  0  0  0  0  0  0  0
    4.7156   -0.9706  -29.2601 O   0  0  0  0  0  0  0  0  0  0  0  0
    3.3263    3.0167  -28.4409 C   0  0  0  0  0  0  0  0  0  0  0  0
    3.5997   -1.4897  -31.3557 O   0  5  0  0  0  0  0  0  0  0  0  0
    3.4216    2.6105  -29.8494 N   0  3  0  0  0  0  0  0  0  0  0  0
    3.0418    3.7027  -30.7083 C   0  0  0  0  0  0  0  0  0  0  0  0
    1.7074    4.2551  -30.3276 C   0  0  0  0  0  0  0  0  0  0  0  0
    4.7510    2.1632  -30.1373 C   0  0  0  0  0  0  0  0  0  0  0  0
    4.6932    0.9637  -31.1169 C   0  0  0  0  0  0  0  0  0  0  0  0
    3.8405   -0.4276  -30.3465 S   0  0  1  0  0  0  0  0  0  0  0  0
  1  3  1  0  0  0  0
  1  9  1  0  0  0  0
  2 12  1  0  0  0  0
  3  5  1  0  0  0  0
  4 12  2  0  0  0  0
  5  7  1  0  0  0  0
  6 12  2  0  0  0  0
  7  8  1  0  0  0  0
  7 10  1  0  0  0  0
  8  9  1  0  0  0  0
 10 11  1  0  0  0  0
 12 11  1  6  0  0  0
M  CHG  2   6  -1   7   1
M  END
>  <CHROM.1>
142.59133230,-63.20784481,49.61484251,3.31984516,1.57414234,-29.91268977
2.30155725,1.03144728,-0.42668790

>  <Name>
ligand

>  <RI>
0

>  <Rbt.Current_Directory>
/home/itssahil/PROJECTS/Mol_Feturizer/New_Systems/rnas/4P95

>  <Rbt.Executable>
rbdock ($Id: //depot/dev/client3/rdock/2013.1/src/exe/rbdock.cxx#4 $)

>  <Rbt.Library>
libRbt.so (2013.1, Build901 2013/11/27)

>  <Rbt.Parameter_File>
/export/apps/rDock/src/rDock_2013.1_src/data/scripts/dock_solv.prm

>  <Rbt.Receptor>
prm/pocket_docking_3.prm

>  <SCORE>
-11.306

>  <SCORE.INTER>
-8.68111

>  <SCORE.INTER.CONST>
1

>  <SCORE.INTER.POLAR>
0

>  <SCORE.INTER.ROT>
3

>  <SCORE.INTER.SOLV>
7.74821

>  <SCORE.INTER.VDW>
-13.9701

>  <SCORE.INTER.norm>
-0.723426

>  <SCORE.INTRA>
-2.62484

>  <SCORE.INTRA.DIHEDRAL>
1.5711

>  <SCORE.INTRA.DIHEDRAL.0>
0.283163

>  <SCORE.INTRA.POLAR>
0

>  <SCORE.INTRA.POLAR.0>
0

>  <SCORE.INTRA.REPUL>
0

>  <SCORE.INTRA.REPUL.0>
0

>  <SCORE.INTRA.SOLV>
-0.464202

>  <SCORE.INTRA.SOLV.lig_0>
-32.2894

>  <SCORE.INTRA.VDW>
-3.17829

>  <SCORE.INTRA.VDW.0>
2.0241

>  <SCORE.INTRA.norm>
-0.218737

>  <SCORE.RESTR>
0

>  <SCORE.RESTR.CAVITY>
0

>  <SCORE.RESTR.norm>
0

>  <SCORE.SYSTEM>
0

>  <SCORE.SYSTEM.CONST>
0

>  <SCORE.SYSTEM.DIHEDRAL>
0

>  <SCORE.SYSTEM.SOLV>
0

>  <SCORE.SYSTEM.norm>
0

>  <SCORE.heavy>
12

>  <SCORE.norm>
-0.942163

>  <RMSD>
3.394

$$$$
ligand
 OpenBabel11021811513D
libRbt.so/2013.1/901 2013/11/27
 12 12  0  0  0  0  0  0  0  0999 V2000
    3.5073    4.3316  -31.5321 O   0  0  0  0  0  0  0  0  0  0  0  0
    5.2942   -2.9331  -28.9027 O   0  0  0  0  0  0  0  0  0  0  0  0
    3.2291    3.8749  -30.2620 C   0  0  0  0  0  0  0  0  0  0  0  0
    6.9644   -1.1671  -28.7078 O   0  0  0  0  0  0  0  0  0  0  0  0
    4.1611    2.8356  -29.7908 C   0  0  0  0  0  0  0  0  0  0  0  0
    6.5079   -2.1629  -30.8772 O   0  5  0  0  0  0  0  0  0  0  0  0
    4.3152    1.7546  -30.7735 N   0  3  0  0  0  0  0  0  0  0  0  0
    4.6412    2.3008  -32.0658 C   0  0  0  0  0  0  0  0  0  0  0  0
    3.6633    3.3535  -32.4737 C   0  0  0  0  0  0  0  0  0  0  0  0
    5.3199    0.8353  -30.3312 C   0  0  0  0  0  0  0  0  0  0  0  0
    4.6491   -0.4854  -29.8758 C   0  0  0  0  0  0  0  0  0  0  0  0
    5.9019   -1.7513  -29.5856 S   0  0  1  0  0  0  0  0  0  0  0  0
  1  3  1  0  0  0  0
  1  9  1  0  0  0  0
  2 12  1  0  0  0  0
  3  5  1  0  0  0  0
  4 12  2  0  0  0  0
  5  7  1  0  0  0  0
  6 12  2  0  0  0  0
  7  8  1  0  0  0  0
  7 10  1  0  0  0  0
  8  9  1  0  0  0  0
 10 11  1  0  0  0  0
 12 11  1  6  0  0  0
M  CHG  2   6  -1   7   1
M  END
>  <CHROM.1>
107.84521861,170.27685681,169.22320467,4.97364127,0.59657873,-30.33561040
-2.63144385,-1.13519150,1.80911912

>  <Name>
ligand

>  <RI>
0

>  <Rbt.Current_Directory>
/home/itssahil/PROJECTS/Mol_Feturizer/New_Systems/rnas/4P95

>  <Rbt.Executable>
rbdock ($Id: //depot/dev/client3/rdock/2013.1/src/exe/rbdock.cxx#4 $)

>  <Rbt.Library>
libRbt.so (2013.1, Build901 2013/11/27)

>  <Rbt.Parameter_File>
/export/apps/rDock/src/rDock_2013.1_src/data/scripts/dock_solv.prm

>  <Rbt.Receptor>
prm/pocket_docking_6.prm

>  <SCORE>
-10.9454

>  <SCORE.INTER>
-9.60844

>  <SCORE.INTER.CONST>
1

>  <SCORE.INTER.POLAR>
0

>  <SCORE.INTER.ROT>
3

>  <SCORE.INTER.SOLV>
6.16615

>  <SCORE.INTER.VDW>
-14.061

>  <SCORE.INTER.norm>
-0.800704

>  <SCORE.INTRA>
-1.33698

>  <SCORE.INTRA.DIHEDRAL>
2.51643

>  <SCORE.INTRA.DIHEDRAL.0>
0.283163

>  <SCORE.INTRA.POLAR>
0

>  <SCORE.INTRA.POLAR.0>
0

>  <SCORE.INTRA.REPUL>
0

>  <SCORE.INTRA.REPUL.0>
0

>  <SCORE.INTRA.SOLV>
0.0814743

>  <SCORE.INTRA.SOLV.lig_0>
-32.2894

>  <SCORE.INTRA.VDW>
-2.63593

>  <SCORE.INTRA.VDW.0>
2.0241

>  <SCORE.INTRA.norm>
-0.111415

>  <SCORE.RESTR>
0

>  <SCORE.RESTR.CAVITY>
0

>  <SCORE.RESTR.norm>
0

>  <SCORE.SYSTEM>
0

>  <SCORE.SYSTEM.CONST>
0

>  <SCORE.SYSTEM.DIHEDRAL>
0

>  <SCORE.SYSTEM.SOLV>
0

>  <SCORE.SYSTEM.norm>
0

>  <SCORE.heavy>
12

>  <SCORE.norm>
-0.912118

>  <RMSD>
3.394

$$$$
ligand
 OpenBabel11021811513D
libRbt.so/2013.1/901 2013/11/27
 12 12  0  0  0  0  0  0  0  0999 V2000
    3.7292    4.3803  -31.2024 O   0  0  0  0  0  0  0  0  0  0  0  0
    5.4709   -2.9136  -28.8816 O   0  0  0  0  0  0  0  0  0  0  0  0
    3.3981    3.6762  -30.0650 C   0  0  0  0  0  0  0  0  0  0  0  0
    7.1232   -1.1370  -28.6365 O   0  0  0  0  0  0  0  0  0  0  0  0
    4.3214    2.5673  -29.7671 C   0  0  0  0  0  0  0  0  0  0  0  0
    6.7824   -2.1779  -30.8060 O   0  5  0  0  0  0  0  0  0  0  0  0
    4.5367    1.7069  -30.9382 N   0  3  0  0  0  0  0  0  0  0  0  0
    4.9153    2.5033  -32.0770 C   0  0  0  0  0  0  0  0  0  0  0  0
    3.9429    3.6123  -32.3125 C   0  0  0  0  0  0  0  0  0  0  0  0
    5.5323    0.7217  -30.6409 C   0  0  0  0  0  0  0  0  0  0  0  0
    4.8691   -0.4886  -29.9358 C   0  0  0  0  0  0  0  0  0  0  0  0
    6.1093   -1.7431  -29.5560 S   0  0  1  0  0  0  0  0  0  0  0  0
  1  3  1  0  0  0  0
  1  9  1  0  0  0  0
  2 12  1  0  0  0  0
  3  5  1  0  0  0  0
  4 12  2  0  0  0  0
  5  7  1  0  0  0  0
  6 12  2  0  0  0  0
  7  8  1  0  0  0  0
  7 10  1  0  0  0  0
  8  9  1  0  0  0  0
 10 11  1  0  0  0  0
 12 11  1  6  0  0  0
M  CHG  2   6  -1   7   1
M  END
>  <CHROM.1>
84.73250778,179.88923642,-179.74728311,5.18736374,0.59250430,-30.30189313
2.40489373,1.05475484,-1.06640049

>  <Name>
ligand

>  <RI>
0

>  <Rbt.Current_Directory>
/home/itssahil/PROJECTS/Mol_Feturizer/New_Systems/rnas/4P95

>  <Rbt.Executable>
rbdock ($Id: //depot/dev/client3/rdock/2013.1/src/exe/rbdock.cxx#4 $)

>  <Rbt.Library>
libRbt.so (2013.1, Build901 2013/11/27)

>  <Rbt.Parameter_File>
/export/apps/rDock/src/rDock_2013.1_src/data/scripts/dock_solv.prm

>  <Rbt.Receptor>
prm/pocket_docking_8.prm

>  <SCORE>
-12.562

>  <SCORE.INTER>
-10.7441

>  <SCORE.INTER.CONST>
1

>  <SCORE.INTER.POLAR>
0

>  <SCORE.INTER.ROT>
3

>  <SCORE.INTER.SOLV>
6.49669

>  <SCORE.INTER.VDW>
-14.9283

>  <SCORE.INTER.norm>
-0.895344

>  <SCORE.INTRA>
-1.81788

>  <SCORE.INTRA.DIHEDRAL>
0.661725

>  <SCORE.INTRA.DIHEDRAL.0>
0.283163

>  <SCORE.INTRA.POLAR>
0

>  <SCORE.INTRA.POLAR.0>
0

>  <SCORE.INTRA.REPUL>
0

>  <SCORE.INTRA.REPUL.0>
0

>  <SCORE.INTRA.SOLV>
0.175982

>  <SCORE.INTRA.SOLV.lig_0>
-32.2894

>  <SCORE.INTRA.VDW>
-2.23673

>  <SCORE.INTRA.VDW.0>
2.0241

>  <SCORE.INTRA.norm>
-0.15149

>  <SCORE.RESTR>
0

>  <SCORE.RESTR.CAVITY>
0

>  <SCORE.RESTR.norm>
0

>  <SCORE.SYSTEM>
0

>  <SCORE.SYSTEM.CONST>
0

>  <SCORE.SYSTEM.DIHEDRAL>
0

>  <SCORE.SYSTEM.SOLV>
0

>  <SCORE.SYSTEM.norm>
0

>  <SCORE.heavy>
12

>  <SCORE.norm>
-1.04683

>  <RMSD>
3.395

$$$$
ligand
 OpenBabel11021811513D
libRbt.so/2013.1/901 2013/11/27
 12 12  0  0  0  0  0  0  0  0999 V2000
    1.6219    4.5846  -28.9690 O   0  0  0  0  0  0  0  0  0  0  0  0
    2.5440    0.0148  -29.7535 O   0  0  0  0  0  0  0  0  0  0  0  0
    2.0123    3.5936  -28.0944 C   0  0  0  0  0  0  0  0  0  0  0  0
    4.7181   -0.9732  -29.2599 O   0  0  0  0  0  0  0  0  0  0  0  0
    3.3273    3.0100  -28.4122 C   0  0  0  0  0  0  0  0  0  0  0  0
    3.6088   -1.4840  -31.3611 O   0  5  0  0  0  0  0  0  0  0  0  0
    3.4192    2.6068  -29.8218 N   0  3  0  0  0  0  0  0  0  0  0  0
    3.0338    3.6997  -30.6773 C   0  0  0  0  0  0  0  0  0  0  0  0
    1.6992    4.2480  -30.2912 C   0  0  0  0  0  0  0  0  0  0  0  0
    4.7488    2.1635  -30.1148 C   0  0  0  0  0  0  0  0  0  0  0  0
    4.6913    0.9725  -31.1047 C   0  0  0  0  0  0  0  0  0  0  0  0
    3.8430   -0.4272  -30.3448 S   0  0  1  0  0  0  0  0  0  0  0  0
  1  3  1  0  0  0  0
  1  9  1  0  0  0  0
  2 12  1  0  0  0  0
  3  5  1  0  0  0  0
  4 12  2  0  0  0  0
  5  7  1  0  0  0  0
  6 12  2  0  0  0  0
  7  8  1  0  0  0  0
  7 10  1  0  0  0  0
  8  9  1  0  0  0  0
 10 11  1  0  0  0  0
 12 11  1  6  0  0  0
M  CHG  2   6  -1   7   1
M  END
>  <CHROM.1>
143.00391858,-63.28781927,49.92452304,3.31924520,1.57128470,-29.89571720
2.31557323,1.03851553,-0.43451933

>  <Name>
ligand

>  <RI>
0

>  <Rbt.Current_Directory>
/home/itssahil/PROJECTS/Mol_Feturizer/New_Systems/rnas/4P95

>  <Rbt.Executable>
rbdock ($Id: //depot/dev/client3/rdock/2013.1/src/exe/rbdock.cxx#4 $)

>  <Rbt.Library>
libRbt.so (2013.1, Build901 2013/11/27)

>  <Rbt.Parameter_File>
/export/apps/rDock/src/rDock_2013.1_src/data/scripts/dock_solv.prm

>  <Rbt.Receptor>
prm/pocket_docking_3.prm

>  <SCORE>
-11.3209

>  <SCORE.INTER>
-8.68115

>  <SCORE.INTER.CONST>
1

>  <SCORE.INTER.POLAR>
0

>  <SCORE.INTER.ROT>
3

>  <SCORE.INTER.SOLV>
7.76971

>  <SCORE.INTER.VDW>
-13.9773

>  <SCORE.INTER.norm>
-0.723429

>  <SCORE.INTRA>
-2.63978

>  <SCORE.INTRA.DIHEDRAL>
1.5345

>  <SCORE.INTRA.DIHEDRAL.0>
0.283163

>  <SCORE.INTRA.POLAR>
0

>  <SCORE.INTRA.POLAR.0>
0

>  <SCORE.INTRA.REPUL>
0

>  <SCORE.INTRA.REPUL.0>
0

>  <SCORE.INTRA.SOLV>
-0.465038

>  <SCORE.INTRA.SOLV.lig_0>
-32.2894

>  <SCORE.INTRA.VDW>
-3.17451

>  <SCORE.INTRA.VDW.0>
2.0241

>  <SCORE.INTRA.norm>
-0.219981

>  <SCORE.RESTR>
0

>  <SCORE.RESTR.CAVITY>
0

>  <SCORE.RESTR.norm>
0

>  <SCORE.SYSTEM>
0

>  <SCORE.SYSTEM.CONST>
0

>  <SCORE.SYSTEM.DIHEDRAL>
0

>  <SCORE.SYSTEM.SOLV>
0

>  <SCORE.SYSTEM.norm>
0

>  <SCORE.heavy>
12

>  <SCORE.norm>
-0.94341

>  <RMSD>
3.397

$$$$
ligand
 OpenBabel11021811513D
libRbt.so/2013.1/901 2013/11/27
 12 12  0  0  0  0  0  0  0  0999 V2000
    2.7546    3.4161  -31.4510 O   0  0  0  0  0  0  0  0  0  0  0  0
    6.0255   -2.4627  -29.1776 O   0  0  0  0  0  0  0  0  0  0  0  0
    2.8472    2.2721  -32.2138 C   0  0  0  0  0  0  0  0  0  0  0  0
    7.7135   -0.8566  -28.4582 O   0  0  0  0  0  0  0  0  0  0  0  0
    3.4272    1.1262  -31.4917 C   0  0  0  0  0  0  0  0  0  0  0  0
    8.1428   -2.2797  -30.3810 O   0  5  0  0  0  0  0  0  0  0  0  0
    4.6878    1.4818  -30.8265 N   0  3  0  0  0  0  0  0  0  0  0  0
    4.5082    2.6612  -30.0194 C   0  0  0  0  0  0  0  0  0  0  0  0
    3.9075    3.7758  -30.8115 C   0  0  0  0  0  0  0  0  0  0  0  0
    5.1488    0.3793  -30.0376 C   0  0  0  0  0  0  0  0  0  0  0  0
    6.3906   -0.2568  -30.7121 C   0  0  0  0  0  0  0  0  0  0  0  0
    7.0949   -1.5292  -29.6439 S   0  0  1  0  0  0  0  0  0  0  0  0
  1  3  1  0  0  0  0
  1  9  1  0  0  0  0
  2 12  1  0  0  0  0
  3  5  1  0  0  0  0
  4 12  2  0  0  0  0
  5  7  1  0  0  0  0
  6 12  2  0  0  0  0
  7  8  1  0  0  0  0
  7 10  1  0  0  0  0
  8  9  1  0  0  0  0
 10 11  1  0  0  0  0
 12 11  1  6  0  0  0
M  CHG  2   6  -1   7   1
M  END
>  <CHROM.1>
108.26343413,173.77709473,49.49216743,5.43290068,0.39376379,-30.33874126
2.50159820,-0.68032444,0.33813704

>  <Name>
ligand

>  <RI>
0

>  <Rbt.Current_Directory>
/home/itssahil/PROJECTS/Mol_Feturizer/New_Systems/rnas/4P95

>  <Rbt.Executable>
rbdock ($Id: //depot/dev/client3/rdock/2013.1/src/exe/rbdock.cxx#4 $)

>  <Rbt.Library>
libRbt.so (2013.1, Build901 2013/11/27)

>  <Rbt.Parameter_File>
/export/apps/rDock/src/rDock_2013.1_src/data/scripts/dock_solv.prm

>  <Rbt.Receptor>
prm/pocket_docking_8.prm

>  <SCORE>
-9.16448

>  <SCORE.INTER>
-7.2905

>  <SCORE.INTER.CONST>
1

>  <SCORE.INTER.POLAR>
0

>  <SCORE.INTER.ROT>
3

>  <SCORE.INTER.SOLV>
6.74399

>  <SCORE.INTER.VDW>
-12.7083

>  <SCORE.INTER.norm>
-0.607541

>  <SCORE.INTRA>
-1.87398

>  <SCORE.INTRA.DIHEDRAL>
2.31311

>  <SCORE.INTRA.DIHEDRAL.0>
0.283163

>  <SCORE.INTRA.POLAR>
0

>  <SCORE.INTRA.POLAR.0>
0

>  <SCORE.INTRA.REPUL>
0

>  <SCORE.INTRA.REPUL.0>
0

>  <SCORE.INTRA.SOLV>
-0.735823

>  <SCORE.INTRA.SOLV.lig_0>
-32.2894

>  <SCORE.INTRA.VDW>
-2.66262

>  <SCORE.INTRA.VDW.0>
2.0241

>  <SCORE.INTRA.norm>
-0.156165

>  <SCORE.RESTR>
0

>  <SCORE.RESTR.CAVITY>
0

>  <SCORE.RESTR.norm>
0

>  <SCORE.SYSTEM>
0

>  <SCORE.SYSTEM.CONST>
0

>  <SCORE.SYSTEM.DIHEDRAL>
0

>  <SCORE.SYSTEM.SOLV>
0

>  <SCORE.SYSTEM.norm>
0

>  <SCORE.heavy>
12

>  <SCORE.norm>
-0.763706

>  <RMSD>
3.398

$$$$
ligand
 OpenBabel11021811513D
libRbt.so/2013.1/901 2013/11/27
 12 12  0  0  0  0  0  0  0  0999 V2000
    1.5956    4.5758  -28.9099 O   0  0  0  0  0  0  0  0  0  0  0  0
    2.5460    0.0190  -29.7540 O   0  0  0  0  0  0  0  0  0  0  0  0
    2.0063    3.5819  -28.0480 C   0  0  0  0  0  0  0  0  0  0  0  0
    4.7364   -0.9300  -29.2561 O   0  0  0  0  0  0  0  0  0  0  0  0
    3.3235    3.0146  -28.3855 C   0  0  0  0  0  0  0  0  0  0  0  0
    3.6379   -1.4653  -31.3568 O   0  5  0  0  0  0  0  0  0  0  0  0
    3.4035    2.6239  -29.7993 N   0  3  0  0  0  0  0  0  0  0  0  0
    2.9971    3.7197  -30.6413 C   0  0  0  0  0  0  0  0  0  0  0  0
    1.6613    4.2507  -30.2356 C   0  0  0  0  0  0  0  0  0  0  0  0
    4.7342    2.1970  -30.1110 C   0  0  0  0  0  0  0  0  0  0  0  0
    4.6777    1.0101  -31.1060 C   0  0  0  0  0  0  0  0  0  0  0  0
    3.8529   -0.4020  -30.3431 S   0  0  1  0  0  0  0  0  0  0  0  0
  1  3  1  0  0  0  0
  1  9  1  0  0  0  0
  2 12  1  0  0  0  0
  3  5  1  0  0  0  0
  4 12  2  0  0  0  0
  5  7  1  0  0  0  0
  6 12  2  0  0  0  0
  7  8  1  0  0  0  0
  7 10  1  0  0  0  0
  8  9  1  0  0  0  0
 10 11  1  0  0  0  0
 12 11  1  6  0  0  0
M  CHG  2   6  -1   7   1
M  END
>  <CHROM.1>
142.79917342,-63.22609000,50.84157447,3.31349799,1.58767255,-29.87623910
2.33959201,1.04150718,-0.44793529

>  <Name>
ligand

>  <RI>
0

>  <Rbt.Current_Directory>
/home/itssahil/PROJECTS/Mol_Feturizer/New_Systems/rnas/4P95

>  <Rbt.Executable>
rbdock ($Id: //depot/dev/client3/rdock/2013.1/src/exe/rbdock.cxx#4 $)

>  <Rbt.Library>
libRbt.so (2013.1, Build901 2013/11/27)

>  <Rbt.Parameter_File>
/export/apps/rDock/src/rDock_2013.1_src/data/scripts/dock_solv.prm

>  <Rbt.Receptor>
prm/pocket_docking_3.prm

>  <SCORE>
-11.3041

>  <SCORE.INTER>
-8.63706

>  <SCORE.INTER.CONST>
1

>  <SCORE.INTER.POLAR>
0

>  <SCORE.INTER.ROT>
3

>  <SCORE.INTER.SOLV>
7.75005

>  <SCORE.INTER.VDW>
-13.9414

>  <SCORE.INTER.norm>
-0.719755

>  <SCORE.INTRA>
-2.66706

>  <SCORE.INTRA.DIHEDRAL>
1.50627

>  <SCORE.INTRA.DIHEDRAL.0>
0.283163

>  <SCORE.INTRA.POLAR>
0

>  <SCORE.INTRA.POLAR.0>
0

>  <SCORE.INTRA.REPUL>
0

>  <SCORE.INTRA.REPUL.0>
0

>  <SCORE.INTRA.SOLV>
-0.463084

>  <SCORE.INTRA.SOLV.lig_0>
-32.2894

>  <SCORE.INTRA.VDW>
-3.18866

>  <SCORE.INTRA.VDW.0>
2.0241

>  <SCORE.INTRA.norm>
-0.222255

>  <SCORE.RESTR>
0

>  <SCORE.RESTR.CAVITY>
0

>  <SCORE.RESTR.norm>
0

>  <SCORE.SYSTEM>
0

>  <SCORE.SYSTEM.CONST>
0

>  <SCORE.SYSTEM.DIHEDRAL>
0

>  <SCORE.SYSTEM.SOLV>
0

>  <SCORE.SYSTEM.norm>
0

>  <SCORE.heavy>
12

>  <SCORE.norm>
-0.94201

>  <RMSD>
3.407

$$$$
ligand
 OpenBabel11021811513D
libRbt.so/2013.1/901 2013/11/27
 12 12  0  0  0  0  0  0  0  0999 V2000
    3.8004    4.4051  -31.2922 O   0  0  0  0  0  0  0  0  0  0  0  0
    5.4995   -2.8679  -28.8777 O   0  0  0  0  0  0  0  0  0  0  0  0
    3.5051    3.7332  -30.1258 C   0  0  0  0  0  0  0  0  0  0  0  0
    7.1661   -1.0974  -28.6930 O   0  0  0  0  0  0  0  0  0  0  0  0
    4.4187    2.6126  -29.8423 C   0  0  0  0  0  0  0  0  0  0  0  0
    6.7870   -2.1799  -30.8356 O   0  5  0  0  0  0  0  0  0  0  0  0
    4.5663    1.7223  -31.0014 N   0  3  0  0  0  0  0  0  0  0  0  0
    4.9107    2.4854  -32.1734 C   0  0  0  0  0  0  0  0  0  0  0  0
    3.9509    3.6085  -32.3924 C   0  0  0  0  0  0  0  0  0  0  0  0
    5.5545    0.7237  -30.7244 C   0  0  0  0  0  0  0  0  0  0  0  0
    4.8971   -0.4610  -29.9721 C   0  0  0  0  0  0  0  0  0  0  0  0
    6.1351   -1.7155  -29.5851 S   0  0  1  0  0  0  0  0  0  0  0  0
  1  3  1  0  0  0  0
  1  9  1  0  0  0  0
  2 12  1  0  0  0  0
  3  5  1  0  0  0  0
  4 12  2  0  0  0  0
  5  7  1  0  0  0  0
  6 12  2  0  0  0  0
  7  8  1  0  0  0  0
  7 10  1  0  0  0  0
  8  9  1  0  0  0  0
 10 11  1  0  0  0  0
 12 11  1  6  0  0  0
M  CHG  2   6  -1   7   1
M  END
>  <CHROM.1>
85.09912503,-178.86687492,-179.15644269,5.22450771,0.61504752,-30.35663478
2.46591366,1.09021590,-1.14727710

>  <Name>
ligand

>  <RI>
0

>  <Rbt.Current_Directory>
/home/itssahil/PROJECTS/Mol_Feturizer/New_Systems/rnas/4P95

>  <Rbt.Executable>
rbdock ($Id: //depot/dev/client3/rdock/2013.1/src/exe/rbdock.cxx#4 $)

>  <Rbt.Library>
libRbt.so (2013.1, Build901 2013/11/27)

>  <Rbt.Parameter_File>
/export/apps/rDock/src/rDock_2013.1_src/data/scripts/dock_solv.prm

>  <Rbt.Receptor>
prm/pocket_docking_7.prm

>  <SCORE>
-12.6004

>  <SCORE.INTER>
-10.7846

>  <SCORE.INTER.CONST>
1

>  <SCORE.INTER.POLAR>
0

>  <SCORE.INTER.ROT>
3

>  <SCORE.INTER.SOLV>
6.33809

>  <SCORE.INTER.VDW>
-14.9024

>  <SCORE.INTER.norm>
-0.898713

>  <SCORE.INTRA>
-1.81588

>  <SCORE.INTRA.DIHEDRAL>
0.692635

>  <SCORE.INTRA.DIHEDRAL.0>
0.283163

>  <SCORE.INTRA.POLAR>
0

>  <SCORE.INTRA.POLAR.0>
0

>  <SCORE.INTRA.REPUL>
0

>  <SCORE.INTRA.REPUL.0>
0

>  <SCORE.INTRA.SOLV>
0.17726

>  <SCORE.INTRA.SOLV.lig_0>
-32.2894

>  <SCORE.INTRA.VDW>
-2.25083

>  <SCORE.INTRA.VDW.0>
2.0241

>  <SCORE.INTRA.norm>
-0.151324

>  <SCORE.RESTR>
0

>  <SCORE.RESTR.CAVITY>
0

>  <SCORE.RESTR.norm>
0

>  <SCORE.SYSTEM>
0

>  <SCORE.SYSTEM.CONST>
0

>  <SCORE.SYSTEM.DIHEDRAL>
0

>  <SCORE.SYSTEM.SOLV>
0

>  <SCORE.SYSTEM.norm>
0

>  <SCORE.heavy>
12

>  <SCORE.norm>
-1.05004

>  <RMSD>
3.408

$$$$
ligand
 OpenBabel11021811513D
libRbt.so/2013.1/901 2013/11/27
 12 12  0  0  0  0  0  0  0  0999 V2000
    1.0256    3.1267  -26.9204 O   0  0  0  0  0  0  0  0  0  0  0  0
    3.5486   -0.9362  -29.1119 O   0  0  0  0  0  0  0  0  0  0  0  0
    2.4006    3.0856  -26.8369 C   0  0  0  0  0  0  0  0  0  0  0  0
    5.4167    0.3927  -29.9429 O   0  0  0  0  0  0  0  0  0  0  0  0
    3.0724    3.0945  -28.1482 C   0  0  0  0  0  0  0  0  0  0  0  0
    4.5091   -1.4010  -31.3087 O   0  5  0  0  0  0  0  0  0  0  0  0
    2.5171    2.0789  -29.0527 N   0  3  0  0  0  0  0  0  0  0  0  0
    1.0838    2.2045  -29.1206 C   0  0  0  0  0  0  0  0  0  0  0  0
    0.4724    2.1993  -27.7580 C   0  0  0  0  0  0  0  0  0  0  0  0
    3.1104    2.2067  -30.3497 C   0  0  0  0  0  0  0  0  0  0  0  0
    3.0359    0.8471  -31.0896 C   0  0  0  0  0  0  0  0  0  0  0  0
    4.1683   -0.3360  -30.3318 S   0  0  1  0  0  0  0  0  0  0  0  0
  1  3  1  0  0  0  0
  1  9  1  0  0  0  0
  2 12  1  0  0  0  0
  3  5  1  0  0  0  0
  4 12  2  0  0  0  0
  5  7  1  0  0  0  0
  6 12  2  0  0  0  0
  7  8  1  0  0  0  0
  7 10  1  0  0  0  0
  8  9  1  0  0  0  0
 10 11  1  0  0  0  0
 12 11  1  6  0  0  0
M  CHG  2   6  -1   7   1
M  END
>  <CHROM.1>
155.27259714,-70.59103296,81.07398838,3.01554276,1.17674709,-29.27906215
-2.14729248,0.13598372,-2.33656641

>  <Name>
ligand

>  <RI>
0

>  <Rbt.Current_Directory>
/home/itssahil/PROJECTS/Mol_Feturizer/New_Systems/rnas/4P95

>  <Rbt.Executable>
rbdock ($Id: //depot/dev/client3/rdock/2013.1/src/exe/rbdock.cxx#4 $)

>  <Rbt.Library>
libRbt.so (2013.1, Build901 2013/11/27)

>  <Rbt.Parameter_File>
/export/apps/rDock/src/rDock_2013.1_src/data/scripts/dock_solv.prm

>  <Rbt.Receptor>
prm/pocket_docking_5.prm

>  <SCORE>
-10.1739

>  <SCORE.INTER>
-8.28116

>  <SCORE.INTER.CONST>
1

>  <SCORE.INTER.POLAR>
0

>  <SCORE.INTER.ROT>
3

>  <SCORE.INTER.SOLV>
6.45293

>  <SCORE.INTER.VDW>
-13.2717

>  <SCORE.INTER.norm>
-0.690097

>  <SCORE.INTRA>
-1.89276

>  <SCORE.INTRA.DIHEDRAL>
1.98486

>  <SCORE.INTRA.DIHEDRAL.0>
0.283163

>  <SCORE.INTRA.POLAR>
0

>  <SCORE.INTRA.POLAR.0>
0

>  <SCORE.INTRA.REPUL>
0

>  <SCORE.INTRA.REPUL.0>
0

>  <SCORE.INTRA.SOLV>
-0.245253

>  <SCORE.INTRA.SOLV.lig_0>
-32.2894

>  <SCORE.INTRA.VDW>
-2.76257

>  <SCORE.INTRA.VDW.0>
2.0241

>  <SCORE.INTRA.norm>
-0.15773

>  <SCORE.RESTR>
0

>  <SCORE.RESTR.CAVITY>
0

>  <SCORE.RESTR.norm>
0

>  <SCORE.SYSTEM>
0

>  <SCORE.SYSTEM.CONST>
0

>  <SCORE.SYSTEM.DIHEDRAL>
0

>  <SCORE.SYSTEM.SOLV>
0

>  <SCORE.SYSTEM.norm>
0

>  <SCORE.heavy>
12

>  <SCORE.norm>
-0.847827

>  <RMSD>
3.409

$$$$
ligand
 OpenBabel11021811513D
libRbt.so/2013.1/901 2013/11/27
 12 12  0  0  0  0  0  0  0  0999 V2000
    3.8084    4.4175  -31.2681 O   0  0  0  0  0  0  0  0  0  0  0  0
    5.4966   -2.8671  -28.8781 O   0  0  0  0  0  0  0  0  0  0  0  0
    3.4947    3.7364  -30.1118 C   0  0  0  0  0  0  0  0  0  0  0  0
    7.1729   -1.1069  -28.6833 O   0  0  0  0  0  0  0  0  0  0  0  0
    4.4085    2.6184  -29.8187 C   0  0  0  0  0  0  0  0  0  0  0  0
    6.7851   -2.1722  -30.8329 O   0  5  0  0  0  0  0  0  0  0  0  0
    4.5821    1.7365  -30.9807 N   0  3  0  0  0  0  0  0  0  0  0  0
    4.9446    2.5092  -32.1410 C   0  0  0  0  0  0  0  0  0  0  0  0
    3.9834    3.6291  -32.3706 C   0  0  0  0  0  0  0  0  0  0  0  0
    5.5700    0.7410  -30.6919 C   0  0  0  0  0  0  0  0  0  0  0  0
    4.9056   -0.4493  -29.9547 C   0  0  0  0  0  0  0  0  0  0  0  0
    6.1374   -1.7132  -29.5782 S   0  0  1  0  0  0  0  0  0  0  0  0
  1  3  1  0  0  0  0
  1  9  1  0  0  0  0
  2 12  1  0  0  0  0
  3  5  1  0  0  0  0
  4 12  2  0  0  0  0
  5  7  1  0  0  0  0
  6 12  2  0  0  0  0
  7  8  1  0  0  0  0
  7 10  1  0  0  0  0
  8  9  1  0  0  0  0
 10 11  1  0  0  0  0
 12 11  1  6  0  0  0
M  CHG  2   6  -1   7   1
M  END
>  <CHROM.1>
84.86618529,-179.84675476,-179.50156785,5.23188405,0.62334144,-30.34079450
2.43491276,1.07917207,-1.10927527

>  <Name>
ligand

>  <RI>
0

>  <Rbt.Current_Directory>
/home/itssahil/PROJECTS/Mol_Feturizer/New_Systems/rnas/4P95

>  <Rbt.Executable>
rbdock ($Id: //depot/dev/client3/rdock/2013.1/src/exe/rbdock.cxx#4 $)

>  <Rbt.Library>
libRbt.so (2013.1, Build901 2013/11/27)

>  <Rbt.Parameter_File>
/export/apps/rDock/src/rDock_2013.1_src/data/scripts/dock_solv.prm

>  <Rbt.Receptor>
prm/pocket_docking_7.prm

>  <SCORE>
-12.5791

>  <SCORE.INTER>
-10.7619

>  <SCORE.INTER.CONST>
1

>  <SCORE.INTER.POLAR>
0

>  <SCORE.INTER.ROT>
3

>  <SCORE.INTER.SOLV>
6.41731

>  <SCORE.INTER.VDW>
-14.9137

>  <SCORE.INTER.norm>
-0.896827

>  <SCORE.INTRA>
-1.81713

>  <SCORE.INTRA.DIHEDRAL>
0.671249

>  <SCORE.INTRA.DIHEDRAL.0>
0.283163

>  <SCORE.INTRA.POLAR>
0

>  <SCORE.INTRA.POLAR.0>
0

>  <SCORE.INTRA.REPUL>
0

>  <SCORE.INTRA.REPUL.0>
0

>  <SCORE.INTRA.SOLV>
0.177849

>  <SCORE.INTRA.SOLV.lig_0>
-32.2894

>  <SCORE.INTRA.VDW>
-2.24168

>  <SCORE.INTRA.VDW.0>
2.0241

>  <SCORE.INTRA.norm>
-0.151428

>  <SCORE.RESTR>
0

>  <SCORE.RESTR.CAVITY>
0

>  <SCORE.RESTR.norm>
0

>  <SCORE.SYSTEM>
0

>  <SCORE.SYSTEM.CONST>
0

>  <SCORE.SYSTEM.DIHEDRAL>
0

>  <SCORE.SYSTEM.SOLV>
0

>  <SCORE.SYSTEM.norm>
0

>  <SCORE.heavy>
12

>  <SCORE.norm>
-1.04825

>  <RMSD>
3.411

$$$$
ligand
 OpenBabel11021811513D
libRbt.so/2013.1/901 2013/11/27
 12 12  0  0  0  0  0  0  0  0999 V2000
    3.8240    4.3983  -31.2998 O   0  0  0  0  0  0  0  0  0  0  0  0
    5.4956   -2.8749  -28.8694 O   0  0  0  0  0  0  0  0  0  0  0  0
    3.5041    3.7203  -30.1434 C   0  0  0  0  0  0  0  0  0  0  0  0
    7.1610   -1.1074  -28.6485 O   0  0  0  0  0  0  0  0  0  0  0  0
    4.4150    2.6018  -29.8434 C   0  0  0  0  0  0  0  0  0  0  0  0
    6.8125   -2.1753  -30.8036 O   0  5  0  0  0  0  0  0  0  0  0  0
    4.5930    1.7170  -31.0025 N   0  3  0  0  0  0  0  0  0  0  0  0
    4.9619    2.4865  -32.1629 C   0  0  0  0  0  0  0  0  0  0  0  0
    4.0032    3.6070  -32.3995 C   0  0  0  0  0  0  0  0  0  0  0  0
    5.5782    0.7209  -30.7067 C   0  0  0  0  0  0  0  0  0  0  0  0
    4.9117   -0.4602  -29.9567 C   0  0  0  0  0  0  0  0  0  0  0  0
    6.1427   -1.7186  -29.5597 S   0  0  1  0  0  0  0  0  0  0  0  0
  1  3  1  0  0  0  0
  1  9  1  0  0  0  0
  2 12  1  0  0  0  0
  3  5  1  0  0  0  0
  4 12  2  0  0  0  0
  5  7  1  0  0  0  0
  6 12  2  0  0  0  0
  7  8  1  0  0  0  0
  7 10  1  0  0  0  0
  8  9  1  0  0  0  0
 10 11  1  0  0  0  0
 12 11  1  6  0  0  0
M  CHG  2   6  -1   7   1
M  END
>  <CHROM.1>
84.27628711,-179.39718167,-178.46502444,5.24089585,0.61067544,-30.34486472
2.42387231,1.07623279,-1.10661957

>  <Name>
ligand

>  <RI>
0

>  <Rbt.Current_Directory>
/home/itssahil/PROJECTS/Mol_Feturizer/New_Systems/rnas/4P95

>  <Rbt.Executable>
rbdock ($Id: //depot/dev/client3/rdock/2013.1/src/exe/rbdock.cxx#4 $)

>  <Rbt.Library>
libRbt.so (2013.1, Build901 2013/11/27)

>  <Rbt.Parameter_File>
/export/apps/rDock/src/rDock_2013.1_src/data/scripts/dock_solv.prm

>  <Rbt.Receptor>
prm/pocket_docking_8.prm

>  <SCORE>
-12.6086

>  <SCORE.INTER>
-10.8049

>  <SCORE.INTER.CONST>
1

>  <SCORE.INTER.POLAR>
0

>  <SCORE.INTER.ROT>
3

>  <SCORE.INTER.SOLV>
6.49188

>  <SCORE.INTER.VDW>
-14.9672

>  <SCORE.INTER.norm>
-0.900405

>  <SCORE.INTRA>
-1.80374

>  <SCORE.INTRA.DIHEDRAL>
0.645175

>  <SCORE.INTRA.DIHEDRAL.0>
0.283163

>  <SCORE.INTRA.POLAR>
0

>  <SCORE.INTRA.POLAR.0>
0

>  <SCORE.INTRA.REPUL>
0

>  <SCORE.INTRA.REPUL.0>
0

>  <SCORE.INTRA.SOLV>
0.189655

>  <SCORE.INTRA.SOLV.lig_0>
-32.2894

>  <SCORE.INTRA.VDW>
-2.22115

>  <SCORE.INTRA.VDW.0>
2.0241

>  <SCORE.INTRA.norm>
-0.150311

>  <SCORE.RESTR>
0

>  <SCORE.RESTR.CAVITY>
0

>  <SCORE.RESTR.norm>
0

>  <SCORE.SYSTEM>
0

>  <SCORE.SYSTEM.CONST>
0

>  <SCORE.SYSTEM.DIHEDRAL>
0

>  <SCORE.SYSTEM.SOLV>
0

>  <SCORE.SYSTEM.norm>
0

>  <SCORE.heavy>
12

>  <SCORE.norm>
-1.05072

>  <RMSD>
3.424

$$$$
ligand
 OpenBabel11021811513D
libRbt.so/2013.1/901 2013/11/27
 12 12  0  0  0  0  0  0  0  0999 V2000
    0.8513    3.3200  -26.6295 O   0  0  0  0  0  0  0  0  0  0  0  0
    6.3501    0.7332  -31.5880 O   0  0  0  0  0  0  0  0  0  0  0  0
    2.2188    3.1989  -26.5092 C   0  0  0  0  0  0  0  0  0  0  0  0
    5.2134    2.8365  -32.0685 O   0  0  0  0  0  0  0  0  0  0  0  0
    2.9243    3.1608  -27.8022 C   0  0  0  0  0  0  0  0  0  0  0  0
    4.1191    0.7280  -32.5815 O   0  5  0  0  0  0  0  0  0  0  0  0
    2.3343    2.1743  -28.7169 N   0  3  0  0  0  0  0  0  0  0  0  0
    0.9132    2.3833  -28.8235 C   0  0  0  0  0  0  0  0  0  0  0  0
    0.2668    2.4218  -27.4776 C   0  0  0  0  0  0  0  0  0  0  0  0
    2.9681    2.2596  -29.9981 C   0  0  0  0  0  0  0  0  0  0  0  0
    4.2790    1.4332  -29.9835 C   0  0  0  0  0  0  0  0  0  0  0  0
    5.0231    1.4187  -31.6274 S   0  0  1  0  0  0  0  0  0  0  0  0
  1  3  1  0  0  0  0
  1  9  1  0  0  0  0
  2 12  1  0  0  0  0
  3  5  1  0  0  0  0
  4 12  2  0  0  0  0
  5  7  1  0  0  0  0
  6 12  2  0  0  0  0
  7  8  1  0  0  0  0
  7 10  1  0  0  0  0
  8  9  1  0  0  0  0
 10 11  1  0  0  0  0
 12 11  1  1  0  0  0
M  CHG  2   6  -1   7   1
M  END
>  <CHROM.1>
83.46503627,175.43205919,174.66825913,3.33950221,2.09149634,-29.73301668
-2.26078444,-0.11247802,-1.99002290

>  <Name>
ligand

>  <RI>
0

>  <Rbt.Current_Directory>
/home/itssahil/PROJECTS/Mol_Feturizer/New_Systems/rnas/4P95

>  <Rbt.Executable>
rbdock ($Id: //depot/dev/client3/rdock/2013.1/src/exe/rbdock.cxx#4 $)

>  <Rbt.Library>
libRbt.so (2013.1, Build901 2013/11/27)

>  <Rbt.Parameter_File>
/export/apps/rDock/src/rDock_2013.1_src/data/scripts/dock_solv.prm

>  <Rbt.Receptor>
prm/pocket_docking_6.prm

>  <SCORE>
-11.157

>  <SCORE.INTER>
-9.39884

>  <SCORE.INTER.CONST>
1

>  <SCORE.INTER.POLAR>
0

>  <SCORE.INTER.ROT>
3

>  <SCORE.INTER.SOLV>
5.88962

>  <SCORE.INTER.VDW>
-13.8291

>  <SCORE.INTER.norm>
-0.783237

>  <SCORE.INTRA>
-1.75813

>  <SCORE.INTRA.DIHEDRAL>
0.713989

>  <SCORE.INTRA.DIHEDRAL.0>
0.283163

>  <SCORE.INTRA.POLAR>
0

>  <SCORE.INTRA.POLAR.0>
0

>  <SCORE.INTRA.REPUL>
0

>  <SCORE.INTRA.REPUL.0>
0

>  <SCORE.INTRA.SOLV>
0.126163

>  <SCORE.INTRA.SOLV.lig_0>
-32.2894

>  <SCORE.INTRA.VDW>
-2.17821

>  <SCORE.INTRA.VDW.0>
2.0241

>  <SCORE.INTRA.norm>
-0.146511

>  <SCORE.RESTR>
0

>  <SCORE.RESTR.CAVITY>
0

>  <SCORE.RESTR.norm>
0

>  <SCORE.SYSTEM>
0

>  <SCORE.SYSTEM.CONST>
0

>  <SCORE.SYSTEM.DIHEDRAL>
0

>  <SCORE.SYSTEM.SOLV>
0

>  <SCORE.SYSTEM.norm>
0

>  <SCORE.heavy>
12

>  <SCORE.norm>
-0.929748

>  <RMSD>
3.436

$$$$
ligand
 OpenBabel11021811513D
libRbt.so/2013.1/901 2013/11/27
 12 12  0  0  0  0  0  0  0  0999 V2000
    3.0595    1.6915  -31.6398 O   0  0  0  0  0  0  0  0  0  0  0  0
    7.8205   -0.7713  -28.5658 O   0  0  0  0  0  0  0  0  0  0  0  0
    2.8894    0.3932  -32.0699 C   0  0  0  0  0  0  0  0  0  0  0  0
    7.2523   -0.2678  -30.8832 O   0  0  0  0  0  0  0  0  0  0  0  0
    3.2092   -0.6153  -31.0444 C   0  0  0  0  0  0  0  0  0  0  0  0
    8.5106   -2.2796  -30.3584 O   0  5  0  0  0  0  0  0  0  0  0  0
    4.5239   -0.3754  -30.4344 N   0  3  0  0  0  0  0  0  0  0  0  0
    4.6174    0.9866  -29.9752 C   0  0  0  0  0  0  0  0  0  0  0  0
    4.2698    1.9516  -31.0609 C   0  0  0  0  0  0  0  0  0  0  0  0
    4.7379   -1.2996  -29.3619 C   0  0  0  0  0  0  0  0  0  0  0  0
    5.8869   -2.2700  -29.7359 C   0  0  0  0  0  0  0  0  0  0  0  0
    7.4414   -1.3656  -29.8832 S   0  0  1  0  0  0  0  0  0  0  0  0
  1  3  1  0  0  0  0
  1  9  1  0  0  0  0
  2 12  1  0  0  0  0
  3  5  1  0  0  0  0
  4 12  2  0  0  0  0
  5  7  1  0  0  0  0
  6 12  2  0  0  0  0
  7  8  1  0  0  0  0
  7 10  1  0  0  0  0
  8  9  1  0  0  0  0
 10 11  1  0  0  0  0
 12 11  1  1  0  0  0
M  CHG  2   6  -1   7   1
M  END
>  <CHROM.1>
113.08419128,65.20452596,63.50848777,5.59886191,-0.44814286,-30.36586760
-2.58312683,0.20871152,2.90045075

>  <Name>
ligand

>  <RI>
0

>  <Rbt.Current_Directory>
/home/itssahil/PROJECTS/Mol_Feturizer/New_Systems/rnas/4P95

>  <Rbt.Executable>
rbdock ($Id: //depot/dev/client3/rdock/2013.1/src/exe/rbdock.cxx#4 $)

>  <Rbt.Library>
libRbt.so (2013.1, Build901 2013/11/27)

>  <Rbt.Parameter_File>
/export/apps/rDock/src/rDock_2013.1_src/data/scripts/dock_solv.prm

>  <Rbt.Receptor>
prm/pocket_docking_6.prm

>  <SCORE>
-9.40547

>  <SCORE.INTER>
-7.25524

>  <SCORE.INTER.CONST>
1

>  <SCORE.INTER.POLAR>
0

>  <SCORE.INTER.ROT>
3

>  <SCORE.INTER.SOLV>
5.65403

>  <SCORE.INTER.VDW>
-12.3215

>  <SCORE.INTER.norm>
-0.604603

>  <SCORE.INTRA>
-2.15024

>  <SCORE.INTRA.DIHEDRAL>
2.20601

>  <SCORE.INTRA.DIHEDRAL.0>
0.283163

>  <SCORE.INTRA.POLAR>
0

>  <SCORE.INTRA.POLAR.0>
0

>  <SCORE.INTRA.REPUL>
0

>  <SCORE.INTRA.REPUL.0>
0

>  <SCORE.INTRA.SOLV>
0.219217

>  <SCORE.INTRA.SOLV.lig_0>
-32.2894

>  <SCORE.INTRA.VDW>
-3.36285

>  <SCORE.INTRA.VDW.0>
2.0241

>  <SCORE.INTRA.norm>
-0.179186

>  <SCORE.RESTR>
0

>  <SCORE.RESTR.CAVITY>
0

>  <SCORE.RESTR.norm>
0

>  <SCORE.SYSTEM>
0

>  <SCORE.SYSTEM.CONST>
0

>  <SCORE.SYSTEM.DIHEDRAL>
0

>  <SCORE.SYSTEM.SOLV>
0

>  <SCORE.SYSTEM.norm>
0

>  <SCORE.heavy>
12

>  <SCORE.norm>
-0.783789

>  <RMSD>
3.449

$$$$
ligand
 OpenBabel11021811513D
libRbt.so/2013.1/901 2013/11/27
 12 12  0  0  0  0  0  0  0  0999 V2000
    0.4617    3.2799  -26.9992 O   0  0  0  0  0  0  0  0  0  0  0  0
    6.3767    0.8849  -30.5625 O   0  0  0  0  0  0  0  0  0  0  0  0
    1.7185    3.2525  -26.4345 C   0  0  0  0  0  0  0  0  0  0  0  0
    5.1225    2.2902  -32.1113 O   0  0  0  0  0  0  0  0  0  0  0  0
    2.8103    3.2387  -27.4238 C   0  0  0  0  0  0  0  0  0  0  0  0
    5.0201   -0.1288  -32.3223 O   0  5  0  0  0  0  0  0  0  0  0  0
    2.6108    2.1989  -28.4422 N   0  3  0  0  0  0  0  0  0  0  0  0
    1.2938    2.3105  -29.0148 C   0  0  0  0  0  0  0  0  0  0  0  0
    0.2404    2.3297  -27.9562 C   0  0  0  0  0  0  0  0  0  0  0  0
    3.6239    2.3035  -29.4486 C   0  0  0  0  0  0  0  0  0  0  0  0
    3.6834    0.9861  -30.2626 C   0  0  0  0  0  0  0  0  0  0  0  0
    5.1171    0.9964  -31.3583 S   0  0  1  0  0  0  0  0  0  0  0  0
  1  3  1  0  0  0  0
  1  9  1  0  0  0  0
  2 12  1  0  0  0  0
  3  5  1  0  0  0  0
  4 12  2  0  0  0  0
  5  7  1  0  0  0  0
  6 12  2  0  0  0  0
  7  8  1  0  0  0  0
  7 10  1  0  0  0  0
  8  9  1  0  0  0  0
 10 11  1  0  0  0  0
 12 11  1  1  0  0  0
M  CHG  2   6  -1   7   1
M  END
>  <CHROM.1>
162.85909509,-171.13993654,69.86674270,3.39735288,1.88564783,-29.59308709
2.30081313,0.07279193,1.05617347

>  <Name>
ligand

>  <RI>
0

>  <Rbt.Current_Directory>
/home/itssahil/PROJECTS/Mol_Feturizer/New_Systems/rnas/4P95

>  <Rbt.Executable>
rbdock ($Id: //depot/dev/client3/rdock/2013.1/src/exe/rbdock.cxx#4 $)

>  <Rbt.Library>
libRbt.so (2013.1, Build901 2013/11/27)

>  <Rbt.Parameter_File>
/export/apps/rDock/src/rDock_2013.1_src/data/scripts/dock_solv.prm

>  <Rbt.Receptor>
prm/pocket_docking_5.prm

>  <SCORE>
-11.3989

>  <SCORE.INTER>
-9.61732

>  <SCORE.INTER.CONST>
1

>  <SCORE.INTER.POLAR>
0

>  <SCORE.INTER.ROT>
3

>  <SCORE.INTER.SOLV>
5.82782

>  <SCORE.INTER.VDW>
-13.9542

>  <SCORE.INTER.norm>
-0.801443

>  <SCORE.INTRA>
-1.78162

>  <SCORE.INTRA.DIHEDRAL>
0.676768

>  <SCORE.INTRA.DIHEDRAL.0>
0.283163

>  <SCORE.INTRA.POLAR>
0

>  <SCORE.INTRA.POLAR.0>
0

>  <SCORE.INTRA.REPUL>
0

>  <SCORE.INTRA.REPUL.0>
0

>  <SCORE.INTRA.SOLV>
-0.676943

>  <SCORE.INTRA.SOLV.lig_0>
-32.2894

>  <SCORE.INTRA.VDW>
-1.78154

>  <SCORE.INTRA.VDW.0>
2.0241

>  <SCORE.INTRA.norm>
-0.148469

>  <SCORE.RESTR>
0

>  <SCORE.RESTR.CAVITY>
0

>  <SCORE.RESTR.norm>
0

>  <SCORE.SYSTEM>
0

>  <SCORE.SYSTEM.CONST>
0

>  <SCORE.SYSTEM.DIHEDRAL>
0

>  <SCORE.SYSTEM.SOLV>
0

>  <SCORE.SYSTEM.norm>
0

>  <SCORE.heavy>
12

>  <SCORE.norm>
-0.949912

>  <RMSD>
3.455

$$$$
ligand
 OpenBabel11021811513D
libRbt.so/2013.1/901 2013/11/27
 12 12  0  0  0  0  0  0  0  0999 V2000
    3.9056    4.3751  -31.3021 O   0  0  0  0  0  0  0  0  0  0  0  0
    5.3471   -2.9222  -28.7872 O   0  0  0  0  0  0  0  0  0  0  0  0
    3.5564    3.7220  -30.1398 C   0  0  0  0  0  0  0  0  0  0  0  0
    7.0570   -1.1994  -28.5532 O   0  0  0  0  0  0  0  0  0  0  0  0
    4.4334    2.5832  -29.8160 C   0  0  0  0  0  0  0  0  0  0  0  0
    6.7083   -2.2696  -30.7071 O   0  5  0  0  0  0  0  0  0  0  0  0
    4.5976    1.6780  -30.9613 N   0  3  0  0  0  0  0  0  0  0  0  0
    4.9983    2.4211  -32.1284 C   0  0  0  0  0  0  0  0  0  0  0  0
    4.0731    3.5642  -32.3893 C   0  0  0  0  0  0  0  0  0  0  0  0
    5.5522    0.6594  -30.6427 C   0  0  0  0  0  0  0  0  0  0  0  0
    4.8439   -0.4986  -29.8950 C   0  0  0  0  0  0  0  0  0  0  0  0
    6.0346   -1.7877  -29.4748 S   0  0  1  0  0  0  0  0  0  0  0  0
  1  3  1  0  0  0  0
  1  9  1  0  0  0  0
  2 12  1  0  0  0  0
  3  5  1  0  0  0  0
  4 12  2  0  0  0  0
  5  7  1  0  0  0  0
  6 12  2  0  0  0  0
  7  8  1  0  0  0  0
  7 10  1  0  0  0  0
  8  9  1  0  0  0  0
 10 11  1  0  0  0  0
 12 11  1  6  0  0  0
M  CHG  2   6  -1   7   1
M  END
>  <CHROM.1>
84.80258835,-179.60890464,-178.44183387,5.20673945,0.55905369,-30.29094877
2.37911674,1.09766889,-1.07730666

>  <Name>
ligand

>  <RI>
0

>  <Rbt.Current_Directory>
/home/itssahil/PROJECTS/Mol_Feturizer/New_Systems/rnas/4P95

>  <Rbt.Executable>
rbdock ($Id: //depot/dev/client3/rdock/2013.1/src/exe/rbdock.cxx#4 $)

>  <Rbt.Library>
libRbt.so (2013.1, Build901 2013/11/27)

>  <Rbt.Parameter_File>
/export/apps/rDock/src/rDock_2013.1_src/data/scripts/dock_solv.prm

>  <Rbt.Receptor>
prm/pocket_docking_6.prm

>  <SCORE>
-12.5899

>  <SCORE.INTER>
-10.7844

>  <SCORE.INTER.CONST>
1

>  <SCORE.INTER.POLAR>
0

>  <SCORE.INTER.ROT>
3

>  <SCORE.INTER.SOLV>
7.06244

>  <SCORE.INTER.VDW>
-15.1437

>  <SCORE.INTER.norm>
-0.898699

>  <SCORE.INTRA>
-1.80554

>  <SCORE.INTRA.DIHEDRAL>
0.676795

>  <SCORE.INTRA.DIHEDRAL.0>
0.283163

>  <SCORE.INTRA.POLAR>
0

>  <SCORE.INTRA.POLAR.0>
0

>  <SCORE.INTRA.REPUL>
0

>  <SCORE.INTRA.REPUL.0>
0

>  <SCORE.INTRA.SOLV>
0.190972

>  <SCORE.INTRA.SOLV.lig_0>
-32.2894

>  <SCORE.INTRA.VDW>
-2.23942

>  <SCORE.INTRA.VDW.0>
2.0241

>  <SCORE.INTRA.norm>
-0.150462

>  <SCORE.RESTR>
0

>  <SCORE.RESTR.CAVITY>
0

>  <SCORE.RESTR.norm>
0

>  <SCORE.SYSTEM>
0

>  <SCORE.SYSTEM.CONST>
0

>  <SCORE.SYSTEM.DIHEDRAL>
0

>  <SCORE.SYSTEM.SOLV>
0

>  <SCORE.SYSTEM.norm>
0

>  <SCORE.heavy>
12

>  <SCORE.norm>
-1.04916

>  <RMSD>
3.465

$$$$
ligand
 OpenBabel11021811513D
libRbt.so/2013.1/901 2013/11/27
 12 12  0  0  0  0  0  0  0  0999 V2000
    0.4883    2.5808  -27.1167 O   0  0  0  0  0  0  0  0  0  0  0  0
    3.9339   -0.0784  -30.6359 O   0  0  0  0  0  0  0  0  0  0  0  0
    0.5191    2.0450  -28.3861 C   0  0  0  0  0  0  0  0  0  0  0  0
    6.1748    0.8832  -30.6250 O   0  0  0  0  0  0  0  0  0  0  0  0
    1.8819    1.8253  -28.9014 C   0  0  0  0  0  0  0  0  0  0  0  0
    4.8537    0.9234  -32.6644 O   0  5  0  0  0  0  0  0  0  0  0  0
    2.7191    3.0240  -28.7587 N   0  3  0  0  0  0  0  0  0  0  0  0
    2.6692    3.5063  -27.4024 C   0  0  0  0  0  0  0  0  0  0  0  0
    1.2604    3.6950  -26.9438 C   0  0  0  0  0  0  0  0  0  0  0  0
    4.0630    2.7280  -29.1543 C   0  0  0  0  0  0  0  0  0  0  0  0
    4.1376    2.6250  -30.6988 C   0  0  0  0  0  0  0  0  0  0  0  0
    4.7923    1.0149  -31.1838 S   0  0  1  0  0  0  0  0  0  0  0  0
  1  3  1  0  0  0  0
  1  9  1  0  0  0  0
  2 12  1  0  0  0  0
  3  5  1  0  0  0  0
  4 12  2  0  0  0  0
  5  7  1  0  0  0  0
  6 12  2  0  0  0  0
  7  8  1  0  0  0  0
  7 10  1  0  0  0  0
  8  9  1  0  0  0  0
 10 11  1  0  0  0  0
 12 11  1  1  0  0  0
M  CHG  2   6  -1   7   1
M  END
>  <CHROM.1>
74.49694948,-123.16935645,58.23576612,3.30932702,1.92673526,-29.57689970
2.34394749,0.35648164,0.75883989

>  <Name>
ligand

>  <RI>
0

>  <Rbt.Current_Directory>
/home/itssahil/PROJECTS/Mol_Feturizer/New_Systems/rnas/4P95

>  <Rbt.Executable>
rbdock ($Id: //depot/dev/client3/rdock/2013.1/src/exe/rbdock.cxx#4 $)

>  <Rbt.Library>
libRbt.so (2013.1, Build901 2013/11/27)

>  <Rbt.Parameter_File>
/export/apps/rDock/src/rDock_2013.1_src/data/scripts/dock_solv.prm

>  <Rbt.Receptor>
prm/pocket_docking_8.prm

>  <SCORE>
-9.2518

>  <SCORE.INTER>
-9.51144

>  <SCORE.INTER.CONST>
1

>  <SCORE.INTER.POLAR>
0

>  <SCORE.INTER.ROT>
3

>  <SCORE.INTER.SOLV>
6.88007

>  <SCORE.INTER.VDW>
-14.2343

>  <SCORE.INTER.norm>
-0.79262

>  <SCORE.INTRA>
0.259635

>  <SCORE.INTRA.DIHEDRAL>
5.58331

>  <SCORE.INTRA.DIHEDRAL.0>
0.283163

>  <SCORE.INTRA.POLAR>
0

>  <SCORE.INTRA.POLAR.0>
0

>  <SCORE.INTRA.REPUL>
0

>  <SCORE.INTRA.REPUL.0>
0

>  <SCORE.INTRA.SOLV>
-0.74984

>  <SCORE.INTRA.SOLV.lig_0>
-32.2894

>  <SCORE.INTRA.VDW>
-2.1571

>  <SCORE.INTRA.VDW.0>
2.0241

>  <SCORE.INTRA.norm>
0.0216363

>  <SCORE.RESTR>
0

>  <SCORE.RESTR.CAVITY>
0

>  <SCORE.RESTR.norm>
0

>  <SCORE.SYSTEM>
0

>  <SCORE.SYSTEM.CONST>
0

>  <SCORE.SYSTEM.DIHEDRAL>
0

>  <SCORE.SYSTEM.SOLV>
0

>  <SCORE.SYSTEM.norm>
0

>  <SCORE.heavy>
12

>  <SCORE.norm>
-0.770984

>  <RMSD>
3.465

$$$$
ligand
 OpenBabel11021811513D
libRbt.so/2013.1/901 2013/11/27
 12 12  0  0  0  0  0  0  0  0999 V2000
    4.0000    4.3796  -31.5758 O   0  0  0  0  0  0  0  0  0  0  0  0
    5.4475   -2.8511  -28.8669 O   0  0  0  0  0  0  0  0  0  0  0  0
    3.6431    3.7601  -30.3976 C   0  0  0  0  0  0  0  0  0  0  0  0
    7.1817   -1.1447  -28.7027 O   0  0  0  0  0  0  0  0  0  0  0  0
    4.5231    2.6366  -30.0311 C   0  0  0  0  0  0  0  0  0  0  0  0
    6.7777   -2.2551  -30.8264 O   0  5  0  0  0  0  0  0  0  0  0  0
    4.7034    1.6982  -31.1467 N   0  3  0  0  0  0  0  0  0  0  0  0
    5.1113    2.4078  -32.3319 C   0  0  0  0  0  0  0  0  0  0  0  0
    4.1824    3.5371  -32.6363 C   0  0  0  0  0  0  0  0  0  0  0  0
    5.6604    0.6952  -30.7883 C   0  0  0  0  0  0  0  0  0  0  0  0
    4.9507   -0.4452  -30.0152 C   0  0  0  0  0  0  0  0  0  0  0  0
    6.1344   -1.7396  -29.5915 S   0  0  1  0  0  0  0  0  0  0  0  0
  1  3  1  0  0  0  0
  1  9  1  0  0  0  0
  2 12  1  0  0  0  0
  3  5  1  0  0  0  0
  4 12  2  0  0  0  0
  5  7  1  0  0  0  0
  6 12  2  0  0  0  0
  7  8  1  0  0  0  0
  7 10  1  0  0  0  0
  8  9  1  0  0  0  0
 10 11  1  0  0  0  0
 12 11  1  6  0  0  0
M  CHG  2   6  -1   7   1
M  END
>  <CHROM.1>
84.92599252,178.55937819,-179.01890375,5.30719636,0.59051997,-30.46074666
2.36741665,1.09178268,-1.08747977

>  <Name>
ligand

>  <RI>
0

>  <Rbt.Current_Directory>
/home/itssahil/PROJECTS/Mol_Feturizer/New_Systems/rnas/4P95

>  <Rbt.Executable>
rbdock ($Id: //depot/dev/client3/rdock/2013.1/src/exe/rbdock.cxx#4 $)

>  <Rbt.Library>
libRbt.so (2013.1, Build901 2013/11/27)

>  <Rbt.Parameter_File>
/export/apps/rDock/src/rDock_2013.1_src/data/scripts/dock_solv.prm

>  <Rbt.Receptor>
prm/pocket_docking_8.prm

>  <SCORE>
-12.4592

>  <SCORE.INTER>
-10.6571

>  <SCORE.INTER.CONST>
1

>  <SCORE.INTER.POLAR>
0

>  <SCORE.INTER.ROT>
3

>  <SCORE.INTER.SOLV>
6.36905

>  <SCORE.INTER.VDW>
-14.8278

>  <SCORE.INTER.norm>
-0.888093

>  <SCORE.INTRA>
-1.80212

>  <SCORE.INTRA.DIHEDRAL>
0.686073

>  <SCORE.INTRA.DIHEDRAL.0>
0.283163

>  <SCORE.INTRA.POLAR>
0

>  <SCORE.INTRA.POLAR.0>
0

>  <SCORE.INTRA.REPUL>
0

>  <SCORE.INTRA.REPUL.0>
0

>  <SCORE.INTRA.SOLV>
0.193428

>  <SCORE.INTRA.SOLV.lig_0>
-32.2894

>  <SCORE.INTRA.VDW>
-2.24187

>  <SCORE.INTRA.VDW.0>
2.0241

>  <SCORE.INTRA.norm>
-0.150176

>  <SCORE.RESTR>
0

>  <SCORE.RESTR.CAVITY>
0

>  <SCORE.RESTR.norm>
0

>  <SCORE.SYSTEM>
0

>  <SCORE.SYSTEM.CONST>
0

>  <SCORE.SYSTEM.DIHEDRAL>
0

>  <SCORE.SYSTEM.SOLV>
0

>  <SCORE.SYSTEM.norm>
0

>  <SCORE.heavy>
12

>  <SCORE.norm>
-1.03827

>  <RMSD>
3.471

$$$$
ligand
 OpenBabel11021811513D
libRbt.so/2013.1/901 2013/11/27
 12 12  0  0  0  0  0  0  0  0999 V2000
    0.4362    2.5305  -27.2479 O   0  0  0  0  0  0  0  0  0  0  0  0
    3.9767   -0.1067  -30.3408 O   0  0  0  0  0  0  0  0  0  0  0  0
    0.5405    1.9861  -28.5096 C   0  0  0  0  0  0  0  0  0  0  0  0
    6.2336    0.7997  -30.5177 O   0  0  0  0  0  0  0  0  0  0  0  0
    1.9311    1.8025  -28.9605 C   0  0  0  0  0  0  0  0  0  0  0  0
    4.8185    0.6902  -32.4904 O   0  5  0  0  0  0  0  0  0  0  0  0
    2.7258    3.0263  -28.7909 N   0  3  0  0  0  0  0  0  0  0  0  0
    2.6002    3.5175  -27.4427 C   0  0  0  0  0  0  0  0  0  0  0  0
    1.1670    3.6683  -27.0503 C   0  0  0  0  0  0  0  0  0  0  0  0
    4.0944    2.7669  -29.1224 C   0  0  0  0  0  0  0  0  0  0  0  0
    4.2290    2.5751  -30.6543 C   0  0  0  0  0  0  0  0  0  0  0  0
    4.8290    0.9136  -31.0226 S   0  0  1  0  0  0  0  0  0  0  0  0
  1  3  1  0  0  0  0
  1  9  1  0  0  0  0
  2 12  1  0  0  0  0
  3  5  1  0  0  0  0
  4 12  2  0  0  0  0
  5  7  1  0  0  0  0
  6 12  2  0  0  0  0
  7  8  1  0  0  0  0
  7 10  1  0  0  0  0
  8  9  1  0  0  0  0
 10 11  1  0  0  0  0
 12 11  1  1  0  0  0
M  CHG  2   6  -1   7   1
M  END
>  <CHROM.1>
71.33848624,-118.10223049,52.57344332,3.31930053,1.86980308,-29.53421130
2.37440305,0.33957377,0.70560474

>  <Name>
ligand

>  <RI>
0

>  <Rbt.Current_Directory>
/home/itssahil/PROJECTS/Mol_Feturizer/New_Systems/rnas/4P95

>  <Rbt.Executable>
rbdock ($Id: //depot/dev/client3/rdock/2013.1/src/exe/rbdock.cxx#4 $)

>  <Rbt.Library>
libRbt.so (2013.1, Build901 2013/11/27)

>  <Rbt.Parameter_File>
/export/apps/rDock/src/rDock_2013.1_src/data/scripts/dock_solv.prm

>  <Rbt.Receptor>
prm/pocket_docking_7.prm

>  <SCORE>
-9.30471

>  <SCORE.INTER>
-9.82403

>  <SCORE.INTER.CONST>
1

>  <SCORE.INTER.POLAR>
0

>  <SCORE.INTER.ROT>
3

>  <SCORE.INTER.SOLV>
6.64116

>  <SCORE.INTER.VDW>
-14.3631

>  <SCORE.INTER.norm>
-0.818669

>  <SCORE.INTRA>
0.519315

>  <SCORE.INTRA.DIHEDRAL>
5.58291

>  <SCORE.INTRA.DIHEDRAL.0>
0.283163

>  <SCORE.INTRA.POLAR>
0

>  <SCORE.INTRA.POLAR.0>
0

>  <SCORE.INTRA.REPUL>
0

>  <SCORE.INTRA.REPUL.0>
0

>  <SCORE.INTRA.SOLV>
-0.685091

>  <SCORE.INTRA.SOLV.lig_0>
-32.2894

>  <SCORE.INTRA.VDW>
-1.9296

>  <SCORE.INTRA.VDW.0>
2.0241

>  <SCORE.INTRA.norm>
0.0432762

>  <SCORE.RESTR>
0

>  <SCORE.RESTR.CAVITY>
0

>  <SCORE.RESTR.norm>
0

>  <SCORE.SYSTEM>
0

>  <SCORE.SYSTEM.CONST>
0

>  <SCORE.SYSTEM.DIHEDRAL>
0

>  <SCORE.SYSTEM.SOLV>
0

>  <SCORE.SYSTEM.norm>
0

>  <SCORE.heavy>
12

>  <SCORE.norm>
-0.775393

>  <RMSD>
3.483

$$$$
ligand
 OpenBabel11021811513D
libRbt.so/2013.1/901 2013/11/27
 12 12  0  0  0  0  0  0  0  0999 V2000
    4.0830    4.3668  -31.6704 O   0  0  0  0  0  0  0  0  0  0  0  0
    5.3006   -2.8633  -28.8230 O   0  0  0  0  0  0  0  0  0  0  0  0
    3.7055    3.7951  -30.4746 C   0  0  0  0  0  0  0  0  0  0  0  0
    7.0892   -1.2144  -28.6531 O   0  0  0  0  0  0  0  0  0  0  0  0
    4.5528    2.6600  -30.0692 C   0  0  0  0  0  0  0  0  0  0  0  0
    6.6602   -2.3158  -30.7766 O   0  5  0  0  0  0  0  0  0  0  0  0
    4.7104    1.6819  -31.1538 N   0  3  0  0  0  0  0  0  0  0  0  0
    5.1414    2.3420  -32.3593 C   0  0  0  0  0  0  0  0  0  0  0  0
    4.2452    3.4863  -32.7029 C   0  0  0  0  0  0  0  0  0  0  0  0
    5.6381    0.6647  -30.7600 C   0  0  0  0  0  0  0  0  0  0  0  0
    4.8894   -0.4449  -29.9791 C   0  0  0  0  0  0  0  0  0  0  0  0
    6.0276   -1.7766  -29.5463 S   0  0  1  0  0  0  0  0  0  0  0  0
  1  3  1  0  0  0  0
  1  9  1  0  0  0  0
  2 12  1  0  0  0  0
  3  5  1  0  0  0  0
  4 12  2  0  0  0  0
  5  7  1  0  0  0  0
  6 12  2  0  0  0  0
  7  8  1  0  0  0  0
  7 10  1  0  0  0  0
  8  9  1  0  0  0  0
 10 11  1  0  0  0  0
 12 11  1  6  0  0  0
M  CHG  2   6  -1   7   1
M  END
>  <CHROM.1>
86.08290963,177.16056597,-178.59534805,5.27482498,0.56405679,-30.46023391
2.33359070,1.11931679,-1.07704764

>  <Name>
ligand

>  <RI>
0

>  <Rbt.Current_Directory>
/home/itssahil/PROJECTS/Mol_Feturizer/New_Systems/rnas/4P95

>  <Rbt.Executable>
rbdock ($Id: //depot/dev/client3/rdock/2013.1/src/exe/rbdock.cxx#4 $)

>  <Rbt.Library>
libRbt.so (2013.1, Build901 2013/11/27)

>  <Rbt.Parameter_File>
/export/apps/rDock/src/rDock_2013.1_src/data/scripts/dock_solv.prm

>  <Rbt.Receptor>
prm/pocket_docking_6.prm

>  <SCORE>
-12.5691

>  <SCORE.INTER>
-10.7859

>  <SCORE.INTER.CONST>
1

>  <SCORE.INTER.POLAR>
0

>  <SCORE.INTER.ROT>
3

>  <SCORE.INTER.SOLV>
6.69651

>  <SCORE.INTER.VDW>
-15.0228

>  <SCORE.INTER.norm>
-0.898827

>  <SCORE.INTRA>
-1.78317

>  <SCORE.INTRA.DIHEDRAL>
0.784017

>  <SCORE.INTRA.DIHEDRAL.0>
0.283163

>  <SCORE.INTRA.POLAR>
0

>  <SCORE.INTRA.POLAR.0>
0

>  <SCORE.INTRA.REPUL>
0

>  <SCORE.INTRA.REPUL.0>
0

>  <SCORE.INTRA.SOLV>
0.207251

>  <SCORE.INTRA.SOLV.lig_0>
-32.2894

>  <SCORE.INTRA.VDW>
-2.2788

>  <SCORE.INTRA.VDW.0>
2.0241

>  <SCORE.INTRA.norm>
-0.148597

>  <SCORE.RESTR>
0

>  <SCORE.RESTR.CAVITY>
0

>  <SCORE.RESTR.norm>
0

>  <SCORE.SYSTEM>
0

>  <SCORE.SYSTEM.CONST>
0

>  <SCORE.SYSTEM.DIHEDRAL>
0

>  <SCORE.SYSTEM.SOLV>
0

>  <SCORE.SYSTEM.norm>
0

>  <SCORE.heavy>
12

>  <SCORE.norm>
-1.04742

>  <RMSD>
3.508

$$$$
ligand
 OpenBabel11021811513D
libRbt.so/2013.1/901 2013/11/27
 12 12  0  0  0  0  0  0  0  0999 V2000
    0.6947    3.3861  -26.6498 O   0  0  0  0  0  0  0  0  0  0  0  0
    6.2979    1.0001  -30.4805 O   0  0  0  0  0  0  0  0  0  0  0  0
    2.0148    3.2007  -26.3003 C   0  0  0  0  0  0  0  0  0  0  0  0
    5.0370    2.3192  -32.0981 O   0  0  0  0  0  0  0  0  0  0  0  0
    2.9354    3.1979  -27.4507 C   0  0  0  0  0  0  0  0  0  0  0  0
    5.0318   -0.1062  -32.2519 O   0  5  0  0  0  0  0  0  0  0  0  0
    2.4834    2.2850  -28.5091 N   0  3  0  0  0  0  0  0  0  0  0  0
    1.1110    2.5596  -28.8494 C   0  0  0  0  0  0  0  0  0  0  0  0
    0.2392    2.5577  -27.6367 C   0  0  0  0  0  0  0  0  0  0  0  0
    3.3354    2.4078  -29.6534 C   0  0  0  0  0  0  0  0  0  0  0  0
    3.5952    1.0050  -30.2586 C   0  0  0  0  0  0  0  0  0  0  0  0
    5.0585    1.0444  -31.3138 S   0  0  1  0  0  0  0  0  0  0  0  0
  1  3  1  0  0  0  0
  1  9  1  0  0  0  0
  2 12  1  0  0  0  0
  3  5  1  0  0  0  0
  4 12  2  0  0  0  0
  5  7  1  0  0  0  0
  6 12  2  0  0  0  0
  7  8  1  0  0  0  0
  7 10  1  0  0  0  0
  8  9  1  0  0  0  0
 10 11  1  0  0  0  0
 12 11  1  1  0  0  0
M  CHG  2   6  -1   7   1
M  END
>  <CHROM.1>
139.97730763,-160.98781061,78.79701278,3.37507160,1.95893152,-29.51985661
-2.26739907,-0.00549001,-2.01953091

>  <Name>
ligand

>  <RI>
0

>  <Rbt.Current_Directory>
/home/itssahil/PROJECTS/Mol_Feturizer/New_Systems/rnas/4P95

>  <Rbt.Executable>
rbdock ($Id: //depot/dev/client3/rdock/2013.1/src/exe/rbdock.cxx#4 $)

>  <Rbt.Library>
libRbt.so (2013.1, Build901 2013/11/27)

>  <Rbt.Parameter_File>
/export/apps/rDock/src/rDock_2013.1_src/data/scripts/dock_solv.prm

>  <Rbt.Receptor>
prm/pocket_docking_8.prm

>  <SCORE>
-10.4947

>  <SCORE.INTER>
-9.49966

>  <SCORE.INTER.CONST>
1

>  <SCORE.INTER.POLAR>
0

>  <SCORE.INTER.ROT>
3

>  <SCORE.INTER.SOLV>
5.66637

>  <SCORE.INTER.VDW>
-13.8219

>  <SCORE.INTER.norm>
-0.791639

>  <SCORE.INTRA>
-0.995015

>  <SCORE.INTRA.DIHEDRAL>
3.57241

>  <SCORE.INTRA.DIHEDRAL.0>
0.283163

>  <SCORE.INTRA.POLAR>
0

>  <SCORE.INTRA.POLAR.0>
0

>  <SCORE.INTRA.REPUL>
0

>  <SCORE.INTRA.REPUL.0>
0

>  <SCORE.INTRA.SOLV>
-0.639785

>  <SCORE.INTRA.SOLV.lig_0>
-32.2894

>  <SCORE.INTRA.VDW>
-2.46133

>  <SCORE.INTRA.VDW.0>
2.0241

>  <SCORE.INTRA.norm>
-0.0829179

>  <SCORE.RESTR>
0

>  <SCORE.RESTR.CAVITY>
0

>  <SCORE.RESTR.norm>
0

>  <SCORE.SYSTEM>
0

>  <SCORE.SYSTEM.CONST>
0

>  <SCORE.SYSTEM.DIHEDRAL>
0

>  <SCORE.SYSTEM.SOLV>
0

>  <SCORE.SYSTEM.norm>
0

>  <SCORE.heavy>
12

>  <SCORE.norm>
-0.874557

>  <RMSD>
3.512

$$$$
ligand
 OpenBabel11021811513D
libRbt.so/2013.1/901 2013/11/27
 12 12  0  0  0  0  0  0  0  0999 V2000
    0.8079    3.1629  -26.5507 O   0  0  0  0  0  0  0  0  0  0  0  0
    5.3016    2.8917  -32.2014 O   0  0  0  0  0  0  0  0  0  0  0  0
    2.1704    3.0999  -26.3537 C   0  0  0  0  0  0  0  0  0  0  0  0
    3.6512    1.1545  -32.6540 O   0  0  0  0  0  0  0  0  0  0  0  0
    2.9538    3.2510  -27.5924 C   0  0  0  0  0  0  0  0  0  0  0  0
    5.9032    0.5349  -31.9823 O   0  5  0  0  0  0  0  0  0  0  0  0
    2.4799    2.3495  -28.6511 N   0  3  0  0  0  0  0  0  0  0  0  0
    1.0579    2.4952  -28.8280 C   0  0  0  0  0  0  0  0  0  0  0  0
    0.3302    2.3415  -27.5328 C   0  0  0  0  0  0  0  0  0  0  0  0
    3.1837    2.6178  -29.8689 C   0  0  0  0  0  0  0  0  0  0  0  0
    4.2839    1.5465  -30.0781 C   0  0  0  0  0  0  0  0  0  0  0  0
    4.8209    1.5350  -31.8008 S   0  0  1  0  0  0  0  0  0  0  0  0
  1  3  1  0  0  0  0
  1  9  1  0  0  0  0
  2 12  1  0  0  0  0
  3  5  1  0  0  0  0
  4 12  2  0  0  0  0
  5  7  1  0  0  0  0
  6 12  2  0  0  0  0
  7  8  1  0  0  0  0
  7 10  1  0  0  0  0
  8  9  1  0  0  0  0
 10 11  1  0  0  0  0
 12 11  1  1  0  0  0
M  CHG  2   6  -1   7   1
M  END
>  <CHROM.1>
101.65138640,162.07424431,56.80040059,3.27454387,2.16942687,-29.77523277
2.20115245,0.13185072,1.19273164

>  <Name>
ligand

>  <RI>
0

>  <Rbt.Current_Directory>
/home/itssahil/PROJECTS/Mol_Feturizer/New_Systems/rnas/4P95

>  <Rbt.Executable>
rbdock ($Id: //depot/dev/client3/rdock/2013.1/src/exe/rbdock.cxx#4 $)

>  <Rbt.Library>
libRbt.so (2013.1, Build901 2013/11/27)

>  <Rbt.Parameter_File>
/export/apps/rDock/src/rDock_2013.1_src/data/scripts/dock_solv.prm

>  <Rbt.Receptor>
prm/pocket_docking_6.prm

>  <SCORE>
-10.0488

>  <SCORE.INTER>
-8.48242

>  <SCORE.INTER.CONST>
1

>  <SCORE.INTER.POLAR>
0

>  <SCORE.INTER.ROT>
3

>  <SCORE.INTER.SOLV>
7.72002

>  <SCORE.INTER.VDW>
-13.8283

>  <SCORE.INTER.norm>
-0.706868

>  <SCORE.INTRA>
-1.56635

>  <SCORE.INTRA.DIHEDRAL>
2.80492

>  <SCORE.INTRA.DIHEDRAL.0>
0.283163

>  <SCORE.INTRA.POLAR>
0

>  <SCORE.INTRA.POLAR.0>
0

>  <SCORE.INTRA.REPUL>
0

>  <SCORE.INTRA.REPUL.0>
0

>  <SCORE.INTRA.SOLV>
-0.719574

>  <SCORE.INTRA.SOLV.lig_0>
-32.2894

>  <SCORE.INTRA.VDW>
-2.60902

>  <SCORE.INTRA.VDW.0>
2.0241

>  <SCORE.INTRA.norm>
-0.130529

>  <SCORE.RESTR>
0

>  <SCORE.RESTR.CAVITY>
0

>  <SCORE.RESTR.norm>
0

>  <SCORE.SYSTEM>
0

>  <SCORE.SYSTEM.CONST>
0

>  <SCORE.SYSTEM.DIHEDRAL>
0

>  <SCORE.SYSTEM.SOLV>
0

>  <SCORE.SYSTEM.norm>
0

>  <SCORE.heavy>
12

>  <SCORE.norm>
-0.837397

>  <RMSD>
3.513

$$$$
ligand
 OpenBabel11021811513D
libRbt.so/2013.1/901 2013/11/27
 12 12  0  0  0  0  0  0  0  0999 V2000
    4.0995    4.3219  -31.6049 O   0  0  0  0  0  0  0  0  0  0  0  0
    5.1736   -2.9035  -28.7202 O   0  0  0  0  0  0  0  0  0  0  0  0
    3.7091    3.7464  -30.4151 C   0  0  0  0  0  0  0  0  0  0  0  0
    6.9788   -1.2673  -28.6163 O   0  0  0  0  0  0  0  0  0  0  0  0
    4.5293    2.5870  -30.0227 C   0  0  0  0  0  0  0  0  0  0  0  0
    6.5421   -2.4531  -30.6922 O   0  5  0  0  0  0  0  0  0  0  0  0
    4.6629    1.6173  -31.1182 N   0  3  0  0  0  0  0  0  0  0  0  0
    5.1089    2.2801  -32.3167 C   0  0  0  0  0  0  0  0  0  0  0  0
    4.2401    3.4492  -32.6471 C   0  0  0  0  0  0  0  0  0  0  0  0
    5.5663    0.5741  -30.7362 C   0  0  0  0  0  0  0  0  0  0  0  0
    4.7893   -0.5321  -29.9784 C   0  0  0  0  0  0  0  0  0  0  0  0
    5.9130   -1.8559  -29.4872 S   0  0  1  0  0  0  0  0  0  0  0  0
  1  3  1  0  0  0  0
  1  9  1  0  0  0  0
  2 12  1  0  0  0  0
  3  5  1  0  0  0  0
  4 12  2  0  0  0  0
  5  7  1  0  0  0  0
  6 12  2  0  0  0  0
  7  8  1  0  0  0  0
  7 10  1  0  0  0  0
  8  9  1  0  0  0  0
 10 11  1  0  0  0  0
 12 11  1  6  0  0  0
M  CHG  2   6  -1   7   1
M  END
>  <CHROM.1>
86.60489987,-179.94101445,178.28210192,5.20799889,0.49485815,-30.40749681
2.30805109,1.13629559,-1.05547553

>  <Name>
ligand

>  <RI>
0

>  <Rbt.Current_Directory>
/home/itssahil/PROJECTS/Mol_Feturizer/New_Systems/rnas/4P95

>  <Rbt.Executable>
rbdock ($Id: //depot/dev/client3/rdock/2013.1/src/exe/rbdock.cxx#4 $)

>  <Rbt.Library>
libRbt.so (2013.1, Build901 2013/11/27)

>  <Rbt.Parameter_File>
/export/apps/rDock/src/rDock_2013.1_src/data/scripts/dock_solv.prm

>  <Rbt.Receptor>
prm/pocket_docking_6.prm

>  <SCORE>
-12.6353

>  <SCORE.INTER>
-10.802

>  <SCORE.INTER.CONST>
1

>  <SCORE.INTER.POLAR>
0

>  <SCORE.INTER.ROT>
3

>  <SCORE.INTER.SOLV>
7.18153

>  <SCORE.INTER.VDW>
-15.1952

>  <SCORE.INTER.norm>
-0.900168

>  <SCORE.INTRA>
-1.83325

>  <SCORE.INTRA.DIHEDRAL>
0.777869

>  <SCORE.INTRA.DIHEDRAL.0>
0.283163

>  <SCORE.INTRA.POLAR>
0

>  <SCORE.INTRA.POLAR.0>
0

>  <SCORE.INTRA.REPUL>
0

>  <SCORE.INTRA.REPUL.0>
0

>  <SCORE.INTRA.SOLV>
0.15054

>  <SCORE.INTRA.SOLV.lig_0>
-32.2894

>  <SCORE.INTRA.VDW>
-2.29746

>  <SCORE.INTRA.VDW.0>
2.0241

>  <SCORE.INTRA.norm>
-0.152771

>  <SCORE.RESTR>
0

>  <SCORE.RESTR.CAVITY>
0

>  <SCORE.RESTR.norm>
0

>  <SCORE.SYSTEM>
0

>  <SCORE.SYSTEM.CONST>
0

>  <SCORE.SYSTEM.DIHEDRAL>
0

>  <SCORE.SYSTEM.SOLV>
0

>  <SCORE.SYSTEM.norm>
0

>  <SCORE.heavy>
12

>  <SCORE.norm>
-1.05294

>  <RMSD>
3.515

$$$$
ligand
 OpenBabel11021811513D
libRbt.so/2013.1/901 2013/11/27
 12 12  0  0  0  0  0  0  0  0999 V2000
    0.3930    2.6690  -27.1882 O   0  0  0  0  0  0  0  0  0  0  0  0
    3.9871   -0.0426  -30.4595 O   0  0  0  0  0  0  0  0  0  0  0  0
    0.4737    2.1452  -28.4604 C   0  0  0  0  0  0  0  0  0  0  0  0
    6.2401    0.8835  -30.5725 O   0  0  0  0  0  0  0  0  0  0  0  0
    1.8542    1.8889  -28.9070 C   0  0  0  0  0  0  0  0  0  0  0  0
    4.8224    0.9127  -32.5462 O   0  5  0  0  0  0  0  0  0  0  0  0
    2.7186    3.0598  -28.7074 N   0  3  0  0  0  0  0  0  0  0  0  0
    2.6128    3.5299  -27.3500 C   0  0  0  0  0  0  0  0  0  0  0  0
    1.1883    3.7573  -26.9628 C   0  0  0  0  0  0  0  0  0  0  0  0
    4.0718    2.7266  -29.0363 C   0  0  0  0  0  0  0  0  0  0  0  0
    4.2282    2.6560  -30.5765 C   0  0  0  0  0  0  0  0  0  0  0  0
    4.8343    1.0283  -31.0660 S   0  0  1  0  0  0  0  0  0  0  0  0
  1  3  1  0  0  0  0
  1  9  1  0  0  0  0
  2 12  1  0  0  0  0
  3  5  1  0  0  0  0
  4 12  2  0  0  0  0
  5  7  1  0  0  0  0
  6 12  2  0  0  0  0
  7  8  1  0  0  0  0
  7 10  1  0  0  0  0
  8  9  1  0  0  0  0
 10 11  1  0  0  0  0
 12 11  1  1  0  0  0
M  CHG  2   6  -1   7   1
M  END
>  <CHROM.1>
75.27437357,-122.42927334,51.59178048,3.30819347,1.96104081,-29.51707062
2.35469708,0.30045409,0.77112081

>  <Name>
ligand

>  <RI>
0

>  <Rbt.Current_Directory>
/home/itssahil/PROJECTS/Mol_Feturizer/New_Systems/rnas/4P95

>  <Rbt.Executable>
rbdock ($Id: //depot/dev/client3/rdock/2013.1/src/exe/rbdock.cxx#4 $)

>  <Rbt.Library>
libRbt.so (2013.1, Build901 2013/11/27)

>  <Rbt.Parameter_File>
/export/apps/rDock/src/rDock_2013.1_src/data/scripts/dock_solv.prm

>  <Rbt.Receptor>
prm/pocket_docking_5.prm

>  <SCORE>
-9.31368

>  <SCORE.INTER>
-9.62269

>  <SCORE.INTER.CONST>
1

>  <SCORE.INTER.POLAR>
0

>  <SCORE.INTER.ROT>
3

>  <SCORE.INTER.SOLV>
6.90448

>  <SCORE.INTER.VDW>
-14.3166

>  <SCORE.INTER.norm>
-0.801891

>  <SCORE.INTRA>
0.309006

>  <SCORE.INTRA.DIHEDRAL>
5.77733

>  <SCORE.INTRA.DIHEDRAL.0>
0.283163

>  <SCORE.INTRA.POLAR>
0

>  <SCORE.INTRA.POLAR.0>
0

>  <SCORE.INTRA.REPUL>
0

>  <SCORE.INTRA.REPUL.0>
0

>  <SCORE.INTRA.SOLV>
-0.758752

>  <SCORE.INTRA.SOLV.lig_0>
-32.2894

>  <SCORE.INTRA.VDW>
-2.20028

>  <SCORE.INTRA.VDW.0>
2.0241

>  <SCORE.INTRA.norm>
0.0257505

>  <SCORE.RESTR>
0

>  <SCORE.RESTR.CAVITY>
0

>  <SCORE.RESTR.norm>
0

>  <SCORE.SYSTEM>
0

>  <SCORE.SYSTEM.CONST>
0

>  <SCORE.SYSTEM.DIHEDRAL>
0

>  <SCORE.SYSTEM.SOLV>
0

>  <SCORE.SYSTEM.norm>
0

>  <SCORE.heavy>
12

>  <SCORE.norm>
-0.77614

>  <RMSD>
3.530

$$$$
ligand
 OpenBabel11021811513D
libRbt.so/2013.1/901 2013/11/27
 12 12  0  0  0  0  0  0  0  0999 V2000
    1.4809    4.0199  -27.1227 O   0  0  0  0  0  0  0  0  0  0  0  0
    4.6431    1.4325  -29.6731 O   0  0  0  0  0  0  0  0  0  0  0  0
    2.5775    3.9360  -27.9532 C   0  0  0  0  0  0  0  0  0  0  0  0
    3.8163    1.5568  -31.9638 O   0  0  0  0  0  0  0  0  0  0  0  0
    2.3397    3.1341  -29.1661 C   0  0  0  0  0  0  0  0  0  0  0  0
    4.9380   -0.4565  -31.1927 O   0  5  0  0  0  0  0  0  0  0  0  0
    1.7528    1.8254  -28.8487 N   0  3  0  0  0  0  0  0  0  0  0  0
    0.5926    1.9911  -28.0113 C   0  0  0  0  0  0  0  0  0  0  0  0
    0.9037    2.8214  -26.8094 C   0  0  0  0  0  0  0  0  0  0  0  0
    1.4239    1.1339  -30.0587 C   0  0  0  0  0  0  0  0  0  0  0  0
    2.4356   -0.0173  -30.2888 C   0  0  0  0  0  0  0  0  0  0  0  0
    4.0344    0.6514  -30.7919 S   0  0  1  0  0  0  0  0  0  0  0  0
  1  3  1  0  0  0  0
  1  9  1  0  0  0  0
  2 12  1  0  0  0  0
  3  5  1  0  0  0  0
  4 12  2  0  0  0  0
  5  7  1  0  0  0  0
  6 12  2  0  0  0  0
  7  8  1  0  0  0  0
  7 10  1  0  0  0  0
  8  9  1  0  0  0  0
 10 11  1  0  0  0  0
 12 11  1  1  0  0  0
M  CHG  2   6  -1   7   1
M  END
>  <CHROM.1>
106.74395183,-72.77449009,66.39015602,2.75986169,1.71773053,-29.48678508
-2.19710477,-0.41232448,-2.51946547

>  <Name>
ligand

>  <RI>
0

>  <Rbt.Current_Directory>
/home/itssahil/PROJECTS/Mol_Feturizer/New_Systems/rnas/4P95

>  <Rbt.Executable>
rbdock ($Id: //depot/dev/client3/rdock/2013.1/src/exe/rbdock.cxx#4 $)

>  <Rbt.Library>
libRbt.so (2013.1, Build901 2013/11/27)

>  <Rbt.Parameter_File>
/export/apps/rDock/src/rDock_2013.1_src/data/scripts/dock_solv.prm

>  <Rbt.Receptor>
prm/pocket_docking_5.prm

>  <SCORE>
-9.09382

>  <SCORE.INTER>
-6.98136

>  <SCORE.INTER.CONST>
1

>  <SCORE.INTER.POLAR>
0

>  <SCORE.INTER.ROT>
3

>  <SCORE.INTER.SOLV>
5.13943

>  <SCORE.INTER.VDW>
-11.9674

>  <SCORE.INTER.norm>
-0.58178

>  <SCORE.INTRA>
-2.11245

>  <SCORE.INTRA.DIHEDRAL>
2.59864

>  <SCORE.INTRA.DIHEDRAL.0>
0.283163

>  <SCORE.INTRA.POLAR>
0

>  <SCORE.INTRA.POLAR.0>
0

>  <SCORE.INTRA.REPUL>
0

>  <SCORE.INTRA.REPUL.0>
0

>  <SCORE.INTRA.SOLV>
-0.451548

>  <SCORE.INTRA.SOLV.lig_0>
-32.2894

>  <SCORE.INTRA.VDW>
-3.186

>  <SCORE.INTRA.VDW.0>
2.0241

>  <SCORE.INTRA.norm>
-0.176038

>  <SCORE.RESTR>
0

>  <SCORE.RESTR.CAVITY>
0

>  <SCORE.RESTR.norm>
0

>  <SCORE.SYSTEM>
0

>  <SCORE.SYSTEM.CONST>
0

>  <SCORE.SYSTEM.DIHEDRAL>
0

>  <SCORE.SYSTEM.SOLV>
0

>  <SCORE.SYSTEM.norm>
0

>  <SCORE.heavy>
12

>  <SCORE.norm>
-0.757818

>  <RMSD>
3.534

$$$$
ligand
 OpenBabel11021811513D
libRbt.so/2013.1/901 2013/11/27
 12 12  0  0  0  0  0  0  0  0999 V2000
    0.6468    3.3578  -26.7865 O   0  0  0  0  0  0  0  0  0  0  0  0
    6.3555    0.8936  -30.5656 O   0  0  0  0  0  0  0  0  0  0  0  0
    1.9224    3.2391  -26.2785 C   0  0  0  0  0  0  0  0  0  0  0  0
    5.2769    2.5331  -32.0131 O   0  0  0  0  0  0  0  0  0  0  0  0
    2.9737    3.2644  -27.3105 C   0  0  0  0  0  0  0  0  0  0  0  0
    4.9800    0.1601  -32.4457 O   0  5  0  0  0  0  0  0  0  0  0  0
    2.6936    2.3175  -28.3981 N   0  3  0  0  0  0  0  0  0  0  0  0
    1.3611    2.5230  -28.9049 C   0  0  0  0  0  0  0  0  0  0  0  0
    0.3509    2.4961  -27.8051 C   0  0  0  0  0  0  0  0  0  0  0  0
    3.6706    2.4651  -29.4345 C   0  0  0  0  0  0  0  0  0  0  0  0
    3.6714    1.1999  -30.3295 C   0  0  0  0  0  0  0  0  0  0  0  0
    5.1376    1.1832  -31.3813 S   0  0  1  0  0  0  0  0  0  0  0  0
  1  3  1  0  0  0  0
  1  9  1  0  0  0  0
  2 12  1  0  0  0  0
  3  5  1  0  0  0  0
  4 12  2  0  0  0  0
  5  7  1  0  0  0  0
  6 12  2  0  0  0  0
  7  8  1  0  0  0  0
  7 10  1  0  0  0  0
  8  9  1  0  0  0  0
 10 11  1  0  0  0  0
 12 11  1  1  0  0  0
M  CHG  2   6  -1   7   1
M  END
>  <CHROM.1>
161.40290871,-166.44026884,71.75310674,3.47148937,2.03134402,-29.54401011
2.27081778,0.04267707,1.12213266

>  <Name>
ligand

>  <RI>
0

>  <Rbt.Current_Directory>
/home/itssahil/PROJECTS/Mol_Feturizer/New_Systems/rnas/4P95

>  <Rbt.Executable>
rbdock ($Id: //depot/dev/client3/rdock/2013.1/src/exe/rbdock.cxx#4 $)

>  <Rbt.Library>
libRbt.so (2013.1, Build901 2013/11/27)

>  <Rbt.Parameter_File>
/export/apps/rDock/src/rDock_2013.1_src/data/scripts/dock_solv.prm

>  <Rbt.Receptor>
prm/pocket_docking_8.prm

>  <SCORE>
-11.5349

>  <SCORE.INTER>
-9.98025

>  <SCORE.INTER.CONST>
1

>  <SCORE.INTER.POLAR>
0

>  <SCORE.INTER.ROT>
3

>  <SCORE.INTER.SOLV>
6.31646

>  <SCORE.INTER.VDW>
-14.359

>  <SCORE.INTER.norm>
-0.831688

>  <SCORE.INTRA>
-1.55464

>  <SCORE.INTRA.DIHEDRAL>
1.22276

>  <SCORE.INTRA.DIHEDRAL.0>
0.283163

>  <SCORE.INTRA.POLAR>
0

>  <SCORE.INTRA.POLAR.0>
0

>  <SCORE.INTRA.REPUL>
0

>  <SCORE.INTRA.REPUL.0>
0

>  <SCORE.INTRA.SOLV>
-0.668878

>  <SCORE.INTRA.SOLV.lig_0>
-32.2894

>  <SCORE.INTRA.VDW>
-1.83158

>  <SCORE.INTRA.VDW.0>
2.0241

>  <SCORE.INTRA.norm>
-0.129553

>  <SCORE.RESTR>
0

>  <SCORE.RESTR.CAVITY>
0

>  <SCORE.RESTR.norm>
0

>  <SCORE.SYSTEM>
0

>  <SCORE.SYSTEM.CONST>
0

>  <SCORE.SYSTEM.DIHEDRAL>
0

>  <SCORE.SYSTEM.SOLV>
0

>  <SCORE.SYSTEM.norm>
0

>  <SCORE.heavy>
12

>  <SCORE.norm>
-0.961241

>  <RMSD>
3.535

$$$$
ligand
 OpenBabel11021811513D
libRbt.so/2013.1/901 2013/11/27
 12 12  0  0  0  0  0  0  0  0999 V2000
    1.6656    3.7412  -26.5848 O   0  0  0  0  0  0  0  0  0  0  0  0
    4.9068    1.4943  -29.8955 O   0  0  0  0  0  0  0  0  0  0  0  0
    2.8913    3.4100  -27.1207 C   0  0  0  0  0  0  0  0  0  0  0  0
    3.9479    1.5009  -32.1375 O   0  0  0  0  0  0  0  0  0  0  0  0
    2.8128    2.8887  -28.4966 C   0  0  0  0  0  0  0  0  0  0  0  0
    4.9661   -0.5264  -31.2658 O   0  5  0  0  0  0  0  0  0  0  0  0
    1.8191    1.8135  -28.6169 N   0  3  0  0  0  0  0  0  0  0  0  0
    0.5560    2.2412  -28.0725 C   0  0  0  0  0  0  0  0  0  0  0  0
    0.7126    2.7667  -26.6832 C   0  0  0  0  0  0  0  0  0  0  0  0
    1.6871    1.4250  -29.9887 C   0  0  0  0  0  0  0  0  0  0  0  0
    2.5648    0.1770  -30.2604 C   0  0  0  0  0  0  0  0  0  0  0  0
    4.1730    0.6769  -30.9082 S   0  0  1  0  0  0  0  0  0  0  0  0
  1  3  1  0  0  0  0
  1  9  1  0  0  0  0
  2 12  1  0  0  0  0
  3  5  1  0  0  0  0
  4 12  2  0  0  0  0
  5  7  1  0  0  0  0
  6 12  2  0  0  0  0
  7  8  1  0  0  0  0
  7 10  1  0  0  0  0
  8  9  1  0  0  0  0
 10 11  1  0  0  0  0
 12 11  1  1  0  0  0
M  CHG  2   6  -1   7   1
M  END
>  <CHROM.1>
96.95007955,-94.63583066,62.95728120,2.90634333,1.68631935,-29.36332100,-2.12703737
-0.19477744,-2.25217678

>  <Name>
ligand

>  <RI>
0

>  <Rbt.Current_Directory>
/home/itssahil/PROJECTS/Mol_Feturizer/New_Systems/rnas/4P95

>  <Rbt.Executable>
rbdock ($Id: //depot/dev/client3/rdock/2013.1/src/exe/rbdock.cxx#4 $)

>  <Rbt.Library>
libRbt.so (2013.1, Build901 2013/11/27)

>  <Rbt.Parameter_File>
/export/apps/rDock/src/rDock_2013.1_src/data/scripts/dock_solv.prm

>  <Rbt.Receptor>
prm/pocket_docking_6.prm

>  <SCORE>
-9.04824

>  <SCORE.INTER>
-8.37226

>  <SCORE.INTER.CONST>
1

>  <SCORE.INTER.POLAR>
0

>  <SCORE.INTER.ROT>
3

>  <SCORE.INTER.SOLV>
5.31926

>  <SCORE.INTER.VDW>
-12.9546

>  <SCORE.INTER.norm>
-0.697689

>  <SCORE.INTRA>
-0.67598

>  <SCORE.INTRA.DIHEDRAL>
4.86492

>  <SCORE.INTRA.DIHEDRAL.0>
0.283163

>  <SCORE.INTRA.POLAR>
0

>  <SCORE.INTRA.POLAR.0>
0

>  <SCORE.INTRA.REPUL>
0

>  <SCORE.INTRA.REPUL.0>
0

>  <SCORE.INTRA.SOLV>
-0.65025

>  <SCORE.INTRA.SOLV.lig_0>
-32.2894

>  <SCORE.INTRA.VDW>
-2.78332

>  <SCORE.INTRA.VDW.0>
2.0241

>  <SCORE.INTRA.norm>
-0.0563316

>  <SCORE.RESTR>
0

>  <SCORE.RESTR.CAVITY>
0

>  <SCORE.RESTR.norm>
0

>  <SCORE.SYSTEM>
0

>  <SCORE.SYSTEM.CONST>
0

>  <SCORE.SYSTEM.DIHEDRAL>
0

>  <SCORE.SYSTEM.SOLV>
0

>  <SCORE.SYSTEM.norm>
0

>  <SCORE.heavy>
12

>  <SCORE.norm>
-0.75402

>  <RMSD>
3.537

$$$$
ligand
 OpenBabel11021811513D
libRbt.so/2013.1/901 2013/11/27
 12 12  0  0  0  0  0  0  0  0999 V2000
    1.1631    3.8079  -26.9365 O   0  0  0  0  0  0  0  0  0  0  0  0
    6.1023   -0.0193  -30.1330 O   0  0  0  0  0  0  0  0  0  0  0  0
    2.5080    3.5415  -27.0759 C   0  0  0  0  0  0  0  0  0  0  0  0
    5.1252    2.2143  -30.0798 O   0  0  0  0  0  0  0  0  0  0  0  0
    2.8536    2.9024  -28.3577 C   0  0  0  0  0  0  0  0  0  0  0  0
    4.8325    0.8150  -32.0451 O   0  5  0  0  0  0  0  0  0  0  0  0
    2.0014    1.7382  -28.6342 N   0  3  0  0  0  0  0  0  0  0  0  0
    0.6124    2.0978  -28.5071 C   0  0  0  0  0  0  0  0  0  0  0  0
    0.3376    2.7491  -27.1914 C   0  0  0  0  0  0  0  0  0  0  0  0
    2.2867    1.2265  -29.9408 C   0  0  0  0  0  0  0  0  0  0  0  0
    3.4119    0.1650  -29.8470 C   0  0  0  0  0  0  0  0  0  0  0  0
    4.9369    0.8104  -30.5640 S   0  0  1  0  0  0  0  0  0  0  0  0
  1  3  1  0  0  0  0
  1  9  1  0  0  0  0
  2 12  1  0  0  0  0
  3  5  1  0  0  0  0
  4 12  2  0  0  0  0
  5  7  1  0  0  0  0
  6 12  2  0  0  0  0
  7  8  1  0  0  0  0
  7 10  1  0  0  0  0
  8  9  1  0  0  0  0
 10 11  1  0  0  0  0
 12 11  1  1  0  0  0
M  CHG  2   6  -1   7   1
M  END
>  <CHROM.1>
89.79501149,-108.99071629,163.59874195,3.24537388,1.73666300,-29.27247376
-2.35758709,-0.16517863,-2.35507504

>  <Name>
ligand

>  <RI>
0

>  <Rbt.Current_Directory>
/home/itssahil/PROJECTS/Mol_Feturizer/New_Systems/rnas/4P95

>  <Rbt.Executable>
rbdock ($Id: //depot/dev/client3/rdock/2013.1/src/exe/rbdock.cxx#4 $)

>  <Rbt.Library>
libRbt.so (2013.1, Build901 2013/11/27)

>  <Rbt.Parameter_File>
/export/apps/rDock/src/rDock_2013.1_src/data/scripts/dock_solv.prm

>  <Rbt.Receptor>
prm/pocket_docking_6.prm

>  <SCORE>
-9.56186

>  <SCORE.INTER>
-10.6491

>  <SCORE.INTER.CONST>
1

>  <SCORE.INTER.POLAR>
0

>  <SCORE.INTER.ROT>
3

>  <SCORE.INTER.SOLV>
7.31706

>  <SCORE.INTER.VDW>
-15.1384

>  <SCORE.INTER.norm>
-0.887423

>  <SCORE.INTRA>
1.08722

>  <SCORE.INTRA.DIHEDRAL>
6.62433

>  <SCORE.INTRA.DIHEDRAL.0>
0.283163

>  <SCORE.INTRA.POLAR>
0

>  <SCORE.INTRA.POLAR.0>
0

>  <SCORE.INTRA.REPUL>
0

>  <SCORE.INTRA.REPUL.0>
0

>  <SCORE.INTRA.SOLV>
0.6692

>  <SCORE.INTRA.SOLV.lig_0>
-32.2894

>  <SCORE.INTRA.VDW>
-2.55955

>  <SCORE.INTRA.VDW.0>
2.0241

>  <SCORE.INTRA.norm>
0.0906014

>  <SCORE.RESTR>
0

>  <SCORE.RESTR.CAVITY>
0

>  <SCORE.RESTR.norm>
0

>  <SCORE.SYSTEM>
0

>  <SCORE.SYSTEM.CONST>
0

>  <SCORE.SYSTEM.DIHEDRAL>
0

>  <SCORE.SYSTEM.SOLV>
0

>  <SCORE.SYSTEM.norm>
0

>  <SCORE.heavy>
12

>  <SCORE.norm>
-0.796821

>  <RMSD>
3.538

$$$$
ligand
 OpenBabel11021811513D
libRbt.so/2013.1/901 2013/11/27
 12 12  0  0  0  0  0  0  0  0999 V2000
    1.2745    3.8686  -26.8674 O   0  0  0  0  0  0  0  0  0  0  0  0
    4.9487    1.6926  -29.8370 O   0  0  0  0  0  0  0  0  0  0  0  0
    2.5722    3.5633  -27.2166 C   0  0  0  0  0  0  0  0  0  0  0  0
    4.1820    0.9407  -32.0264 O   0  0  0  0  0  0  0  0  0  0  0  0
    2.6869    2.8614  -28.5070 C   0  0  0  0  0  0  0  0  0  0  0  0
    5.4064   -0.5865  -30.5860 O   0  5  0  0  0  0  0  0  0  0  0  0
    1.7806    1.7078  -28.5832 N   0  3  0  0  0  0  0  0  0  0  0  0
    0.4390    2.1067  -28.2431 C   0  0  0  0  0  0  0  0  0  0  0  0
    0.3998    2.8205  -26.9317 C   0  0  0  0  0  0  0  0  0  0  0  0
    1.8338    1.1337  -29.8938 C   0  0  0  0  0  0  0  0  0  0  0  0
    2.8562   -0.0309  -29.9080 C   0  0  0  0  0  0  0  0  0  0  0  0
    4.4232    0.5259  -30.6085 S   0  0  1  0  0  0  0  0  0  0  0  0
  1  3  1  0  0  0  0
  1  9  1  0  0  0  0
  2 12  1  0  0  0  0
  3  5  1  0  0  0  0
  4 12  2  0  0  0  0
  5  7  1  0  0  0  0
  6 12  2  0  0  0  0
  7  8  1  0  0  0  0
  7 10  1  0  0  0  0
  8  9  1  0  0  0  0
 10 11  1  0  0  0  0
 12 11  1  1  0  0  0
M  CHG  2   6  -1   7   1
M  END
>  <CHROM.1>
94.53579973,-99.67767575,57.08092475,2.94012332,1.59671422,-29.27035938,-2.24693484
-0.20738649,-2.39943909

>  <Name>
ligand

>  <RI>
0

>  <Rbt.Current_Directory>
/home/itssahil/PROJECTS/Mol_Feturizer/New_Systems/rnas/4P95

>  <Rbt.Executable>
rbdock ($Id: //depot/dev/client3/rdock/2013.1/src/exe/rbdock.cxx#4 $)

>  <Rbt.Library>
libRbt.so (2013.1, Build901 2013/11/27)

>  <Rbt.Parameter_File>
/export/apps/rDock/src/rDock_2013.1_src/data/scripts/dock_solv.prm

>  <Rbt.Receptor>
prm/pocket_docking_7.prm

>  <SCORE>
-9.08055

>  <SCORE.INTER>
-8.71317

>  <SCORE.INTER.CONST>
1

>  <SCORE.INTER.POLAR>
0

>  <SCORE.INTER.ROT>
3

>  <SCORE.INTER.SOLV>
7.19439

>  <SCORE.INTER.VDW>
-13.8069

>  <SCORE.INTER.norm>
-0.726097

>  <SCORE.INTRA>
-0.367381

>  <SCORE.INTRA.DIHEDRAL>
5.37894

>  <SCORE.INTRA.DIHEDRAL.0>
0.283163

>  <SCORE.INTRA.POLAR>
0

>  <SCORE.INTRA.POLAR.0>
0

>  <SCORE.INTRA.REPUL>
0

>  <SCORE.INTRA.REPUL.0>
0

>  <SCORE.INTRA.SOLV>
-0.733747

>  <SCORE.INTRA.SOLV.lig_0>
-32.2894

>  <SCORE.INTRA.VDW>
-2.68998

>  <SCORE.INTRA.VDW.0>
2.0241

>  <SCORE.INTRA.norm>
-0.030615

>  <SCORE.RESTR>
0

>  <SCORE.RESTR.CAVITY>
0

>  <SCORE.RESTR.norm>
0

>  <SCORE.SYSTEM>
0

>  <SCORE.SYSTEM.CONST>
0

>  <SCORE.SYSTEM.DIHEDRAL>
0

>  <SCORE.SYSTEM.SOLV>
0

>  <SCORE.SYSTEM.norm>
0

>  <SCORE.heavy>
12

>  <SCORE.norm>
-0.756712

>  <RMSD>
3.568

$$$$
ligand
 OpenBabel11021811513D
libRbt.so/2013.1/901 2013/11/27
 12 12  0  0  0  0  0  0  0  0999 V2000
    1.4874    3.8579  -26.7421 O   0  0  0  0  0  0  0  0  0  0  0  0
    4.8934    1.4804  -29.7563 O   0  0  0  0  0  0  0  0  0  0  0  0
    2.7462    3.4593  -27.1367 C   0  0  0  0  0  0  0  0  0  0  0  0
    4.1388    0.9950  -32.0238 O   0  0  0  0  0  0  0  0  0  0  0  0
    2.7760    2.8307  -28.4690 C   0  0  0  0  0  0  0  0  0  0  0  0
    5.1350   -0.7677  -30.6796 O   0  5  0  0  0  0  0  0  0  0  0  0
    1.7674    1.7701  -28.5946 N   0  3  0  0  0  0  0  0  0  0  0  0
    0.4732    2.2663  -28.2026 C   0  0  0  0  0  0  0  0  0  0  0  0
    0.5201    2.8986  -26.8503 C   0  0  0  0  0  0  0  0  0  0  0  0
    1.7473    1.2753  -29.9381 C   0  0  0  0  0  0  0  0  0  0  0  0
    2.6335    0.0078  -30.0366 C   0  0  0  0  0  0  0  0  0  0  0  0
    4.2777    0.4439  -30.6389 S   0  0  1  0  0  0  0  0  0  0  0  0
  1  3  1  0  0  0  0
  1  9  1  0  0  0  0
  2 12  1  0  0  0  0
  3  5  1  0  0  0  0
  4 12  2  0  0  0  0
  5  7  1  0  0  0  0
  6 12  2  0  0  0  0
  7  8  1  0  0  0  0
  7 10  1  0  0  0  0
  8  9  1  0  0  0  0
 10 11  1  0  0  0  0
 12 11  1  1  0  0  0
M  CHG  2   6  -1   7   1
M  END
>  <CHROM.1>
95.81539731,-96.60486252,56.32366874,2.91002998,1.57932492,-29.26190832,-2.17586395
-0.13460036,-2.33328684

>  <Name>
ligand

>  <RI>
0

>  <Rbt.Current_Directory>
/home/itssahil/PROJECTS/Mol_Feturizer/New_Systems/rnas/4P95

>  <Rbt.Executable>
rbdock ($Id: //depot/dev/client3/rdock/2013.1/src/exe/rbdock.cxx#4 $)

>  <Rbt.Library>
libRbt.so (2013.1, Build901 2013/11/27)

>  <Rbt.Parameter_File>
/export/apps/rDock/src/rDock_2013.1_src/data/scripts/dock_solv.prm

>  <Rbt.Receptor>
prm/pocket_docking_6.prm

>  <SCORE>
-9.00124

>  <SCORE.INTER>
-8.57311

>  <SCORE.INTER.CONST>
1

>  <SCORE.INTER.POLAR>
0

>  <SCORE.INTER.ROT>
3

>  <SCORE.INTER.SOLV>
6.48915

>  <SCORE.INTER.VDW>
-13.4785

>  <SCORE.INTER.norm>
-0.714426

>  <SCORE.INTRA>
-0.428128

>  <SCORE.INTRA.DIHEDRAL>
5.0607

>  <SCORE.INTRA.DIHEDRAL.0>
0.283163

>  <SCORE.INTRA.POLAR>
0

>  <SCORE.INTRA.POLAR.0>
0

>  <SCORE.INTRA.REPUL>
0

>  <SCORE.INTRA.REPUL.0>
0

>  <SCORE.INTRA.SOLV>
-0.723305

>  <SCORE.INTRA.SOLV.lig_0>
-32.2894

>  <SCORE.INTRA.VDW>
-2.59682

>  <SCORE.INTRA.VDW.0>
2.0241

>  <SCORE.INTRA.norm>
-0.0356774

>  <SCORE.RESTR>
0

>  <SCORE.RESTR.CAVITY>
0

>  <SCORE.RESTR.norm>
0

>  <SCORE.SYSTEM>
0

>  <SCORE.SYSTEM.CONST>
0

>  <SCORE.SYSTEM.DIHEDRAL>
0

>  <SCORE.SYSTEM.SOLV>
0

>  <SCORE.SYSTEM.norm>
0

>  <SCORE.heavy>
12

>  <SCORE.norm>
-0.750103

>  <RMSD>
3.572

$$$$
ligand
 OpenBabel11021811513D
libRbt.so/2013.1/901 2013/11/27
 12 12  0  0  0  0  0  0  0  0999 V2000
    0.7174    3.1759  -26.5779 O   0  0  0  0  0  0  0  0  0  0  0  0
    5.4484    2.5613  -32.0022 O   0  0  0  0  0  0  0  0  0  0  0  0
    2.0437    3.1458  -26.2047 C   0  0  0  0  0  0  0  0  0  0  0  0
    3.1756    2.0059  -32.6894 O   0  0  0  0  0  0  0  0  0  0  0  0
    2.9786    3.2790  -27.3357 C   0  0  0  0  0  0  0  0  0  0  0  0
    4.8519    0.2532  -32.5327 O   0  5  0  0  0  0  0  0  0  0  0  0
    2.6611    2.3398  -28.4197 N   0  3  0  0  0  0  0  0  0  0  0  0
    1.2719    2.4520  -28.7832 C   0  0  0  0  0  0  0  0  0  0  0  0
    0.3849    2.3187  -27.5889 C   0  0  0  0  0  0  0  0  0  0  0  0
    3.5125    2.5892  -29.5437 C   0  0  0  0  0  0  0  0  0  0  0  0
    3.8864    1.2451  -30.2185 C   0  0  0  0  0  0  0  0  0  0  0  0
    4.3745    1.5248  -31.9331 S   0  0  1  0  0  0  0  0  0  0  0  0
  1  3  1  0  0  0  0
  1  9  1  0  0  0  0
  2 12  1  0  0  0  0
  3  5  1  0  0  0  0
  4 12  2  0  0  0  0
  5  7  1  0  0  0  0
  6 12  2  0  0  0  0
  7  8  1  0  0  0  0
  7 10  1  0  0  0  0
  8  9  1  0  0  0  0
 10 11  1  0  0  0  0
 12 11  1  1  0  0  0
M  CHG  2   6  -1   7   1
M  END
>  <CHROM.1>
143.23371641,157.67983722,53.23237489,3.09987098,2.16457211,-29.77264865
2.10871022,0.17720446,1.19107138

>  <Name>
ligand

>  <RI>
0

>  <Rbt.Current_Directory>
/home/itssahil/PROJECTS/Mol_Feturizer/New_Systems/rnas/4P95

>  <Rbt.Executable>
rbdock ($Id: //depot/dev/client3/rdock/2013.1/src/exe/rbdock.cxx#4 $)

>  <Rbt.Library>
libRbt.so (2013.1, Build901 2013/11/27)

>  <Rbt.Parameter_File>
/export/apps/rDock/src/rDock_2013.1_src/data/scripts/dock_solv.prm

>  <Rbt.Receptor>
prm/pocket_docking_7.prm

>  <SCORE>
-9.72079

>  <SCORE.INTER>
-8.35909

>  <SCORE.INTER.CONST>
1

>  <SCORE.INTER.POLAR>
0

>  <SCORE.INTER.ROT>
3

>  <SCORE.INTER.SOLV>
5.60172

>  <SCORE.INTER.VDW>
-13.04

>  <SCORE.INTER.norm>
-0.696591

>  <SCORE.INTRA>
-1.3617

>  <SCORE.INTRA.DIHEDRAL>
3.03716

>  <SCORE.INTRA.DIHEDRAL.0>
0.283163

>  <SCORE.INTRA.POLAR>
0

>  <SCORE.INTRA.POLAR.0>
0

>  <SCORE.INTRA.REPUL>
0

>  <SCORE.INTRA.REPUL.0>
0

>  <SCORE.INTRA.SOLV>
-0.686312

>  <SCORE.INTRA.SOLV.lig_0>
-32.2894

>  <SCORE.INTRA.VDW>
-2.53712

>  <SCORE.INTRA.VDW.0>
2.0241

>  <SCORE.INTRA.norm>
-0.113475

>  <SCORE.RESTR>
0

>  <SCORE.RESTR.CAVITY>
0

>  <SCORE.RESTR.norm>
0

>  <SCORE.SYSTEM>
0

>  <SCORE.SYSTEM.CONST>
0

>  <SCORE.SYSTEM.DIHEDRAL>
0

>  <SCORE.SYSTEM.SOLV>
0

>  <SCORE.SYSTEM.norm>
0

>  <SCORE.heavy>
12

>  <SCORE.norm>
-0.810066

>  <RMSD>
3.590

$$$$
ligand
 OpenBabel11021811513D
libRbt.so/2013.1/901 2013/11/27
 12 12  0  0  0  0  0  0  0  0999 V2000
    0.4997    2.9355  -26.6198 O   0  0  0  0  0  0  0  0  0  0  0  0
    5.9552    1.0530  -30.9370 O   0  0  0  0  0  0  0  0  0  0  0  0
   -0.0245    2.4355  -27.7922 C   0  0  0  0  0  0  0  0  0  0  0  0
    5.5712    2.7485  -32.6471 O   0  0  0  0  0  0  0  0  0  0  0  0
    0.9697    1.7552  -28.6407 C   0  0  0  0  0  0  0  0  0  0  0  0
    4.0495    0.8635  -32.4525 O   0  5  0  0  0  0  0  0  0  0  0  0
    2.1667    2.5811  -28.8479 N   0  3  0  0  0  0  0  0  0  0  0  0
    2.6811    3.0369  -27.5821 C   0  0  0  0  0  0  0  0  0  0  0  0
    1.6187    3.7050  -26.7723 C   0  0  0  0  0  0  0  0  0  0  0  0
    3.1530    1.8348  -29.5695 C   0  0  0  0  0  0  0  0  0  0  0  0
    3.8940    2.7734  -30.5552 C   0  0  0  0  0  0  0  0  0  0  0  0
    4.9083    1.8059  -31.6916 S   0  0  1  0  0  0  0  0  0  0  0  0
  1  3  1  0  0  0  0
  1  9  1  0  0  0  0
  2 12  1  0  0  0  0
  3  5  1  0  0  0  0
  4 12  2  0  0  0  0
  5  7  1  0  0  0  0
  6 12  2  0  0  0  0
  7  8  1  0  0  0  0
  7 10  1  0  0  0  0
  8  9  1  0  0  0  0
 10 11  1  0  0  0  0
 12 11  1  1  0  0  0
M  CHG  2   6  -1   7   1
M  END
>  <CHROM.1>
142.83007718,-169.08615421,-62.21730401,3.17840592,2.23266316,-29.75863775
-2.34731647,-0.34277547,-2.12367419

>  <Name>
ligand

>  <RI>
0

>  <Rbt.Current_Directory>
/home/itssahil/PROJECTS/Mol_Feturizer/New_Systems/rnas/4P95

>  <Rbt.Executable>
rbdock ($Id: //depot/dev/client3/rdock/2013.1/src/exe/rbdock.cxx#4 $)

>  <Rbt.Library>
libRbt.so (2013.1, Build901 2013/11/27)

>  <Rbt.Parameter_File>
/export/apps/rDock/src/rDock_2013.1_src/data/scripts/dock_solv.prm

>  <Rbt.Receptor>
prm/pocket_docking_4.prm

>  <SCORE>
-10.5926

>  <SCORE.INTER>
-8.94382

>  <SCORE.INTER.CONST>
1

>  <SCORE.INTER.POLAR>
0

>  <SCORE.INTER.ROT>
3

>  <SCORE.INTER.SOLV>
5.72558

>  <SCORE.INTER.VDW>
-13.4711

>  <SCORE.INTER.norm>
-0.745318

>  <SCORE.INTRA>
-1.6488

>  <SCORE.INTRA.DIHEDRAL>
1.73535

>  <SCORE.INTRA.DIHEDRAL.0>
0.283163

>  <SCORE.INTRA.POLAR>
0

>  <SCORE.INTRA.POLAR.0>
0

>  <SCORE.INTRA.REPUL>
0

>  <SCORE.INTRA.REPUL.0>
0

>  <SCORE.INTRA.SOLV>
0.0342153

>  <SCORE.INTRA.SOLV.lig_0>
-32.2894

>  <SCORE.INTRA.VDW>
-2.53358

>  <SCORE.INTRA.VDW.0>
2.0241

>  <SCORE.INTRA.norm>
-0.1374

>  <SCORE.RESTR>
0

>  <SCORE.RESTR.CAVITY>
0

>  <SCORE.RESTR.norm>
0

>  <SCORE.SYSTEM>
0

>  <SCORE.SYSTEM.CONST>
0

>  <SCORE.SYSTEM.DIHEDRAL>
0

>  <SCORE.SYSTEM.SOLV>
0

>  <SCORE.SYSTEM.norm>
0

>  <SCORE.heavy>
12

>  <SCORE.norm>
-0.882718

>  <RMSD>
3.605

$$$$
ligand
 OpenBabel11021811513D
libRbt.so/2013.1/901 2013/11/27
 12 12  0  0  0  0  0  0  0  0999 V2000
    0.8256    3.3720  -26.4348 O   0  0  0  0  0  0  0  0  0  0  0  0
    6.1786    1.1511  -30.5636 O   0  0  0  0  0  0  0  0  0  0  0  0
    2.1472    3.1087  -26.1459 C   0  0  0  0  0  0  0  0  0  0  0  0
    4.9737    2.5594  -32.1482 O   0  0  0  0  0  0  0  0  0  0  0  0
    3.0332    3.1752  -27.3213 C   0  0  0  0  0  0  0  0  0  0  0  0
    4.8965    0.1415  -32.3806 O   0  5  0  0  0  0  0  0  0  0  0  0
    2.5155    2.3772  -28.4407 N   0  3  0  0  0  0  0  0  0  0  0  0
    1.1454    2.7304  -28.7109 C   0  0  0  0  0  0  0  0  0  0  0  0
    0.3099    2.6518  -27.4754 C   0  0  0  0  0  0  0  0  0  0  0  0
    3.3380    2.5706  -29.5967 C   0  0  0  0  0  0  0  0  0  0  0  0
    3.4753    1.2316  -30.3647 C   0  0  0  0  0  0  0  0  0  0  0  0
    4.9491    1.2600  -31.4055 S   0  0  1  0  0  0  0  0  0  0  0  0
  1  3  1  0  0  0  0
  1  9  1  0  0  0  0
  2 12  1  0  0  0  0
  3  5  1  0  0  0  0
  4 12  2  0  0  0  0
  5  7  1  0  0  0  0
  6 12  2  0  0  0  0
  7  8  1  0  0  0  0
  7 10  1  0  0  0  0
  8  9  1  0  0  0  0
 10 11  1  0  0  0  0
 12 11  1  1  0  0  0
M  CHG  2   6  -1   7   1
M  END
>  <CHROM.1>
142.39274377,-158.24957596,72.65948360,3.35966724,2.09160963,-29.49535426
-2.22367049,0.02145901,-1.93728879

>  <Name>
ligand

>  <RI>
0

>  <Rbt.Current_Directory>
/home/itssahil/PROJECTS/Mol_Feturizer/New_Systems/rnas/4P95

>  <Rbt.Executable>
rbdock ($Id: //depot/dev/client3/rdock/2013.1/src/exe/rbdock.cxx#4 $)

>  <Rbt.Library>
libRbt.so (2013.1, Build901 2013/11/27)

>  <Rbt.Parameter_File>
/export/apps/rDock/src/rDock_2013.1_src/data/scripts/dock_solv.prm

>  <Rbt.Receptor>
prm/pocket_docking_7.prm

>  <SCORE>
-10.4044

>  <SCORE.INTER>
-9.28307

>  <SCORE.INTER.CONST>
1

>  <SCORE.INTER.POLAR>
0

>  <SCORE.INTER.ROT>
3

>  <SCORE.INTER.SOLV>
5.87637

>  <SCORE.INTER.VDW>
-13.7475

>  <SCORE.INTER.norm>
-0.773589

>  <SCORE.INTRA>
-1.12129

>  <SCORE.INTRA.DIHEDRAL>
3.34333

>  <SCORE.INTRA.DIHEDRAL.0>
0.283163

>  <SCORE.INTRA.POLAR>
0

>  <SCORE.INTRA.POLAR.0>
0

>  <SCORE.INTRA.REPUL>
0

>  <SCORE.INTRA.REPUL.0>
0

>  <SCORE.INTRA.SOLV>
-0.666186

>  <SCORE.INTRA.SOLV.lig_0>
-32.2894

>  <SCORE.INTRA.VDW>
-2.45987

>  <SCORE.INTRA.VDW.0>
2.0241

>  <SCORE.INTRA.norm>
-0.0934412

>  <SCORE.RESTR>
0

>  <SCORE.RESTR.CAVITY>
0

>  <SCORE.RESTR.norm>
0

>  <SCORE.SYSTEM>
0

>  <SCORE.SYSTEM.CONST>
0

>  <SCORE.SYSTEM.DIHEDRAL>
0

>  <SCORE.SYSTEM.SOLV>
0

>  <SCORE.SYSTEM.norm>
0

>  <SCORE.heavy>
12

>  <SCORE.norm>
-0.86703

>  <RMSD>
3.608

$$$$
ligand
 OpenBabel11021811513D
libRbt.so/2013.1/901 2013/11/27
 12 12  0  0  0  0  0  0  0  0999 V2000
    1.9220    3.6008  -26.4631 O   0  0  0  0  0  0  0  0  0  0  0  0
    4.6669    1.0221  -29.6325 O   0  0  0  0  0  0  0  0  0  0  0  0
    3.0554    3.3300  -27.1988 C   0  0  0  0  0  0  0  0  0  0  0  0
    3.9066    1.8591  -31.7930 O   0  0  0  0  0  0  0  0  0  0  0  0
    2.7748    2.9147  -28.5844 C   0  0  0  0  0  0  0  0  0  0  0  0
    4.5426   -0.4747  -31.5583 O   0  5  0  0  0  0  0  0  0  0  0  0
    1.7779    1.8372  -28.6397 N   0  3  0  0  0  0  0  0  0  0  0  0
    0.6084    2.2029  -27.8826 C   0  0  0  0  0  0  0  0  0  0  0  0
    0.9683    2.6225  -26.4951 C   0  0  0  0  0  0  0  0  0  0  0  0
    1.4446    1.5531  -30.0030 C   0  0  0  0  0  0  0  0  0  0  0  0
    2.1954    0.2786  -30.4651 C   0  0  0  0  0  0  0  0  0  0  0  0
    3.9072    0.6787  -30.8725 S   0  0  1  0  0  0  0  0  0  0  0  0
  1  3  1  0  0  0  0
  1  9  1  0  0  0  0
  2 12  1  0  0  0  0
  3  5  1  0  0  0  0
  4 12  2  0  0  0  0
  5  7  1  0  0  0  0
  6 12  2  0  0  0  0
  7  8  1  0  0  0  0
  7 10  1  0  0  0  0
  8  9  1  0  0  0  0
 10 11  1  0  0  0  0
 12 11  1  1  0  0  0
M  CHG  2   6  -1   7   1
M  END
>  <CHROM.1>
101.20435358,-79.24777640,69.44313869,2.80973470,1.67115419,-29.32359550
-2.04967726,-0.18095885,-2.20121604

>  <Name>
ligand

>  <RI>
0

>  <Rbt.Current_Directory>
/home/itssahil/PROJECTS/Mol_Feturizer/New_Systems/rnas/4P95

>  <Rbt.Executable>
rbdock ($Id: //depot/dev/client3/rdock/2013.1/src/exe/rbdock.cxx#4 $)

>  <Rbt.Library>
libRbt.so (2013.1, Build901 2013/11/27)

>  <Rbt.Parameter_File>
/export/apps/rDock/src/rDock_2013.1_src/data/scripts/dock_solv.prm

>  <Rbt.Receptor>
prm/pocket_docking_4.prm

>  <SCORE>
-8.70747

>  <SCORE.INTER>
-7.08118

>  <SCORE.INTER.CONST>
1

>  <SCORE.INTER.POLAR>
0

>  <SCORE.INTER.ROT>
3

>  <SCORE.INTER.SOLV>
5.40834

>  <SCORE.INTER.VDW>
-12.1236

>  <SCORE.INTER.norm>
-0.590098

>  <SCORE.INTRA>
-1.62708

>  <SCORE.INTRA.DIHEDRAL>
3.1723

>  <SCORE.INTRA.DIHEDRAL.0>
0.283163

>  <SCORE.INTRA.POLAR>
0

>  <SCORE.INTRA.POLAR.0>
0

>  <SCORE.INTRA.REPUL>
0

>  <SCORE.INTRA.REPUL.0>
0

>  <SCORE.INTRA.SOLV>
-0.465153

>  <SCORE.INTRA.SOLV.lig_0>
-32.2894

>  <SCORE.INTRA.VDW>
-2.98065

>  <SCORE.INTRA.VDW.0>
2.0241

>  <SCORE.INTRA.norm>
-0.13559

>  <SCORE.RESTR>
0.000777957

>  <SCORE.RESTR.CAVITY>
0.000777957

>  <SCORE.RESTR.norm>
6.48298e-05

>  <SCORE.SYSTEM>
0

>  <SCORE.SYSTEM.CONST>
0

>  <SCORE.SYSTEM.DIHEDRAL>
0

>  <SCORE.SYSTEM.SOLV>
0

>  <SCORE.SYSTEM.norm>
0

>  <SCORE.heavy>
12

>  <SCORE.norm>
-0.725623

>  <RMSD>
3.610

$$$$
ligand
 OpenBabel11021811513D
libRbt.so/2013.1/901 2013/11/27
 12 12  0  0  0  0  0  0  0  0999 V2000
    0.6670    3.3451  -26.6493 O   0  0  0  0  0  0  0  0  0  0  0  0
    6.3331    0.9931  -30.5808 O   0  0  0  0  0  0  0  0  0  0  0  0
    1.9422    3.1677  -26.1575 C   0  0  0  0  0  0  0  0  0  0  0  0
    5.1922    2.6389  -31.9723 O   0  0  0  0  0  0  0  0  0  0  0  0
    2.9869    3.2128  -27.1955 C   0  0  0  0  0  0  0  0  0  0  0  0
    4.9273    0.2692  -32.4421 O   0  5  0  0  0  0  0  0  0  0  0  0
    2.6735    2.3262  -28.3241 N   0  3  0  0  0  0  0  0  0  0  0  0
    1.3438    2.5917  -28.8101 C   0  0  0  0  0  0  0  0  0  0  0  0
    0.3406    2.5407  -27.7047 C   0  0  0  0  0  0  0  0  0  0  0  0
    3.6472    2.4956  -29.3601 C   0  0  0  0  0  0  0  0  0  0  0  0
    3.6503    1.2464  -30.2774 C   0  0  0  0  0  0  0  0  0  0  0  0
    5.0916    1.2754  -31.3627 S   0  0  1  0  0  0  0  0  0  0  0  0
  1  3  1  0  0  0  0
  1  9  1  0  0  0  0
  2 12  1  0  0  0  0
  3  5  1  0  0  0  0
  4 12  2  0  0  0  0
  5  7  1  0  0  0  0
  6 12  2  0  0  0  0
  7  8  1  0  0  0  0
  7 10  1  0  0  0  0
  8  9  1  0  0  0  0
 10 11  1  0  0  0  0
 12 11  1  1  0  0  0
M  CHG  2   6  -1   7   1
M  END
>  <CHROM.1>
158.93839020,-167.89716229,71.80733073,3.44815304,2.07689164,-29.48162377
2.25824211,0.02073959,1.17007977

>  <Name>
ligand

>  <RI>
0

>  <Rbt.Current_Directory>
/home/itssahil/PROJECTS/Mol_Feturizer/New_Systems/rnas/4P95

>  <Rbt.Executable>
rbdock ($Id: //depot/dev/client3/rdock/2013.1/src/exe/rbdock.cxx#4 $)

>  <Rbt.Library>
libRbt.so (2013.1, Build901 2013/11/27)

>  <Rbt.Parameter_File>
/export/apps/rDock/src/rDock_2013.1_src/data/scripts/dock_solv.prm

>  <Rbt.Receptor>
prm/pocket_docking_6.prm

>  <SCORE>
-11.5469

>  <SCORE.INTER>
-9.86725

>  <SCORE.INTER.CONST>
1

>  <SCORE.INTER.POLAR>
0

>  <SCORE.INTER.ROT>
3

>  <SCORE.INTER.SOLV>
6.46065

>  <SCORE.INTER.VDW>
-14.3317

>  <SCORE.INTER.norm>
-0.822271

>  <SCORE.INTRA>
-1.67967

>  <SCORE.INTRA.DIHEDRAL>
1.22312

>  <SCORE.INTRA.DIHEDRAL.0>
0.283163

>  <SCORE.INTRA.POLAR>
0

>  <SCORE.INTRA.POLAR.0>
0

>  <SCORE.INTRA.REPUL>
0

>  <SCORE.INTRA.REPUL.0>
0

>  <SCORE.INTRA.SOLV>
-0.669612

>  <SCORE.INTRA.SOLV.lig_0>
-32.2894

>  <SCORE.INTRA.VDW>
-1.95642

>  <SCORE.INTRA.VDW.0>
2.0241

>  <SCORE.INTRA.norm>
-0.139973

>  <SCORE.RESTR>
0

>  <SCORE.RESTR.CAVITY>
0

>  <SCORE.RESTR.norm>
0

>  <SCORE.SYSTEM>
0

>  <SCORE.SYSTEM.CONST>
0

>  <SCORE.SYSTEM.DIHEDRAL>
0

>  <SCORE.SYSTEM.SOLV>
0

>  <SCORE.SYSTEM.norm>
0

>  <SCORE.heavy>
12

>  <SCORE.norm>
-0.962244

>  <RMSD>
3.614

$$$$
ligand
 OpenBabel11021811513D
libRbt.so/2013.1/901 2013/11/27
 12 12  0  0  0  0  0  0  0  0999 V2000
    0.7964    3.1738  -26.4777 O   0  0  0  0  0  0  0  0  0  0  0  0
    6.1660    0.9539  -31.8446 O   0  0  0  0  0  0  0  0  0  0  0  0
    2.1543    3.0668  -26.2683 C   0  0  0  0  0  0  0  0  0  0  0  0
    5.0966    3.1237  -32.1523 O   0  0  0  0  0  0  0  0  0  0  0  0
    2.9573    3.2657  -27.4875 C   0  0  0  0  0  0  0  0  0  0  0  0
    3.8311    1.0870  -32.5483 O   0  5  0  0  0  0  0  0  0  0  0  0
    2.4761    2.4350  -28.5994 N   0  3  0  0  0  0  0  0  0  0  0  0
    1.0604    2.6249  -28.7850 C   0  0  0  0  0  0  0  0  0  0  0  0
    0.3122    2.4189  -27.5089 C   0  0  0  0  0  0  0  0  0  0  0  0
    3.2021    2.7518  -29.7923 C   0  0  0  0  0  0  0  0  0  0  0  0
    4.3545    1.7333  -29.9831 C   0  0  0  0  0  0  0  0  0  0  0  0
    4.8846    1.7101  -31.7078 S   0  0  1  0  0  0  0  0  0  0  0  0
  1  3  1  0  0  0  0
  1  9  1  0  0  0  0
  2 12  1  0  0  0  0
  3  5  1  0  0  0  0
  4 12  2  0  0  0  0
  5  7  1  0  0  0  0
  6 12  2  0  0  0  0
  7  8  1  0  0  0  0
  7 10  1  0  0  0  0
  8  9  1  0  0  0  0
 10 11  1  0  0  0  0
 12 11  1  1  0  0  0
M  CHG  2   6  -1   7   1
M  END
>  <CHROM.1>
96.98541243,159.21202753,168.26663663,3.30783700,2.29027449,-29.69508862
2.21722217,0.09337528,1.24664740

>  <Name>
ligand

>  <RI>
0

>  <Rbt.Current_Directory>
/home/itssahil/PROJECTS/Mol_Feturizer/New_Systems/rnas/4P95

>  <Rbt.Executable>
rbdock ($Id: //depot/dev/client3/rdock/2013.1/src/exe/rbdock.cxx#4 $)

>  <Rbt.Library>
libRbt.so (2013.1, Build901 2013/11/27)

>  <Rbt.Parameter_File>
/export/apps/rDock/src/rDock_2013.1_src/data/scripts/dock_solv.prm

>  <Rbt.Receptor>
prm/pocket_docking_7.prm

>  <SCORE>
-10.8078

>  <SCORE.INTER>
-9.98766

>  <SCORE.INTER.CONST>
1

>  <SCORE.INTER.POLAR>
0

>  <SCORE.INTER.ROT>
3

>  <SCORE.INTER.SOLV>
6.13645

>  <SCORE.INTER.VDW>
-14.3039

>  <SCORE.INTER.norm>
-0.832305

>  <SCORE.INTRA>
-0.820176

>  <SCORE.INTRA.DIHEDRAL>
3.18326

>  <SCORE.INTRA.DIHEDRAL.0>
0.283163

>  <SCORE.INTRA.POLAR>
0

>  <SCORE.INTRA.POLAR.0>
0

>  <SCORE.INTRA.REPUL>
0

>  <SCORE.INTRA.REPUL.0>
0

>  <SCORE.INTRA.SOLV>
0.174981

>  <SCORE.INTRA.SOLV.lig_0>
-32.2894

>  <SCORE.INTRA.VDW>
-2.4993

>  <SCORE.INTRA.VDW.0>
2.0241

>  <SCORE.INTRA.norm>
-0.068348

>  <SCORE.RESTR>
0

>  <SCORE.RESTR.CAVITY>
0

>  <SCORE.RESTR.norm>
0

>  <SCORE.SYSTEM>
0

>  <SCORE.SYSTEM.CONST>
0

>  <SCORE.SYSTEM.DIHEDRAL>
0

>  <SCORE.SYSTEM.SOLV>
0

>  <SCORE.SYSTEM.norm>
0

>  <SCORE.heavy>
12

>  <SCORE.norm>
-0.900653

>  <RMSD>
3.623

$$$$
ligand
 OpenBabel11021811513D
libRbt.so/2013.1/901 2013/11/27
 12 12  0  0  0  0  0  0  0  0999 V2000
    0.7358    3.4340  -26.6074 O   0  0  0  0  0  0  0  0  0  0  0  0
    6.2673    1.0037  -30.6382 O   0  0  0  0  0  0  0  0  0  0  0  0
    2.0087    3.1985  -26.1344 C   0  0  0  0  0  0  0  0  0  0  0  0
    5.1681    2.6802  -32.0266 O   0  0  0  0  0  0  0  0  0  0  0  0
    3.0437    3.2322  -27.1825 C   0  0  0  0  0  0  0  0  0  0  0  0
    4.8382    0.3186  -32.4964 O   0  5  0  0  0  0  0  0  0  0  0  0
    2.6868    2.3863  -28.3293 N   0  3  0  0  0  0  0  0  0  0  0  0
    1.3627    2.7117  -28.7937 C   0  0  0  0  0  0  0  0  0  0  0  0
    0.3697    2.6688  -27.6789 C   0  0  0  0  0  0  0  0  0  0  0  0
    3.6554    2.5467  -29.3716 C   0  0  0  0  0  0  0  0  0  0  0  0
    3.5930    1.3293  -30.3285 C   0  0  0  0  0  0  0  0  0  0  0  0
    5.0321    1.3197  -31.4171 S   0  0  1  0  0  0  0  0  0  0  0  0
  1  3  1  0  0  0  0
  1  9  1  0  0  0  0
  2 12  1  0  0  0  0
  3  5  1  0  0  0  0
  4 12  2  0  0  0  0
  5  7  1  0  0  0  0
  6 12  2  0  0  0  0
  7  8  1  0  0  0  0
  7 10  1  0  0  0  0
  8  9  1  0  0  0  0
 10 11  1  0  0  0  0
 12 11  1  1  0  0  0
M  CHG  2   6  -1   7   1
M  END
>  <CHROM.1>
159.55553042,-167.22083596,69.51711287,3.43901797,2.13543313,-29.50007197
2.23440777,-0.00923131,1.19416440

>  <Name>
ligand

>  <RI>
0

>  <Rbt.Current_Directory>
/home/itssahil/PROJECTS/Mol_Feturizer/New_Systems/rnas/4P95

>  <Rbt.Executable>
rbdock ($Id: //depot/dev/client3/rdock/2013.1/src/exe/rbdock.cxx#4 $)

>  <Rbt.Library>
libRbt.so (2013.1, Build901 2013/11/27)

>  <Rbt.Parameter_File>
/export/apps/rDock/src/rDock_2013.1_src/data/scripts/dock_solv.prm

>  <Rbt.Receptor>
prm/pocket_docking_8.prm

>  <SCORE>
-11.5028

>  <SCORE.INTER>
-9.78677

>  <SCORE.INTER.CONST>
1

>  <SCORE.INTER.POLAR>
0

>  <SCORE.INTER.ROT>
3

>  <SCORE.INTER.SOLV>
6.40045

>  <SCORE.INTER.VDW>
-14.258

>  <SCORE.INTER.norm>
-0.815564

>  <SCORE.INTRA>
-1.71603

>  <SCORE.INTRA.DIHEDRAL>
1.1285

>  <SCORE.INTRA.DIHEDRAL.0>
0.283163

>  <SCORE.INTRA.POLAR>
0

>  <SCORE.INTRA.POLAR.0>
0

>  <SCORE.INTRA.REPUL>
0

>  <SCORE.INTRA.REPUL.0>
0

>  <SCORE.INTRA.SOLV>
-0.678445

>  <SCORE.INTRA.SOLV.lig_0>
-32.2894

>  <SCORE.INTRA.VDW>
-1.94106

>  <SCORE.INTRA.VDW.0>
2.0241

>  <SCORE.INTRA.norm>
-0.143003

>  <SCORE.RESTR>
0

>  <SCORE.RESTR.CAVITY>
0

>  <SCORE.RESTR.norm>
0

>  <SCORE.SYSTEM>
0

>  <SCORE.SYSTEM.CONST>
0

>  <SCORE.SYSTEM.DIHEDRAL>
0

>  <SCORE.SYSTEM.SOLV>
0

>  <SCORE.SYSTEM.norm>
0

>  <SCORE.heavy>
12

>  <SCORE.norm>
-0.958567

>  <RMSD>
3.626

$$$$
ligand
 OpenBabel11021811513D
libRbt.so/2013.1/901 2013/11/27
 12 12  0  0  0  0  0  0  0  0999 V2000
    3.4638    3.6008  -32.1660 O   0  0  0  0  0  0  0  0  0  0  0  0
    5.9628   -2.3669  -29.2147 O   0  0  0  0  0  0  0  0  0  0  0  0
    4.0518    2.6387  -32.9583 C   0  0  0  0  0  0  0  0  0  0  0  0
    7.7560   -0.8692  -28.5165 O   0  0  0  0  0  0  0  0  0  0  0  0
    4.3938    1.4034  -32.2316 C   0  0  0  0  0  0  0  0  0  0  0  0
    8.1288   -2.4307  -30.3410 O   0  5  0  0  0  0  0  0  0  0  0  0
    5.1506    1.6841  -31.0043 N   0  3  0  0  0  0  0  0  0  0  0  0
    4.4610    2.6675  -30.2092 C   0  0  0  0  0  0  0  0  0  0  0  0
    4.1370    3.8851  -31.0112 C   0  0  0  0  0  0  0  0  0  0  0  0
    5.3514    0.4718  -30.2692 C   0  0  0  0  0  0  0  0  0  0  0  0
    6.5692   -0.2905  -30.8502 C   0  0  0  0  0  0  0  0  0  0  0  0
    7.1240   -1.5544  -29.6877 S   0  0  1  0  0  0  0  0  0  0  0  0
  1  3  1  0  0  0  0
  1  9  1  0  0  0  0
  2 12  1  0  0  0  0
  3  5  1  0  0  0  0
  4 12  2  0  0  0  0
  5  7  1  0  0  0  0
  6 12  2  0  0  0  0
  7  8  1  0  0  0  0
  7 10  1  0  0  0  0
  8  9  1  0  0  0  0
 10 11  1  0  0  0  0
 12 11  1  6  0  0  0
M  CHG  2   6  -1   7   1
M  END
>  <CHROM.1>
82.49583135,164.26071720,48.72219166,5.72419113,0.47291671,-30.58429825,3.04391650
-1.01754463,1.02510720

>  <Name>
ligand

>  <RI>
0

>  <Rbt.Current_Directory>
/home/itssahil/PROJECTS/Mol_Feturizer/New_Systems/rnas/4P95

>  <Rbt.Executable>
rbdock ($Id: //depot/dev/client3/rdock/2013.1/src/exe/rbdock.cxx#4 $)

>  <Rbt.Library>
libRbt.so (2013.1, Build901 2013/11/27)

>  <Rbt.Parameter_File>
/export/apps/rDock/src/rDock_2013.1_src/data/scripts/dock_solv.prm

>  <Rbt.Receptor>
prm/pocket_docking_6.prm

>  <SCORE>
-9.56184

>  <SCORE.INTER>
-7.88263

>  <SCORE.INTER.CONST>
1

>  <SCORE.INTER.POLAR>
0

>  <SCORE.INTER.ROT>
3

>  <SCORE.INTER.SOLV>
7.33437

>  <SCORE.INTER.VDW>
-13.2999

>  <SCORE.INTER.norm>
-0.656886

>  <SCORE.INTRA>
-1.67921

>  <SCORE.INTRA.DIHEDRAL>
1.67953

>  <SCORE.INTRA.DIHEDRAL.0>
0.283163

>  <SCORE.INTRA.POLAR>
0

>  <SCORE.INTRA.POLAR.0>
0

>  <SCORE.INTRA.REPUL>
0

>  <SCORE.INTRA.REPUL.0>
0

>  <SCORE.INTRA.SOLV>
-0.729373

>  <SCORE.INTRA.SOLV.lig_0>
-32.2894

>  <SCORE.INTRA.VDW>
-2.15429

>  <SCORE.INTRA.VDW.0>
2.0241

>  <SCORE.INTRA.norm>
-0.139934

>  <SCORE.RESTR>
0

>  <SCORE.RESTR.CAVITY>
0

>  <SCORE.RESTR.norm>
0

>  <SCORE.SYSTEM>
0

>  <SCORE.SYSTEM.CONST>
0

>  <SCORE.SYSTEM.DIHEDRAL>
0

>  <SCORE.SYSTEM.SOLV>
0

>  <SCORE.SYSTEM.norm>
0

>  <SCORE.heavy>
12

>  <SCORE.norm>
-0.79682

>  <RMSD>
3.628

$$$$
ligand
 OpenBabel11021811513D
libRbt.so/2013.1/901 2013/11/27
 12 12  0  0  0  0  0  0  0  0999 V2000
    1.8171    3.5077  -26.4308 O   0  0  0  0  0  0  0  0  0  0  0  0
    4.6450    1.1333  -29.6155 O   0  0  0  0  0  0  0  0  0  0  0  0
    3.0063    3.3530  -27.1100 C   0  0  0  0  0  0  0  0  0  0  0  0
    4.3720    2.4052  -31.6781 O   0  0  0  0  0  0  0  0  0  0  0  0
    2.8398    3.2083  -28.5668 C   0  0  0  0  0  0  0  0  0  0  0  0
    4.6777   -0.0037  -31.7767 O   0  5  0  0  0  0  0  0  0  0  0  0
    1.8438    2.1821  -28.9029 N   0  3  0  0  0  0  0  0  0  0  0  0
    0.6176    2.4269  -28.1880 C   0  0  0  0  0  0  0  0  0  0  0  0
    0.8628    2.5738  -26.7221 C   0  0  0  0  0  0  0  0  0  0  0  0
    1.6238    2.1634  -30.3177 C   0  0  0  0  0  0  0  0  0  0  0  0
    2.2832    0.9006  -30.9278 C   0  0  0  0  0  0  0  0  0  0  0  0
    4.0747    1.1062  -30.9963 S   0  0  1  0  0  0  0  0  0  0  0  0
  1  3  1  0  0  0  0
  1  9  1  0  0  0  0
  2 12  1  0  0  0  0
  3  5  1  0  0  0  0
  4 12  2  0  0  0  0
  5  7  1  0  0  0  0
  6 12  2  0  0  0  0
  7  8  1  0  0  0  0
  7 10  1  0  0  0  0
  8  9  1  0  0  0  0
 10 11  1  0  0  0  0
 12 11  1  1  0  0  0
M  CHG  2   6  -1   7   1
M  END
>  <CHROM.1>
106.87316176,-74.82165794,67.62188228,2.89464053,1.97636833,-29.45437752
-2.09490572,-0.05616837,-2.06207371

>  <Name>
ligand

>  <RI>
0

>  <Rbt.Current_Directory>
/home/itssahil/PROJECTS/Mol_Feturizer/New_Systems/rnas/4P95

>  <Rbt.Executable>
rbdock ($Id: //depot/dev/client3/rdock/2013.1/src/exe/rbdock.cxx#4 $)

>  <Rbt.Library>
libRbt.so (2013.1, Build901 2013/11/27)

>  <Rbt.Parameter_File>
/export/apps/rDock/src/rDock_2013.1_src/data/scripts/dock_solv.prm

>  <Rbt.Receptor>
prm/pocket_docking_8.prm

>  <SCORE>
-8.57254

>  <SCORE.INTER>
-6.53505

>  <SCORE.INTER.CONST>
1

>  <SCORE.INTER.POLAR>
0

>  <SCORE.INTER.ROT>
3

>  <SCORE.INTER.SOLV>
4.92898

>  <SCORE.INTER.VDW>
-11.5997

>  <SCORE.INTER.norm>
-0.544587

>  <SCORE.INTRA>
-2.0375

>  <SCORE.INTRA.DIHEDRAL>
2.84443

>  <SCORE.INTRA.DIHEDRAL.0>
0.283163

>  <SCORE.INTRA.POLAR>
0

>  <SCORE.INTRA.POLAR.0>
0

>  <SCORE.INTRA.REPUL>
0

>  <SCORE.INTRA.REPUL.0>
0

>  <SCORE.INTRA.SOLV>
-0.450008

>  <SCORE.INTRA.SOLV.lig_0>
-32.2894

>  <SCORE.INTRA.VDW>
-3.23471

>  <SCORE.INTRA.VDW.0>
2.0241

>  <SCORE.INTRA.norm>
-0.169791

>  <SCORE.RESTR>
0

>  <SCORE.RESTR.CAVITY>
0

>  <SCORE.RESTR.norm>
0

>  <SCORE.SYSTEM>
0

>  <SCORE.SYSTEM.CONST>
0

>  <SCORE.SYSTEM.DIHEDRAL>
0

>  <SCORE.SYSTEM.SOLV>
0

>  <SCORE.SYSTEM.norm>
0

>  <SCORE.heavy>
12

>  <SCORE.norm>
-0.714379

>  <RMSD>
3.636

$$$$
ligand
 OpenBabel11021811513D
libRbt.so/2013.1/901 2013/11/27
 12 12  0  0  0  0  0  0  0  0999 V2000
    0.7296    3.1049  -26.5326 O   0  0  0  0  0  0  0  0  0  0  0  0
    5.2246    3.0995  -32.1841 O   0  0  0  0  0  0  0  0  0  0  0  0
    2.0749    3.0515  -26.2383 C   0  0  0  0  0  0  0  0  0  0  0  0
    3.4149    1.5280  -32.6337 O   0  0  0  0  0  0  0  0  0  0  0  0
    2.9442    3.3051  -27.4006 C   0  0  0  0  0  0  0  0  0  0  0  0
    5.6566    0.6958  -32.1993 O   0  5  0  0  0  0  0  0  0  0  0  0
    2.5706    2.4743  -28.5531 N   0  3  0  0  0  0  0  0  0  0  0  0
    1.1626    2.6077  -28.8261 C   0  0  0  0  0  0  0  0  0  0  0  0
    0.3447    2.3483  -27.6036 C   0  0  0  0  0  0  0  0  0  0  0  0
    3.3563    2.8420  -29.6923 C   0  0  0  0  0  0  0  0  0  0  0  0
    4.2700    1.6569  -30.0956 C   0  0  0  0  0  0  0  0  0  0  0  0
    4.6720    1.7516  -31.8522 S   0  0  1  0  0  0  0  0  0  0  0  0
  1  3  1  0  0  0  0
  1  9  1  0  0  0  0
  2 12  1  0  0  0  0
  3  5  1  0  0  0  0
  4 12  2  0  0  0  0
  5  7  1  0  0  0  0
  6 12  2  0  0  0  0
  7  8  1  0  0  0  0
  7 10  1  0  0  0  0
  8  9  1  0  0  0  0
 10 11  1  0  0  0  0
 12 11  1  1  0  0  0
M  CHG  2   6  -1   7   1
M  END
>  <CHROM.1>
114.89849620,153.96961458,52.74525473,3.21643049,2.30374106,-29.76124500
2.17419674,0.15123557,1.23223049

>  <Name>
ligand

>  <RI>
0

>  <Rbt.Current_Directory>
/home/itssahil/PROJECTS/Mol_Feturizer/New_Systems/rnas/4P95

>  <Rbt.Executable>
rbdock ($Id: //depot/dev/client3/rdock/2013.1/src/exe/rbdock.cxx#4 $)

>  <Rbt.Library>
libRbt.so (2013.1, Build901 2013/11/27)

>  <Rbt.Parameter_File>
/export/apps/rDock/src/rDock_2013.1_src/data/scripts/dock_solv.prm

>  <Rbt.Receptor>
prm/pocket_docking_4.prm

>  <SCORE>
-9.86295

>  <SCORE.INTER>
-8.99205

>  <SCORE.INTER.CONST>
1

>  <SCORE.INTER.POLAR>
0

>  <SCORE.INTER.ROT>
3

>  <SCORE.INTER.SOLV>
7.39051

>  <SCORE.INTER.VDW>
-14.0582

>  <SCORE.INTER.norm>
-0.749338

>  <SCORE.INTRA>
-0.870894

>  <SCORE.INTRA.DIHEDRAL>
4.38551

>  <SCORE.INTRA.DIHEDRAL.0>
0.283163

>  <SCORE.INTRA.POLAR>
0

>  <SCORE.INTRA.POLAR.0>
0

>  <SCORE.INTRA.REPUL>
0

>  <SCORE.INTRA.REPUL.0>
0

>  <SCORE.INTRA.SOLV>
-0.705406

>  <SCORE.INTRA.SOLV.lig_0>
-32.2894

>  <SCORE.INTRA.VDW>
-2.71095

>  <SCORE.INTRA.VDW.0>
2.0241

>  <SCORE.INTRA.norm>
-0.0725745

>  <SCORE.RESTR>
0

>  <SCORE.RESTR.CAVITY>
0

>  <SCORE.RESTR.norm>
0

>  <SCORE.SYSTEM>
0

>  <SCORE.SYSTEM.CONST>
0

>  <SCORE.SYSTEM.DIHEDRAL>
0

>  <SCORE.SYSTEM.SOLV>
0

>  <SCORE.SYSTEM.norm>
0

>  <SCORE.heavy>
12

>  <SCORE.norm>
-0.821912

>  <RMSD>
3.651

$$$$
ligand
 OpenBabel11021811513D
libRbt.so/2013.1/901 2013/11/27
 12 12  0  0  0  0  0  0  0  0999 V2000
    0.7245    3.1301  -26.5356 O   0  0  0  0  0  0  0  0  0  0  0  0
    5.3394    2.8482  -32.1000 O   0  0  0  0  0  0  0  0  0  0  0  0
    2.0577    3.0834  -26.1898 C   0  0  0  0  0  0  0  0  0  0  0  0
    3.1158    2.0414  -32.6926 O   0  0  0  0  0  0  0  0  0  0  0  0
    2.9705    3.2876  -27.3283 C   0  0  0  0  0  0  0  0  0  0  0  0
    4.9708    0.4773  -32.5558 O   0  5  0  0  0  0  0  0  0  0  0  0
    2.6353    2.4132  -28.4601 N   0  3  0  0  0  0  0  0  0  0  0  0
    1.2391    2.5408  -28.7901 C   0  0  0  0  0  0  0  0  0  0  0  0
    0.3754    2.3330  -27.5894 C   0  0  0  0  0  0  0  0  0  0  0  0
    3.4643    2.7325  -29.5831 C   0  0  0  0  0  0  0  0  0  0  0  0
    3.9839    1.4245  -30.2319 C   0  0  0  0  0  0  0  0  0  0  0  0
    4.3829    1.7079  -31.9687 S   0  0  1  0  0  0  0  0  0  0  0  0
  1  3  1  0  0  0  0
  1  9  1  0  0  0  0
  2 12  1  0  0  0  0
  3  5  1  0  0  0  0
  4 12  2  0  0  0  0
  5  7  1  0  0  0  0
  6 12  2  0  0  0  0
  7  8  1  0  0  0  0
  7 10  1  0  0  0  0
  8  9  1  0  0  0  0
 10 11  1  0  0  0  0
 12 11  1  1  0  0  0
M  CHG  2   6  -1   7   1
M  END
>  <CHROM.1>
135.74828017,155.13215280,54.46506505,3.09681599,2.26819150,-29.79090397
2.11137304,0.17655885,1.23011635

>  <Name>
ligand

>  <RI>
0

>  <Rbt.Current_Directory>
/home/itssahil/PROJECTS/Mol_Feturizer/New_Systems/rnas/4P95

>  <Rbt.Executable>
rbdock ($Id: //depot/dev/client3/rdock/2013.1/src/exe/rbdock.cxx#4 $)

>  <Rbt.Library>
libRbt.so (2013.1, Build901 2013/11/27)

>  <Rbt.Parameter_File>
/export/apps/rDock/src/rDock_2013.1_src/data/scripts/dock_solv.prm

>  <Rbt.Receptor>
prm/pocket_docking_4.prm

>  <SCORE>
-9.7835

>  <SCORE.INTER>
-8.67787

>  <SCORE.INTER.CONST>
1

>  <SCORE.INTER.POLAR>
0

>  <SCORE.INTER.ROT>
3

>  <SCORE.INTER.SOLV>
5.70634

>  <SCORE.INTER.VDW>
-13.2874

>  <SCORE.INTER.norm>
-0.723156

>  <SCORE.INTRA>
-1.10563

>  <SCORE.INTRA.DIHEDRAL>
3.76304

>  <SCORE.INTRA.DIHEDRAL.0>
0.283163

>  <SCORE.INTRA.POLAR>
0

>  <SCORE.INTRA.POLAR.0>
0

>  <SCORE.INTRA.REPUL>
0

>  <SCORE.INTRA.REPUL.0>
0

>  <SCORE.INTRA.SOLV>
-0.676442

>  <SCORE.INTRA.SOLV.lig_0>
-32.2894

>  <SCORE.INTRA.VDW>
-2.64893

>  <SCORE.INTRA.VDW.0>
2.0241

>  <SCORE.INTRA.norm>
-0.0921358

>  <SCORE.RESTR>
0

>  <SCORE.RESTR.CAVITY>
0

>  <SCORE.RESTR.norm>
0

>  <SCORE.SYSTEM>
0

>  <SCORE.SYSTEM.CONST>
0

>  <SCORE.SYSTEM.DIHEDRAL>
0

>  <SCORE.SYSTEM.SOLV>
0

>  <SCORE.SYSTEM.norm>
0

>  <SCORE.heavy>
12

>  <SCORE.norm>
-0.815292

>  <RMSD>
3.656

$$$$
ligand
 OpenBabel11021811513D
libRbt.so/2013.1/901 2013/11/27
 12 12  0  0  0  0  0  0  0  0999 V2000
    0.5444    2.4935  -27.1017 O   0  0  0  0  0  0  0  0  0  0  0  0
    5.8787    1.4252  -31.4929 O   0  0  0  0  0  0  0  0  0  0  0  0
    0.5067    2.0650  -28.4110 C   0  0  0  0  0  0  0  0  0  0  0  0
    5.1205    3.0859  -33.1095 O   0  0  0  0  0  0  0  0  0  0  0  0
    1.8395    1.8374  -28.9964 C   0  0  0  0  0  0  0  0  0  0  0  0
    3.5486    1.4577  -32.2239 O   0  5  0  0  0  0  0  0  0  0  0  0
    2.7301    2.9872  -28.7892 N   0  3  0  0  0  0  0  0  0  0  0  0
    2.7498    3.3559  -27.3970 C   0  0  0  0  0  0  0  0  0  0  0  0
    1.3676    3.5592  -26.8687 C   0  0  0  0  0  0  0  0  0  0  0  0
    4.0454    2.6743  -29.2609 C   0  0  0  0  0  0  0  0  0  0  0  0
    4.3216    3.4471  -30.5756 C   0  0  0  0  0  0  0  0  0  0  0  0
    4.7328    2.2930  -31.9005 S   0  0  1  0  0  0  0  0  0  0  0  0
  1  3  1  0  0  0  0
  1  9  1  0  0  0  0
  2 12  1  0  0  0  0
  3  5  1  0  0  0  0
  4 12  2  0  0  0  0
  5  7  1  0  0  0  0
  6 12  2  0  0  0  0
  7  8  1  0  0  0  0
  7 10  1  0  0  0  0
  8  9  1  0  0  0  0
 10 11  1  0  0  0  0
 12 11  1  1  0  0  0
M  CHG  2   6  -1   7   1
M  END
>  <CHROM.1>
107.40818319,-122.52944459,-55.13067347,3.29237949,2.51432588,-29.93678465
2.31473504,0.41951159,1.10177225

>  <Name>
ligand

>  <RI>
0

>  <Rbt.Current_Directory>
/home/itssahil/PROJECTS/Mol_Feturizer/New_Systems/rnas/4P95

>  <Rbt.Executable>
rbdock ($Id: //depot/dev/client3/rdock/2013.1/src/exe/rbdock.cxx#4 $)

>  <Rbt.Library>
libRbt.so (2013.1, Build901 2013/11/27)

>  <Rbt.Parameter_File>
/export/apps/rDock/src/rDock_2013.1_src/data/scripts/dock_solv.prm

>  <Rbt.Receptor>
prm/pocket_docking_7.prm

>  <SCORE>
-9.43361

>  <SCORE.INTER>
-11.0002

>  <SCORE.INTER.CONST>
1

>  <SCORE.INTER.POLAR>
0

>  <SCORE.INTER.ROT>
3

>  <SCORE.INTER.SOLV>
6.09296

>  <SCORE.INTER.VDW>
-14.9644

>  <SCORE.INTER.norm>
-0.916681

>  <SCORE.INTRA>
1.56657

>  <SCORE.INTRA.DIHEDRAL>
7.47738

>  <SCORE.INTRA.DIHEDRAL.0>
0.283163

>  <SCORE.INTRA.POLAR>
0

>  <SCORE.INTRA.POLAR.0>
0

>  <SCORE.INTRA.REPUL>
0

>  <SCORE.INTRA.REPUL.0>
0

>  <SCORE.INTRA.SOLV>
1.48831

>  <SCORE.INTRA.SOLV.lig_0>
-32.2894

>  <SCORE.INTRA.VDW>
-2.91628

>  <SCORE.INTRA.VDW.0>
2.0241

>  <SCORE.INTRA.norm>
0.130547

>  <SCORE.RESTR>
0

>  <SCORE.RESTR.CAVITY>
0

>  <SCORE.RESTR.norm>
0

>  <SCORE.SYSTEM>
0

>  <SCORE.SYSTEM.CONST>
0

>  <SCORE.SYSTEM.DIHEDRAL>
0

>  <SCORE.SYSTEM.SOLV>
0

>  <SCORE.SYSTEM.norm>
0

>  <SCORE.heavy>
12

>  <SCORE.norm>
-0.786134

>  <RMSD>
3.751

$$$$
ligand
 OpenBabel11021811513D
libRbt.so/2013.1/901 2013/11/27
 12 12  0  0  0  0  0  0  0  0999 V2000
    0.7418    2.9528  -26.6530 O   0  0  0  0  0  0  0  0  0  0  0  0
    3.0581    0.6587  -31.7229 O   0  0  0  0  0  0  0  0  0  0  0  0
    2.0771    2.9496  -26.3121 C   0  0  0  0  0  0  0  0  0  0  0  0
    3.1502   -0.0944  -29.4054 O   0  0  0  0  0  0  0  0  0  0  0  0
    2.9703    3.3329  -27.4194 C   0  0  0  0  0  0  0  0  0  0  0  0
    5.0529   -0.4639  -30.8715 O   0  5  0  0  0  0  0  0  0  0  0  0
    2.6832    2.5694  -28.6412 N   0  3  0  0  0  0  0  0  0  0  0  0
    1.2802    2.6474  -28.9577 C   0  0  0  0  0  0  0  0  0  0  0  0
    0.4366    2.2567  -27.7887 C   0  0  0  0  0  0  0  0  0  0  0  0
    3.4859    3.0602  -29.7207 C   0  0  0  0  0  0  0  0  0  0  0  0
    4.6306    2.0572  -30.0126 C   0  0  0  0  0  0  0  0  0  0  0  0
    3.9488    0.4712  -30.5381 S   0  0  1  0  0  0  0  0  0  0  0  0
  1  3  1  0  0  0  0
  1  9  1  0  0  0  0
  2 12  1  0  0  0  0
  3  5  1  0  0  0  0
  4 12  2  0  0  0  0
  5  7  1  0  0  0  0
  6 12  2  0  0  0  0
  7  8  1  0  0  0  0
  7 10  1  0  0  0  0
  8  9  1  0  0  0  0
 10 11  1  0  0  0  0
 12 11  1  1  0  0  0
M  CHG  2   6  -1   7   1
M  END
>  <CHROM.1>
105.38412668,62.49801932,56.08324832,2.90874647,1.69203479,-29.17291594,2.15434138
0.33057505,0.73360311

>  <Name>
ligand

>  <RI>
0

>  <Rbt.Current_Directory>
/home/itssahil/PROJECTS/Mol_Feturizer/New_Systems/rnas/4P95

>  <Rbt.Executable>
rbdock ($Id: //depot/dev/client3/rdock/2013.1/src/exe/rbdock.cxx#4 $)

>  <Rbt.Library>
libRbt.so (2013.1, Build901 2013/11/27)

>  <Rbt.Parameter_File>
/export/apps/rDock/src/rDock_2013.1_src/data/scripts/dock_solv.prm

>  <Rbt.Receptor>
prm/pocket_docking_8.prm

>  <SCORE>
-12.7849

>  <SCORE.INTER>
-10.3252

>  <SCORE.INTER.CONST>
1

>  <SCORE.INTER.POLAR>
0

>  <SCORE.INTER.ROT>
3

>  <SCORE.INTER.SOLV>
7.72812

>  <SCORE.INTER.VDW>
-15.0595

>  <SCORE.INTER.norm>
-0.860432

>  <SCORE.INTRA>
-2.45974

>  <SCORE.INTRA.DIHEDRAL>
1.87798

>  <SCORE.INTRA.DIHEDRAL.0>
0.283163

>  <SCORE.INTRA.POLAR>
0

>  <SCORE.INTRA.POLAR.0>
0

>  <SCORE.INTRA.REPUL>
0

>  <SCORE.INTRA.REPUL.0>
0

>  <SCORE.INTRA.SOLV>
0.130172

>  <SCORE.INTRA.SOLV.lig_0>
-32.2894

>  <SCORE.INTRA.VDW>
-3.46382

>  <SCORE.INTRA.VDW.0>
2.0241

>  <SCORE.INTRA.norm>
-0.204979

>  <SCORE.RESTR>
0

>  <SCORE.RESTR.CAVITY>
0

>  <SCORE.RESTR.norm>
0

>  <SCORE.SYSTEM>
0

>  <SCORE.SYSTEM.CONST>
0

>  <SCORE.SYSTEM.DIHEDRAL>
0

>  <SCORE.SYSTEM.SOLV>
0

>  <SCORE.SYSTEM.norm>
0

>  <SCORE.heavy>
12

>  <SCORE.norm>
-1.06541

>  <RMSD>
3.788

$$$$
ligand
 OpenBabel11021811513D
libRbt.so/2013.1/901 2013/11/27
 12 12  0  0  0  0  0  0  0  0999 V2000
    0.7072    2.9684  -26.6820 O   0  0  0  0  0  0  0  0  0  0  0  0
    3.0491    0.6817  -31.7145 O   0  0  0  0  0  0  0  0  0  0  0  0
    2.0362    2.9531  -26.3176 C   0  0  0  0  0  0  0  0  0  0  0  0
    3.1272   -0.0983  -29.4054 O   0  0  0  0  0  0  0  0  0  0  0  0
    2.9519    3.3315  -27.4081 C   0  0  0  0  0  0  0  0  0  0  0  0
    5.0274   -0.4767  -30.8725 O   0  5  0  0  0  0  0  0  0  0  0  0
    2.6801    2.5735  -28.6367 N   0  3  0  0  0  0  0  0  0  0  0  0
    1.2836    2.6640  -28.9776 C   0  0  0  0  0  0  0  0  0  0  0  0
    0.4162    2.2776  -27.8247 C   0  0  0  0  0  0  0  0  0  0  0  0
    3.5058    3.0600  -29.7006 C   0  0  0  0  0  0  0  0  0  0  0  0
    4.6371    2.0401  -29.9861 C   0  0  0  0  0  0  0  0  0  0  0  0
    3.9353    0.4693  -30.5305 S   0  0  1  0  0  0  0  0  0  0  0  0
  1  3  1  0  0  0  0
  1  9  1  0  0  0  0
  2 12  1  0  0  0  0
  3  5  1  0  0  0  0
  4 12  2  0  0  0  0
  5  7  1  0  0  0  0
  6 12  2  0  0  0  0
  7  8  1  0  0  0  0
  7 10  1  0  0  0  0
  8  9  1  0  0  0  0
 10 11  1  0  0  0  0
 12 11  1  1  0  0  0
M  CHG  2   6  -1   7   1
M  END
>  <CHROM.1>
106.05673402,62.31602253,55.43366445,2.89509739,1.69543693,-29.17336904,2.15402269
0.31543654,0.73688242

>  <Name>
ligand

>  <RI>
0

>  <Rbt.Current_Directory>
/home/itssahil/PROJECTS/Mol_Feturizer/New_Systems/rnas/4P95

>  <Rbt.Executable>
rbdock ($Id: //depot/dev/client3/rdock/2013.1/src/exe/rbdock.cxx#4 $)

>  <Rbt.Library>
libRbt.so (2013.1, Build901 2013/11/27)

>  <Rbt.Parameter_File>
/export/apps/rDock/src/rDock_2013.1_src/data/scripts/dock_solv.prm

>  <Rbt.Receptor>
prm/pocket_docking_4.prm

>  <SCORE>
-12.8006

>  <SCORE.INTER>
-10.3419

>  <SCORE.INTER.CONST>
1

>  <SCORE.INTER.POLAR>
0

>  <SCORE.INTER.ROT>
3

>  <SCORE.INTER.SOLV>
7.65147

>  <SCORE.INTER.VDW>
-15.0451

>  <SCORE.INTER.norm>
-0.861827

>  <SCORE.INTRA>
-2.45864

>  <SCORE.INTRA.DIHEDRAL>
1.91282

>  <SCORE.INTRA.DIHEDRAL.0>
0.283163

>  <SCORE.INTRA.POLAR>
0

>  <SCORE.INTRA.POLAR.0>
0

>  <SCORE.INTRA.REPUL>
0

>  <SCORE.INTRA.REPUL.0>
0

>  <SCORE.INTRA.SOLV>
0.122846

>  <SCORE.INTRA.SOLV.lig_0>
-32.2894

>  <SCORE.INTRA.VDW>
-3.47648

>  <SCORE.INTRA.VDW.0>
2.0241

>  <SCORE.INTRA.norm>
-0.204887

>  <SCORE.RESTR>
0

>  <SCORE.RESTR.CAVITY>
0

>  <SCORE.RESTR.norm>
0

>  <SCORE.SYSTEM>
0

>  <SCORE.SYSTEM.CONST>
0

>  <SCORE.SYSTEM.DIHEDRAL>
0

>  <SCORE.SYSTEM.SOLV>
0

>  <SCORE.SYSTEM.norm>
0

>  <SCORE.heavy>
12

>  <SCORE.norm>
-1.06671

>  <RMSD>
3.798

$$$$
ligand
 OpenBabel11021811513D
libRbt.so/2013.1/901 2013/11/27
 12 12  0  0  0  0  0  0  0  0999 V2000
    0.6451    3.0518  -26.7676 O   0  0  0  0  0  0  0  0  0  0  0  0
    2.9377   -0.0624  -29.4103 O   0  0  0  0  0  0  0  0  0  0  0  0
    1.9162    2.8661  -26.2685 C   0  0  0  0  0  0  0  0  0  0  0  0
    5.3219    0.2982  -29.7734 O   0  0  0  0  0  0  0  0  0  0  0  0
    2.9824    3.2072  -27.2265 C   0  0  0  0  0  0  0  0  0  0  0  0
    3.9049   -0.3688  -31.6319 O   0  5  0  0  0  0  0  0  0  0  0  0
    2.7724    2.5618  -28.5293 N   0  3  0  0  0  0  0  0  0  0  0  0
    1.4398    2.8282  -29.0067 C   0  0  0  0  0  0  0  0  0  0  0  0
    0.4135    2.4700  -27.9823 C   0  0  0  0  0  0  0  0  0  0  0  0
    3.7579    3.0185  -29.4624 C   0  0  0  0  0  0  0  0  0  0  0  0
    3.6761    2.1721  -30.7579 C   0  0  0  0  0  0  0  0  0  0  0  0
    3.9605    0.4303  -30.3816 S   0  0  1  0  0  0  0  0  0  0  0  0
  1  3  1  0  0  0  0
  1  9  1  0  0  0  0
  2 12  1  0  0  0  0
  3  5  1  0  0  0  0
  4 12  2  0  0  0  0
  5  7  1  0  0  0  0
  6 12  2  0  0  0  0
  7  8  1  0  0  0  0
  7 10  1  0  0  0  0
  8  9  1  0  0  0  0
 10 11  1  0  0  0  0
 12 11  1  6  0  0  0
M  CHG  2   6  -1   7   1
M  END
>  <CHROM.1>
170.94163448,-59.39862740,59.54540060,2.93336197,1.69231719,-29.08652805
2.15601449,0.20667321,0.76492292

>  <Name>
ligand

>  <RI>
0

>  <Rbt.Current_Directory>
/home/itssahil/PROJECTS/Mol_Feturizer/New_Systems/rnas/4P95

>  <Rbt.Executable>
rbdock ($Id: //depot/dev/client3/rdock/2013.1/src/exe/rbdock.cxx#4 $)

>  <Rbt.Library>
libRbt.so (2013.1, Build901 2013/11/27)

>  <Rbt.Parameter_File>
/export/apps/rDock/src/rDock_2013.1_src/data/scripts/dock_solv.prm

>  <Rbt.Receptor>
prm/pocket_docking_4.prm

>  <SCORE>
-12.9532

>  <SCORE.INTER>
-10.6396

>  <SCORE.INTER.CONST>
1

>  <SCORE.INTER.POLAR>
0

>  <SCORE.INTER.ROT>
3

>  <SCORE.INTER.SOLV>
6.46598

>  <SCORE.INTER.VDW>
-14.8484

>  <SCORE.INTER.norm>
-0.886629

>  <SCORE.INTRA>
-2.31364

>  <SCORE.INTRA.DIHEDRAL>
-0.176619

>  <SCORE.INTRA.DIHEDRAL.0>
0.283163

>  <SCORE.INTRA.POLAR>
0

>  <SCORE.INTRA.POLAR.0>
0

>  <SCORE.INTRA.REPUL>
0

>  <SCORE.INTRA.REPUL.0>
0

>  <SCORE.INTRA.SOLV>
-0.453453

>  <SCORE.INTRA.SOLV.lig_0>
-32.2894

>  <SCORE.INTRA.VDW>
-1.99861

>  <SCORE.INTRA.VDW.0>
2.0241

>  <SCORE.INTRA.norm>
-0.192804

>  <SCORE.RESTR>
0

>  <SCORE.RESTR.CAVITY>
0

>  <SCORE.RESTR.norm>
0

>  <SCORE.SYSTEM>
0

>  <SCORE.SYSTEM.CONST>
0

>  <SCORE.SYSTEM.DIHEDRAL>
0

>  <SCORE.SYSTEM.SOLV>
0

>  <SCORE.SYSTEM.norm>
0

>  <SCORE.heavy>
12

>  <SCORE.norm>
-1.07943

>  <RMSD>
3.802

$$$$
ligand
 OpenBabel11021811513D
libRbt.so/2013.1/901 2013/11/27
 12 12  0  0  0  0  0  0  0  0999 V2000
    0.6477    3.0767  -26.7861 O   0  0  0  0  0  0  0  0  0  0  0  0
    2.9381   -0.0505  -29.4004 O   0  0  0  0  0  0  0  0  0  0  0  0
    1.9170    2.8907  -26.2824 C   0  0  0  0  0  0  0  0  0  0  0  0
    5.3251    0.2955  -29.7594 O   0  0  0  0  0  0  0  0  0  0  0  0
    2.9867    3.2253  -27.2388 C   0  0  0  0  0  0  0  0  0  0  0  0
    3.9099   -0.3777  -31.6169 O   0  5  0  0  0  0  0  0  0  0  0  0
    2.7792    2.5746  -28.5393 N   0  3  0  0  0  0  0  0  0  0  0  0
    1.4485    2.8416  -29.0218 C   0  0  0  0  0  0  0  0  0  0  0  0
    0.4186    2.4900  -27.9989 C   0  0  0  0  0  0  0  0  0  0  0  0
    3.7684    3.0252  -29.4715 C   0  0  0  0  0  0  0  0  0  0  0  0
    3.6913    2.1705  -30.7620 C   0  0  0  0  0  0  0  0  0  0  0  0
    3.9660    0.4301  -30.3723 S   0  0  1  0  0  0  0  0  0  0  0  0
  1  3  1  0  0  0  0
  1  9  1  0  0  0  0
  2 12  1  0  0  0  0
  3  5  1  0  0  0  0
  4 12  2  0  0  0  0
  5  7  1  0  0  0  0
  6 12  2  0  0  0  0
  7  8  1  0  0  0  0
  7 10  1  0  0  0  0
  8  9  1  0  0  0  0
 10 11  1  0  0  0  0
 12 11  1  6  0  0  0
M  CHG  2   6  -1   7   1
M  END
>  <CHROM.1>
170.78015858,-59.12660735,59.32832030,2.93891156,1.70114458,-29.08915836
2.15682325,0.20487477,0.75772570

>  <Name>
ligand

>  <RI>
0

>  <Rbt.Current_Directory>
/home/itssahil/PROJECTS/Mol_Feturizer/New_Systems/rnas/4P95

>  <Rbt.Executable>
rbdock ($Id: //depot/dev/client3/rdock/2013.1/src/exe/rbdock.cxx#4 $)

>  <Rbt.Library>
libRbt.so (2013.1, Build901 2013/11/27)

>  <Rbt.Parameter_File>
/export/apps/rDock/src/rDock_2013.1_src/data/scripts/dock_solv.prm

>  <Rbt.Receptor>
prm/pocket_docking_4.prm

>  <SCORE>
-12.9677

>  <SCORE.INTER>
-10.6461

>  <SCORE.INTER.CONST>
1

>  <SCORE.INTER.POLAR>
0

>  <SCORE.INTER.ROT>
3

>  <SCORE.INTER.SOLV>
6.46768

>  <SCORE.INTER.VDW>
-14.8533

>  <SCORE.INTER.norm>
-0.887172

>  <SCORE.INTRA>
-2.32162

>  <SCORE.INTRA.DIHEDRAL>
-0.171105

>  <SCORE.INTRA.DIHEDRAL.0>
0.283163

>  <SCORE.INTRA.POLAR>
0

>  <SCORE.INTRA.POLAR.0>
0

>  <SCORE.INTRA.REPUL>
0

>  <SCORE.INTRA.REPUL.0>
0

>  <SCORE.INTRA.SOLV>
-0.451555

>  <SCORE.INTRA.SOLV.lig_0>
-32.2894

>  <SCORE.INTRA.VDW>
-2.01029

>  <SCORE.INTRA.VDW.0>
2.0241

>  <SCORE.INTRA.norm>
-0.193468

>  <SCORE.RESTR>
0

>  <SCORE.RESTR.CAVITY>
0

>  <SCORE.RESTR.norm>
0

>  <SCORE.SYSTEM>
0

>  <SCORE.SYSTEM.CONST>
0

>  <SCORE.SYSTEM.DIHEDRAL>
0

>  <SCORE.SYSTEM.SOLV>
0

>  <SCORE.SYSTEM.norm>
0

>  <SCORE.heavy>
12

>  <SCORE.norm>
-1.08064

>  <RMSD>
3.802

$$$$
ligand
 OpenBabel11021811513D
libRbt.so/2013.1/901 2013/11/27
 12 12  0  0  0  0  0  0  0  0999 V2000
    0.6508    3.0551  -26.7534 O   0  0  0  0  0  0  0  0  0  0  0  0
    2.9264   -0.0561  -29.4133 O   0  0  0  0  0  0  0  0  0  0  0  0
    1.9255    2.8782  -26.2604 C   0  0  0  0  0  0  0  0  0  0  0  0
    5.3110    0.3132  -29.7652 O   0  0  0  0  0  0  0  0  0  0  0  0
    2.9847    3.2218  -27.2252 C   0  0  0  0  0  0  0  0  0  0  0  0
    3.9054   -0.3595  -31.6301 O   0  5  0  0  0  0  0  0  0  0  0  0
    2.7714    2.5708  -28.5246 N   0  3  0  0  0  0  0  0  0  0  0  0
    1.4348    2.8281  -28.9958 C   0  0  0  0  0  0  0  0  0  0  0  0
    0.4160    2.4678  -27.9649 C   0  0  0  0  0  0  0  0  0  0  0  0
    3.7494    3.0297  -29.4645 C   0  0  0  0  0  0  0  0  0  0  0  0
    3.6630    2.1807  -30.7581 C   0  0  0  0  0  0  0  0  0  0  0  0
    3.9521    0.4401  -30.3799 S   0  0  1  0  0  0  0  0  0  0  0  0
  1  3  1  0  0  0  0
  1  9  1  0  0  0  0
  2 12  1  0  0  0  0
  3  5  1  0  0  0  0
  4 12  2  0  0  0  0
  5  7  1  0  0  0  0
  6 12  2  0  0  0  0
  7  8  1  0  0  0  0
  7 10  1  0  0  0  0
  8  9  1  0  0  0  0
 10 11  1  0  0  0  0
 12 11  1  6  0  0  0
M  CHG  2   6  -1   7   1
M  END
>  <CHROM.1>
171.08833540,-59.24727104,60.10502454,2.92968555,1.70055684,-29.08160660
2.15441379,0.21665274,0.76134182

>  <Name>
ligand

>  <RI>
0

>  <Rbt.Current_Directory>
/home/itssahil/PROJECTS/Mol_Feturizer/New_Systems/rnas/4P95

>  <Rbt.Executable>
rbdock ($Id: //depot/dev/client3/rdock/2013.1/src/exe/rbdock.cxx#4 $)

>  <Rbt.Library>
libRbt.so (2013.1, Build901 2013/11/27)

>  <Rbt.Parameter_File>
/export/apps/rDock/src/rDock_2013.1_src/data/scripts/dock_solv.prm

>  <Rbt.Receptor>
prm/pocket_docking_5.prm

>  <SCORE>
-12.9447

>  <SCORE.INTER>
-10.6427

>  <SCORE.INTER.CONST>
1

>  <SCORE.INTER.POLAR>
0

>  <SCORE.INTER.ROT>
3

>  <SCORE.INTER.SOLV>
6.47464

>  <SCORE.INTER.VDW>
-14.8534

>  <SCORE.INTER.norm>
-0.886892

>  <SCORE.INTRA>
-2.30199

>  <SCORE.INTRA.DIHEDRAL>
-0.178113

>  <SCORE.INTRA.DIHEDRAL.0>
0.283163

>  <SCORE.INTRA.POLAR>
0

>  <SCORE.INTRA.POLAR.0>
0

>  <SCORE.INTRA.REPUL>
0

>  <SCORE.INTRA.REPUL.0>
0

>  <SCORE.INTRA.SOLV>
-0.449742

>  <SCORE.INTRA.SOLV.lig_0>
-32.2894

>  <SCORE.INTRA.VDW>
-1.98806

>  <SCORE.INTRA.VDW.0>
2.0241

>  <SCORE.INTRA.norm>
-0.191832

>  <SCORE.RESTR>
0

>  <SCORE.RESTR.CAVITY>
0

>  <SCORE.RESTR.norm>
0

>  <SCORE.SYSTEM>
0

>  <SCORE.SYSTEM.CONST>
0

>  <SCORE.SYSTEM.DIHEDRAL>
0

>  <SCORE.SYSTEM.SOLV>
0

>  <SCORE.SYSTEM.norm>
0

>  <SCORE.heavy>
12

>  <SCORE.norm>
-1.07872

>  <RMSD>
3.809

$$$$
ligand
 OpenBabel11021811513D
libRbt.so/2013.1/901 2013/11/27
 12 12  0  0  0  0  0  0  0  0999 V2000
    0.7191    3.0492  -26.5228 O   0  0  0  0  0  0  0  0  0  0  0  0
    3.2106    0.0689  -29.3911 O   0  0  0  0  0  0  0  0  0  0  0  0
    2.0770    2.9444  -26.3118 C   0  0  0  0  0  0  0  0  0  0  0  0
    5.6054   -0.0863  -29.8241 O   0  0  0  0  0  0  0  0  0  0  0  0
    2.8869    3.3038  -27.4890 C   0  0  0  0  0  0  0  0  0  0  0  0
    4.0763    0.3891  -31.6523 O   0  5  0  0  0  0  0  0  0  0  0  0
    2.4335    2.6033  -28.6979 N   0  3  0  0  0  0  0  0  0  0  0  0
    1.0159    2.7863  -28.8760 C   0  0  0  0  0  0  0  0  0  0  0  0
    0.2604    2.4141  -27.6426 C   0  0  0  0  0  0  0  0  0  0  0  0
    3.1637    3.0750  -29.8357 C   0  0  0  0  0  0  0  0  0  0  0  0
    4.5457    2.3759  -29.8904 C   0  0  0  0  0  0  0  0  0  0  0  0
    4.3379    0.6117  -30.2078 S   0  0  1  0  0  0  0  0  0  0  0  0
  1  3  1  0  0  0  0
  1  9  1  0  0  0  0
  2 12  1  0  0  0  0
  3  5  1  0  0  0  0
  4 12  2  0  0  0  0
  5  7  1  0  0  0  0
  6 12  2  0  0  0  0
  7  8  1  0  0  0  0
  7 10  1  0  0  0  0
  8  9  1  0  0  0  0
 10 11  1  0  0  0  0
 12 11  1  1  0  0  0
M  CHG  2   6  -1   7   1
M  END
>  <CHROM.1>
80.61673922,66.25954032,-42.68808729,3.02020674,1.79096210,-29.00651394,-2.26325565
0.12239386,-2.12688758

>  <Name>
ligand

>  <RI>
0

>  <Rbt.Current_Directory>
/home/itssahil/PROJECTS/Mol_Feturizer/New_Systems/rnas/4P95

>  <Rbt.Executable>
rbdock ($Id: //depot/dev/client3/rdock/2013.1/src/exe/rbdock.cxx#4 $)

>  <Rbt.Library>
libRbt.so (2013.1, Build901 2013/11/27)

>  <Rbt.Parameter_File>
/export/apps/rDock/src/rDock_2013.1_src/data/scripts/dock_solv.prm

>  <Rbt.Receptor>
prm/pocket_docking_8.prm

>  <SCORE>
-14.1607

>  <SCORE.INTER>
-12.2343

>  <SCORE.INTER.CONST>
1

>  <SCORE.INTER.POLAR>
0

>  <SCORE.INTER.ROT>
3

>  <SCORE.INTER.SOLV>
6.27624

>  <SCORE.INTER.VDW>
-15.8483

>  <SCORE.INTER.norm>
-1.01953

>  <SCORE.INTRA>
-1.92639

>  <SCORE.INTRA.DIHEDRAL>
1.30381

>  <SCORE.INTRA.DIHEDRAL.0>
0.283163

>  <SCORE.INTRA.POLAR>
0

>  <SCORE.INTRA.POLAR.0>
0

>  <SCORE.INTRA.REPUL>
0

>  <SCORE.INTRA.REPUL.0>
0

>  <SCORE.INTRA.SOLV>
0.224683

>  <SCORE.INTRA.SOLV.lig_0>
-32.2894

>  <SCORE.INTRA.VDW>
-2.69064

>  <SCORE.INTRA.VDW.0>
2.0241

>  <SCORE.INTRA.norm>
-0.160533

>  <SCORE.RESTR>
0

>  <SCORE.RESTR.CAVITY>
0

>  <SCORE.RESTR.norm>
0

>  <SCORE.SYSTEM>
0

>  <SCORE.SYSTEM.CONST>
0

>  <SCORE.SYSTEM.DIHEDRAL>
0

>  <SCORE.SYSTEM.SOLV>
0

>  <SCORE.SYSTEM.norm>
0

>  <SCORE.heavy>
12

>  <SCORE.norm>
-1.18006

>  <RMSD>
3.818

$$$$
ligand
 OpenBabel11021811513D
libRbt.so/2013.1/901 2013/11/27
 12 12  0  0  0  0  0  0  0  0999 V2000
    0.7791    2.9372  -26.4852 O   0  0  0  0  0  0  0  0  0  0  0  0
    3.7185    0.2180  -29.5326 O   0  0  0  0  0  0  0  0  0  0  0  0
    2.1464    2.8936  -26.3187 C   0  0  0  0  0  0  0  0  0  0  0  0
    5.5864    1.5644  -30.3353 O   0  0  0  0  0  0  0  0  0  0  0  0
    2.8992    3.3970  -27.4809 C   0  0  0  0  0  0  0  0  0  0  0  0
    4.3636    0.1492  -31.8871 O   0  5  0  0  0  0  0  0  0  0  0  0
    2.4488    2.7757  -28.7335 N   0  3  0  0  0  0  0  0  0  0  0  0
    1.0186    2.8909  -28.8591 C   0  0  0  0  0  0  0  0  0  0  0  0
    0.3225    2.3732  -27.6433 C   0  0  0  0  0  0  0  0  0  0  0  0
    3.1171    3.3829  -29.8449 C   0  0  0  0  0  0  0  0  0  0  0  0
    3.1366    2.3961  -31.0397 C   0  0  0  0  0  0  0  0  0  0  0  0
    4.2397    1.0126  -30.6855 S   0  0  1  0  0  0  0  0  0  0  0  0
  1  3  1  0  0  0  0
  1  9  1  0  0  0  0
  2 12  1  0  0  0  0
  3  5  1  0  0  0  0
  4 12  2  0  0  0  0
  5  7  1  0  0  0  0
  6 12  2  0  0  0  0
  7  8  1  0  0  0  0
  7 10  1  0  0  0  0
  8  9  1  0  0  0  0
 10 11  1  0  0  0  0
 12 11  1  6  0  0  0
M  CHG  2   6  -1   7   1
M  END
>  <CHROM.1>
155.92416052,-69.67765514,64.45444328,2.97945660,2.02020392,-29.24035057
-2.21206928,0.12157358,-1.97402496

>  <Name>
ligand

>  <RI>
0

>  <Rbt.Current_Directory>
/home/itssahil/PROJECTS/Mol_Feturizer/New_Systems/rnas/4P95

>  <Rbt.Executable>
rbdock ($Id: //depot/dev/client3/rdock/2013.1/src/exe/rbdock.cxx#4 $)

>  <Rbt.Library>
libRbt.so (2013.1, Build901 2013/11/27)

>  <Rbt.Parameter_File>
/export/apps/rDock/src/rDock_2013.1_src/data/scripts/dock_solv.prm

>  <Rbt.Receptor>
prm/pocket_docking_4.prm

>  <SCORE>
-11.3299

>  <SCORE.INTER>
-8.70309

>  <SCORE.INTER.CONST>
1

>  <SCORE.INTER.POLAR>
0

>  <SCORE.INTER.ROT>
3

>  <SCORE.INTER.SOLV>
6.0725

>  <SCORE.INTER.VDW>
-13.4262

>  <SCORE.INTER.norm>
-0.725258

>  <SCORE.INTRA>
-2.62685

>  <SCORE.INTRA.DIHEDRAL>
0.897649

>  <SCORE.INTRA.DIHEDRAL.0>
0.283163

>  <SCORE.INTRA.POLAR>
0

>  <SCORE.INTRA.POLAR.0>
0

>  <SCORE.INTRA.REPUL>
0

>  <SCORE.INTRA.REPUL.0>
0

>  <SCORE.INTRA.SOLV>
-0.461333

>  <SCORE.INTRA.SOLV.lig_0>
-32.2894

>  <SCORE.INTRA.VDW>
-2.84501

>  <SCORE.INTRA.VDW.0>
2.0241

>  <SCORE.INTRA.norm>
-0.218904

>  <SCORE.RESTR>
0

>  <SCORE.RESTR.CAVITY>
0

>  <SCORE.RESTR.norm>
0

>  <SCORE.SYSTEM>
0

>  <SCORE.SYSTEM.CONST>
0

>  <SCORE.SYSTEM.DIHEDRAL>
0

>  <SCORE.SYSTEM.SOLV>
0

>  <SCORE.SYSTEM.norm>
0

>  <SCORE.heavy>
12

>  <SCORE.norm>
-0.944162

>  <RMSD>
3.819

$$$$
ligand
 OpenBabel11021811513D
libRbt.so/2013.1/901 2013/11/27
 12 12  0  0  0  0  0  0  0  0999 V2000
    0.6318    2.8966  -26.7822 O   0  0  0  0  0  0  0  0  0  0  0  0
    2.9672    0.8770  -31.7142 O   0  0  0  0  0  0  0  0  0  0  0  0
    1.9330    2.9133  -26.3286 C   0  0  0  0  0  0  0  0  0  0  0  0
    3.0734   -0.0337  -29.4545 O   0  0  0  0  0  0  0  0  0  0  0  0
    2.9088    3.3343  -27.3491 C   0  0  0  0  0  0  0  0  0  0  0  0
    4.9012   -0.4350  -31.0051 O   0  5  0  0  0  0  0  0  0  0  0  0
    2.7429    2.5879  -28.6034 N   0  3  0  0  0  0  0  0  0  0  0  0
    1.3706    2.6441  -29.0373 C   0  0  0  0  0  0  0  0  0  0  0  0
    0.4390    2.2156  -27.9513 C   0  0  0  0  0  0  0  0  0  0  0  0
    3.6240    3.1140  -29.6021 C   0  0  0  0  0  0  0  0  0  0  0  0
    4.6847    2.0462  -29.9714 C   0  0  0  0  0  0  0  0  0  0  0  0
    3.8767    0.5498  -30.5748 S   0  0  1  0  0  0  0  0  0  0  0  0
  1  3  1  0  0  0  0
  1  9  1  0  0  0  0
  2 12  1  0  0  0  0
  3  5  1  0  0  0  0
  4 12  2  0  0  0  0
  5  7  1  0  0  0  0
  6 12  2  0  0  0  0
  7  8  1  0  0  0  0
  7 10  1  0  0  0  0
  8  9  1  0  0  0  0
 10 11  1  0  0  0  0
 12 11  1  1  0  0  0
M  CHG  2   6  -1   7   1
M  END
>  <CHROM.1>
114.15747169,58.51451502,55.01395249,2.87152299,1.72444588,-29.20329085,2.15359223
0.32502923,0.75699409

>  <Name>
ligand

>  <RI>
0

>  <Rbt.Current_Directory>
/home/itssahil/PROJECTS/Mol_Feturizer/New_Systems/rnas/4P95

>  <Rbt.Executable>
rbdock ($Id: //depot/dev/client3/rdock/2013.1/src/exe/rbdock.cxx#4 $)

>  <Rbt.Library>
libRbt.so (2013.1, Build901 2013/11/27)

>  <Rbt.Parameter_File>
/export/apps/rDock/src/rDock_2013.1_src/data/scripts/dock_solv.prm

>  <Rbt.Receptor>
prm/pocket_docking_5.prm

>  <SCORE>
-12.7367

>  <SCORE.INTER>
-10.3543

>  <SCORE.INTER.CONST>
1

>  <SCORE.INTER.POLAR>
0

>  <SCORE.INTER.ROT>
3

>  <SCORE.INTER.SOLV>
7.30054

>  <SCORE.INTER.VDW>
-14.9364

>  <SCORE.INTER.norm>
-0.862861

>  <SCORE.INTRA>
-2.38232

>  <SCORE.INTRA.DIHEDRAL>
2.13295

>  <SCORE.INTRA.DIHEDRAL.0>
0.283163

>  <SCORE.INTRA.POLAR>
0

>  <SCORE.INTRA.POLAR.0>
0

>  <SCORE.INTRA.REPUL>
0

>  <SCORE.INTRA.REPUL.0>
0

>  <SCORE.INTRA.SOLV>
0.189024

>  <SCORE.INTRA.SOLV.lig_0>
-32.2894

>  <SCORE.INTRA.VDW>
-3.54331

>  <SCORE.INTRA.VDW.0>
2.0241

>  <SCORE.INTRA.norm>
-0.198527

>  <SCORE.RESTR>
0

>  <SCORE.RESTR.CAVITY>
0

>  <SCORE.RESTR.norm>
0

>  <SCORE.SYSTEM>
0

>  <SCORE.SYSTEM.CONST>
0

>  <SCORE.SYSTEM.DIHEDRAL>
0

>  <SCORE.SYSTEM.SOLV>
0

>  <SCORE.SYSTEM.norm>
0

>  <SCORE.heavy>
12

>  <SCORE.norm>
-1.06139

>  <RMSD>
3.819

$$$$
ligand
 OpenBabel11021811513D
libRbt.so/2013.1/901 2013/11/27
 12 12  0  0  0  0  0  0  0  0999 V2000
    0.6978    2.9036  -26.5540 O   0  0  0  0  0  0  0  0  0  0  0  0
    3.4985    0.2374  -29.5139 O   0  0  0  0  0  0  0  0  0  0  0  0
    2.0533    2.8729  -26.3067 C   0  0  0  0  0  0  0  0  0  0  0  0
    5.8416    0.3010  -30.1864 O   0  0  0  0  0  0  0  0  0  0  0  0
    2.8698    3.3637  -27.4306 C   0  0  0  0  0  0  0  0  0  0  0  0
    4.1083    0.8639  -31.7943 O   0  5  0  0  0  0  0  0  0  0  0  0
    2.4981    2.7194  -28.6974 N   0  3  0  0  0  0  0  0  0  0  0  0
    1.0770    2.8219  -28.9087 C   0  0  0  0  0  0  0  0  0  0  0  0
    0.3140    2.3180  -27.7277 C   0  0  0  0  0  0  0  0  0  0  0  0
    3.2266    3.3141  -29.7772 C   0  0  0  0  0  0  0  0  0  0  0  0
    4.6352    2.6741  -29.8662 C   0  0  0  0  0  0  0  0  0  0  0  0
    4.5021    0.9450  -30.3650 S   0  0  1  0  0  0  0  0  0  0  0  0
  1  3  1  0  0  0  0
  1  9  1  0  0  0  0
  2 12  1  0  0  0  0
  3  5  1  0  0  0  0
  4 12  2  0  0  0  0
  5  7  1  0  0  0  0
  6 12  2  0  0  0  0
  7  8  1  0  0  0  0
  7 10  1  0  0  0  0
  8  9  1  0  0  0  0
 10 11  1  0  0  0  0
 12 11  1  1  0  0  0
M  CHG  2   6  -1   7   1
M  END
>  <CHROM.1>
82.69202838,67.24596299,-49.94208805,3.11238458,1.96088487,-29.08459867,2.29430009
0.02327625,1.00251994

>  <Name>
ligand

>  <RI>
0

>  <Rbt.Current_Directory>
/home/itssahil/PROJECTS/Mol_Feturizer/New_Systems/rnas/4P95

>  <Rbt.Executable>
rbdock ($Id: //depot/dev/client3/rdock/2013.1/src/exe/rbdock.cxx#4 $)

>  <Rbt.Library>
libRbt.so (2013.1, Build901 2013/11/27)

>  <Rbt.Parameter_File>
/export/apps/rDock/src/rDock_2013.1_src/data/scripts/dock_solv.prm

>  <Rbt.Receptor>
prm/pocket_docking_4.prm

>  <SCORE>
-14.5145

>  <SCORE.INTER>
-12.4289

>  <SCORE.INTER.CONST>
1

>  <SCORE.INTER.POLAR>
0

>  <SCORE.INTER.ROT>
3

>  <SCORE.INTER.SOLV>
6.32977

>  <SCORE.INTER.VDW>
-15.9959

>  <SCORE.INTER.norm>
-1.03574

>  <SCORE.INTRA>
-2.08553

>  <SCORE.INTRA.DIHEDRAL>
1.00982

>  <SCORE.INTRA.DIHEDRAL.0>
0.283163

>  <SCORE.INTRA.POLAR>
0

>  <SCORE.INTRA.POLAR.0>
0

>  <SCORE.INTRA.REPUL>
0

>  <SCORE.INTRA.REPUL.0>
0

>  <SCORE.INTRA.SOLV>
0.515771

>  <SCORE.INTRA.SOLV.lig_0>
-32.2894

>  <SCORE.INTRA.VDW>
-2.84833

>  <SCORE.INTRA.VDW.0>
2.0241

>  <SCORE.INTRA.norm>
-0.173794

>  <SCORE.RESTR>
0

>  <SCORE.RESTR.CAVITY>
0

>  <SCORE.RESTR.norm>
0

>  <SCORE.SYSTEM>
0

>  <SCORE.SYSTEM.CONST>
0

>  <SCORE.SYSTEM.DIHEDRAL>
0

>  <SCORE.SYSTEM.SOLV>
0

>  <SCORE.SYSTEM.norm>
0

>  <SCORE.heavy>
12

>  <SCORE.norm>
-1.20954

>  <RMSD>
3.820

$$$$
ligand
 OpenBabel11021811513D
libRbt.so/2013.1/901 2013/11/27
 12 12  0  0  0  0  0  0  0  0999 V2000
    0.6846    2.9741  -26.6794 O   0  0  0  0  0  0  0  0  0  0  0  0
    3.0023    0.7245  -31.6806 O   0  0  0  0  0  0  0  0  0  0  0  0
    2.0098    2.9523  -26.3015 C   0  0  0  0  0  0  0  0  0  0  0  0
    3.1290   -0.1014  -29.3897 O   0  0  0  0  0  0  0  0  0  0  0  0
    2.9378    3.3340  -27.3804 C   0  0  0  0  0  0  0  0  0  0  0  0
    4.9945   -0.4570  -30.9062 O   0  5  0  0  0  0  0  0  0  0  0  0
    2.6761    2.5839  -28.6161 N   0  3  0  0  0  0  0  0  0  0  0  0
    1.2834    2.6810  -28.9707 C   0  0  0  0  0  0  0  0  0  0  0  0
    0.4031    2.2909  -27.8290 C   0  0  0  0  0  0  0  0  0  0  0  0
    3.5142    3.0738  -29.6687 C   0  0  0  0  0  0  0  0  0  0  0  0
    4.6336    2.0430  -29.9618 C   0  0  0  0  0  0  0  0  0  0  0  0
    3.9138    0.4856  -30.5211 S   0  0  1  0  0  0  0  0  0  0  0  0
  1  3  1  0  0  0  0
  1  9  1  0  0  0  0
  2 12  1  0  0  0  0
  3  5  1  0  0  0  0
  4 12  2  0  0  0  0
  5  7  1  0  0  0  0
  6 12  2  0  0  0  0
  7  8  1  0  0  0  0
  7 10  1  0  0  0  0
  8  9  1  0  0  0  0
 10 11  1  0  0  0  0
 12 11  1  1  0  0  0
M  CHG  2   6  -1   7   1
M  END
>  <CHROM.1>
106.82333408,61.95306965,53.85846434,2.87945846,1.70777447,-29.16140590,2.15209755
0.31012984,0.74300254

>  <Name>
ligand

>  <RI>
0

>  <Rbt.Current_Directory>
/home/itssahil/PROJECTS/Mol_Feturizer/New_Systems/rnas/4P95

>  <Rbt.Executable>
rbdock ($Id: //depot/dev/client3/rdock/2013.1/src/exe/rbdock.cxx#4 $)

>  <Rbt.Library>
libRbt.so (2013.1, Build901 2013/11/27)

>  <Rbt.Parameter_File>
/export/apps/rDock/src/rDock_2013.1_src/data/scripts/dock_solv.prm

>  <Rbt.Receptor>
prm/pocket_docking_4.prm

>  <SCORE>
-12.8329

>  <SCORE.INTER>
-10.3739

>  <SCORE.INTER.CONST>
1

>  <SCORE.INTER.POLAR>
0

>  <SCORE.INTER.ROT>
3

>  <SCORE.INTER.SOLV>
7.60342

>  <SCORE.INTER.VDW>
-15.0504

>  <SCORE.INTER.norm>
-0.86449

>  <SCORE.INTRA>
-2.45898

>  <SCORE.INTRA.DIHEDRAL>
1.97201

>  <SCORE.INTRA.DIHEDRAL.0>
0.283163

>  <SCORE.INTRA.POLAR>
0

>  <SCORE.INTRA.POLAR.0>
0

>  <SCORE.INTRA.REPUL>
0

>  <SCORE.INTRA.REPUL.0>
0

>  <SCORE.INTRA.SOLV>
0.103326

>  <SCORE.INTRA.SOLV.lig_0>
-32.2894

>  <SCORE.INTRA.VDW>
-3.49665

>  <SCORE.INTRA.VDW.0>
2.0241

>  <SCORE.INTRA.norm>
-0.204915

>  <SCORE.RESTR>
0

>  <SCORE.RESTR.CAVITY>
0

>  <SCORE.RESTR.norm>
0

>  <SCORE.SYSTEM>
0

>  <SCORE.SYSTEM.CONST>
0

>  <SCORE.SYSTEM.DIHEDRAL>
0

>  <SCORE.SYSTEM.SOLV>
0

>  <SCORE.SYSTEM.norm>
0

>  <SCORE.heavy>
12

>  <SCORE.norm>
-1.06941

>  <RMSD>
3.821

$$$$
ligand
 OpenBabel11021811513D
libRbt.so/2013.1/901 2013/11/27
 12 12  0  0  0  0  0  0  0  0999 V2000
    0.5561    2.7849  -26.6831 O   0  0  0  0  0  0  0  0  0  0  0  0
    3.4256    0.2641  -29.5269 O   0  0  0  0  0  0  0  0  0  0  0  0
    1.8891    2.8946  -26.3508 C   0  0  0  0  0  0  0  0  0  0  0  0
    5.7836    0.2563  -30.1486 O   0  0  0  0  0  0  0  0  0  0  0  0
    2.7279    3.4230  -27.4408 C   0  0  0  0  0  0  0  0  0  0  0  0
    4.1020    0.8533  -31.7985 O   0  5  0  0  0  0  0  0  0  0  0  0
    2.5031    2.7022  -28.7009 N   0  3  0  0  0  0  0  0  0  0  0  0
    1.0957    2.6589  -29.0043 C   0  0  0  0  0  0  0  0  0  0  0  0
    0.3076    2.1246  -27.8535 C   0  0  0  0  0  0  0  0  0  0  0  0
    3.2417    3.3271  -29.7566 C   0  0  0  0  0  0  0  0  0  0  0  0
    4.6379    2.6649  -29.8742 C   0  0  0  0  0  0  0  0  0  0  0  0
    4.4670    0.9359  -30.3616 S   0  0  1  0  0  0  0  0  0  0  0  0
  1  3  1  0  0  0  0
  1  9  1  0  0  0  0
  2 12  1  0  0  0  0
  3  5  1  0  0  0  0
  4 12  2  0  0  0  0
  5  7  1  0  0  0  0
  6 12  2  0  0  0  0
  7  8  1  0  0  0  0
  7 10  1  0  0  0  0
  8  9  1  0  0  0  0
 10 11  1  0  0  0  0
 12 11  1  1  0  0  0
M  CHG  2   6  -1   7   1
M  END
>  <CHROM.1>
91.51802418,64.35060762,-47.29298615,3.06403183,1.92638334,-29.11223441,2.35200427
0.29010648,0.75252008

>  <Name>
ligand

>  <RI>
0

>  <Rbt.Current_Directory>
/home/itssahil/PROJECTS/Mol_Feturizer/New_Systems/rnas/4P95

>  <Rbt.Executable>
rbdock ($Id: //depot/dev/client3/rdock/2013.1/src/exe/rbdock.cxx#4 $)

>  <Rbt.Library>
libRbt.so (2013.1, Build901 2013/11/27)

>  <Rbt.Parameter_File>
/export/apps/rDock/src/rDock_2013.1_src/data/scripts/dock_solv.prm

>  <Rbt.Receptor>
prm/pocket_docking_5.prm

>  <SCORE>
-14.4626

>  <SCORE.INTER>
-12.4698

>  <SCORE.INTER.CONST>
1

>  <SCORE.INTER.POLAR>
0

>  <SCORE.INTER.ROT>
3

>  <SCORE.INTER.SOLV>
6.2226

>  <SCORE.INTER.VDW>
-15.9874

>  <SCORE.INTER.norm>
-1.03915

>  <SCORE.INTRA>
-1.99278

>  <SCORE.INTRA.DIHEDRAL>
1.57847

>  <SCORE.INTRA.DIHEDRAL.0>
0.283163

>  <SCORE.INTRA.POLAR>
0

>  <SCORE.INTRA.POLAR.0>
0

>  <SCORE.INTRA.REPUL>
0

>  <SCORE.INTRA.REPUL.0>
0

>  <SCORE.INTRA.SOLV>
0.588992

>  <SCORE.INTRA.SOLV.lig_0>
-32.2894

>  <SCORE.INTRA.VDW>
-3.07651

>  <SCORE.INTRA.VDW.0>
2.0241

>  <SCORE.INTRA.norm>
-0.166065

>  <SCORE.RESTR>
0

>  <SCORE.RESTR.CAVITY>
0

>  <SCORE.RESTR.norm>
0

>  <SCORE.SYSTEM>
0

>  <SCORE.SYSTEM.CONST>
0

>  <SCORE.SYSTEM.DIHEDRAL>
0

>  <SCORE.SYSTEM.SOLV>
0

>  <SCORE.SYSTEM.norm>
0

>  <SCORE.heavy>
12

>  <SCORE.norm>
-1.20522

>  <RMSD>
3.821

$$$$
ligand
 OpenBabel11021811513D
libRbt.so/2013.1/901 2013/11/27
 12 12  0  0  0  0  0  0  0  0999 V2000
    0.5490    2.8029  -26.6699 O   0  0  0  0  0  0  0  0  0  0  0  0
    3.4305    0.2400  -29.4974 O   0  0  0  0  0  0  0  0  0  0  0  0
    1.8834    2.8981  -26.3388 C   0  0  0  0  0  0  0  0  0  0  0  0
    5.7844    0.2387  -30.1343 O   0  0  0  0  0  0  0  0  0  0  0  0
    2.7273    3.4150  -27.4304 C   0  0  0  0  0  0  0  0  0  0  0  0
    4.0906    0.8325  -31.7729 O   0  5  0  0  0  0  0  0  0  0  0  0
    2.4934    2.6944  -28.6889 N   0  3  0  0  0  0  0  0  0  0  0  0
    1.0854    2.6664  -28.9912 C   0  0  0  0  0  0  0  0  0  0  0  0
    0.2922    2.1432  -27.8389 C   0  0  0  0  0  0  0  0  0  0  0  0
    3.2381    3.3089  -29.7464 C   0  0  0  0  0  0  0  0  0  0  0  0
    4.6342    2.6442  -29.8508 C   0  0  0  0  0  0  0  0  0  0  0  0
    4.4647    0.9151  -30.3383 S   0  0  1  0  0  0  0  0  0  0  0  0
  1  3  1  0  0  0  0
  1  9  1  0  0  0  0
  2 12  1  0  0  0  0
  3  5  1  0  0  0  0
  4 12  2  0  0  0  0
  5  7  1  0  0  0  0
  6 12  2  0  0  0  0
  7  8  1  0  0  0  0
  7 10  1  0  0  0  0
  8  9  1  0  0  0  0
 10 11  1  0  0  0  0
 12 11  1  1  0  0  0
M  CHG  2   6  -1   7   1
M  END
>  <CHROM.1>
90.72940092,64.87359509,-48.22343316,3.05904942,1.91746205,-29.09466114,2.34657642
0.26888036,0.76514980

>  <Name>
ligand

>  <RI>
0

>  <Rbt.Current_Directory>
/home/itssahil/PROJECTS/Mol_Feturizer/New_Systems/rnas/4P95

>  <Rbt.Executable>
rbdock ($Id: //depot/dev/client3/rdock/2013.1/src/exe/rbdock.cxx#4 $)

>  <Rbt.Library>
libRbt.so (2013.1, Build901 2013/11/27)

>  <Rbt.Parameter_File>
/export/apps/rDock/src/rDock_2013.1_src/data/scripts/dock_solv.prm

>  <Rbt.Receptor>
prm/pocket_docking_5.prm

>  <SCORE>
-14.4684

>  <SCORE.INTER>
-12.4462

>  <SCORE.INTER.CONST>
1

>  <SCORE.INTER.POLAR>
0

>  <SCORE.INTER.ROT>
3

>  <SCORE.INTER.SOLV>
6.23016

>  <SCORE.INTER.VDW>
-15.9742

>  <SCORE.INTER.norm>
-1.03718

>  <SCORE.INTRA>
-2.02221

>  <SCORE.INTRA.DIHEDRAL>
1.49252

>  <SCORE.INTRA.DIHEDRAL.0>
0.283163

>  <SCORE.INTRA.POLAR>
0

>  <SCORE.INTRA.POLAR.0>
0

>  <SCORE.INTRA.REPUL>
0

>  <SCORE.INTRA.REPUL.0>
0

>  <SCORE.INTRA.SOLV>
0.604311

>  <SCORE.INTRA.SOLV.lig_0>
-32.2894

>  <SCORE.INTRA.VDW>
-3.07062

>  <SCORE.INTRA.VDW.0>
2.0241

>  <SCORE.INTRA.norm>
-0.168517

>  <SCORE.RESTR>
0

>  <SCORE.RESTR.CAVITY>
0

>  <SCORE.RESTR.norm>
0

>  <SCORE.SYSTEM>
0

>  <SCORE.SYSTEM.CONST>
0

>  <SCORE.SYSTEM.DIHEDRAL>
0

>  <SCORE.SYSTEM.SOLV>
0

>  <SCORE.SYSTEM.norm>
0

>  <SCORE.heavy>
12

>  <SCORE.norm>
-1.2057

>  <RMSD>
3.829

$$$$
ligand
 OpenBabel11021811513D
libRbt.so/2013.1/901 2013/11/27
 12 12  0  0  0  0  0  0  0  0999 V2000
    0.7014    2.9477  -26.7171 O   0  0  0  0  0  0  0  0  0  0  0  0
    2.7745    1.0013  -31.6589 O   0  0  0  0  0  0  0  0  0  0  0  0
    2.0160    2.9413  -26.3036 C   0  0  0  0  0  0  0  0  0  0  0  0
    3.1499   -0.0552  -29.4934 O   0  0  0  0  0  0  0  0  0  0  0  0
    2.9654    3.3662  -27.3472 C   0  0  0  0  0  0  0  0  0  0  0  0
    4.8030   -0.2984  -31.2582 O   0  5  0  0  0  0  0  0  0  0  0  0
    2.7516    2.6418  -28.6072 N   0  3  0  0  0  0  0  0  0  0  0  0
    1.3674    2.7217  -28.9975 C   0  0  0  0  0  0  0  0  0  0  0  0
    0.4642    2.2876  -27.8900 C   0  0  0  0  0  0  0  0  0  0  0  0
    3.6082    3.1726  -29.6244 C   0  0  0  0  0  0  0  0  0  0  0  0
    4.6488    2.1007  -30.0365 C   0  0  0  0  0  0  0  0  0  0  0  0
    3.8115    0.6251  -30.6511 S   0  0  1  0  0  0  0  0  0  0  0  0
  1  3  1  0  0  0  0
  1  9  1  0  0  0  0
  2 12  1  0  0  0  0
  3  5  1  0  0  0  0
  4 12  2  0  0  0  0
  5  7  1  0  0  0  0
  6 12  2  0  0  0  0
  7  8  1  0  0  0  0
  7 10  1  0  0  0  0
  8  9  1  0  0  0  0
 10 11  1  0  0  0  0
 12 11  1  1  0  0  0
M  CHG  2   6  -1   7   1
M  END
>  <CHROM.1>
113.81691070,59.13291966,48.81723269,2.85738070,1.78799719,-29.22736626,2.12328691
0.33513108,0.78561926

>  <Name>
ligand

>  <RI>
0

>  <Rbt.Current_Directory>
/home/itssahil/PROJECTS/Mol_Feturizer/New_Systems/rnas/4P95

>  <Rbt.Executable>
rbdock ($Id: //depot/dev/client3/rdock/2013.1/src/exe/rbdock.cxx#4 $)

>  <Rbt.Library>
libRbt.so (2013.1, Build901 2013/11/27)

>  <Rbt.Parameter_File>
/export/apps/rDock/src/rDock_2013.1_src/data/scripts/dock_solv.prm

>  <Rbt.Receptor>
prm/pocket_docking_7.prm

>  <SCORE>
-12.7812

>  <SCORE.INTER>
-10.3924

>  <SCORE.INTER.CONST>
1

>  <SCORE.INTER.POLAR>
0

>  <SCORE.INTER.ROT>
3

>  <SCORE.INTER.SOLV>
6.82792

>  <SCORE.INTER.VDW>
-14.8042

>  <SCORE.INTER.norm>
-0.86603

>  <SCORE.INTRA>
-2.38888

>  <SCORE.INTRA.DIHEDRAL>
2.34154

>  <SCORE.INTRA.DIHEDRAL.0>
0.283163

>  <SCORE.INTRA.POLAR>
0

>  <SCORE.INTRA.POLAR.0>
0

>  <SCORE.INTRA.REPUL>
0

>  <SCORE.INTRA.REPUL.0>
0

>  <SCORE.INTRA.SOLV>
0.0727681

>  <SCORE.INTRA.SOLV.lig_0>
-32.2894

>  <SCORE.INTRA.VDW>
-3.59604

>  <SCORE.INTRA.VDW.0>
2.0241

>  <SCORE.INTRA.norm>
-0.199074

>  <SCORE.RESTR>
0

>  <SCORE.RESTR.CAVITY>
0

>  <SCORE.RESTR.norm>
0

>  <SCORE.SYSTEM>
0

>  <SCORE.SYSTEM.CONST>
0

>  <SCORE.SYSTEM.DIHEDRAL>
0

>  <SCORE.SYSTEM.SOLV>
0

>  <SCORE.SYSTEM.norm>
0

>  <SCORE.heavy>
12

>  <SCORE.norm>
-1.0651

>  <RMSD>
3.832

$$$$
ligand
 OpenBabel11021811513D
libRbt.so/2013.1/901 2013/11/27
 12 12  0  0  0  0  0  0  0  0999 V2000
    0.7071    2.8982  -26.5121 O   0  0  0  0  0  0  0  0  0  0  0  0
    3.3975    0.2332  -29.4978 O   0  0  0  0  0  0  0  0  0  0  0  0
    2.0641    2.8721  -26.2726 C   0  0  0  0  0  0  0  0  0  0  0  0
    5.7384    0.2188  -30.1809 O   0  0  0  0  0  0  0  0  0  0  0  0
    2.8728    3.3608  -27.4031 C   0  0  0  0  0  0  0  0  0  0  0  0
    4.0157    0.8185  -31.7868 O   0  5  0  0  0  0  0  0  0  0  0  0
    2.4954    2.7109  -28.6653 N   0  3  0  0  0  0  0  0  0  0  0  0
    1.0728    2.8088  -28.8686 C   0  0  0  0  0  0  0  0  0  0  0  0
    0.3181    2.3073  -27.6814 C   0  0  0  0  0  0  0  0  0  0  0  0
    3.2160    3.3035  -29.7515 C   0  0  0  0  0  0  0  0  0  0  0  0
    4.6062    2.6306  -29.8791 C   0  0  0  0  0  0  0  0  0  0  0  0
    4.4183    0.9016  -30.3601 S   0  0  1  0  0  0  0  0  0  0  0  0
  1  3  1  0  0  0  0
  1  9  1  0  0  0  0
  2 12  1  0  0  0  0
  3  5  1  0  0  0  0
  4 12  2  0  0  0  0
  5  7  1  0  0  0  0
  6 12  2  0  0  0  0
  7  8  1  0  0  0  0
  7 10  1  0  0  0  0
  8  9  1  0  0  0  0
 10 11  1  0  0  0  0
 12 11  1  1  0  0  0
M  CHG  2   6  -1   7   1
M  END
>  <CHROM.1>
84.75622155,65.85580422,-48.35027035,3.07280196,1.93590054,-29.06400607,2.27636182
0.10065405,0.93421292

>  <Name>
ligand

>  <RI>
0

>  <Rbt.Current_Directory>
/home/itssahil/PROJECTS/Mol_Feturizer/New_Systems/rnas/4P95

>  <Rbt.Executable>
rbdock ($Id: //depot/dev/client3/rdock/2013.1/src/exe/rbdock.cxx#4 $)

>  <Rbt.Library>
libRbt.so (2013.1, Build901 2013/11/27)

>  <Rbt.Parameter_File>
/export/apps/rDock/src/rDock_2013.1_src/data/scripts/dock_solv.prm

>  <Rbt.Receptor>
prm/pocket_docking_6.prm

>  <SCORE>
-14.5196

>  <SCORE.INTER>
-12.4372

>  <SCORE.INTER.CONST>
1

>  <SCORE.INTER.POLAR>
0

>  <SCORE.INTER.ROT>
3

>  <SCORE.INTER.SOLV>
6.29839

>  <SCORE.INTER.VDW>
-15.991

>  <SCORE.INTER.norm>
-1.03644

>  <SCORE.INTRA>
-2.08234

>  <SCORE.INTRA.DIHEDRAL>
1.15217

>  <SCORE.INTRA.DIHEDRAL.0>
0.283163

>  <SCORE.INTRA.POLAR>
0

>  <SCORE.INTRA.POLAR.0>
0

>  <SCORE.INTRA.REPUL>
0

>  <SCORE.INTRA.REPUL.0>
0

>  <SCORE.INTRA.SOLV>
0.509379

>  <SCORE.INTRA.SOLV.lig_0>
-32.2894

>  <SCORE.INTRA.VDW>
-2.91311

>  <SCORE.INTRA.VDW.0>
2.0241

>  <SCORE.INTRA.norm>
-0.173528

>  <SCORE.RESTR>
0

>  <SCORE.RESTR.CAVITY>
0

>  <SCORE.RESTR.norm>
0

>  <SCORE.SYSTEM>
0

>  <SCORE.SYSTEM.CONST>
0

>  <SCORE.SYSTEM.DIHEDRAL>
0

>  <SCORE.SYSTEM.SOLV>
0

>  <SCORE.SYSTEM.norm>
0

>  <SCORE.heavy>
12

>  <SCORE.norm>
-1.20997

>  <RMSD>
3.833

$$$$
ligand
 OpenBabel11021811513D
libRbt.so/2013.1/901 2013/11/27
 12 12  0  0  0  0  0  0  0  0999 V2000
    0.5992    2.8842  -26.7779 O   0  0  0  0  0  0  0  0  0  0  0  0
    2.9666    0.8803  -31.7128 O   0  0  0  0  0  0  0  0  0  0  0  0
    1.9028    2.8865  -26.3308 C   0  0  0  0  0  0  0  0  0  0  0  0
    3.0772   -0.0084  -29.4447 O   0  0  0  0  0  0  0  0  0  0  0  0
    2.8753    3.3227  -27.3481 C   0  0  0  0  0  0  0  0  0  0  0  0
    4.9181   -0.3943  -30.9837 O   0  5  0  0  0  0  0  0  0  0  0  0
    2.6996    2.6013  -28.6157 N   0  3  0  0  0  0  0  0  0  0  0  0
    1.3253    2.6719  -29.0412 C   0  0  0  0  0  0  0  0  0  0  0  0
    0.3974    2.2267  -27.9588 C   0  0  0  0  0  0  0  0  0  0  0  0
    3.5778    3.1427  -29.6087 C   0  0  0  0  0  0  0  0  0  0  0  0
    4.6575    2.0923  -29.9733 C   0  0  0  0  0  0  0  0  0  0  0  0
    3.8761    0.5778  -30.5667 S   0  0  1  0  0  0  0  0  0  0  0  0
  1  3  1  0  0  0  0
  1  9  1  0  0  0  0
  2 12  1  0  0  0  0
  3  5  1  0  0  0  0
  4 12  2  0  0  0  0
  5  7  1  0  0  0  0
  6 12  2  0  0  0  0
  7  8  1  0  0  0  0
  7 10  1  0  0  0  0
  8  9  1  0  0  0  0
 10 11  1  0  0  0  0
 12 11  1  1  0  0  0
M  CHG  2   6  -1   7   1
M  END
>  <CHROM.1>
112.48713210,57.91531458,55.41350878,2.85109290,1.74016909,-29.20133070,2.16518317
0.32309240,0.75849240

>  <Name>
ligand

>  <RI>
0

>  <Rbt.Current_Directory>
/home/itssahil/PROJECTS/Mol_Feturizer/New_Systems/rnas/4P95

>  <Rbt.Executable>
rbdock ($Id: //depot/dev/client3/rdock/2013.1/src/exe/rbdock.cxx#4 $)

>  <Rbt.Library>
libRbt.so (2013.1, Build901 2013/11/27)

>  <Rbt.Parameter_File>
/export/apps/rDock/src/rDock_2013.1_src/data/scripts/dock_solv.prm

>  <Rbt.Receptor>
prm/pocket_docking_4.prm

>  <SCORE>
-12.7338

>  <SCORE.INTER>
-10.351

>  <SCORE.INTER.CONST>
1

>  <SCORE.INTER.POLAR>
0

>  <SCORE.INTER.ROT>
3

>  <SCORE.INTER.SOLV>
7.31765

>  <SCORE.INTER.VDW>
-14.9399

>  <SCORE.INTER.norm>
-0.862583

>  <SCORE.INTRA>
-2.38277

>  <SCORE.INTRA.DIHEDRAL>
2.10295

>  <SCORE.INTRA.DIHEDRAL.0>
0.283163

>  <SCORE.INTRA.POLAR>
0

>  <SCORE.INTRA.POLAR.0>
0

>  <SCORE.INTRA.REPUL>
0

>  <SCORE.INTRA.REPUL.0>
0

>  <SCORE.INTRA.SOLV>
0.204457

>  <SCORE.INTRA.SOLV.lig_0>
-32.2894

>  <SCORE.INTRA.VDW>
-3.53647

>  <SCORE.INTRA.VDW.0>
2.0241

>  <SCORE.INTRA.norm>
-0.198564

>  <SCORE.RESTR>
0

>  <SCORE.RESTR.CAVITY>
0

>  <SCORE.RESTR.norm>
0

>  <SCORE.SYSTEM>
0

>  <SCORE.SYSTEM.CONST>
0

>  <SCORE.SYSTEM.DIHEDRAL>
0

>  <SCORE.SYSTEM.SOLV>
0

>  <SCORE.SYSTEM.norm>
0

>  <SCORE.heavy>
12

>  <SCORE.norm>
-1.06115

>  <RMSD>
3.837

$$$$
ligand
 OpenBabel11021811513D
libRbt.so/2013.1/901 2013/11/27
 12 12  0  0  0  0  0  0  0  0999 V2000
    0.5537    2.7565  -26.6674 O   0  0  0  0  0  0  0  0  0  0  0  0
    3.4035    0.2807  -29.5174 O   0  0  0  0  0  0  0  0  0  0  0  0
    1.8818    2.8798  -26.3205 C   0  0  0  0  0  0  0  0  0  0  0  0
    5.7560    0.2425  -30.1582 O   0  0  0  0  0  0  0  0  0  0  0  0
    2.7258    3.4238  -27.3987 C   0  0  0  0  0  0  0  0  0  0  0  0
    4.0708    0.8814  -31.7886 O   0  5  0  0  0  0  0  0  0  0  0  0
    2.5227    2.7073  -28.6649 N   0  3  0  0  0  0  0  0  0  0  0  0
    1.1192    2.6492  -28.9834 C   0  0  0  0  0  0  0  0  0  0  0  0
    0.3253    2.0996  -27.8439 C   0  0  0  0  0  0  0  0  0  0  0  0
    3.2650    3.3463  -29.7094 C   0  0  0  0  0  0  0  0  0  0  0  0
    4.6500    2.6658  -29.8515 C   0  0  0  0  0  0  0  0  0  0  0  0
    4.4485    0.9444  -30.3540 S   0  0  1  0  0  0  0  0  0  0  0  0
  1  3  1  0  0  0  0
  1  9  1  0  0  0  0
  2 12  1  0  0  0  0
  3  5  1  0  0  0  0
  4 12  2  0  0  0  0
  5  7  1  0  0  0  0
  6 12  2  0  0  0  0
  7  8  1  0  0  0  0
  7 10  1  0  0  0  0
  8  9  1  0  0  0  0
 10 11  1  0  0  0  0
 12 11  1  1  0  0  0
M  CHG  2   6  -1   7   1
M  END
>  <CHROM.1>
93.63590118,63.43871924,-47.01748586,3.06037427,1.92629562,-29.09380775,2.35613971
0.32188380,0.73121281

>  <Name>
ligand

>  <RI>
0

>  <Rbt.Current_Directory>
/home/itssahil/PROJECTS/Mol_Feturizer/New_Systems/rnas/4P95

>  <Rbt.Executable>
rbdock ($Id: //depot/dev/client3/rdock/2013.1/src/exe/rbdock.cxx#4 $)

>  <Rbt.Library>
libRbt.so (2013.1, Build901 2013/11/27)

>  <Rbt.Parameter_File>
/export/apps/rDock/src/rDock_2013.1_src/data/scripts/dock_solv.prm

>  <Rbt.Receptor>
prm/pocket_docking_8.prm

>  <SCORE>
-14.4212

>  <SCORE.INTER>
-12.4711

>  <SCORE.INTER.CONST>
1

>  <SCORE.INTER.POLAR>
0

>  <SCORE.INTER.ROT>
3

>  <SCORE.INTER.SOLV>
6.28701

>  <SCORE.INTER.VDW>
-16.0098

>  <SCORE.INTER.norm>
-1.03926

>  <SCORE.INTRA>
-1.9501

>  <SCORE.INTRA.DIHEDRAL>
1.69897

>  <SCORE.INTRA.DIHEDRAL.0>
0.283163

>  <SCORE.INTRA.POLAR>
0

>  <SCORE.INTRA.POLAR.0>
0

>  <SCORE.INTRA.REPUL>
0

>  <SCORE.INTRA.REPUL.0>
0

>  <SCORE.INTRA.SOLV>
0.627293

>  <SCORE.INTRA.SOLV.lig_0>
-32.2894

>  <SCORE.INTRA.VDW>
-3.11323

>  <SCORE.INTRA.VDW.0>
2.0241

>  <SCORE.INTRA.norm>
-0.162508

>  <SCORE.RESTR>
0

>  <SCORE.RESTR.CAVITY>
0

>  <SCORE.RESTR.norm>
0

>  <SCORE.SYSTEM>
0

>  <SCORE.SYSTEM.CONST>
0

>  <SCORE.SYSTEM.DIHEDRAL>
0

>  <SCORE.SYSTEM.SOLV>
0

>  <SCORE.SYSTEM.norm>
0

>  <SCORE.heavy>
12

>  <SCORE.norm>
-1.20177

>  <RMSD>
3.838

$$$$
ligand
 OpenBabel11021811513D
libRbt.so/2013.1/901 2013/11/27
 12 12  0  0  0  0  0  0  0  0999 V2000
    0.5888    2.8554  -26.7269 O   0  0  0  0  0  0  0  0  0  0  0  0
    2.9416    0.8499  -31.7117 O   0  0  0  0  0  0  0  0  0  0  0  0
    1.9013    2.9098  -26.3101 C   0  0  0  0  0  0  0  0  0  0  0  0
    3.1019   -0.0329  -29.4442 O   0  0  0  0  0  0  0  0  0  0  0  0
    2.8363    3.3519  -27.3594 C   0  0  0  0  0  0  0  0  0  0  0  0
    4.9416   -0.3570  -30.9989 O   0  5  0  0  0  0  0  0  0  0  0  0
    2.6558    2.5948  -28.6054 N   0  3  0  0  0  0  0  0  0  0  0  0
    1.2708    2.6115  -29.0007 C   0  0  0  0  0  0  0  0  0  0  0  0
    0.3821    2.1634  -27.8871 C   0  0  0  0  0  0  0  0  0  0  0  0
    3.4938    3.1395  -29.6307 C   0  0  0  0  0  0  0  0  0  0  0  0
    4.6052    2.1200  -29.9873 C   0  0  0  0  0  0  0  0  0  0  0  0
    3.8708    0.5793  -30.5733 S   0  0  1  0  0  0  0  0  0  0  0  0
  1  3  1  0  0  0  0
  1  9  1  0  0  0  0
  2 12  1  0  0  0  0
  3  5  1  0  0  0  0
  4 12  2  0  0  0  0
  5  7  1  0  0  0  0
  6 12  2  0  0  0  0
  7  8  1  0  0  0  0
  7 10  1  0  0  0  0
  8  9  1  0  0  0  0
 10 11  1  0  0  0  0
 12 11  1  1  0  0  0
M  CHG  2   6  -1   7   1
M  END
>  <CHROM.1>
112.03837515,59.76165309,54.70581682,2.83028073,1.73274838,-29.19240562,2.17254789
0.35433047,0.74534243

>  <Name>
ligand

>  <RI>
0

>  <Rbt.Current_Directory>
/home/itssahil/PROJECTS/Mol_Feturizer/New_Systems/rnas/4P95

>  <Rbt.Executable>
rbdock ($Id: //depot/dev/client3/rdock/2013.1/src/exe/rbdock.cxx#4 $)

>  <Rbt.Library>
libRbt.so (2013.1, Build901 2013/11/27)

>  <Rbt.Parameter_File>
/export/apps/rDock/src/rDock_2013.1_src/data/scripts/dock_solv.prm

>  <Rbt.Receptor>
prm/pocket_docking_7.prm

>  <SCORE>
-12.7479

>  <SCORE.INTER>
-10.329

>  <SCORE.INTER.CONST>
1

>  <SCORE.INTER.POLAR>
0

>  <SCORE.INTER.ROT>
3

>  <SCORE.INTER.SOLV>
7.35749

>  <SCORE.INTER.VDW>
-14.9385

>  <SCORE.INTER.norm>
-0.860753

>  <SCORE.INTRA>
-2.41887

>  <SCORE.INTRA.DIHEDRAL>
2.0919

>  <SCORE.INTRA.DIHEDRAL.0>
0.283163

>  <SCORE.INTRA.POLAR>
0

>  <SCORE.INTRA.POLAR.0>
0

>  <SCORE.INTRA.REPUL>
0

>  <SCORE.INTRA.REPUL.0>
0

>  <SCORE.INTRA.SOLV>
0.160444

>  <SCORE.INTRA.SOLV.lig_0>
-32.2894

>  <SCORE.INTRA.VDW>
-3.54505

>  <SCORE.INTRA.VDW.0>
2.0241

>  <SCORE.INTRA.norm>
-0.201573

>  <SCORE.RESTR>
0

>  <SCORE.RESTR.CAVITY>
0

>  <SCORE.RESTR.norm>
0

>  <SCORE.SYSTEM>
0

>  <SCORE.SYSTEM.CONST>
0

>  <SCORE.SYSTEM.DIHEDRAL>
0

>  <SCORE.SYSTEM.SOLV>
0

>  <SCORE.SYSTEM.norm>
0

>  <SCORE.heavy>
12

>  <SCORE.norm>
-1.06233

>  <RMSD>
3.843

$$$$
ligand
 OpenBabel11021811513D
libRbt.so/2013.1/901 2013/11/27
 12 12  0  0  0  0  0  0  0  0999 V2000
    0.6136    2.8760  -26.5961 O   0  0  0  0  0  0  0  0  0  0  0  0
    3.3926    0.2600  -29.5314 O   0  0  0  0  0  0  0  0  0  0  0  0
    1.9598    2.8974  -26.3022 C   0  0  0  0  0  0  0  0  0  0  0  0
    5.7596    0.2376  -30.1171 O   0  0  0  0  0  0  0  0  0  0  0  0
    2.7973    3.3992  -27.4058 C   0  0  0  0  0  0  0  0  0  0  0  0
    4.1084    0.8610  -31.7877 O   0  5  0  0  0  0  0  0  0  0  0  0
    2.4924    2.7222  -28.6734 N   0  3  0  0  0  0  0  0  0  0  0  0
    1.0768    2.7708  -28.9348 C   0  0  0  0  0  0  0  0  0  0  0  0
    0.2914    2.2588  -27.7721 C   0  0  0  0  0  0  0  0  0  0  0  0
    3.2367    3.3254  -29.7377 C   0  0  0  0  0  0  0  0  0  0  0  0
    4.6293    2.6534  -29.8415 C   0  0  0  0  0  0  0  0  0  0  0  0
    4.4520    0.9296  -30.3449 S   0  0  1  0  0  0  0  0  0  0  0  0
  1  3  1  0  0  0  0
  1  9  1  0  0  0  0
  2 12  1  0  0  0  0
  3  5  1  0  0  0  0
  4 12  2  0  0  0  0
  5  7  1  0  0  0  0
  6 12  2  0  0  0  0
  7  8  1  0  0  0  0
  7 10  1  0  0  0  0
  8  9  1  0  0  0  0
 10 11  1  0  0  0  0
 12 11  1  1  0  0  0
M  CHG  2   6  -1   7   1
M  END
>  <CHROM.1>
87.26504802,65.89977839,-47.19965444,3.06794458,1.94834697,-29.07654782,2.31059479
0.17889556,0.85737170

>  <Name>
ligand

>  <RI>
0

>  <Rbt.Current_Directory>
/home/itssahil/PROJECTS/Mol_Feturizer/New_Systems/rnas/4P95

>  <Rbt.Executable>
rbdock ($Id: //depot/dev/client3/rdock/2013.1/src/exe/rbdock.cxx#4 $)

>  <Rbt.Library>
libRbt.so (2013.1, Build901 2013/11/27)

>  <Rbt.Parameter_File>
/export/apps/rDock/src/rDock_2013.1_src/data/scripts/dock_solv.prm

>  <Rbt.Receptor>
prm/pocket_docking_5.prm

>  <SCORE>
-14.5645

>  <SCORE.INTER>
-12.5153

>  <SCORE.INTER.CONST>
1

>  <SCORE.INTER.POLAR>
0

>  <SCORE.INTER.ROT>
3

>  <SCORE.INTER.SOLV>
6.27906

>  <SCORE.INTER.VDW>
-16.0365

>  <SCORE.INTER.norm>
-1.04294

>  <SCORE.INTRA>
-2.04924

>  <SCORE.INTRA.DIHEDRAL>
1.37738

>  <SCORE.INTRA.DIHEDRAL.0>
0.283163

>  <SCORE.INTRA.POLAR>
0

>  <SCORE.INTRA.POLAR.0>
0

>  <SCORE.INTRA.REPUL>
0

>  <SCORE.INTRA.REPUL.0>
0

>  <SCORE.INTRA.SOLV>
0.493973

>  <SCORE.INTRA.SOLV.lig_0>
-32.2894

>  <SCORE.INTRA.VDW>
-2.98491

>  <SCORE.INTRA.VDW.0>
2.0241

>  <SCORE.INTRA.norm>
-0.17077

>  <SCORE.RESTR>
0

>  <SCORE.RESTR.CAVITY>
0

>  <SCORE.RESTR.norm>
0

>  <SCORE.SYSTEM>
0

>  <SCORE.SYSTEM.CONST>
0

>  <SCORE.SYSTEM.DIHEDRAL>
0

>  <SCORE.SYSTEM.SOLV>
0

>  <SCORE.SYSTEM.norm>
0

>  <SCORE.heavy>
12

>  <SCORE.norm>
-1.21371

>  <RMSD>
3.844

$$$$
ligand
 OpenBabel11021811513D
libRbt.so/2013.1/901 2013/11/27
 12 12  0  0  0  0  0  0  0  0999 V2000
    0.5846    2.8655  -26.6285 O   0  0  0  0  0  0  0  0  0  0  0  0
    3.3956    0.2591  -29.5171 O   0  0  0  0  0  0  0  0  0  0  0  0
    1.9248    2.8828  -26.3078 C   0  0  0  0  0  0  0  0  0  0  0  0
    5.7423    0.2227  -30.1789 O   0  0  0  0  0  0  0  0  0  0  0  0
    2.7843    3.3950  -27.3895 C   0  0  0  0  0  0  0  0  0  0  0  0
    4.0456    0.8941  -31.7840 O   0  5  0  0  0  0  0  0  0  0  0  0
    2.5042    2.7311  -28.6697 N   0  3  0  0  0  0  0  0  0  0  0  0
    1.0940    2.7835  -28.9584 C   0  0  0  0  0  0  0  0  0  0  0  0
    0.2854    2.2605  -27.8168 C   0  0  0  0  0  0  0  0  0  0  0  0
    3.2698    3.3443  -29.7128 C   0  0  0  0  0  0  0  0  0  0  0  0
    4.6482    2.6447  -29.8234 C   0  0  0  0  0  0  0  0  0  0  0  0
    4.4358    0.9325  -30.3520 S   0  0  1  0  0  0  0  0  0  0  0  0
  1  3  1  0  0  0  0
  1  9  1  0  0  0  0
  2 12  1  0  0  0  0
  3  5  1  0  0  0  0
  4 12  2  0  0  0  0
  5  7  1  0  0  0  0
  6 12  2  0  0  0  0
  7  8  1  0  0  0  0
  7 10  1  0  0  0  0
  8  9  1  0  0  0  0
 10 11  1  0  0  0  0
 12 11  1  1  0  0  0
M  CHG  2   6  -1   7   1
M  END
>  <CHROM.1>
88.91253115,65.20406370,-49.26010429,3.05849130,1.95044880,-29.08478783,2.31579465
0.20486829,0.83305136

>  <Name>
ligand

>  <RI>
0

>  <Rbt.Current_Directory>
/home/itssahil/PROJECTS/Mol_Feturizer/New_Systems/rnas/4P95

>  <Rbt.Executable>
rbdock ($Id: //depot/dev/client3/rdock/2013.1/src/exe/rbdock.cxx#4 $)

>  <Rbt.Library>
libRbt.so (2013.1, Build901 2013/11/27)

>  <Rbt.Parameter_File>
/export/apps/rDock/src/rDock_2013.1_src/data/scripts/dock_solv.prm

>  <Rbt.Receptor>
prm/pocket_docking_4.prm

>  <SCORE>
-14.5649

>  <SCORE.INTER>
-12.5055

>  <SCORE.INTER.CONST>
1

>  <SCORE.INTER.POLAR>
0

>  <SCORE.INTER.ROT>
3

>  <SCORE.INTER.SOLV>
6.22347

>  <SCORE.INTER.VDW>
-16.0115

>  <SCORE.INTER.norm>
-1.04212

>  <SCORE.INTRA>
-2.05947

>  <SCORE.INTRA.DIHEDRAL>
1.33402

>  <SCORE.INTRA.DIHEDRAL.0>
0.283163

>  <SCORE.INTRA.POLAR>
0

>  <SCORE.INTRA.POLAR.0>
0

>  <SCORE.INTRA.REPUL>
0

>  <SCORE.INTRA.REPUL.0>
0

>  <SCORE.INTRA.SOLV>
0.615369

>  <SCORE.INTRA.SOLV.lig_0>
-32.2894

>  <SCORE.INTRA.VDW>
-3.03417

>  <SCORE.INTRA.VDW.0>
2.0241

>  <SCORE.INTRA.norm>
-0.171623

>  <SCORE.RESTR>
0

>  <SCORE.RESTR.CAVITY>
0

>  <SCORE.RESTR.norm>
0

>  <SCORE.SYSTEM>
0

>  <SCORE.SYSTEM.CONST>
0

>  <SCORE.SYSTEM.DIHEDRAL>
0

>  <SCORE.SYSTEM.SOLV>
0

>  <SCORE.SYSTEM.norm>
0

>  <SCORE.heavy>
12

>  <SCORE.norm>
-1.21375

>  <RMSD>
3.845

$$$$
ligand
 OpenBabel11021811513D
libRbt.so/2013.1/901 2013/11/27
 12 12  0  0  0  0  0  0  0  0999 V2000
    0.5824    2.8754  -26.6194 O   0  0  0  0  0  0  0  0  0  0  0  0
    3.4151    0.2608  -29.5184 O   0  0  0  0  0  0  0  0  0  0  0  0
    1.9274    2.8999  -26.3198 C   0  0  0  0  0  0  0  0  0  0  0  0
    5.7718    0.2709  -30.1448 O   0  0  0  0  0  0  0  0  0  0  0  0
    2.7682    3.4048  -27.4194 C   0  0  0  0  0  0  0  0  0  0  0  0
    4.0839    0.8765  -31.7852 O   0  5  0  0  0  0  0  0  0  0  0  0
    2.4703    2.7284  -28.6889 N   0  3  0  0  0  0  0  0  0  0  0  0
    1.0557    2.7737  -28.9561 C   0  0  0  0  0  0  0  0  0  0  0  0
    0.2667    2.2586  -27.7973 C   0  0  0  0  0  0  0  0  0  0  0  0
    3.2175    3.3345  -29.7495 C   0  0  0  0  0  0  0  0  0  0  0  0
    4.6149    2.6710  -29.8435 C   0  0  0  0  0  0  0  0  0  0  0  0
    4.4514    0.9462  -30.3482 S   0  0  1  0  0  0  0  0  0  0  0  0
  1  3  1  0  0  0  0
  1  9  1  0  0  0  0
  2 12  1  0  0  0  0
  3  5  1  0  0  0  0
  4 12  2  0  0  0  0
  5  7  1  0  0  0  0
  6 12  2  0  0  0  0
  7  8  1  0  0  0  0
  7 10  1  0  0  0  0
  8  9  1  0  0  0  0
 10 11  1  0  0  0  0
 12 11  1  1  0  0  0
M  CHG  2   6  -1   7   1
M  END
>  <CHROM.1>
86.98578167,66.00337972,-48.65356747,3.05436118,1.95827393,-29.08775085,2.31710355
0.17081881,0.86348202

>  <Name>
ligand

>  <RI>
0

>  <Rbt.Current_Directory>
/home/itssahil/PROJECTS/Mol_Feturizer/New_Systems/rnas/4P95

>  <Rbt.Executable>
rbdock ($Id: //depot/dev/client3/rdock/2013.1/src/exe/rbdock.cxx#4 $)

>  <Rbt.Library>
libRbt.so (2013.1, Build901 2013/11/27)

>  <Rbt.Parameter_File>
/export/apps/rDock/src/rDock_2013.1_src/data/scripts/dock_solv.prm

>  <Rbt.Receptor>
prm/pocket_docking_4.prm

>  <SCORE>
-14.5884

>  <SCORE.INTER>
-12.511

>  <SCORE.INTER.CONST>
1

>  <SCORE.INTER.POLAR>
0

>  <SCORE.INTER.ROT>
3

>  <SCORE.INTER.SOLV>
6.21729

>  <SCORE.INTER.VDW>
-16.0131

>  <SCORE.INTER.norm>
-1.04259

>  <SCORE.INTRA>
-2.07738

>  <SCORE.INTRA.DIHEDRAL>
1.2797

>  <SCORE.INTRA.DIHEDRAL.0>
0.283163

>  <SCORE.INTRA.POLAR>
0

>  <SCORE.INTRA.POLAR.0>
0

>  <SCORE.INTRA.REPUL>
0

>  <SCORE.INTRA.REPUL.0>
0

>  <SCORE.INTRA.SOLV>
0.546889

>  <SCORE.INTRA.SOLV.lig_0>
-32.2894

>  <SCORE.INTRA.VDW>
-2.99067

>  <SCORE.INTRA.VDW.0>
2.0241

>  <SCORE.INTRA.norm>
-0.173115

>  <SCORE.RESTR>
0

>  <SCORE.RESTR.CAVITY>
0

>  <SCORE.RESTR.norm>
0

>  <SCORE.SYSTEM>
0

>  <SCORE.SYSTEM.CONST>
0

>  <SCORE.SYSTEM.DIHEDRAL>
0

>  <SCORE.SYSTEM.SOLV>
0

>  <SCORE.SYSTEM.norm>
0

>  <SCORE.heavy>
12

>  <SCORE.norm>
-1.2157

>  <RMSD>
3.847

$$$$
ligand
 OpenBabel11021811513D
libRbt.so/2013.1/901 2013/11/27
 12 12  0  0  0  0  0  0  0  0999 V2000
    0.5925    2.8687  -26.6255 O   0  0  0  0  0  0  0  0  0  0  0  0
    3.4050    0.2838  -29.5235 O   0  0  0  0  0  0  0  0  0  0  0  0
    1.9358    2.9016  -26.3193 C   0  0  0  0  0  0  0  0  0  0  0  0
    5.7613    0.2681  -30.1515 O   0  0  0  0  0  0  0  0  0  0  0  0
    2.7784    3.4155  -27.4133 C   0  0  0  0  0  0  0  0  0  0  0  0
    4.0790    0.8911  -31.7910 O   0  5  0  0  0  0  0  0  0  0  0  0
    2.4914    2.7408  -28.6862 N   0  3  0  0  0  0  0  0  0  0  0  0
    1.0778    2.7772  -28.9602 C   0  0  0  0  0  0  0  0  0  0  0  0
    0.2867    2.2532  -27.8067 C   0  0  0  0  0  0  0  0  0  0  0  0
    3.2396    3.3551  -29.7413 C   0  0  0  0  0  0  0  0  0  0  0  0
    4.6306    2.6806  -29.8506 C   0  0  0  0  0  0  0  0  0  0  0  0
    4.4481    0.9575  -30.3544 S   0  0  1  0  0  0  0  0  0  0  0  0
  1  3  1  0  0  0  0
  1  9  1  0  0  0  0
  2 12  1  0  0  0  0
  3  5  1  0  0  0  0
  4 12  2  0  0  0  0
  5  7  1  0  0  0  0
  6 12  2  0  0  0  0
  7  8  1  0  0  0  0
  7 10  1  0  0  0  0
  8  9  1  0  0  0  0
 10 11  1  0  0  0  0
 12 11  1  1  0  0  0
M  CHG  2   6  -1   7   1
M  END
>  <CHROM.1>
88.20769915,65.14149439,-48.05217254,3.06117077,1.96628526,-29.09095301,2.31978484
0.20395660,0.83667551

>  <Name>
ligand

>  <RI>
0

>  <Rbt.Current_Directory>
/home/itssahil/PROJECTS/Mol_Feturizer/New_Systems/rnas/4P95

>  <Rbt.Executable>
rbdock ($Id: //depot/dev/client3/rdock/2013.1/src/exe/rbdock.cxx#4 $)

>  <Rbt.Library>
libRbt.so (2013.1, Build901 2013/11/27)

>  <Rbt.Parameter_File>
/export/apps/rDock/src/rDock_2013.1_src/data/scripts/dock_solv.prm

>  <Rbt.Receptor>
prm/pocket_docking_6.prm

>  <SCORE>
-14.5853

>  <SCORE.INTER>
-12.5218

>  <SCORE.INTER.CONST>
1

>  <SCORE.INTER.POLAR>
0

>  <SCORE.INTER.ROT>
3

>  <SCORE.INTER.SOLV>
6.23381

>  <SCORE.INTER.VDW>
-16.0258

>  <SCORE.INTER.norm>
-1.04348

>  <SCORE.INTRA>
-2.06345

>  <SCORE.INTRA.DIHEDRAL>
1.35443

>  <SCORE.INTRA.DIHEDRAL.0>
0.283163

>  <SCORE.INTRA.POLAR>
0

>  <SCORE.INTRA.POLAR.0>
0

>  <SCORE.INTRA.REPUL>
0

>  <SCORE.INTRA.REPUL.0>
0

>  <SCORE.INTRA.SOLV>
0.558302

>  <SCORE.INTRA.SOLV.lig_0>
-32.2894

>  <SCORE.INTRA.VDW>
-3.01981

>  <SCORE.INTRA.VDW.0>
2.0241

>  <SCORE.INTRA.norm>
-0.171954

>  <SCORE.RESTR>
0

>  <SCORE.RESTR.CAVITY>
0

>  <SCORE.RESTR.norm>
0

>  <SCORE.SYSTEM>
0

>  <SCORE.SYSTEM.CONST>
0

>  <SCORE.SYSTEM.DIHEDRAL>
0

>  <SCORE.SYSTEM.SOLV>
0

>  <SCORE.SYSTEM.norm>
0

>  <SCORE.heavy>
12

>  <SCORE.norm>
-1.21544

>  <RMSD>
3.847

$$$$
ligand
 OpenBabel11021811513D
libRbt.so/2013.1/901 2013/11/27
 12 12  0  0  0  0  0  0  0  0999 V2000
    0.5589    2.7869  -26.6624 O   0  0  0  0  0  0  0  0  0  0  0  0
    3.4220    0.2905  -29.5066 O   0  0  0  0  0  0  0  0  0  0  0  0
    1.8894    2.8889  -26.3177 C   0  0  0  0  0  0  0  0  0  0  0  0
    5.7737    0.2636  -30.1509 O   0  0  0  0  0  0  0  0  0  0  0  0
    2.7385    3.4288  -27.3940 C   0  0  0  0  0  0  0  0  0  0  0  0
    4.0836    0.9000  -31.7772 O   0  5  0  0  0  0  0  0  0  0  0  0
    2.5224    2.7245  -28.6649 N   0  3  0  0  0  0  0  0  0  0  0  0
    1.1175    2.6887  -28.9804 C   0  0  0  0  0  0  0  0  0  0  0  0
    0.3185    2.1421  -27.8431 C   0  0  0  0  0  0  0  0  0  0  0  0
    3.2713    3.3607  -29.7065 C   0  0  0  0  0  0  0  0  0  0  0  0
    4.6583    2.6815  -29.8361 C   0  0  0  0  0  0  0  0  0  0  0  0
    4.4630    0.9607  -30.3430 S   0  0  1  0  0  0  0  0  0  0  0  0
  1  3  1  0  0  0  0
  1  9  1  0  0  0  0
  2 12  1  0  0  0  0
  3  5  1  0  0  0  0
  4 12  2  0  0  0  0
  5  7  1  0  0  0  0
  6 12  2  0  0  0  0
  7  8  1  0  0  0  0
  7 10  1  0  0  0  0
  8  9  1  0  0  0  0
 10 11  1  0  0  0  0
 12 11  1  1  0  0  0
M  CHG  2   6  -1   7   1
M  END
>  <CHROM.1>
92.41654274,63.76902205,-47.68319370,3.06912537,1.94592032,-29.08701358,2.35169098
0.29729237,0.75159820

>  <Name>
ligand

>  <RI>
0

>  <Rbt.Current_Directory>
/home/itssahil/PROJECTS/Mol_Feturizer/New_Systems/rnas/4P95

>  <Rbt.Executable>
rbdock ($Id: //depot/dev/client3/rdock/2013.1/src/exe/rbdock.cxx#4 $)

>  <Rbt.Library>
libRbt.so (2013.1, Build901 2013/11/27)

>  <Rbt.Parameter_File>
/export/apps/rDock/src/rDock_2013.1_src/data/scripts/dock_solv.prm

>  <Rbt.Receptor>
prm/pocket_docking_4.prm

>  <SCORE>
-14.4589

>  <SCORE.INTER>
-12.4721

>  <SCORE.INTER.CONST>
1

>  <SCORE.INTER.POLAR>
0

>  <SCORE.INTER.ROT>
3

>  <SCORE.INTER.SOLV>
6.30193

>  <SCORE.INTER.VDW>
-16.0154

>  <SCORE.INTER.norm>
-1.03935

>  <SCORE.INTRA>
-1.98679

>  <SCORE.INTRA.DIHEDRAL>
1.59293

>  <SCORE.INTRA.DIHEDRAL.0>
0.283163

>  <SCORE.INTRA.POLAR>
0

>  <SCORE.INTRA.POLAR.0>
0

>  <SCORE.INTRA.REPUL>
0

>  <SCORE.INTRA.REPUL.0>
0

>  <SCORE.INTRA.SOLV>
0.630653

>  <SCORE.INTRA.SOLV.lig_0>
-32.2894

>  <SCORE.INTRA.VDW>
-3.09858

>  <SCORE.INTRA.VDW.0>
2.0241

>  <SCORE.INTRA.norm>
-0.165566

>  <SCORE.RESTR>
0

>  <SCORE.RESTR.CAVITY>
0

>  <SCORE.RESTR.norm>
0

>  <SCORE.SYSTEM>
0

>  <SCORE.SYSTEM.CONST>
0

>  <SCORE.SYSTEM.DIHEDRAL>
0

>  <SCORE.SYSTEM.SOLV>
0

>  <SCORE.SYSTEM.norm>
0

>  <SCORE.heavy>
12

>  <SCORE.norm>
-1.20491

>  <RMSD>
3.848

$$$$
ligand
 OpenBabel11021811513D
libRbt.so/2013.1/901 2013/11/27
 12 12  0  0  0  0  0  0  0  0999 V2000
    0.6770    2.8890  -26.5328 O   0  0  0  0  0  0  0  0  0  0  0  0
    3.4174    0.2628  -29.5115 O   0  0  0  0  0  0  0  0  0  0  0  0
    2.0287    2.9111  -26.2652 C   0  0  0  0  0  0  0  0  0  0  0  0
    5.7726    0.2546  -30.1438 O   0  0  0  0  0  0  0  0  0  0  0  0
    2.8445    3.4096  -27.3864 C   0  0  0  0  0  0  0  0  0  0  0  0
    4.0847    0.8655  -31.7823 O   0  5  0  0  0  0  0  0  0  0  0  0
    2.5150    2.7291  -28.6458 N   0  3  0  0  0  0  0  0  0  0  0  0
    1.0946    2.7770  -28.8797 C   0  0  0  0  0  0  0  0  0  0  0  0
    0.3319    2.2684  -27.7005 C   0  0  0  0  0  0  0  0  0  0  0  0
    3.2385    3.3291  -29.7261 C   0  0  0  0  0  0  0  0  0  0  0  0
    4.6326    2.6635  -29.8487 C   0  0  0  0  0  0  0  0  0  0  0  0
    4.4563    0.9380  -30.3465 S   0  0  1  0  0  0  0  0  0  0  0  0
  1  3  1  0  0  0  0
  1  9  1  0  0  0  0
  2 12  1  0  0  0  0
  3  5  1  0  0  0  0
  4 12  2  0  0  0  0
  5  7  1  0  0  0  0
  6 12  2  0  0  0  0
  7  8  1  0  0  0  0
  7 10  1  0  0  0  0
  8  9  1  0  0  0  0
 10 11  1  0  0  0  0
 12 11  1  1  0  0  0
M  CHG  2   6  -1   7   1
M  END
>  <CHROM.1>
86.86905328,66.19786136,-47.52436298,3.08962826,1.95717952,-29.05619171,2.29736200
0.18100275,0.86667383

>  <Name>
ligand

>  <RI>
0

>  <Rbt.Current_Directory>
/home/itssahil/PROJECTS/Mol_Feturizer/New_Systems/rnas/4P95

>  <Rbt.Executable>
rbdock ($Id: //depot/dev/client3/rdock/2013.1/src/exe/rbdock.cxx#4 $)

>  <Rbt.Library>
libRbt.so (2013.1, Build901 2013/11/27)

>  <Rbt.Parameter_File>
/export/apps/rDock/src/rDock_2013.1_src/data/scripts/dock_solv.prm

>  <Rbt.Receptor>
prm/pocket_docking_7.prm

>  <SCORE>
-14.5773

>  <SCORE.INTER>
-12.5216

>  <SCORE.INTER.CONST>
1

>  <SCORE.INTER.POLAR>
0

>  <SCORE.INTER.ROT>
3

>  <SCORE.INTER.SOLV>
6.37174

>  <SCORE.INTER.VDW>
-16.0716

>  <SCORE.INTER.norm>
-1.04347

>  <SCORE.INTRA>
-2.05567

>  <SCORE.INTRA.DIHEDRAL>
1.34642

>  <SCORE.INTRA.DIHEDRAL.0>
0.283163

>  <SCORE.INTRA.POLAR>
0

>  <SCORE.INTRA.POLAR.0>
0

>  <SCORE.INTRA.REPUL>
0

>  <SCORE.INTRA.REPUL.0>
0

>  <SCORE.INTRA.SOLV>
0.495127

>  <SCORE.INTRA.SOLV.lig_0>
-32.2894

>  <SCORE.INTRA.VDW>
-2.97644

>  <SCORE.INTRA.VDW.0>
2.0241

>  <SCORE.INTRA.norm>
-0.171306

>  <SCORE.RESTR>
0

>  <SCORE.RESTR.CAVITY>
0

>  <SCORE.RESTR.norm>
0

>  <SCORE.SYSTEM>
0

>  <SCORE.SYSTEM.CONST>
0

>  <SCORE.SYSTEM.DIHEDRAL>
0

>  <SCORE.SYSTEM.SOLV>
0

>  <SCORE.SYSTEM.norm>
0

>  <SCORE.heavy>
12

>  <SCORE.norm>
-1.21477

>  <RMSD>
3.848

$$$$
ligand
 OpenBabel11021811513D
libRbt.so/2013.1/901 2013/11/27
 12 12  0  0  0  0  0  0  0  0999 V2000
    0.6824    2.9034  -26.5266 O   0  0  0  0  0  0  0  0  0  0  0  0
    3.3812    0.2629  -29.5290 O   0  0  0  0  0  0  0  0  0  0  0  0
    2.0332    2.8947  -26.2537 C   0  0  0  0  0  0  0  0  0  0  0  0
    5.7335    0.2162  -30.1699 O   0  0  0  0  0  0  0  0  0  0  0  0
    2.8633    3.3927  -27.3644 C   0  0  0  0  0  0  0  0  0  0  0  0
    4.0532    0.8870  -31.7925 O   0  5  0  0  0  0  0  0  0  0  0  0
    2.5255    2.7369  -28.6347 N   0  3  0  0  0  0  0  0  0  0  0  0
    1.1073    2.8165  -28.8733 C   0  0  0  0  0  0  0  0  0  0  0  0
    0.3298    2.3065  -27.7044 C   0  0  0  0  0  0  0  0  0  0  0  0
    3.2652    3.3377  -29.7036 C   0  0  0  0  0  0  0  0  0  0  0  0
    4.6445    2.6432  -29.8333 C   0  0  0  0  0  0  0  0  0  0  0  0
    4.4310    0.9296  -30.3572 S   0  0  1  0  0  0  0  0  0  0  0  0
  1  3  1  0  0  0  0
  1  9  1  0  0  0  0
  2 12  1  0  0  0  0
  3  5  1  0  0  0  0
  4 12  2  0  0  0  0
  5  7  1  0  0  0  0
  6 12  2  0  0  0  0
  7  8  1  0  0  0  0
  7 10  1  0  0  0  0
  8  9  1  0  0  0  0
 10 11  1  0  0  0  0
 12 11  1  1  0  0  0
M  CHG  2   6  -1   7   1
M  END
>  <CHROM.1>
87.05137770,66.13192420,-47.85973090,3.08310813,1.95850898,-29.05572543,2.28633433
0.16809801,0.87885585

>  <Name>
ligand

>  <RI>
0

>  <Rbt.Current_Directory>
/home/itssahil/PROJECTS/Mol_Feturizer/New_Systems/rnas/4P95

>  <Rbt.Executable>
rbdock ($Id: //depot/dev/client3/rdock/2013.1/src/exe/rbdock.cxx#4 $)

>  <Rbt.Library>
libRbt.so (2013.1, Build901 2013/11/27)

>  <Rbt.Parameter_File>
/export/apps/rDock/src/rDock_2013.1_src/data/scripts/dock_solv.prm

>  <Rbt.Receptor>
prm/pocket_docking_6.prm

>  <SCORE>
-14.5605

>  <SCORE.INTER>
-12.4989

>  <SCORE.INTER.CONST>
1

>  <SCORE.INTER.POLAR>
0

>  <SCORE.INTER.ROT>
3

>  <SCORE.INTER.SOLV>
6.34613

>  <SCORE.INTER.VDW>
-16.048

>  <SCORE.INTER.norm>
-1.04157

>  <SCORE.INTRA>
-2.0616

>  <SCORE.INTRA.DIHEDRAL>
1.3349

>  <SCORE.INTRA.DIHEDRAL.0>
0.283163

>  <SCORE.INTRA.POLAR>
0

>  <SCORE.INTRA.POLAR.0>
0

>  <SCORE.INTRA.REPUL>
0

>  <SCORE.INTRA.REPUL.0>
0

>  <SCORE.INTRA.SOLV>
0.51253

>  <SCORE.INTRA.SOLV.lig_0>
-32.2894

>  <SCORE.INTRA.VDW>
-2.98531

>  <SCORE.INTRA.VDW.0>
2.0241

>  <SCORE.INTRA.norm>
-0.1718

>  <SCORE.RESTR>
0

>  <SCORE.RESTR.CAVITY>
0

>  <SCORE.RESTR.norm>
0

>  <SCORE.SYSTEM>
0

>  <SCORE.SYSTEM.CONST>
0

>  <SCORE.SYSTEM.DIHEDRAL>
0

>  <SCORE.SYSTEM.SOLV>
0

>  <SCORE.SYSTEM.norm>
0

>  <SCORE.heavy>
12

>  <SCORE.norm>
-1.21337

>  <RMSD>
3.850

$$$$
ligand
 OpenBabel11021811513D
libRbt.so/2013.1/901 2013/11/27
 12 12  0  0  0  0  0  0  0  0999 V2000
    0.5872    2.8567  -26.6349 O   0  0  0  0  0  0  0  0  0  0  0  0
    3.3337    0.2867  -29.5085 O   0  0  0  0  0  0  0  0  0  0  0  0
    1.9266    2.8868  -26.3115 C   0  0  0  0  0  0  0  0  0  0  0  0
    5.6901    0.1843  -30.1277 O   0  0  0  0  0  0  0  0  0  0  0  0
    2.7836    3.4036  -27.3928 C   0  0  0  0  0  0  0  0  0  0  0  0
    4.0362    0.8538  -31.7778 O   0  5  0  0  0  0  0  0  0  0  0  0
    2.5121    2.7339  -28.6718 N   0  3  0  0  0  0  0  0  0  0  0  0
    1.1021    2.7730  -28.9636 C   0  0  0  0  0  0  0  0  0  0  0  0
    0.2958    2.2459  -27.8221 C   0  0  0  0  0  0  0  0  0  0  0  0
    3.2743    3.3510  -29.7150 C   0  0  0  0  0  0  0  0  0  0  0  0
    4.6433    2.6370  -29.8481 C   0  0  0  0  0  0  0  0  0  0  0  0
    4.4026    0.9177  -30.3403 S   0  0  1  0  0  0  0  0  0  0  0  0
  1  3  1  0  0  0  0
  1  9  1  0  0  0  0
  2 12  1  0  0  0  0
  3  5  1  0  0  0  0
  4 12  2  0  0  0  0
  5  7  1  0  0  0  0
  6 12  2  0  0  0  0
  7  8  1  0  0  0  0
  7 10  1  0  0  0  0
  8  9  1  0  0  0  0
 10 11  1  0  0  0  0
 12 11  1  1  0  0  0
M  CHG  2   6  -1   7   1
M  END
>  <CHROM.1>
90.52328139,63.26010237,-46.67503909,3.04500762,1.94228171,-29.08131068,2.31892414
0.24704143,0.79083798

>  <Name>
ligand

>  <RI>
0

>  <Rbt.Current_Directory>
/home/itssahil/PROJECTS/Mol_Feturizer/New_Systems/rnas/4P95

>  <Rbt.Executable>
rbdock ($Id: //depot/dev/client3/rdock/2013.1/src/exe/rbdock.cxx#4 $)

>  <Rbt.Library>
libRbt.so (2013.1, Build901 2013/11/27)

>  <Rbt.Parameter_File>
/export/apps/rDock/src/rDock_2013.1_src/data/scripts/dock_solv.prm

>  <Rbt.Receptor>
prm/pocket_docking_7.prm

>  <SCORE>
-14.5315

>  <SCORE.INTER>
-12.5256

>  <SCORE.INTER.CONST>
1

>  <SCORE.INTER.POLAR>
0

>  <SCORE.INTER.ROT>
3

>  <SCORE.INTER.SOLV>
6.22842

>  <SCORE.INTER.VDW>
-16.0265

>  <SCORE.INTER.norm>
-1.0438

>  <SCORE.INTRA>
-2.00593

>  <SCORE.INTRA.DIHEDRAL>
1.52356

>  <SCORE.INTRA.DIHEDRAL.0>
0.283163

>  <SCORE.INTRA.POLAR>
0

>  <SCORE.INTRA.POLAR.0>
0

>  <SCORE.INTRA.REPUL>
0

>  <SCORE.INTRA.REPUL.0>
0

>  <SCORE.INTRA.SOLV>
0.576772

>  <SCORE.INTRA.SOLV.lig_0>
-32.2894

>  <SCORE.INTRA.VDW>
-3.0561

>  <SCORE.INTRA.VDW.0>
2.0241

>  <SCORE.INTRA.norm>
-0.167161

>  <SCORE.RESTR>
0

>  <SCORE.RESTR.CAVITY>
0

>  <SCORE.RESTR.norm>
0

>  <SCORE.SYSTEM>
0

>  <SCORE.SYSTEM.CONST>
0

>  <SCORE.SYSTEM.DIHEDRAL>
0

>  <SCORE.SYSTEM.SOLV>
0

>  <SCORE.SYSTEM.norm>
0

>  <SCORE.heavy>
12

>  <SCORE.norm>
-1.21096

>  <RMSD>
3.850

$$$$
ligand
 OpenBabel11021811513D
libRbt.so/2013.1/901 2013/11/27
 12 12  0  0  0  0  0  0  0  0999 V2000
    0.6823    2.8733  -26.5349 O   0  0  0  0  0  0  0  0  0  0  0  0
    3.3960    0.2810  -29.5077 O   0  0  0  0  0  0  0  0  0  0  0  0
    2.0324    2.8942  -26.2588 C   0  0  0  0  0  0  0  0  0  0  0  0
    5.7461    0.2373  -30.1569 O   0  0  0  0  0  0  0  0  0  0  0  0
    2.8545    3.4047  -27.3699 C   0  0  0  0  0  0  0  0  0  0  0  0
    4.0563    0.8773  -31.7821 O   0  5  0  0  0  0  0  0  0  0  0  0
    2.5335    2.7364  -28.6381 N   0  3  0  0  0  0  0  0  0  0  0  0
    1.1145    2.7851  -28.8802 C   0  0  0  0  0  0  0  0  0  0  0  0
    0.3452    2.2640  -27.7108 C   0  0  0  0  0  0  0  0  0  0  0  0
    3.2629    3.3479  -29.7079 C   0  0  0  0  0  0  0  0  0  0  0  0
    4.6460    2.6632  -29.8496 C   0  0  0  0  0  0  0  0  0  0  0  0
    4.4392    0.9415  -30.3490 S   0  0  1  0  0  0  0  0  0  0  0  0
  1  3  1  0  0  0  0
  1  9  1  0  0  0  0
  2 12  1  0  0  0  0
  3  5  1  0  0  0  0
  4 12  2  0  0  0  0
  5  7  1  0  0  0  0
  6 12  2  0  0  0  0
  7  8  1  0  0  0  0
  7 10  1  0  0  0  0
  8  9  1  0  0  0  0
 10 11  1  0  0  0  0
 12 11  1  1  0  0  0
M  CHG  2   6  -1   7   1
M  END
>  <CHROM.1>
88.15762128,64.98058134,-47.19815971,3.08840566,1.95806415,-29.05485231,2.29796825
0.21183229,0.84385907

>  <Name>
ligand

>  <RI>
0

>  <Rbt.Current_Directory>
/home/itssahil/PROJECTS/Mol_Feturizer/New_Systems/rnas/4P95

>  <Rbt.Executable>
rbdock ($Id: //depot/dev/client3/rdock/2013.1/src/exe/rbdock.cxx#4 $)

>  <Rbt.Library>
libRbt.so (2013.1, Build901 2013/11/27)

>  <Rbt.Parameter_File>
/export/apps/rDock/src/rDock_2013.1_src/data/scripts/dock_solv.prm

>  <Rbt.Receptor>
prm/pocket_docking_7.prm

>  <SCORE>
-14.5715

>  <SCORE.INTER>
-12.5242

>  <SCORE.INTER.CONST>
1

>  <SCORE.INTER.POLAR>
0

>  <SCORE.INTER.ROT>
3

>  <SCORE.INTER.SOLV>
6.38303

>  <SCORE.INTER.VDW>
-16.0771

>  <SCORE.INTER.norm>
-1.04368

>  <SCORE.INTRA>
-2.04729

>  <SCORE.INTRA.DIHEDRAL>
1.39602

>  <SCORE.INTRA.DIHEDRAL.0>
0.283163

>  <SCORE.INTRA.POLAR>
0

>  <SCORE.INTRA.POLAR.0>
0

>  <SCORE.INTRA.REPUL>
0

>  <SCORE.INTRA.REPUL.0>
0

>  <SCORE.INTRA.SOLV>
0.526738

>  <SCORE.INTRA.SOLV.lig_0>
-32.2894

>  <SCORE.INTRA.VDW>
-3.00867

>  <SCORE.INTRA.VDW.0>
2.0241

>  <SCORE.INTRA.norm>
-0.170608

>  <SCORE.RESTR>
0

>  <SCORE.RESTR.CAVITY>
0

>  <SCORE.RESTR.norm>
0

>  <SCORE.SYSTEM>
0

>  <SCORE.SYSTEM.CONST>
0

>  <SCORE.SYSTEM.DIHEDRAL>
0

>  <SCORE.SYSTEM.SOLV>
0

>  <SCORE.SYSTEM.norm>
0

>  <SCORE.heavy>
12

>  <SCORE.norm>
-1.21429

>  <RMSD>
3.852

$$$$
ligand
 OpenBabel11021811513D
libRbt.so/2013.1/901 2013/11/27
 12 12  0  0  0  0  0  0  0  0999 V2000
    0.6933    2.9409  -26.6375 O   0  0  0  0  0  0  0  0  0  0  0  0
    2.9789    0.8482  -31.7192 O   0  0  0  0  0  0  0  0  0  0  0  0
    2.0177    2.9586  -26.2567 C   0  0  0  0  0  0  0  0  0  0  0  0
    3.0728   -0.0114  -29.4392 O   0  0  0  0  0  0  0  0  0  0  0  0
    2.9358    3.3729  -27.3320 C   0  0  0  0  0  0  0  0  0  0  0  0
    4.9404   -0.3860  -30.9485 O   0  5  0  0  0  0  0  0  0  0  0  0
    2.7000    2.6200  -28.5712 N   0  3  0  0  0  0  0  0  0  0  0  0
    1.3058    2.6755  -28.9286 C   0  0  0  0  0  0  0  0  0  0  0  0
    0.4355    2.2539  -27.7904 C   0  0  0  0  0  0  0  0  0  0  0  0
    3.5248    3.1397  -29.6200 C   0  0  0  0  0  0  0  0  0  0  0  0
    4.6264    2.1080  -29.9720 C   0  0  0  0  0  0  0  0  0  0  0  0
    3.8774    0.5741  -30.5574 S   0  0  1  0  0  0  0  0  0  0  0  0
  1  3  1  0  0  0  0
  1  9  1  0  0  0  0
  2 12  1  0  0  0  0
  3  5  1  0  0  0  0
  4 12  2  0  0  0  0
  5  7  1  0  0  0  0
  6 12  2  0  0  0  0
  7  8  1  0  0  0  0
  7 10  1  0  0  0  0
  8  9  1  0  0  0  0
 10 11  1  0  0  0  0
 12 11  1  1  0  0  0
M  CHG  2   6  -1   7   1
M  END
>  <CHROM.1>
110.14348245,61.28357124,56.03438986,2.86949801,1.75531653,-29.15610429,2.14566224
0.34415443,0.75702963

>  <Name>
ligand

>  <RI>
0

>  <Rbt.Current_Directory>
/home/itssahil/PROJECTS/Mol_Feturizer/New_Systems/rnas/4P95

>  <Rbt.Executable>
rbdock ($Id: //depot/dev/client3/rdock/2013.1/src/exe/rbdock.cxx#4 $)

>  <Rbt.Library>
libRbt.so (2013.1, Build901 2013/11/27)

>  <Rbt.Parameter_File>
/export/apps/rDock/src/rDock_2013.1_src/data/scripts/dock_solv.prm

>  <Rbt.Receptor>
prm/pocket_docking_5.prm

>  <SCORE>
-12.8141

>  <SCORE.INTER>
-10.4019

>  <SCORE.INTER.CONST>
1

>  <SCORE.INTER.POLAR>
0

>  <SCORE.INTER.ROT>
3

>  <SCORE.INTER.SOLV>
7.56687

>  <SCORE.INTER.VDW>
-15.0569

>  <SCORE.INTER.norm>
-0.866827

>  <SCORE.INTRA>
-2.41214

>  <SCORE.INTRA.DIHEDRAL>
2.02514

>  <SCORE.INTRA.DIHEDRAL.0>
0.283163

>  <SCORE.INTRA.POLAR>
0

>  <SCORE.INTRA.POLAR.0>
0

>  <SCORE.INTRA.REPUL>
0

>  <SCORE.INTRA.REPUL.0>
0

>  <SCORE.INTRA.SOLV>
0.154868

>  <SCORE.INTRA.SOLV.lig_0>
-32.2894

>  <SCORE.INTRA.VDW>
-3.50214

>  <SCORE.INTRA.VDW.0>
2.0241

>  <SCORE.INTRA.norm>
-0.201012

>  <SCORE.RESTR>
0

>  <SCORE.RESTR.CAVITY>
0

>  <SCORE.RESTR.norm>
0

>  <SCORE.SYSTEM>
0

>  <SCORE.SYSTEM.CONST>
0

>  <SCORE.SYSTEM.DIHEDRAL>
0

>  <SCORE.SYSTEM.SOLV>
0

>  <SCORE.SYSTEM.norm>
0

>  <SCORE.heavy>
12

>  <SCORE.norm>
-1.06784

>  <RMSD>
3.853

$$$$
ligand
 OpenBabel11021811513D
libRbt.so/2013.1/901 2013/11/27
 12 12  0  0  0  0  0  0  0  0999 V2000
    0.6822    2.8949  -26.5109 O   0  0  0  0  0  0  0  0  0  0  0  0
    3.3987    0.2577  -29.5229 O   0  0  0  0  0  0  0  0  0  0  0  0
    2.0359    2.9101  -26.2531 C   0  0  0  0  0  0  0  0  0  0  0  0
    5.7587    0.2491  -30.1365 O   0  0  0  0  0  0  0  0  0  0  0  0
    2.8461    3.4042  -27.3802 C   0  0  0  0  0  0  0  0  0  0  0  0
    4.0843    0.8638  -31.7872 O   0  5  0  0  0  0  0  0  0  0  0  0
    2.5041    2.7252  -28.6372 N   0  3  0  0  0  0  0  0  0  0  0  0
    1.0822    2.7805  -28.8607 C   0  0  0  0  0  0  0  0  0  0  0  0
    0.3255    2.2760  -27.6760 C   0  0  0  0  0  0  0  0  0  0  0  0
    3.2228    3.3214  -29.7227 C   0  0  0  0  0  0  0  0  0  0  0  0
    4.6180    2.6583  -29.8463 C   0  0  0  0  0  0  0  0  0  0  0  0
    4.4445    0.9337  -30.3485 S   0  0  1  0  0  0  0  0  0  0  0  0
  1  3  1  0  0  0  0
  1  9  1  0  0  0  0
  2 12  1  0  0  0  0
  3  5  1  0  0  0  0
  4 12  2  0  0  0  0
  5  7  1  0  0  0  0
  6 12  2  0  0  0  0
  7  8  1  0  0  0  0
  7 10  1  0  0  0  0
  8  9  1  0  0  0  0
 10 11  1  0  0  0  0
 12 11  1  1  0  0  0
M  CHG  2   6  -1   7   1
M  END
>  <CHROM.1>
86.30980228,66.67504784,-47.07463954,3.08171113,1.95507847,-29.04996429,2.29082271
0.16627039,0.88216552

>  <Name>
ligand

>  <RI>
0

>  <Rbt.Current_Directory>
/home/itssahil/PROJECTS/Mol_Feturizer/New_Systems/rnas/4P95

>  <Rbt.Executable>
rbdock ($Id: //depot/dev/client3/rdock/2013.1/src/exe/rbdock.cxx#4 $)

>  <Rbt.Library>
libRbt.so (2013.1, Build901 2013/11/27)

>  <Rbt.Parameter_File>
/export/apps/rDock/src/rDock_2013.1_src/data/scripts/dock_solv.prm

>  <Rbt.Receptor>
prm/pocket_docking_7.prm

>  <SCORE>
-14.5638

>  <SCORE.INTER>
-12.5192

>  <SCORE.INTER.CONST>
1

>  <SCORE.INTER.POLAR>
0

>  <SCORE.INTER.ROT>
3

>  <SCORE.INTER.SOLV>
6.3774

>  <SCORE.INTER.VDW>
-16.0719

>  <SCORE.INTER.norm>
-1.04327

>  <SCORE.INTRA>
-2.04455

>  <SCORE.INTRA.DIHEDRAL>
1.36172

>  <SCORE.INTRA.DIHEDRAL.0>
0.283163

>  <SCORE.INTRA.POLAR>
0

>  <SCORE.INTRA.POLAR.0>
0

>  <SCORE.INTRA.REPUL>
0

>  <SCORE.INTRA.REPUL.0>
0

>  <SCORE.INTRA.SOLV>
0.458947

>  <SCORE.INTRA.SOLV.lig_0>
-32.2894

>  <SCORE.INTRA.VDW>
-2.95488

>  <SCORE.INTRA.VDW.0>
2.0241

>  <SCORE.INTRA.norm>
-0.170379

>  <SCORE.RESTR>
0

>  <SCORE.RESTR.CAVITY>
0

>  <SCORE.RESTR.norm>
0

>  <SCORE.SYSTEM>
0

>  <SCORE.SYSTEM.CONST>
0

>  <SCORE.SYSTEM.DIHEDRAL>
0

>  <SCORE.SYSTEM.SOLV>
0

>  <SCORE.SYSTEM.norm>
0

>  <SCORE.heavy>
12

>  <SCORE.norm>
-1.21365

>  <RMSD>
3.853

$$$$
ligand
 OpenBabel11021811513D
libRbt.so/2013.1/901 2013/11/27
 12 12  0  0  0  0  0  0  0  0999 V2000
    0.7140    2.8757  -26.5183 O   0  0  0  0  0  0  0  0  0  0  0  0
    3.5125    0.3072  -29.5159 O   0  0  0  0  0  0  0  0  0  0  0  0
    2.0681    2.8736  -26.2617 C   0  0  0  0  0  0  0  0  0  0  0  0
    5.8407    0.3706  -30.2384 O   0  0  0  0  0  0  0  0  0  0  0  0
    2.8804    3.3995  -27.3728 C   0  0  0  0  0  0  0  0  0  0  0  0
    4.0763    0.9754  -31.7963 O   0  5  0  0  0  0  0  0  0  0  0  0
    2.5328    2.7646  -28.6511 N   0  3  0  0  0  0  0  0  0  0  0  0
    1.1112    2.8363  -28.8711 C   0  0  0  0  0  0  0  0  0  0  0  0
    0.3523    2.2979  -27.7028 C   0  0  0  0  0  0  0  0  0  0  0  0
    3.2544    3.3916  -29.7172 C   0  0  0  0  0  0  0  0  0  0  0  0
    4.6564    2.7438  -29.8449 C   0  0  0  0  0  0  0  0  0  0  0  0
    4.5017    1.0258  -30.3747 S   0  0  1  0  0  0  0  0  0  0  0  0
  1  3  1  0  0  0  0
  1  9  1  0  0  0  0
  2 12  1  0  0  0  0
  3  5  1  0  0  0  0
  4 12  2  0  0  0  0
  5  7  1  0  0  0  0
  6 12  2  0  0  0  0
  7  8  1  0  0  0  0
  7 10  1  0  0  0  0
  8  9  1  0  0  0  0
 10 11  1  0  0  0  0
 12 11  1  1  0  0  0
M  CHG  2   6  -1   7   1
M  END
>  <CHROM.1>
85.13685752,66.22675084,-50.14192940,3.12520585,2.00868952,-29.06673783,2.29543987
0.12475114,0.94061994

>  <Name>
ligand

>  <RI>
0

>  <Rbt.Current_Directory>
/home/itssahil/PROJECTS/Mol_Feturizer/New_Systems/rnas/4P95

>  <Rbt.Executable>
rbdock ($Id: //depot/dev/client3/rdock/2013.1/src/exe/rbdock.cxx#4 $)

>  <Rbt.Library>
libRbt.so (2013.1, Build901 2013/11/27)

>  <Rbt.Parameter_File>
/export/apps/rDock/src/rDock_2013.1_src/data/scripts/dock_solv.prm

>  <Rbt.Receptor>
prm/pocket_docking_5.prm

>  <SCORE>
-14.5075

>  <SCORE.INTER>
-12.4027

>  <SCORE.INTER.CONST>
1

>  <SCORE.INTER.POLAR>
0

>  <SCORE.INTER.ROT>
3

>  <SCORE.INTER.SOLV>
6.47334

>  <SCORE.INTER.VDW>
-16.0262

>  <SCORE.INTER.norm>
-1.03356

>  <SCORE.INTRA>
-2.10487

>  <SCORE.INTRA.DIHEDRAL>
1.09708

>  <SCORE.INTRA.DIHEDRAL.0>
0.283163

>  <SCORE.INTRA.POLAR>
0

>  <SCORE.INTRA.POLAR.0>
0

>  <SCORE.INTRA.REPUL>
0

>  <SCORE.INTRA.REPUL.0>
0

>  <SCORE.INTRA.SOLV>
0.578632

>  <SCORE.INTRA.SOLV.lig_0>
-32.2894

>  <SCORE.INTRA.VDW>
-2.94273

>  <SCORE.INTRA.VDW.0>
2.0241

>  <SCORE.INTRA.norm>
-0.175406

>  <SCORE.RESTR>
0

>  <SCORE.RESTR.CAVITY>
0

>  <SCORE.RESTR.norm>
0

>  <SCORE.SYSTEM>
0

>  <SCORE.SYSTEM.CONST>
0

>  <SCORE.SYSTEM.DIHEDRAL>
0

>  <SCORE.SYSTEM.SOLV>
0

>  <SCORE.SYSTEM.norm>
0

>  <SCORE.heavy>
12

>  <SCORE.norm>
-1.20896

>  <RMSD>
3.855

$$$$
ligand
 OpenBabel11021811513D
libRbt.so/2013.1/901 2013/11/27
 12 12  0  0  0  0  0  0  0  0999 V2000
    0.5817    2.8685  -26.6233 O   0  0  0  0  0  0  0  0  0  0  0  0
    3.3589    0.2803  -29.5009 O   0  0  0  0  0  0  0  0  0  0  0  0
    1.9214    2.9061  -26.3023 C   0  0  0  0  0  0  0  0  0  0  0  0
    5.6972    0.2135  -30.1897 O   0  0  0  0  0  0  0  0  0  0  0  0
    2.7744    3.4217  -27.3874 C   0  0  0  0  0  0  0  0  0  0  0  0
    3.9885    0.8873  -31.7812 O   0  5  0  0  0  0  0  0  0  0  0  0
    2.5037    2.7449  -28.6628 N   0  3  0  0  0  0  0  0  0  0  0  0
    1.0931    2.7763  -28.9524 C   0  0  0  0  0  0  0  0  0  0  0  0
    0.2911    2.2509  -27.8072 C   0  0  0  0  0  0  0  0  0  0  0  0
    3.2615    3.3606  -29.7101 C   0  0  0  0  0  0  0  0  0  0  0  0
    4.6321    2.6499  -29.8444 C   0  0  0  0  0  0  0  0  0  0  0  0
    4.3960    0.9351  -30.3542 S   0  0  1  0  0  0  0  0  0  0  0  0
  1  3  1  0  0  0  0
  1  9  1  0  0  0  0
  2 12  1  0  0  0  0
  3  5  1  0  0  0  0
  4 12  2  0  0  0  0
  5  7  1  0  0  0  0
  6 12  2  0  0  0  0
  7  8  1  0  0  0  0
  7 10  1  0  0  0  0
  8  9  1  0  0  0  0
 10 11  1  0  0  0  0
 12 11  1  1  0  0  0
M  CHG  2   6  -1   7   1
M  END
>  <CHROM.1>
90.65651796,64.10386685,-48.67605094,3.03781996,1.95648695,-29.08320509,2.31673936
0.25093308,0.79342045

>  <Name>
ligand

>  <RI>
0

>  <Rbt.Current_Directory>
/home/itssahil/PROJECTS/Mol_Feturizer/New_Systems/rnas/4P95

>  <Rbt.Executable>
rbdock ($Id: //depot/dev/client3/rdock/2013.1/src/exe/rbdock.cxx#4 $)

>  <Rbt.Library>
libRbt.so (2013.1, Build901 2013/11/27)

>  <Rbt.Parameter_File>
/export/apps/rDock/src/rDock_2013.1_src/data/scripts/dock_solv.prm

>  <Rbt.Receptor>
prm/pocket_docking_8.prm

>  <SCORE>
-14.5426

>  <SCORE.INTER>
-12.5103

>  <SCORE.INTER.CONST>
1

>  <SCORE.INTER.POLAR>
0

>  <SCORE.INTER.ROT>
3

>  <SCORE.INTER.SOLV>
6.19575

>  <SCORE.INTER.VDW>
-16.0054

>  <SCORE.INTER.norm>
-1.04252

>  <SCORE.INTRA>
-2.0323

>  <SCORE.INTRA.DIHEDRAL>
1.43658

>  <SCORE.INTRA.DIHEDRAL.0>
0.283163

>  <SCORE.INTRA.POLAR>
0

>  <SCORE.INTRA.POLAR.0>
0

>  <SCORE.INTRA.REPUL>
0

>  <SCORE.INTRA.REPUL.0>
0

>  <SCORE.INTRA.SOLV>
0.640355

>  <SCORE.INTRA.SOLV.lig_0>
-32.2894

>  <SCORE.INTRA.VDW>
-3.07076

>  <SCORE.INTRA.VDW.0>
2.0241

>  <SCORE.INTRA.norm>
-0.169358

>  <SCORE.RESTR>
0

>  <SCORE.RESTR.CAVITY>
0

>  <SCORE.RESTR.norm>
0

>  <SCORE.SYSTEM>
0

>  <SCORE.SYSTEM.CONST>
0

>  <SCORE.SYSTEM.DIHEDRAL>
0

>  <SCORE.SYSTEM.SOLV>
0

>  <SCORE.SYSTEM.norm>
0

>  <SCORE.heavy>
12

>  <SCORE.norm>
-1.21188

>  <RMSD>
3.855

$$$$
ligand
 OpenBabel11021811513D
libRbt.so/2013.1/901 2013/11/27
 12 12  0  0  0  0  0  0  0  0999 V2000
    0.7101    2.9275  -26.6320 O   0  0  0  0  0  0  0  0  0  0  0  0
    2.9237    0.9126  -31.6963 O   0  0  0  0  0  0  0  0  0  0  0  0
    2.0283    2.9339  -26.2300 C   0  0  0  0  0  0  0  0  0  0  0  0
    3.0559   -0.0335  -29.4527 O   0  0  0  0  0  0  0  0  0  0  0  0
    2.9663    3.3481  -27.2881 C   0  0  0  0  0  0  0  0  0  0  0  0
    4.8707   -0.4010  -31.0269 O   0  5  0  0  0  0  0  0  0  0  0  0
    2.7454    2.6038  -28.5352 N   0  3  0  0  0  0  0  0  0  0  0  0
    1.3575    2.6708  -28.9145 C   0  0  0  0  0  0  0  0  0  0  0  0
    0.4662    2.2487  -27.7928 C   0  0  0  0  0  0  0  0  0  0  0  0
    3.5904    3.1238  -29.5677 C   0  0  0  0  0  0  0  0  0  0  0  0
    4.6522    2.0623  -29.9515 C   0  0  0  0  0  0  0  0  0  0  0  0
    3.8457    0.5717  -30.5711 S   0  0  1  0  0  0  0  0  0  0  0  0
  1  3  1  0  0  0  0
  1  9  1  0  0  0  0
  2 12  1  0  0  0  0
  3  5  1  0  0  0  0
  4 12  2  0  0  0  0
  5  7  1  0  0  0  0
  6 12  2  0  0  0  0
  7  8  1  0  0  0  0
  7 10  1  0  0  0  0
  8  9  1  0  0  0  0
 10 11  1  0  0  0  0
 12 11  1  1  0  0  0
M  CHG  2   6  -1   7   1
M  END
>  <CHROM.1>
112.60670124,60.82603510,54.47835741,2.87276275,1.74618310,-29.14980832,2.12824674
0.33666333,0.77645077

>  <Name>
ligand

>  <RI>
0

>  <Rbt.Current_Directory>
/home/itssahil/PROJECTS/Mol_Feturizer/New_Systems/rnas/4P95

>  <Rbt.Executable>
rbdock ($Id: //depot/dev/client3/rdock/2013.1/src/exe/rbdock.cxx#4 $)

>  <Rbt.Library>
libRbt.so (2013.1, Build901 2013/11/27)

>  <Rbt.Parameter_File>
/export/apps/rDock/src/rDock_2013.1_src/data/scripts/dock_solv.prm

>  <Rbt.Receptor>
prm/pocket_docking_4.prm

>  <SCORE>
-12.7484

>  <SCORE.INTER>
-10.3258

>  <SCORE.INTER.CONST>
1

>  <SCORE.INTER.POLAR>
0

>  <SCORE.INTER.ROT>
3

>  <SCORE.INTER.SOLV>
7.46814

>  <SCORE.INTER.VDW>
-14.9732

>  <SCORE.INTER.norm>
-0.860481

>  <SCORE.INTRA>
-2.4226

>  <SCORE.INTRA.DIHEDRAL>
2.11151

>  <SCORE.INTRA.DIHEDRAL.0>
0.283163

>  <SCORE.INTRA.POLAR>
0

>  <SCORE.INTRA.POLAR.0>
0

>  <SCORE.INTRA.REPUL>
0

>  <SCORE.INTRA.REPUL.0>
0

>  <SCORE.INTRA.SOLV>
0.138577

>  <SCORE.INTRA.SOLV.lig_0>
-32.2894

>  <SCORE.INTRA.VDW>
-3.54765

>  <SCORE.INTRA.VDW.0>
2.0241

>  <SCORE.INTRA.norm>
-0.201884

>  <SCORE.RESTR>
0

>  <SCORE.RESTR.CAVITY>
0

>  <SCORE.RESTR.norm>
0

>  <SCORE.SYSTEM>
0

>  <SCORE.SYSTEM.CONST>
0

>  <SCORE.SYSTEM.DIHEDRAL>
0

>  <SCORE.SYSTEM.SOLV>
0

>  <SCORE.SYSTEM.norm>
0

>  <SCORE.heavy>
12

>  <SCORE.norm>
-1.06236

>  <RMSD>
3.857

$$$$
ligand
 OpenBabel11021811513D
libRbt.so/2013.1/901 2013/11/27
 12 12  0  0  0  0  0  0  0  0999 V2000
    0.5632    2.8573  -26.6345 O   0  0  0  0  0  0  0  0  0  0  0  0
    3.3562    0.2902  -29.5289 O   0  0  0  0  0  0  0  0  0  0  0  0
    1.9014    2.8972  -26.3072 C   0  0  0  0  0  0  0  0  0  0  0  0
    5.7076    0.2318  -30.1725 O   0  0  0  0  0  0  0  0  0  0  0  0
    2.7580    3.4188  -27.3866 C   0  0  0  0  0  0  0  0  0  0  0  0
    4.0288    0.9117  -31.7930 O   0  5  0  0  0  0  0  0  0  0  0  0
    2.4949    2.7457  -28.6656 N   0  3  0  0  0  0  0  0  0  0  0  0
    1.0855    2.7745  -28.9615 C   0  0  0  0  0  0  0  0  0  0  0  0
    0.2796    2.2430  -27.8219 C   0  0  0  0  0  0  0  0  0  0  0  0
    3.2558    3.3671  -29.7073 C   0  0  0  0  0  0  0  0  0  0  0  0
    4.6311    2.6642  -29.8339 C   0  0  0  0  0  0  0  0  0  0  0  0
    4.4084    0.9519  -30.3581 S   0  0  1  0  0  0  0  0  0  0  0  0
  1  3  1  0  0  0  0
  1  9  1  0  0  0  0
  2 12  1  0  0  0  0
  3  5  1  0  0  0  0
  4 12  2  0  0  0  0
  5  7  1  0  0  0  0
  6 12  2  0  0  0  0
  7  8  1  0  0  0  0
  7 10  1  0  0  0  0
  8  9  1  0  0  0  0
 10 11  1  0  0  0  0
 12 11  1  1  0  0  0
M  CHG  2   6  -1   7   1
M  END
>  <CHROM.1>
90.42392862,64.48121739,-48.06589903,3.03717767,1.96268075,-29.08789892,2.32226081
0.24420607,0.80177191

>  <Name>
ligand

>  <RI>
0

>  <Rbt.Current_Directory>
/home/itssahil/PROJECTS/Mol_Feturizer/New_Systems/rnas/4P95

>  <Rbt.Executable>
rbdock ($Id: //depot/dev/client3/rdock/2013.1/src/exe/rbdock.cxx#4 $)

>  <Rbt.Library>
libRbt.so (2013.1, Build901 2013/11/27)

>  <Rbt.Parameter_File>
/export/apps/rDock/src/rDock_2013.1_src/data/scripts/dock_solv.prm

>  <Rbt.Receptor>
prm/pocket_docking_5.prm

>  <SCORE>
-14.5689

>  <SCORE.INTER>
-12.5454

>  <SCORE.INTER.CONST>
1

>  <SCORE.INTER.POLAR>
0

>  <SCORE.INTER.ROT>
3

>  <SCORE.INTER.SOLV>
6.19956

>  <SCORE.INTER.VDW>
-16.0301

>  <SCORE.INTER.norm>
-1.04545

>  <SCORE.INTRA>
-2.02349

>  <SCORE.INTRA.DIHEDRAL>
1.46875

>  <SCORE.INTRA.DIHEDRAL.0>
0.283163

>  <SCORE.INTRA.POLAR>
0

>  <SCORE.INTRA.POLAR.0>
0

>  <SCORE.INTRA.REPUL>
0

>  <SCORE.INTRA.REPUL.0>
0

>  <SCORE.INTRA.SOLV>
0.603242

>  <SCORE.INTRA.SOLV.lig_0>
-32.2894

>  <SCORE.INTRA.VDW>
-3.05948

>  <SCORE.INTRA.VDW.0>
2.0241

>  <SCORE.INTRA.norm>
-0.168624

>  <SCORE.RESTR>
0

>  <SCORE.RESTR.CAVITY>
0

>  <SCORE.RESTR.norm>
0

>  <SCORE.SYSTEM>
0

>  <SCORE.SYSTEM.CONST>
0

>  <SCORE.SYSTEM.DIHEDRAL>
0

>  <SCORE.SYSTEM.SOLV>
0

>  <SCORE.SYSTEM.norm>
0

>  <SCORE.heavy>
12

>  <SCORE.norm>
-1.21408

>  <RMSD>
3.858

$$$$
ligand
 OpenBabel11021811513D
libRbt.so/2013.1/901 2013/11/27
 12 12  0  0  0  0  0  0  0  0999 V2000
    0.5804    2.8530  -26.6252 O   0  0  0  0  0  0  0  0  0  0  0  0
    3.3712    0.2985  -29.5205 O   0  0  0  0  0  0  0  0  0  0  0  0
    1.9198    2.8990  -26.3040 C   0  0  0  0  0  0  0  0  0  0  0  0
    5.7216    0.2465  -30.1680 O   0  0  0  0  0  0  0  0  0  0  0  0
    2.7692    3.4235  -27.3876 C   0  0  0  0  0  0  0  0  0  0  0  0
    4.0371    0.9097  -31.7893 O   0  5  0  0  0  0  0  0  0  0  0  0
    2.5033    2.7482  -28.6648 N   0  3  0  0  0  0  0  0  0  0  0  0
    1.0926    2.7707  -28.9545 C   0  0  0  0  0  0  0  0  0  0  0  0
    0.2941    2.2366  -27.8108 C   0  0  0  0  0  0  0  0  0  0  0  0
    3.2569    3.3720  -29.7105 C   0  0  0  0  0  0  0  0  0  0  0  0
    4.6354    2.6761  -29.8416 C   0  0  0  0  0  0  0  0  0  0  0  0
    4.4190    0.9598  -30.3554 S   0  0  1  0  0  0  0  0  0  0  0  0
  1  3  1  0  0  0  0
  1  9  1  0  0  0  0
  2 12  1  0  0  0  0
  3  5  1  0  0  0  0
  4 12  2  0  0  0  0
  5  7  1  0  0  0  0
  6 12  2  0  0  0  0
  7  8  1  0  0  0  0
  7 10  1  0  0  0  0
  8  9  1  0  0  0  0
 10 11  1  0  0  0  0
 12 11  1  1  0  0  0
M  CHG  2   6  -1   7   1
M  END
>  <CHROM.1>
90.35793075,64.23210828,-47.81704497,3.04811199,1.96648478,-29.08456427,2.32347535
0.25006712,0.79905168

>  <Name>
ligand

>  <RI>
0

>  <Rbt.Current_Directory>
/home/itssahil/PROJECTS/Mol_Feturizer/New_Systems/rnas/4P95

>  <Rbt.Executable>
rbdock ($Id: //depot/dev/client3/rdock/2013.1/src/exe/rbdock.cxx#4 $)

>  <Rbt.Library>
libRbt.so (2013.1, Build901 2013/11/27)

>  <Rbt.Parameter_File>
/export/apps/rDock/src/rDock_2013.1_src/data/scripts/dock_solv.prm

>  <Rbt.Receptor>
prm/pocket_docking_7.prm

>  <SCORE>
-14.5666

>  <SCORE.INTER>
-12.5474

>  <SCORE.INTER.CONST>
1

>  <SCORE.INTER.POLAR>
0

>  <SCORE.INTER.ROT>
3

>  <SCORE.INTER.SOLV>
6.23888

>  <SCORE.INTER.VDW>
-16.0446

>  <SCORE.INTER.norm>
-1.04562

>  <SCORE.INTRA>
-2.01915

>  <SCORE.INTRA.DIHEDRAL>
1.47099

>  <SCORE.INTRA.DIHEDRAL.0>
0.283163

>  <SCORE.INTRA.POLAR>
0

>  <SCORE.INTRA.POLAR.0>
0

>  <SCORE.INTRA.REPUL>
0

>  <SCORE.INTRA.REPUL.0>
0

>  <SCORE.INTRA.SOLV>
0.598127

>  <SCORE.INTRA.SOLV.lig_0>
-32.2894

>  <SCORE.INTRA.VDW>
-3.05371

>  <SCORE.INTRA.VDW.0>
2.0241

>  <SCORE.INTRA.norm>
-0.168262

>  <SCORE.RESTR>
0

>  <SCORE.RESTR.CAVITY>
0

>  <SCORE.RESTR.norm>
0

>  <SCORE.SYSTEM>
0

>  <SCORE.SYSTEM.CONST>
0

>  <SCORE.SYSTEM.DIHEDRAL>
0

>  <SCORE.SYSTEM.SOLV>
0

>  <SCORE.SYSTEM.norm>
0

>  <SCORE.heavy>
12

>  <SCORE.norm>
-1.21388

>  <RMSD>
3.858

$$$$
ligand
 OpenBabel11021811513D
libRbt.so/2013.1/901 2013/11/27
 12 12  0  0  0  0  0  0  0  0999 V2000
    0.5820    2.8463  -26.6300 O   0  0  0  0  0  0  0  0  0  0  0  0
    3.3929    0.2987  -29.5064 O   0  0  0  0  0  0  0  0  0  0  0  0
    1.9217    2.8826  -26.3090 C   0  0  0  0  0  0  0  0  0  0  0  0
    5.7489    0.2576  -30.1340 O   0  0  0  0  0  0  0  0  0  0  0  0
    2.7738    3.4089  -27.3897 C   0  0  0  0  0  0  0  0  0  0  0  0
    4.0738    0.8998  -31.7735 O   0  5  0  0  0  0  0  0  0  0  0  0
    2.5037    2.7431  -28.6710 N   0  3  0  0  0  0  0  0  0  0  0  0
    1.0929    2.7754  -28.9600 C   0  0  0  0  0  0  0  0  0  0  0  0
    0.2918    2.2389  -27.8194 C   0  0  0  0  0  0  0  0  0  0  0  0
    3.2605    3.3690  -29.7130 C   0  0  0  0  0  0  0  0  0  0  0  0
    4.6446    2.6822  -29.8321 C   0  0  0  0  0  0  0  0  0  0  0  0
    4.4434    0.9614  -30.3368 S   0  0  1  0  0  0  0  0  0  0  0  0
  1  3  1  0  0  0  0
  1  9  1  0  0  0  0
  2 12  1  0  0  0  0
  3  5  1  0  0  0  0
  4 12  2  0  0  0  0
  5  7  1  0  0  0  0
  6 12  2  0  0  0  0
  7  8  1  0  0  0  0
  7 10  1  0  0  0  0
  8  9  1  0  0  0  0
 10 11  1  0  0  0  0
 12 11  1  1  0  0  0
M  CHG  2   6  -1   7   1
M  END
>  <CHROM.1>
89.36643521,64.03461846,-47.65600249,3.06059792,1.96444442,-29.07810221,2.32688359
0.22772151,0.81537623

>  <Name>
ligand

>  <RI>
0

>  <Rbt.Current_Directory>
/home/itssahil/PROJECTS/Mol_Feturizer/New_Systems/rnas/4P95

>  <Rbt.Executable>
rbdock ($Id: //depot/dev/client3/rdock/2013.1/src/exe/rbdock.cxx#4 $)

>  <Rbt.Library>
libRbt.so (2013.1, Build901 2013/11/27)

>  <Rbt.Parameter_File>
/export/apps/rDock/src/rDock_2013.1_src/data/scripts/dock_solv.prm

>  <Rbt.Receptor>
prm/pocket_docking_4.prm

>  <SCORE>
-14.5933

>  <SCORE.INTER>
-12.5478

>  <SCORE.INTER.CONST>
1

>  <SCORE.INTER.POLAR>
0

>  <SCORE.INTER.ROT>
3

>  <SCORE.INTER.SOLV>
6.28193

>  <SCORE.INTER.VDW>
-16.0592

>  <SCORE.INTER.norm>
-1.04565

>  <SCORE.INTRA>
-2.04556

>  <SCORE.INTRA.DIHEDRAL>
1.41227

>  <SCORE.INTRA.DIHEDRAL.0>
0.283163

>  <SCORE.INTRA.POLAR>
0

>  <SCORE.INTRA.POLAR.0>
0

>  <SCORE.INTRA.REPUL>
0

>  <SCORE.INTRA.REPUL.0>
0

>  <SCORE.INTRA.SOLV>
0.583283

>  <SCORE.INTRA.SOLV.lig_0>
-32.2894

>  <SCORE.INTRA.VDW>
-3.04334

>  <SCORE.INTRA.VDW.0>
2.0241

>  <SCORE.INTRA.norm>
-0.170464

>  <SCORE.RESTR>
0

>  <SCORE.RESTR.CAVITY>
0

>  <SCORE.RESTR.norm>
0

>  <SCORE.SYSTEM>
0

>  <SCORE.SYSTEM.CONST>
0

>  <SCORE.SYSTEM.DIHEDRAL>
0

>  <SCORE.SYSTEM.SOLV>
0

>  <SCORE.SYSTEM.norm>
0

>  <SCORE.heavy>
12

>  <SCORE.norm>
-1.21611

>  <RMSD>
3.860

$$$$
ligand
 OpenBabel11021811513D
libRbt.so/2013.1/901 2013/11/27
 12 12  0  0  0  0  0  0  0  0999 V2000
    0.5863    2.8516  -26.6283 O   0  0  0  0  0  0  0  0  0  0  0  0
    3.3866    0.3057  -29.5089 O   0  0  0  0  0  0  0  0  0  0  0  0
    1.9264    2.8882  -26.3088 C   0  0  0  0  0  0  0  0  0  0  0  0
    5.7442    0.2579  -30.1299 O   0  0  0  0  0  0  0  0  0  0  0  0
    2.7772    3.4143  -27.3905 C   0  0  0  0  0  0  0  0  0  0  0  0
    4.0752    0.9005  -31.7754 O   0  5  0  0  0  0  0  0  0  0  0  0
    2.5058    2.7479  -28.6713 N   0  3  0  0  0  0  0  0  0  0  0  0
    1.0947    2.7799  -28.9588 C   0  0  0  0  0  0  0  0  0  0  0  0
    0.2949    2.2437  -27.8171 C   0  0  0  0  0  0  0  0  0  0  0  0
    3.2613    3.3737  -29.7144 C   0  0  0  0  0  0  0  0  0  0  0  0
    4.6446    2.6857  -29.8361 C   0  0  0  0  0  0  0  0  0  0  0  0
    4.4409    0.9643  -30.3378 S   0  0  1  0  0  0  0  0  0  0  0  0
  1  3  1  0  0  0  0
  1  9  1  0  0  0  0
  2 12  1  0  0  0  0
  3  5  1  0  0  0  0
  4 12  2  0  0  0  0
  5  7  1  0  0  0  0
  6 12  2  0  0  0  0
  7  8  1  0  0  0  0
  7 10  1  0  0  0  0
  8  9  1  0  0  0  0
 10 11  1  0  0  0  0
 12 11  1  1  0  0  0
M  CHG  2   6  -1   7   1
M  END
>  <CHROM.1>
89.44950074,63.91499175,-47.33092501,3.06091742,1.96840420,-29.07833716,2.32605916
0.23061392,0.81294286

>  <Name>
ligand

>  <RI>
0

>  <Rbt.Current_Directory>
/home/itssahil/PROJECTS/Mol_Feturizer/New_Systems/rnas/4P95

>  <Rbt.Executable>
rbdock ($Id: //depot/dev/client3/rdock/2013.1/src/exe/rbdock.cxx#4 $)

>  <Rbt.Library>
libRbt.so (2013.1, Build901 2013/11/27)

>  <Rbt.Parameter_File>
/export/apps/rDock/src/rDock_2013.1_src/data/scripts/dock_solv.prm

>  <Rbt.Receptor>
prm/pocket_docking_4.prm

>  <SCORE>
-14.5852

>  <SCORE.INTER>
-12.5478

>  <SCORE.INTER.CONST>
1

>  <SCORE.INTER.POLAR>
0

>  <SCORE.INTER.ROT>
3

>  <SCORE.INTER.SOLV>
6.2854

>  <SCORE.INTER.VDW>
-16.0603

>  <SCORE.INTER.norm>
-1.04565

>  <SCORE.INTRA>
-2.0374

>  <SCORE.INTRA.DIHEDRAL>
1.43342

>  <SCORE.INTRA.DIHEDRAL.0>
0.283163

>  <SCORE.INTRA.POLAR>
0

>  <SCORE.INTRA.POLAR.0>
0

>  <SCORE.INTRA.REPUL>
0

>  <SCORE.INTRA.REPUL.0>
0

>  <SCORE.INTRA.SOLV>
0.573934

>  <SCORE.INTRA.SOLV.lig_0>
-32.2894

>  <SCORE.INTRA.VDW>
-3.04108

>  <SCORE.INTRA.VDW.0>
2.0241

>  <SCORE.INTRA.norm>
-0.169783

>  <SCORE.RESTR>
0

>  <SCORE.RESTR.CAVITY>
0

>  <SCORE.RESTR.norm>
0

>  <SCORE.SYSTEM>
0

>  <SCORE.SYSTEM.CONST>
0

>  <SCORE.SYSTEM.DIHEDRAL>
0

>  <SCORE.SYSTEM.SOLV>
0

>  <SCORE.SYSTEM.norm>
0

>  <SCORE.heavy>
12

>  <SCORE.norm>
-1.21543

>  <RMSD>
3.861

$$$$
ligand
 OpenBabel11021811513D
libRbt.so/2013.1/901 2013/11/27
 12 12  0  0  0  0  0  0  0  0999 V2000
    0.6887    2.8652  -26.5017 O   0  0  0  0  0  0  0  0  0  0  0  0
    3.3495    0.2958  -29.5403 O   0  0  0  0  0  0  0  0  0  0  0  0
    2.0397    2.9077  -26.2331 C   0  0  0  0  0  0  0  0  0  0  0  0
    5.7058    0.2340  -30.1651 O   0  0  0  0  0  0  0  0  0  0  0  0
    2.8483    3.4221  -27.3522 C   0  0  0  0  0  0  0  0  0  0  0  0
    4.0391    0.8976  -31.8046 O   0  5  0  0  0  0  0  0  0  0  0  0
    2.5304    2.7403  -28.6139 N   0  3  0  0  0  0  0  0  0  0  0  0
    1.1095    2.7667  -28.8486 C   0  0  0  0  0  0  0  0  0  0  0  0
    0.3541    2.2428  -27.6714 C   0  0  0  0  0  0  0  0  0  0  0  0
    3.2450    3.3547  -29.6919 C   0  0  0  0  0  0  0  0  0  0  0  0
    4.6246    2.6682  -29.8567 C   0  0  0  0  0  0  0  0  0  0  0  0
    4.4075    0.9511  -30.3672 S   0  0  1  0  0  0  0  0  0  0  0  0
  1  3  1  0  0  0  0
  1  9  1  0  0  0  0
  2 12  1  0  0  0  0
  3  5  1  0  0  0  0
  4 12  2  0  0  0  0
  5  7  1  0  0  0  0
  6 12  2  0  0  0  0
  7  8  1  0  0  0  0
  7 10  1  0  0  0  0
  8  9  1  0  0  0  0
 10 11  1  0  0  0  0
 12 11  1  1  0  0  0
M  CHG  2   6  -1   7   1
M  END
>  <CHROM.1>
89.40825853,65.24149565,-45.80102969,3.07244372,1.96209015,-29.04969466,2.29447533
0.25279263,0.82121505

>  <Name>
ligand

>  <RI>
0

>  <Rbt.Current_Directory>
/home/itssahil/PROJECTS/Mol_Feturizer/New_Systems/rnas/4P95

>  <Rbt.Executable>
rbdock ($Id: //depot/dev/client3/rdock/2013.1/src/exe/rbdock.cxx#4 $)

>  <Rbt.Library>
libRbt.so (2013.1, Build901 2013/11/27)

>  <Rbt.Parameter_File>
/export/apps/rDock/src/rDock_2013.1_src/data/scripts/dock_solv.prm

>  <Rbt.Receptor>
prm/pocket_docking_6.prm

>  <SCORE>
-14.5363

>  <SCORE.INTER>
-12.5344

>  <SCORE.INTER.CONST>
1

>  <SCORE.INTER.POLAR>
0

>  <SCORE.INTER.ROT>
3

>  <SCORE.INTER.SOLV>
6.39614

>  <SCORE.INTER.VDW>
-16.0883

>  <SCORE.INTER.norm>
-1.04453

>  <SCORE.INTRA>
-2.00191

>  <SCORE.INTRA.DIHEDRAL>
1.57343

>  <SCORE.INTRA.DIHEDRAL.0>
0.283163

>  <SCORE.INTRA.POLAR>
0

>  <SCORE.INTRA.POLAR.0>
0

>  <SCORE.INTRA.REPUL>
0

>  <SCORE.INTRA.REPUL.0>
0

>  <SCORE.INTRA.SOLV>
0.480359

>  <SCORE.INTRA.SOLV.lig_0>
-32.2894

>  <SCORE.INTRA.VDW>
-3.0288

>  <SCORE.INTRA.VDW.0>
2.0241

>  <SCORE.INTRA.norm>
-0.166826

>  <SCORE.RESTR>
0

>  <SCORE.RESTR.CAVITY>
0

>  <SCORE.RESTR.norm>
0

>  <SCORE.SYSTEM>
0

>  <SCORE.SYSTEM.CONST>
0

>  <SCORE.SYSTEM.DIHEDRAL>
0

>  <SCORE.SYSTEM.SOLV>
0

>  <SCORE.SYSTEM.norm>
0

>  <SCORE.heavy>
12

>  <SCORE.norm>
-1.21136

>  <RMSD>
3.861

$$$$
ligand
 OpenBabel11021811513D
libRbt.so/2013.1/901 2013/11/27
 12 12  0  0  0  0  0  0  0  0999 V2000
    0.6817    2.9121  -26.5205 O   0  0  0  0  0  0  0  0  0  0  0  0
    3.4131    0.2627  -29.5027 O   0  0  0  0  0  0  0  0  0  0  0  0
    2.0329    2.9002  -26.2493 C   0  0  0  0  0  0  0  0  0  0  0  0
    5.7701    0.2402  -30.1275 O   0  0  0  0  0  0  0  0  0  0  0  0
    2.8629    3.3946  -27.3617 C   0  0  0  0  0  0  0  0  0  0  0  0
    4.0929    0.8803  -31.7657 O   0  5  0  0  0  0  0  0  0  0  0  0
    2.5217    2.7381  -28.6308 N   0  3  0  0  0  0  0  0  0  0  0  0
    1.1033    2.8212  -28.8676 C   0  0  0  0  0  0  0  0  0  0  0  0
    0.3261    2.3147  -27.6971 C   0  0  0  0  0  0  0  0  0  0  0  0
    3.2615    3.3356  -29.7013 C   0  0  0  0  0  0  0  0  0  0  0  0
    4.6497    2.6559  -29.8140 C   0  0  0  0  0  0  0  0  0  0  0  0
    4.4604    0.9366  -30.3282 S   0  0  1  0  0  0  0  0  0  0  0  0
  1  3  1  0  0  0  0
  1  9  1  0  0  0  0
  2 12  1  0  0  0  0
  3  5  1  0  0  0  0
  4 12  2  0  0  0  0
  5  7  1  0  0  0  0
  6 12  2  0  0  0  0
  7  8  1  0  0  0  0
  7 10  1  0  0  0  0
  8  9  1  0  0  0  0
 10 11  1  0  0  0  0
 12 11  1  1  0  0  0
M  CHG  2   6  -1   7   1
M  END
>  <CHROM.1>
85.94717528,66.42105640,-47.99711776,3.09604664,1.96411068,-29.03927526,2.29082338
0.13566709,0.90183070

>  <Name>
ligand

>  <RI>
0

>  <Rbt.Current_Directory>
/home/itssahil/PROJECTS/Mol_Feturizer/New_Systems/rnas/4P95

>  <Rbt.Executable>
rbdock ($Id: //depot/dev/client3/rdock/2013.1/src/exe/rbdock.cxx#4 $)

>  <Rbt.Library>
libRbt.so (2013.1, Build901 2013/11/27)

>  <Rbt.Parameter_File>
/export/apps/rDock/src/rDock_2013.1_src/data/scripts/dock_solv.prm

>  <Rbt.Receptor>
prm/pocket_docking_4.prm

>  <SCORE>
-14.5525

>  <SCORE.INTER>
-12.4856

>  <SCORE.INTER.CONST>
1

>  <SCORE.INTER.POLAR>
0

>  <SCORE.INTER.ROT>
3

>  <SCORE.INTER.SOLV>
6.40939

>  <SCORE.INTER.VDW>
-16.0602

>  <SCORE.INTER.norm>
-1.04047

>  <SCORE.INTRA>
-2.06692

>  <SCORE.INTRA.DIHEDRAL>
1.27166

>  <SCORE.INTRA.DIHEDRAL.0>
0.283163

>  <SCORE.INTRA.POLAR>
0

>  <SCORE.INTRA.POLAR.0>
0

>  <SCORE.INTRA.REPUL>
0

>  <SCORE.INTRA.REPUL.0>
0

>  <SCORE.INTRA.SOLV>
0.497322

>  <SCORE.INTRA.SOLV.lig_0>
-32.2894

>  <SCORE.INTRA.VDW>
-2.95141

>  <SCORE.INTRA.VDW.0>
2.0241

>  <SCORE.INTRA.norm>
-0.172243

>  <SCORE.RESTR>
0

>  <SCORE.RESTR.CAVITY>
0

>  <SCORE.RESTR.norm>
0

>  <SCORE.SYSTEM>
0

>  <SCORE.SYSTEM.CONST>
0

>  <SCORE.SYSTEM.DIHEDRAL>
0

>  <SCORE.SYSTEM.SOLV>
0

>  <SCORE.SYSTEM.norm>
0

>  <SCORE.heavy>
12

>  <SCORE.norm>
-1.21271

>  <RMSD>
3.862

$$$$
ligand
 OpenBabel11021811513D
libRbt.so/2013.1/901 2013/11/27
 12 12  0  0  0  0  0  0  0  0999 V2000
    0.6829    2.8722  -26.5242 O   0  0  0  0  0  0  0  0  0  0  0  0
    3.4302    0.2698  -29.4747 O   0  0  0  0  0  0  0  0  0  0  0  0
    2.0320    2.9009  -26.2446 C   0  0  0  0  0  0  0  0  0  0  0  0
    5.7785    0.2459  -30.1317 O   0  0  0  0  0  0  0  0  0  0  0  0
    2.8549    3.4083  -27.3565 C   0  0  0  0  0  0  0  0  0  0  0  0
    4.0777    0.8685  -31.7522 O   0  5  0  0  0  0  0  0  0  0  0  0
    2.5404    2.7308  -28.6215 N   0  3  0  0  0  0  0  0  0  0  0  0
    1.1218    2.7717  -28.8677 C   0  0  0  0  0  0  0  0  0  0  0  0
    0.3516    2.2543  -27.6973 C   0  0  0  0  0  0  0  0  0  0  0  0
    3.2700    3.3391  -29.6930 C   0  0  0  0  0  0  0  0  0  0  0  0
    4.6580    2.6624  -29.8242 C   0  0  0  0  0  0  0  0  0  0  0  0
    4.4648    0.9383  -30.3204 S   0  0  1  0  0  0  0  0  0  0  0  0
  1  3  1  0  0  0  0
  1  9  1  0  0  0  0
  2 12  1  0  0  0  0
  3  5  1  0  0  0  0
  4 12  2  0  0  0  0
  5  7  1  0  0  0  0
  6 12  2  0  0  0  0
  7  8  1  0  0  0  0
  7 10  1  0  0  0  0
  8  9  1  0  0  0  0
 10 11  1  0  0  0  0
 12 11  1  1  0  0  0
M  CHG  2   6  -1   7   1
M  END
>  <CHROM.1>
88.00155123,65.29627936,-47.77673853,3.10280238,1.95447961,-29.03400515,2.30310887
0.20912737,0.84179257

>  <Name>
ligand

>  <RI>
0

>  <Rbt.Current_Directory>
/home/itssahil/PROJECTS/Mol_Feturizer/New_Systems/rnas/4P95

>  <Rbt.Executable>
rbdock ($Id: //depot/dev/client3/rdock/2013.1/src/exe/rbdock.cxx#4 $)

>  <Rbt.Library>
libRbt.so (2013.1, Build901 2013/11/27)

>  <Rbt.Parameter_File>
/export/apps/rDock/src/rDock_2013.1_src/data/scripts/dock_solv.prm

>  <Rbt.Receptor>
prm/pocket_docking_5.prm

>  <SCORE>
-14.5522

>  <SCORE.INTER>
-12.4931

>  <SCORE.INTER.CONST>
1

>  <SCORE.INTER.POLAR>
0

>  <SCORE.INTER.ROT>
3

>  <SCORE.INTER.SOLV>
6.45423

>  <SCORE.INTER.VDW>
-16.0801

>  <SCORE.INTER.norm>
-1.04109

>  <SCORE.INTRA>
-2.05915

>  <SCORE.INTRA.DIHEDRAL>
1.36363

>  <SCORE.INTRA.DIHEDRAL.0>
0.283163

>  <SCORE.INTRA.POLAR>
0

>  <SCORE.INTRA.POLAR.0>
0

>  <SCORE.INTRA.REPUL>
0

>  <SCORE.INTRA.REPUL.0>
0

>  <SCORE.INTRA.SOLV>
0.540815

>  <SCORE.INTRA.SOLV.lig_0>
-32.2894

>  <SCORE.INTRA.VDW>
-3.01137

>  <SCORE.INTRA.VDW.0>
2.0241

>  <SCORE.INTRA.norm>
-0.171596

>  <SCORE.RESTR>
0

>  <SCORE.RESTR.CAVITY>
0

>  <SCORE.RESTR.norm>
0

>  <SCORE.SYSTEM>
0

>  <SCORE.SYSTEM.CONST>
0

>  <SCORE.SYSTEM.DIHEDRAL>
0

>  <SCORE.SYSTEM.SOLV>
0

>  <SCORE.SYSTEM.norm>
0

>  <SCORE.heavy>
12

>  <SCORE.norm>
-1.21269

>  <RMSD>
3.862

$$$$
ligand
 OpenBabel11021811513D
libRbt.so/2013.1/901 2013/11/27
 12 12  0  0  0  0  0  0  0  0999 V2000
    0.6056    2.8780  -26.6010 O   0  0  0  0  0  0  0  0  0  0  0  0
    3.3407    0.2796  -29.4750 O   0  0  0  0  0  0  0  0  0  0  0  0
    1.9476    2.9125  -26.2895 C   0  0  0  0  0  0  0  0  0  0  0  0
    5.6930    0.1833  -30.1109 O   0  0  0  0  0  0  0  0  0  0  0  0
    2.7949    3.4190  -27.3833 C   0  0  0  0  0  0  0  0  0  0  0  0
    4.0238    0.8325  -31.7537 O   0  5  0  0  0  0  0  0  0  0  0  0
    2.5130    2.7360  -28.6530 N   0  3  0  0  0  0  0  0  0  0  0  0
    1.1005    2.7709  -28.9330 C   0  0  0  0  0  0  0  0  0  0  0  0
    0.3045    2.2548  -27.7794 C   0  0  0  0  0  0  0  0  0  0  0  0
    3.2657    3.3431  -29.7090 C   0  0  0  0  0  0  0  0  0  0  0  0
    4.6368    2.6332  -29.8422 C   0  0  0  0  0  0  0  0  0  0  0  0
    4.4005    0.9091  -30.3195 S   0  0  1  0  0  0  0  0  0  0  0  0
  1  3  1  0  0  0  0
  1  9  1  0  0  0  0
  2 12  1  0  0  0  0
  3  5  1  0  0  0  0
  4 12  2  0  0  0  0
  5  7  1  0  0  0  0
  6 12  2  0  0  0  0
  7  8  1  0  0  0  0
  7 10  1  0  0  0  0
  8  9  1  0  0  0  0
 10 11  1  0  0  0  0
 12 11  1  1  0  0  0
M  CHG  2   6  -1   7   1
M  END
>  <CHROM.1>
90.26288165,63.55217354,-46.86194706,3.04777803,1.94296844,-29.05917038,2.31403184
0.24793143,0.78770956

>  <Name>
ligand

>  <RI>
0

>  <Rbt.Current_Directory>
/home/itssahil/PROJECTS/Mol_Feturizer/New_Systems/rnas/4P95

>  <Rbt.Executable>
rbdock ($Id: //depot/dev/client3/rdock/2013.1/src/exe/rbdock.cxx#4 $)

>  <Rbt.Library>
libRbt.so (2013.1, Build901 2013/11/27)

>  <Rbt.Parameter_File>
/export/apps/rDock/src/rDock_2013.1_src/data/scripts/dock_solv.prm

>  <Rbt.Receptor>
prm/pocket_docking_7.prm

>  <SCORE>
-14.5214

>  <SCORE.INTER>
-12.5058

>  <SCORE.INTER.CONST>
1

>  <SCORE.INTER.POLAR>
0

>  <SCORE.INTER.ROT>
3

>  <SCORE.INTER.SOLV>
6.28097

>  <SCORE.INTER.VDW>
-16.0309

>  <SCORE.INTER.norm>
-1.04215

>  <SCORE.INTRA>
-2.01555

>  <SCORE.INTRA.DIHEDRAL>
1.50304

>  <SCORE.INTRA.DIHEDRAL.0>
0.283163

>  <SCORE.INTRA.POLAR>
0

>  <SCORE.INTRA.POLAR.0>
0

>  <SCORE.INTRA.REPUL>
0

>  <SCORE.INTRA.REPUL.0>
0

>  <SCORE.INTRA.SOLV>
0.574045

>  <SCORE.INTRA.SOLV.lig_0>
-32.2894

>  <SCORE.INTRA.VDW>
-3.05409

>  <SCORE.INTRA.VDW.0>
2.0241

>  <SCORE.INTRA.norm>
-0.167963

>  <SCORE.RESTR>
0

>  <SCORE.RESTR.CAVITY>
0

>  <SCORE.RESTR.norm>
0

>  <SCORE.SYSTEM>
0

>  <SCORE.SYSTEM.CONST>
0

>  <SCORE.SYSTEM.DIHEDRAL>
0

>  <SCORE.SYSTEM.SOLV>
0

>  <SCORE.SYSTEM.norm>
0

>  <SCORE.heavy>
12

>  <SCORE.norm>
-1.21011

>  <RMSD>
3.862

$$$$
ligand
 OpenBabel11021811513D
libRbt.so/2013.1/901 2013/11/27
 12 12  0  0  0  0  0  0  0  0999 V2000
    0.5900    2.8660  -26.6140 O   0  0  0  0  0  0  0  0  0  0  0  0
    3.3071    0.2938  -29.4888 O   0  0  0  0  0  0  0  0  0  0  0  0
    1.9308    2.9004  -26.2973 C   0  0  0  0  0  0  0  0  0  0  0  0
    5.6568    0.1756  -30.1303 O   0  0  0  0  0  0  0  0  0  0  0  0
    2.7814    3.4153  -27.3847 C   0  0  0  0  0  0  0  0  0  0  0  0
    3.9902    0.8432  -31.7683 O   0  5  0  0  0  0  0  0  0  0  0  0
    2.5051    2.7404  -28.6599 N   0  3  0  0  0  0  0  0  0  0  0  0
    1.0936    2.7752  -28.9449 C   0  0  0  0  0  0  0  0  0  0  0  0
    0.2942    2.2503  -27.7977 C   0  0  0  0  0  0  0  0  0  0  0  0
    3.2608    3.3557  -29.7090 C   0  0  0  0  0  0  0  0  0  0  0  0
    4.6251    2.6352  -29.8558 C   0  0  0  0  0  0  0  0  0  0  0  0
    4.3709    0.9141  -30.3349 S   0  0  1  0  0  0  0  0  0  0  0  0
  1  3  1  0  0  0  0
  1  9  1  0  0  0  0
  2 12  1  0  0  0  0
  3  5  1  0  0  0  0
  4 12  2  0  0  0  0
  5  7  1  0  0  0  0
  6 12  2  0  0  0  0
  7  8  1  0  0  0  0
  7 10  1  0  0  0  0
  8  9  1  0  0  0  0
 10 11  1  0  0  0  0
 12 11  1  1  0  0  0
M  CHG  2   6  -1   7   1
M  END
>  <CHROM.1>
91.08457810,62.77796115,-46.47931494,3.02792061,1.94444707,-29.07103023,2.31484456
0.26376644,0.77755518

>  <Name>
ligand

>  <RI>
0

>  <Rbt.Current_Directory>
/home/itssahil/PROJECTS/Mol_Feturizer/New_Systems/rnas/4P95

>  <Rbt.Executable>
rbdock ($Id: //depot/dev/client3/rdock/2013.1/src/exe/rbdock.cxx#4 $)

>  <Rbt.Library>
libRbt.so (2013.1, Build901 2013/11/27)

>  <Rbt.Parameter_File>
/export/apps/rDock/src/rDock_2013.1_src/data/scripts/dock_solv.prm

>  <Rbt.Receptor>
prm/pocket_docking_4.prm

>  <SCORE>
-14.5194

>  <SCORE.INTER>
-12.5301

>  <SCORE.INTER.CONST>
1

>  <SCORE.INTER.POLAR>
0

>  <SCORE.INTER.ROT>
3

>  <SCORE.INTER.SOLV>
6.22591

>  <SCORE.INTER.VDW>
-16.0287

>  <SCORE.INTER.norm>
-1.04417

>  <SCORE.INTRA>
-1.9893

>  <SCORE.INTRA.DIHEDRAL>
1.56003

>  <SCORE.INTRA.DIHEDRAL.0>
0.283163

>  <SCORE.INTRA.POLAR>
0

>  <SCORE.INTRA.POLAR.0>
0

>  <SCORE.INTRA.REPUL>
0

>  <SCORE.INTRA.REPUL.0>
0

>  <SCORE.INTRA.SOLV>
0.587637

>  <SCORE.INTRA.SOLV.lig_0>
-32.2894

>  <SCORE.INTRA.VDW>
-3.06313

>  <SCORE.INTRA.VDW.0>
2.0241

>  <SCORE.INTRA.norm>
-0.165775

>  <SCORE.RESTR>
0

>  <SCORE.RESTR.CAVITY>
0

>  <SCORE.RESTR.norm>
0

>  <SCORE.SYSTEM>
0

>  <SCORE.SYSTEM.CONST>
0

>  <SCORE.SYSTEM.DIHEDRAL>
0

>  <SCORE.SYSTEM.SOLV>
0

>  <SCORE.SYSTEM.norm>
0

>  <SCORE.heavy>
12

>  <SCORE.norm>
-1.20995

>  <RMSD>
3.863

$$$$
ligand
 OpenBabel11021811513D
libRbt.so/2013.1/901 2013/11/27
 12 12  0  0  0  0  0  0  0  0999 V2000
    0.5716    2.8321  -26.6321 O   0  0  0  0  0  0  0  0  0  0  0  0
    3.3511    0.3096  -29.5070 O   0  0  0  0  0  0  0  0  0  0  0  0
    1.9084    2.8977  -26.3037 C   0  0  0  0  0  0  0  0  0  0  0  0
    5.7157    0.2317  -30.0978 O   0  0  0  0  0  0  0  0  0  0  0  0
    2.7571    3.4264  -27.3858 C   0  0  0  0  0  0  0  0  0  0  0  0
    4.0742    0.8767  -31.7698 O   0  5  0  0  0  0  0  0  0  0  0  0
    2.5074    2.7397  -28.6602 N   0  3  0  0  0  0  0  0  0  0  0  0
    1.0981    2.7419  -28.9579 C   0  0  0  0  0  0  0  0  0  0  0  0
    0.3002    2.2046  -27.8154 C   0  0  0  0  0  0  0  0  0  0  0  0
    3.2587    3.3668  -29.7055 C   0  0  0  0  0  0  0  0  0  0  0  0
    4.6381    2.6733  -29.8396 C   0  0  0  0  0  0  0  0  0  0  0  0
    4.4226    0.9497  -30.3284 S   0  0  1  0  0  0  0  0  0  0  0  0
  1  3  1  0  0  0  0
  1  9  1  0  0  0  0
  2 12  1  0  0  0  0
  3  5  1  0  0  0  0
  4 12  2  0  0  0  0
  5  7  1  0  0  0  0
  6 12  2  0  0  0  0
  7  8  1  0  0  0  0
  7 10  1  0  0  0  0
  8  9  1  0  0  0  0
 10 11  1  0  0  0  0
 12 11  1  1  0  0  0
M  CHG  2   6  -1   7   1
M  END
>  <CHROM.1>
91.25787140,63.24051930,-45.86128672,3.04865519,1.95460818,-29.07177789,2.33459213
0.27385807,0.77063902

>  <Name>
ligand

>  <RI>
0

>  <Rbt.Current_Directory>
/home/itssahil/PROJECTS/Mol_Feturizer/New_Systems/rnas/4P95

>  <Rbt.Executable>
rbdock ($Id: //depot/dev/client3/rdock/2013.1/src/exe/rbdock.cxx#4 $)

>  <Rbt.Library>
libRbt.so (2013.1, Build901 2013/11/27)

>  <Rbt.Parameter_File>
/export/apps/rDock/src/rDock_2013.1_src/data/scripts/dock_solv.prm

>  <Rbt.Receptor>
prm/pocket_docking_5.prm

>  <SCORE>
-14.5246

>  <SCORE.INTER>
-12.5496

>  <SCORE.INTER.CONST>
1

>  <SCORE.INTER.POLAR>
0

>  <SCORE.INTER.ROT>
3

>  <SCORE.INTER.SOLV>
6.29848

>  <SCORE.INTER.VDW>
-16.0659

>  <SCORE.INTER.norm>
-1.0458

>  <SCORE.INTRA>
-1.97501

>  <SCORE.INTRA.DIHEDRAL>
1.62142

>  <SCORE.INTRA.DIHEDRAL.0>
0.283163

>  <SCORE.INTRA.POLAR>
0

>  <SCORE.INTRA.POLAR.0>
0

>  <SCORE.INTRA.REPUL>
0

>  <SCORE.INTRA.REPUL.0>
0

>  <SCORE.INTRA.SOLV>
0.553779

>  <SCORE.INTRA.SOLV.lig_0>
-32.2894

>  <SCORE.INTRA.VDW>
-3.06261

>  <SCORE.INTRA.VDW.0>
2.0241

>  <SCORE.INTRA.norm>
-0.164584

>  <SCORE.RESTR>
0

>  <SCORE.RESTR.CAVITY>
0

>  <SCORE.RESTR.norm>
0

>  <SCORE.SYSTEM>
0

>  <SCORE.SYSTEM.CONST>
0

>  <SCORE.SYSTEM.DIHEDRAL>
0

>  <SCORE.SYSTEM.SOLV>
0

>  <SCORE.SYSTEM.norm>
0

>  <SCORE.heavy>
12

>  <SCORE.norm>
-1.21038

>  <RMSD>
3.866

$$$$
ligand
 OpenBabel11021811513D
libRbt.so/2013.1/901 2013/11/27
 12 12  0  0  0  0  0  0  0  0999 V2000
    0.5577    2.8287  -26.6516 O   0  0  0  0  0  0  0  0  0  0  0  0
    3.3930    0.3083  -29.4941 O   0  0  0  0  0  0  0  0  0  0  0  0
    1.8952    2.8635  -26.3212 C   0  0  0  0  0  0  0  0  0  0  0  0
    5.7436    0.2691  -30.1418 O   0  0  0  0  0  0  0  0  0  0  0  0
    2.7540    3.4002  -27.3913 C   0  0  0  0  0  0  0  0  0  0  0  0
    4.0539    0.9088  -31.7672 O   0  5  0  0  0  0  0  0  0  0  0  0
    2.4932    2.7455  -28.6803 N   0  3  0  0  0  0  0  0  0  0  0  0
    1.0845    2.7789  -28.9785 C   0  0  0  0  0  0  0  0  0  0  0  0
    0.2762    2.2315  -27.8481 C   0  0  0  0  0  0  0  0  0  0  0  0
    3.2564    3.3814  -29.7115 C   0  0  0  0  0  0  0  0  0  0  0  0
    4.6396    2.6929  -29.8317 C   0  0  0  0  0  0  0  0  0  0  0  0
    4.4358    0.9716  -30.3337 S   0  0  1  0  0  0  0  0  0  0  0  0
  1  3  1  0  0  0  0
  1  9  1  0  0  0  0
  2 12  1  0  0  0  0
  3  5  1  0  0  0  0
  4 12  2  0  0  0  0
  5  7  1  0  0  0  0
  6 12  2  0  0  0  0
  7  8  1  0  0  0  0
  7 10  1  0  0  0  0
  8  9  1  0  0  0  0
 10 11  1  0  0  0  0
 12 11  1  1  0  0  0
M  CHG  2   6  -1   7   1
M  END
>  <CHROM.1>
89.62515997,63.22550695,-48.08340691,3.04878435,1.96671062,-29.08342644,2.33391631
0.23154354,0.81136715

>  <Name>
ligand

>  <RI>
0

>  <Rbt.Current_Directory>
/home/itssahil/PROJECTS/Mol_Feturizer/New_Systems/rnas/4P95

>  <Rbt.Executable>
rbdock ($Id: //depot/dev/client3/rdock/2013.1/src/exe/rbdock.cxx#4 $)

>  <Rbt.Library>
libRbt.so (2013.1, Build901 2013/11/27)

>  <Rbt.Parameter_File>
/export/apps/rDock/src/rDock_2013.1_src/data/scripts/dock_solv.prm

>  <Rbt.Receptor>
prm/pocket_docking_5.prm

>  <SCORE>
-14.5845

>  <SCORE.INTER>
-12.536

>  <SCORE.INTER.CONST>
1

>  <SCORE.INTER.POLAR>
0

>  <SCORE.INTER.ROT>
3

>  <SCORE.INTER.SOLV>
6.25225

>  <SCORE.INTER.VDW>
-16.0414

>  <SCORE.INTER.norm>
-1.04467

>  <SCORE.INTRA>
-2.0485

>  <SCORE.INTRA.DIHEDRAL>
1.38137

>  <SCORE.INTRA.DIHEDRAL.0>
0.283163

>  <SCORE.INTRA.POLAR>
0

>  <SCORE.INTRA.POLAR.0>
0

>  <SCORE.INTRA.REPUL>
0

>  <SCORE.INTRA.REPUL.0>
0

>  <SCORE.INTRA.SOLV>
0.623381

>  <SCORE.INTRA.SOLV.lig_0>
-32.2894

>  <SCORE.INTRA.VDW>
-3.05087

>  <SCORE.INTRA.VDW.0>
2.0241

>  <SCORE.INTRA.norm>
-0.170708

>  <SCORE.RESTR>
0

>  <SCORE.RESTR.CAVITY>
0

>  <SCORE.RESTR.norm>
0

>  <SCORE.SYSTEM>
0

>  <SCORE.SYSTEM.CONST>
0

>  <SCORE.SYSTEM.DIHEDRAL>
0

>  <SCORE.SYSTEM.SOLV>
0

>  <SCORE.SYSTEM.norm>
0

>  <SCORE.heavy>
12

>  <SCORE.norm>
-1.21538

>  <RMSD>
3.866

$$$$
ligand
 OpenBabel11021811513D
libRbt.so/2013.1/901 2013/11/27
 12 12  0  0  0  0  0  0  0  0999 V2000
    0.5725    2.8603  -26.6065 O   0  0  0  0  0  0  0  0  0  0  0  0
    3.3424    0.2818  -29.5019 O   0  0  0  0  0  0  0  0  0  0  0  0
    1.9120    2.9052  -26.2857 C   0  0  0  0  0  0  0  0  0  0  0  0
    5.6842    0.2136  -30.1786 O   0  0  0  0  0  0  0  0  0  0  0  0
    2.7623    3.4230  -27.3718 C   0  0  0  0  0  0  0  0  0  0  0  0
    3.9848    0.8935  -31.7773 O   0  5  0  0  0  0  0  0  0  0  0  0
    2.4950    2.7423  -28.6458 N   0  3  0  0  0  0  0  0  0  0  0  0
    1.0843    2.7662  -28.9354 C   0  0  0  0  0  0  0  0  0  0  0  0
    0.2849    2.2389  -27.7892 C   0  0  0  0  0  0  0  0  0  0  0  0
    3.2497    3.3599  -29.6944 C   0  0  0  0  0  0  0  0  0  0  0  0
    4.6205    2.6505  -29.8329 C   0  0  0  0  0  0  0  0  0  0  0  0
    4.3848    0.9373  -30.3481 S   0  0  1  0  0  0  0  0  0  0  0  0
  1  3  1  0  0  0  0
  1  9  1  0  0  0  0
  2 12  1  0  0  0  0
  3  5  1  0  0  0  0
  4 12  2  0  0  0  0
  5  7  1  0  0  0  0
  6 12  2  0  0  0  0
  7  8  1  0  0  0  0
  7 10  1  0  0  0  0
  8  9  1  0  0  0  0
 10 11  1  0  0  0  0
 12 11  1  1  0  0  0
M  CHG  2   6  -1   7   1
M  END
>  <CHROM.1>
90.98244497,64.25078970,-48.28216046,3.02753314,1.95504437,-29.07162764,2.31736648
0.25947668,0.78944753

>  <Name>
ligand

>  <RI>
0

>  <Rbt.Current_Directory>
/home/itssahil/PROJECTS/Mol_Feturizer/New_Systems/rnas/4P95

>  <Rbt.Executable>
rbdock ($Id: //depot/dev/client3/rdock/2013.1/src/exe/rbdock.cxx#4 $)

>  <Rbt.Library>
libRbt.so (2013.1, Build901 2013/11/27)

>  <Rbt.Parameter_File>
/export/apps/rDock/src/rDock_2013.1_src/data/scripts/dock_solv.prm

>  <Rbt.Receptor>
prm/pocket_docking_6.prm

>  <SCORE>
-14.5396

>  <SCORE.INTER>
-12.5189

>  <SCORE.INTER.CONST>
1

>  <SCORE.INTER.POLAR>
0

>  <SCORE.INTER.ROT>
3

>  <SCORE.INTER.SOLV>
6.21922

>  <SCORE.INTER.VDW>
-16.019

>  <SCORE.INTER.norm>
-1.04324

>  <SCORE.INTRA>
-2.02068

>  <SCORE.INTRA.DIHEDRAL>
1.48366

>  <SCORE.INTRA.DIHEDRAL.0>
0.283163

>  <SCORE.INTRA.POLAR>
0

>  <SCORE.INTRA.POLAR.0>
0

>  <SCORE.INTRA.REPUL>
0

>  <SCORE.INTRA.REPUL.0>
0

>  <SCORE.INTRA.SOLV>
0.624906

>  <SCORE.INTRA.SOLV.lig_0>
-32.2894

>  <SCORE.INTRA.VDW>
-3.07496

>  <SCORE.INTRA.VDW.0>
2.0241

>  <SCORE.INTRA.norm>
-0.16839

>  <SCORE.RESTR>
0

>  <SCORE.RESTR.CAVITY>
0

>  <SCORE.RESTR.norm>
0

>  <SCORE.SYSTEM>
0

>  <SCORE.SYSTEM.CONST>
0

>  <SCORE.SYSTEM.DIHEDRAL>
0

>  <SCORE.SYSTEM.SOLV>
0

>  <SCORE.SYSTEM.norm>
0

>  <SCORE.heavy>
12

>  <SCORE.norm>
-1.21163

>  <RMSD>
3.867

$$$$
ligand
 OpenBabel11021811513D
libRbt.so/2013.1/901 2013/11/27
 12 12  0  0  0  0  0  0  0  0999 V2000
    0.5574    2.8521  -26.6270 O   0  0  0  0  0  0  0  0  0  0  0  0
    3.3593    0.2964  -29.5197 O   0  0  0  0  0  0  0  0  0  0  0  0
    1.8943    2.9020  -26.2962 C   0  0  0  0  0  0  0  0  0  0  0  0
    5.7049    0.2431  -30.1843 O   0  0  0  0  0  0  0  0  0  0  0  0
    2.7502    3.4282  -27.3740 C   0  0  0  0  0  0  0  0  0  0  0  0
    4.0112    0.9281  -31.7869 O   0  5  0  0  0  0  0  0  0  0  0  0
    2.4954    2.7514  -28.6526 N   0  3  0  0  0  0  0  0  0  0  0  0
    1.0867    2.7697  -28.9525 C   0  0  0  0  0  0  0  0  0  0  0  0
    0.2814    2.2342  -27.8143 C   0  0  0  0  0  0  0  0  0  0  0  0
    3.2548    3.3766  -29.6932 C   0  0  0  0  0  0  0  0  0  0  0  0
    4.6292    2.6729  -29.8258 C   0  0  0  0  0  0  0  0  0  0  0  0
    4.4034    0.9626  -30.3553 S   0  0  1  0  0  0  0  0  0  0  0  0
  1  3  1  0  0  0  0
  1  9  1  0  0  0  0
  2 12  1  0  0  0  0
  3  5  1  0  0  0  0
  4 12  2  0  0  0  0
  5  7  1  0  0  0  0
  6 12  2  0  0  0  0
  7  8  1  0  0  0  0
  7 10  1  0  0  0  0
  8  9  1  0  0  0  0
 10 11  1  0  0  0  0
 12 11  1  1  0  0  0
M  CHG  2   6  -1   7   1
M  END
>  <CHROM.1>
91.06439055,64.41490627,-48.44197106,3.03343215,1.96858103,-29.08108010,2.32493920
0.25842886,0.79225309

>  <Name>
ligand

>  <RI>
0

>  <Rbt.Current_Directory>
/home/itssahil/PROJECTS/Mol_Feturizer/New_Systems/rnas/4P95

>  <Rbt.Executable>
rbdock ($Id: //depot/dev/client3/rdock/2013.1/src/exe/rbdock.cxx#4 $)

>  <Rbt.Library>
libRbt.so (2013.1, Build901 2013/11/27)

>  <Rbt.Parameter_File>
/export/apps/rDock/src/rDock_2013.1_src/data/scripts/dock_solv.prm

>  <Rbt.Receptor>
prm/pocket_docking_6.prm

>  <SCORE>
-14.5617

>  <SCORE.INTER>
-12.5389

>  <SCORE.INTER.CONST>
1

>  <SCORE.INTER.POLAR>
0

>  <SCORE.INTER.ROT>
3

>  <SCORE.INTER.SOLV>
6.21767

>  <SCORE.INTER.VDW>
-16.0318

>  <SCORE.INTER.norm>
-1.04491

>  <SCORE.INTRA>
-2.02274

>  <SCORE.INTRA.DIHEDRAL>
1.48505

>  <SCORE.INTRA.DIHEDRAL.0>
0.283163

>  <SCORE.INTRA.POLAR>
0

>  <SCORE.INTRA.POLAR.0>
0

>  <SCORE.INTRA.REPUL>
0

>  <SCORE.INTRA.REPUL.0>
0

>  <SCORE.INTRA.SOLV>
0.62861

>  <SCORE.INTRA.SOLV.lig_0>
-32.2894

>  <SCORE.INTRA.VDW>
-3.07957

>  <SCORE.INTRA.VDW.0>
2.0241

>  <SCORE.INTRA.norm>
-0.168562

>  <SCORE.RESTR>
0

>  <SCORE.RESTR.CAVITY>
0

>  <SCORE.RESTR.norm>
0

>  <SCORE.SYSTEM>
0

>  <SCORE.SYSTEM.CONST>
0

>  <SCORE.SYSTEM.DIHEDRAL>
0

>  <SCORE.SYSTEM.SOLV>
0

>  <SCORE.SYSTEM.norm>
0

>  <SCORE.heavy>
12

>  <SCORE.norm>
-1.21347

>  <RMSD>
3.867

$$$$
ligand
 OpenBabel11021811513D
libRbt.so/2013.1/901 2013/11/27
 12 12  0  0  0  0  0  0  0  0999 V2000
    0.5929    2.8352  -26.7119 O   0  0  0  0  0  0  0  0  0  0  0  0
    2.6978    1.0551  -31.6683 O   0  0  0  0  0  0  0  0  0  0  0  0
    1.9003    2.9034  -26.2814 C   0  0  0  0  0  0  0  0  0  0  0  0
    3.0973   -0.0494  -29.5313 O   0  0  0  0  0  0  0  0  0  0  0  0
    2.8398    3.3671  -27.3175 C   0  0  0  0  0  0  0  0  0  0  0  0
    4.7415   -0.2334  -31.3114 O   0  5  0  0  0  0  0  0  0  0  0  0
    2.6818    2.6188  -28.5717 N   0  3  0  0  0  0  0  0  0  0  0  0
    1.3008    2.6206  -28.9808 C   0  0  0  0  0  0  0  0  0  0  0  0
    0.4070    2.1509  -27.8801 C   0  0  0  0  0  0  0  0  0  0  0  0
    3.5227    3.1836  -29.5837 C   0  0  0  0  0  0  0  0  0  0  0  0
    4.5713    2.1339  -30.0312 C   0  0  0  0  0  0  0  0  0  0  0  0
    3.7447    0.6652  -30.6762 S   0  0  1  0  0  0  0  0  0  0  0  0
  1  3  1  0  0  0  0
  1  9  1  0  0  0  0
  2 12  1  0  0  0  0
  3  5  1  0  0  0  0
  4 12  2  0  0  0  0
  5  7  1  0  0  0  0
  6 12  2  0  0  0  0
  7  8  1  0  0  0  0
  7 10  1  0  0  0  0
  8  9  1  0  0  0  0
 10 11  1  0  0  0  0
 12 11  1  1  0  0  0
M  CHG  2   6  -1   7   1
M  END
>  <CHROM.1>
117.20989556,59.23946203,48.95448378,2.77853987,1.77730836,-29.22780372,2.13774341
0.37110697,0.78876484

>  <Name>
ligand

>  <RI>
0

>  <Rbt.Current_Directory>
/home/itssahil/PROJECTS/Mol_Feturizer/New_Systems/rnas/4P95

>  <Rbt.Executable>
rbdock ($Id: //depot/dev/client3/rdock/2013.1/src/exe/rbdock.cxx#4 $)

>  <Rbt.Library>
libRbt.so (2013.1, Build901 2013/11/27)

>  <Rbt.Parameter_File>
/export/apps/rDock/src/rDock_2013.1_src/data/scripts/dock_solv.prm

>  <Rbt.Receptor>
prm/pocket_docking_4.prm

>  <SCORE>
-12.7683

>  <SCORE.INTER>
-10.3929

>  <SCORE.INTER.CONST>
1

>  <SCORE.INTER.POLAR>
0

>  <SCORE.INTER.ROT>
3

>  <SCORE.INTER.SOLV>
6.69787

>  <SCORE.INTER.VDW>
-14.7612

>  <SCORE.INTER.norm>
-0.866072

>  <SCORE.INTRA>
-2.37546

>  <SCORE.INTRA.DIHEDRAL>
2.37147

>  <SCORE.INTRA.DIHEDRAL.0>
0.283163

>  <SCORE.INTRA.POLAR>
0

>  <SCORE.INTRA.POLAR.0>
0

>  <SCORE.INTRA.REPUL>
0

>  <SCORE.INTRA.REPUL.0>
0

>  <SCORE.INTRA.SOLV>
0.0729977

>  <SCORE.INTRA.SOLV.lig_0>
-32.2894

>  <SCORE.INTRA.VDW>
-3.59769

>  <SCORE.INTRA.VDW.0>
2.0241

>  <SCORE.INTRA.norm>
-0.197955

>  <SCORE.RESTR>
0

>  <SCORE.RESTR.CAVITY>
0

>  <SCORE.RESTR.norm>
0

>  <SCORE.SYSTEM>
0

>  <SCORE.SYSTEM.CONST>
0

>  <SCORE.SYSTEM.DIHEDRAL>
0

>  <SCORE.SYSTEM.SOLV>
0

>  <SCORE.SYSTEM.norm>
0

>  <SCORE.heavy>
12

>  <SCORE.norm>
-1.06403

>  <RMSD>
3.868

$$$$
ligand
 OpenBabel11021811513D
libRbt.so/2013.1/901 2013/11/27
 12 12  0  0  0  0  0  0  0  0999 V2000
    0.5617    2.8633  -26.6318 O   0  0  0  0  0  0  0  0  0  0  0  0
    3.3808    0.2906  -29.5137 O   0  0  0  0  0  0  0  0  0  0  0  0
    1.9006    2.8860  -26.3062 C   0  0  0  0  0  0  0  0  0  0  0  0
    5.7435    0.2500  -30.1157 O   0  0  0  0  0  0  0  0  0  0  0  0
    2.7615    3.4054  -27.3832 C   0  0  0  0  0  0  0  0  0  0  0  0
    4.0875    0.9062  -31.7690 O   0  5  0  0  0  0  0  0  0  0  0  0
    2.4892    2.7440  -28.6663 N   0  3  0  0  0  0  0  0  0  0  0  0
    1.0799    2.7906  -28.9601 C   0  0  0  0  0  0  0  0  0  0  0  0
    0.2696    2.2604  -27.8229 C   0  0  0  0  0  0  0  0  0  0  0  0
    3.2557    3.3638  -29.7049 C   0  0  0  0  0  0  0  0  0  0  0  0
    4.6397    2.6743  -29.8092 C   0  0  0  0  0  0  0  0  0  0  0  0
    4.4414    0.9574  -30.3279 S   0  0  1  0  0  0  0  0  0  0  0  0
  1  3  1  0  0  0  0
  1  9  1  0  0  0  0
  2 12  1  0  0  0  0
  3  5  1  0  0  0  0
  4 12  2  0  0  0  0
  5  7  1  0  0  0  0
  6 12  2  0  0  0  0
  7  8  1  0  0  0  0
  7 10  1  0  0  0  0
  8  9  1  0  0  0  0
 10 11  1  0  0  0  0
 12 11  1  1  0  0  0
M  CHG  2   6  -1   7   1
M  END
>  <CHROM.1>
88.71459683,64.75609496,-47.83485143,3.05158721,1.96617685,-29.07250995,2.32464417
0.20256013,0.83339733

>  <Name>
ligand

>  <RI>
0

>  <Rbt.Current_Directory>
/home/itssahil/PROJECTS/Mol_Feturizer/New_Systems/rnas/4P95

>  <Rbt.Executable>
rbdock ($Id: //depot/dev/client3/rdock/2013.1/src/exe/rbdock.cxx#4 $)

>  <Rbt.Library>
libRbt.so (2013.1, Build901 2013/11/27)

>  <Rbt.Parameter_File>
/export/apps/rDock/src/rDock_2013.1_src/data/scripts/dock_solv.prm

>  <Rbt.Receptor>
prm/pocket_docking_6.prm

>  <SCORE>
-14.58

>  <SCORE.INTER>
-12.5242

>  <SCORE.INTER.CONST>
1

>  <SCORE.INTER.POLAR>
0

>  <SCORE.INTER.ROT>
3

>  <SCORE.INTER.SOLV>
6.26717

>  <SCORE.INTER.VDW>
-16.0385

>  <SCORE.INTER.norm>
-1.04368

>  <SCORE.INTRA>
-2.05582

>  <SCORE.INTRA.DIHEDRAL>
1.38461

>  <SCORE.INTRA.DIHEDRAL.0>
0.283163

>  <SCORE.INTRA.POLAR>
0

>  <SCORE.INTRA.POLAR.0>
0

>  <SCORE.INTRA.REPUL>
0

>  <SCORE.INTRA.REPUL.0>
0

>  <SCORE.INTRA.SOLV>
0.56507

>  <SCORE.INTRA.SOLV.lig_0>
-32.2894

>  <SCORE.INTRA.VDW>
-3.03066

>  <SCORE.INTRA.VDW.0>
2.0241

>  <SCORE.INTRA.norm>
-0.171318

>  <SCORE.RESTR>
0

>  <SCORE.RESTR.CAVITY>
0

>  <SCORE.RESTR.norm>
0

>  <SCORE.SYSTEM>
0

>  <SCORE.SYSTEM.CONST>
0

>  <SCORE.SYSTEM.DIHEDRAL>
0

>  <SCORE.SYSTEM.SOLV>
0

>  <SCORE.SYSTEM.norm>
0

>  <SCORE.heavy>
12

>  <SCORE.norm>
-1.215

>  <RMSD>
3.868

$$$$
ligand
 OpenBabel11021811513D
libRbt.so/2013.1/901 2013/11/27
 12 12  0  0  0  0  0  0  0  0999 V2000
    0.6031    2.8672  -26.5868 O   0  0  0  0  0  0  0  0  0  0  0  0
    3.3827    0.3034  -29.5277 O   0  0  0  0  0  0  0  0  0  0  0  0
    1.9463    2.9052  -26.2808 C   0  0  0  0  0  0  0  0  0  0  0  0
    5.7412    0.2703  -30.1462 O   0  0  0  0  0  0  0  0  0  0  0  0
    2.7864    3.4257  -27.3737 C   0  0  0  0  0  0  0  0  0  0  0  0
    4.0720    0.9249  -31.7867 O   0  5  0  0  0  0  0  0  0  0  0  0
    2.5021    2.7531  -28.6483 N   0  3  0  0  0  0  0  0  0  0  0  0
    1.0883    2.7839  -28.9219 C   0  0  0  0  0  0  0  0  0  0  0  0
    0.2998    2.2535  -27.7696 C   0  0  0  0  0  0  0  0  0  0  0  0
    3.2473    3.3734  -29.7020 C   0  0  0  0  0  0  0  0  0  0  0  0
    4.6330    2.6910  -29.8276 C   0  0  0  0  0  0  0  0  0  0  0  0
    4.4358    0.9745  -30.3481 S   0  0  1  0  0  0  0  0  0  0  0  0
  1  3  1  0  0  0  0
  1  9  1  0  0  0  0
  2 12  1  0  0  0  0
  3  5  1  0  0  0  0
  4 12  2  0  0  0  0
  5  7  1  0  0  0  0
  6 12  2  0  0  0  0
  7  8  1  0  0  0  0
  7 10  1  0  0  0  0
  8  9  1  0  0  0  0
 10 11  1  0  0  0  0
 12 11  1  1  0  0  0
M  CHG  2   6  -1   7   1
M  END
>  <CHROM.1>
89.06356484,65.14309732,-47.40196021,3.06049724,1.97801408,-29.06794553,2.31674382
0.22610496,0.82653573

>  <Name>
ligand

>  <RI>
0

>  <Rbt.Current_Directory>
/home/itssahil/PROJECTS/Mol_Feturizer/New_Systems/rnas/4P95

>  <Rbt.Executable>
rbdock ($Id: //depot/dev/client3/rdock/2013.1/src/exe/rbdock.cxx#4 $)

>  <Rbt.Library>
libRbt.so (2013.1, Build901 2013/11/27)

>  <Rbt.Parameter_File>
/export/apps/rDock/src/rDock_2013.1_src/data/scripts/dock_solv.prm

>  <Rbt.Receptor>
prm/pocket_docking_4.prm

>  <SCORE>
-14.5698

>  <SCORE.INTER>
-12.5461

>  <SCORE.INTER.CONST>
1

>  <SCORE.INTER.POLAR>
0

>  <SCORE.INTER.ROT>
3

>  <SCORE.INTER.SOLV>
6.31476

>  <SCORE.INTER.VDW>
-16.069

>  <SCORE.INTER.norm>
-1.04551

>  <SCORE.INTRA>
-2.02369

>  <SCORE.INTRA.DIHEDRAL>
1.44661

>  <SCORE.INTRA.DIHEDRAL.0>
0.283163

>  <SCORE.INTRA.POLAR>
0

>  <SCORE.INTRA.POLAR.0>
0

>  <SCORE.INTRA.REPUL>
0

>  <SCORE.INTRA.REPUL.0>
0

>  <SCORE.INTRA.SOLV>
0.542878

>  <SCORE.INTRA.SOLV.lig_0>
-32.2894

>  <SCORE.INTRA.VDW>
-3.01844

>  <SCORE.INTRA.VDW.0>
2.0241

>  <SCORE.INTRA.norm>
-0.168641

>  <SCORE.RESTR>
0

>  <SCORE.RESTR.CAVITY>
0

>  <SCORE.RESTR.norm>
0

>  <SCORE.SYSTEM>
0

>  <SCORE.SYSTEM.CONST>
0

>  <SCORE.SYSTEM.DIHEDRAL>
0

>  <SCORE.SYSTEM.SOLV>
0

>  <SCORE.SYSTEM.norm>
0

>  <SCORE.heavy>
12

>  <SCORE.norm>
-1.21415

>  <RMSD>
3.869

$$$$
ligand
 OpenBabel11021811513D
libRbt.so/2013.1/901 2013/11/27
 12 12  0  0  0  0  0  0  0  0999 V2000
    0.5654    2.8598  -26.6123 O   0  0  0  0  0  0  0  0  0  0  0  0
    3.3728    0.2867  -29.5105 O   0  0  0  0  0  0  0  0  0  0  0  0
    1.9047    2.9042  -26.2901 C   0  0  0  0  0  0  0  0  0  0  0  0
    5.7174    0.2501  -30.1799 O   0  0  0  0  0  0  0  0  0  0  0  0
    2.7558    3.4251  -27.3741 C   0  0  0  0  0  0  0  0  0  0  0  0
    4.0153    0.9201  -31.7800 O   0  5  0  0  0  0  0  0  0  0  0  0
    2.4898    2.7478  -28.6502 N   0  3  0  0  0  0  0  0  0  0  0  0
    1.0793    2.7720  -28.9410 C   0  0  0  0  0  0  0  0  0  0  0  0
    0.2791    2.2415  -27.7969 C   0  0  0  0  0  0  0  0  0  0  0  0
    3.2453    3.3683  -29.6964 C   0  0  0  0  0  0  0  0  0  0  0  0
    4.6241    2.6722  -29.8226 C   0  0  0  0  0  0  0  0  0  0  0  0
    4.4102    0.9596  -30.3492 S   0  0  1  0  0  0  0  0  0  0  0  0
  1  3  1  0  0  0  0
  1  9  1  0  0  0  0
  2 12  1  0  0  0  0
  3  5  1  0  0  0  0
  4 12  2  0  0  0  0
  5  7  1  0  0  0  0
  6 12  2  0  0  0  0
  7  8  1  0  0  0  0
  7 10  1  0  0  0  0
  8  9  1  0  0  0  0
 10 11  1  0  0  0  0
 12 11  1  1  0  0  0
M  CHG  2   6  -1   7   1
M  END
>  <CHROM.1>
90.20922654,64.86960820,-48.78591934,3.03668625,1.96755230,-29.07445530,2.32158015
0.24372400,0.80525033

>  <Name>
ligand

>  <RI>
0

>  <Rbt.Current_Directory>
/home/itssahil/PROJECTS/Mol_Feturizer/New_Systems/rnas/4P95

>  <Rbt.Executable>
rbdock ($Id: //depot/dev/client3/rdock/2013.1/src/exe/rbdock.cxx#4 $)

>  <Rbt.Library>
libRbt.so (2013.1, Build901 2013/11/27)

>  <Rbt.Parameter_File>
/export/apps/rDock/src/rDock_2013.1_src/data/scripts/dock_solv.prm

>  <Rbt.Receptor>
prm/pocket_docking_5.prm

>  <SCORE>
-14.5711

>  <SCORE.INTER>
-12.5321

>  <SCORE.INTER.CONST>
1

>  <SCORE.INTER.POLAR>
0

>  <SCORE.INTER.ROT>
3

>  <SCORE.INTER.SOLV>
6.23494

>  <SCORE.INTER.VDW>
-16.0331

>  <SCORE.INTER.norm>
-1.04434

>  <SCORE.INTRA>
-2.03899

>  <SCORE.INTRA.DIHEDRAL>
1.42831

>  <SCORE.INTRA.DIHEDRAL.0>
0.283163

>  <SCORE.INTRA.POLAR>
0

>  <SCORE.INTRA.POLAR.0>
0

>  <SCORE.INTRA.REPUL>
0

>  <SCORE.INTRA.REPUL.0>
0

>  <SCORE.INTRA.SOLV>
0.620717

>  <SCORE.INTRA.SOLV.lig_0>
-32.2894

>  <SCORE.INTRA.VDW>
-3.0635

>  <SCORE.INTRA.VDW.0>
2.0241

>  <SCORE.INTRA.norm>
-0.169916

>  <SCORE.RESTR>
0

>  <SCORE.RESTR.CAVITY>
0

>  <SCORE.RESTR.norm>
0

>  <SCORE.SYSTEM>
0

>  <SCORE.SYSTEM.CONST>
0

>  <SCORE.SYSTEM.DIHEDRAL>
0

>  <SCORE.SYSTEM.SOLV>
0

>  <SCORE.SYSTEM.norm>
0

>  <SCORE.heavy>
12

>  <SCORE.norm>
-1.21426

>  <RMSD>
3.869

$$$$
ligand
 OpenBabel11021811513D
libRbt.so/2013.1/901 2013/11/27
 12 12  0  0  0  0  0  0  0  0999 V2000
    0.6891    2.8987  -26.5098 O   0  0  0  0  0  0  0  0  0  0  0  0
    3.4125    0.2910  -29.5055 O   0  0  0  0  0  0  0  0  0  0  0  0
    2.0419    2.8796  -26.2474 C   0  0  0  0  0  0  0  0  0  0  0  0
    5.7654    0.2759  -30.1459 O   0  0  0  0  0  0  0  0  0  0  0  0
    2.8661    3.3883  -27.3578 C   0  0  0  0  0  0  0  0  0  0  0  0
    4.0753    0.9104  -31.7730 O   0  5  0  0  0  0  0  0  0  0  0  0
    2.5152    2.7512  -28.6341 N   0  3  0  0  0  0  0  0  0  0  0  0
    1.0956    2.8411  -28.8606 C   0  0  0  0  0  0  0  0  0  0  0  0
    0.3245    2.3194  -27.6927 C   0  0  0  0  0  0  0  0  0  0  0  0
    3.2497    3.3625  -29.7005 C   0  0  0  0  0  0  0  0  0  0  0  0
    4.6395    2.6882  -29.8254 C   0  0  0  0  0  0  0  0  0  0  0  0
    4.4521    0.9682  -30.3380 S   0  0  1  0  0  0  0  0  0  0  0  0
  1  3  1  0  0  0  0
  1  9  1  0  0  0  0
  2 12  1  0  0  0  0
  3  5  1  0  0  0  0
  4 12  2  0  0  0  0
  5  7  1  0  0  0  0
  6 12  2  0  0  0  0
  7  8  1  0  0  0  0
  7 10  1  0  0  0  0
  8  9  1  0  0  0  0
 10 11  1  0  0  0  0
 12 11  1  1  0  0  0
M  CHG  2   6  -1   7   1
M  END
>  <CHROM.1>
85.54458840,65.72367397,-47.87122125,3.09155346,1.98100939,-29.04213447,2.28907388
0.12374743,0.92315284

>  <Name>
ligand

>  <RI>
0

>  <Rbt.Current_Directory>
/home/itssahil/PROJECTS/Mol_Feturizer/New_Systems/rnas/4P95

>  <Rbt.Executable>
rbdock ($Id: //depot/dev/client3/rdock/2013.1/src/exe/rbdock.cxx#4 $)

>  <Rbt.Library>
libRbt.so (2013.1, Build901 2013/11/27)

>  <Rbt.Parameter_File>
/export/apps/rDock/src/rDock_2013.1_src/data/scripts/dock_solv.prm

>  <Rbt.Receptor>
prm/pocket_docking_5.prm

>  <SCORE>
-14.5436

>  <SCORE.INTER>
-12.4708

>  <SCORE.INTER.CONST>
1

>  <SCORE.INTER.POLAR>
0

>  <SCORE.INTER.ROT>
3

>  <SCORE.INTER.SOLV>
6.42

>  <SCORE.INTER.VDW>
-16.0539

>  <SCORE.INTER.norm>
-1.03924

>  <SCORE.INTRA>
-2.07282

>  <SCORE.INTRA.DIHEDRAL>
1.22258

>  <SCORE.INTRA.DIHEDRAL.0>
0.283163

>  <SCORE.INTRA.POLAR>
0

>  <SCORE.INTRA.POLAR.0>
0

>  <SCORE.INTRA.REPUL>
0

>  <SCORE.INTRA.REPUL.0>
0

>  <SCORE.INTRA.SOLV>
0.503145

>  <SCORE.INTRA.SOLV.lig_0>
-32.2894

>  <SCORE.INTRA.VDW>
-2.93569

>  <SCORE.INTRA.VDW.0>
2.0241

>  <SCORE.INTRA.norm>
-0.172735

>  <SCORE.RESTR>
0

>  <SCORE.RESTR.CAVITY>
0

>  <SCORE.RESTR.norm>
0

>  <SCORE.SYSTEM>
0

>  <SCORE.SYSTEM.CONST>
0

>  <SCORE.SYSTEM.DIHEDRAL>
0

>  <SCORE.SYSTEM.SOLV>
0

>  <SCORE.SYSTEM.norm>
0

>  <SCORE.heavy>
12

>  <SCORE.norm>
-1.21197

>  <RMSD>
3.870

$$$$
ligand
 OpenBabel11021811513D
libRbt.so/2013.1/901 2013/11/27
 12 12  0  0  0  0  0  0  0  0999 V2000
    0.5783    2.8618  -26.6199 O   0  0  0  0  0  0  0  0  0  0  0  0
    3.3671    0.3140  -29.5136 O   0  0  0  0  0  0  0  0  0  0  0  0
    1.9182    2.9035  -26.3001 C   0  0  0  0  0  0  0  0  0  0  0  0
    5.7271    0.2591  -30.1250 O   0  0  0  0  0  0  0  0  0  0  0  0
    2.7678    3.4281  -27.3835 C   0  0  0  0  0  0  0  0  0  0  0  0
    4.0670    0.9099  -31.7763 O   0  5  0  0  0  0  0  0  0  0  0  0
    2.4987    2.7563  -28.6619 N   0  3  0  0  0  0  0  0  0  0  0  0
    1.0877    2.7832  -28.9499 C   0  0  0  0  0  0  0  0  0  0  0  0
    0.2891    2.2488  -27.8065 C   0  0  0  0  0  0  0  0  0  0  0  0
    3.2527    3.3804  -29.7071 C   0  0  0  0  0  0  0  0  0  0  0  0
    4.6346    2.6901  -29.8319 C   0  0  0  0  0  0  0  0  0  0  0  0
    4.4271    0.9702  -30.3371 S   0  0  1  0  0  0  0  0  0  0  0  0
  1  3  1  0  0  0  0
  1  9  1  0  0  0  0
  2 12  1  0  0  0  0
  3  5  1  0  0  0  0
  4 12  2  0  0  0  0
  5  7  1  0  0  0  0
  6 12  2  0  0  0  0
  7  8  1  0  0  0  0
  7 10  1  0  0  0  0
  8  9  1  0  0  0  0
 10 11  1  0  0  0  0
 12 11  1  1  0  0  0
M  CHG  2   6  -1   7   1
M  END
>  <CHROM.1>
89.80620024,64.07716458,-47.01569175,3.05022576,1.97591137,-29.07354579,2.32523299
0.23907794,0.80617521

>  <Name>
ligand

>  <RI>
0

>  <Rbt.Current_Directory>
/home/itssahil/PROJECTS/Mol_Feturizer/New_Systems/rnas/4P95

>  <Rbt.Executable>
rbdock ($Id: //depot/dev/client3/rdock/2013.1/src/exe/rbdock.cxx#4 $)

>  <Rbt.Library>
libRbt.so (2013.1, Build901 2013/11/27)

>  <Rbt.Parameter_File>
/export/apps/rDock/src/rDock_2013.1_src/data/scripts/dock_solv.prm

>  <Rbt.Receptor>
prm/pocket_docking_5.prm

>  <SCORE>
-14.5788

>  <SCORE.INTER>
-12.5522

>  <SCORE.INTER.CONST>
1

>  <SCORE.INTER.POLAR>
0

>  <SCORE.INTER.ROT>
3

>  <SCORE.INTER.SOLV>
6.28296

>  <SCORE.INTER.VDW>
-16.0624

>  <SCORE.INTER.norm>
-1.04601

>  <SCORE.INTRA>
-2.02663

>  <SCORE.INTRA.DIHEDRAL>
1.47995

>  <SCORE.INTRA.DIHEDRAL.0>
0.283163

>  <SCORE.INTRA.POLAR>
0

>  <SCORE.INTRA.POLAR.0>
0

>  <SCORE.INTRA.REPUL>
0

>  <SCORE.INTRA.REPUL.0>
0

>  <SCORE.INTRA.SOLV>
0.561917

>  <SCORE.INTRA.SOLV.lig_0>
-32.2894

>  <SCORE.INTRA.VDW>
-3.04756

>  <SCORE.INTRA.VDW.0>
2.0241

>  <SCORE.INTRA.norm>
-0.168886

>  <SCORE.RESTR>
0

>  <SCORE.RESTR.CAVITY>
0

>  <SCORE.RESTR.norm>
0

>  <SCORE.SYSTEM>
0

>  <SCORE.SYSTEM.CONST>
0

>  <SCORE.SYSTEM.DIHEDRAL>
0

>  <SCORE.SYSTEM.SOLV>
0

>  <SCORE.SYSTEM.norm>
0

>  <SCORE.heavy>
12

>  <SCORE.norm>
-1.2149

>  <RMSD>
3.871

$$$$
ligand
 OpenBabel11021811513D
libRbt.so/2013.1/901 2013/11/27
 12 12  0  0  0  0  0  0  0  0999 V2000
    0.6779    2.8775  -26.5157 O   0  0  0  0  0  0  0  0  0  0  0  0
    3.3873    0.2985  -29.5079 O   0  0  0  0  0  0  0  0  0  0  0  0
    2.0284    2.9049  -26.2426 C   0  0  0  0  0  0  0  0  0  0  0  0
    5.7476    0.2589  -30.1195 O   0  0  0  0  0  0  0  0  0  0  0  0
    2.8458    3.4172  -27.3564 C   0  0  0  0  0  0  0  0  0  0  0  0
    4.0824    0.8910  -31.7730 O   0  5  0  0  0  0  0  0  0  0  0  0
    2.5250    2.7453  -28.6227 N   0  3  0  0  0  0  0  0  0  0  0  0
    1.1052    2.7873  -28.8617 C   0  0  0  0  0  0  0  0  0  0  0  0
    0.3408    2.2647  -27.6898 C   0  0  0  0  0  0  0  0  0  0  0  0
    3.2493    3.3582  -29.6951 C   0  0  0  0  0  0  0  0  0  0  0  0
    4.6370    2.6828  -29.8355 C   0  0  0  0  0  0  0  0  0  0  0  0
    4.4423    0.9595  -30.3341 S   0  0  1  0  0  0  0  0  0  0  0  0
  1  3  1  0  0  0  0
  1  9  1  0  0  0  0
  2 12  1  0  0  0  0
  3  5  1  0  0  0  0
  4 12  2  0  0  0  0
  5  7  1  0  0  0  0
  6 12  2  0  0  0  0
  7  8  1  0  0  0  0
  7 10  1  0  0  0  0
  8  9  1  0  0  0  0
 10 11  1  0  0  0  0
 12 11  1  1  0  0  0
M  CHG  2   6  -1   7   1
M  END
>  <CHROM.1>
87.95936757,65.16673640,-46.28247955,3.08596895,1.97041014,-29.03893516,2.30001892
0.21147308,0.84661914

>  <Name>
ligand

>  <RI>
0

>  <Rbt.Current_Directory>
/home/itssahil/PROJECTS/Mol_Feturizer/New_Systems/rnas/4P95

>  <Rbt.Executable>
rbdock ($Id: //depot/dev/client3/rdock/2013.1/src/exe/rbdock.cxx#4 $)

>  <Rbt.Library>
libRbt.so (2013.1, Build901 2013/11/27)

>  <Rbt.Parameter_File>
/export/apps/rDock/src/rDock_2013.1_src/data/scripts/dock_solv.prm

>  <Rbt.Receptor>
prm/pocket_docking_5.prm

>  <SCORE>
-14.5673

>  <SCORE.INTER>
-12.5393

>  <SCORE.INTER.CONST>
1

>  <SCORE.INTER.POLAR>
0

>  <SCORE.INTER.ROT>
3

>  <SCORE.INTER.SOLV>
6.44006

>  <SCORE.INTER.VDW>
-16.1062

>  <SCORE.INTER.norm>
-1.04494

>  <SCORE.INTRA>
-2.02797

>  <SCORE.INTRA.DIHEDRAL>
1.4482

>  <SCORE.INTRA.DIHEDRAL.0>
0.283163

>  <SCORE.INTRA.POLAR>
0

>  <SCORE.INTRA.POLAR.0>
0

>  <SCORE.INTRA.REPUL>
0

>  <SCORE.INTRA.REPUL.0>
0

>  <SCORE.INTRA.SOLV>
0.482903

>  <SCORE.INTRA.SOLV.lig_0>
-32.2894

>  <SCORE.INTRA.VDW>
-2.99352

>  <SCORE.INTRA.VDW.0>
2.0241

>  <SCORE.INTRA.norm>
-0.168998

>  <SCORE.RESTR>
0

>  <SCORE.RESTR.CAVITY>
0

>  <SCORE.RESTR.norm>
0

>  <SCORE.SYSTEM>
0

>  <SCORE.SYSTEM.CONST>
0

>  <SCORE.SYSTEM.DIHEDRAL>
0

>  <SCORE.SYSTEM.SOLV>
0

>  <SCORE.SYSTEM.norm>
0

>  <SCORE.heavy>
12

>  <SCORE.norm>
-1.21394

>  <RMSD>
3.871

$$$$
ligand
 OpenBabel11021811513D
libRbt.so/2013.1/901 2013/11/27
 12 12  0  0  0  0  0  0  0  0999 V2000
    0.6837    2.8949  -26.5051 O   0  0  0  0  0  0  0  0  0  0  0  0
    3.4037    0.2902  -29.5169 O   0  0  0  0  0  0  0  0  0  0  0  0
    2.0361    2.8922  -26.2397 C   0  0  0  0  0  0  0  0  0  0  0  0
    5.7585    0.2738  -30.1506 O   0  0  0  0  0  0  0  0  0  0  0  0
    2.8572    3.4009  -27.3523 C   0  0  0  0  0  0  0  0  0  0  0  0
    4.0741    0.9175  -31.7800 O   0  5  0  0  0  0  0  0  0  0  0  0
    2.5158    2.7502  -28.6244 N   0  3  0  0  0  0  0  0  0  0  0  0
    1.0958    2.8233  -28.8545 C   0  0  0  0  0  0  0  0  0  0  0  0
    0.3278    2.3026  -27.6841 C   0  0  0  0  0  0  0  0  0  0  0  0
    3.2461    3.3609  -29.6940 C   0  0  0  0  0  0  0  0  0  0  0  0
    4.6355    2.6866  -29.8237 C   0  0  0  0  0  0  0  0  0  0  0  0
    4.4469    0.9690  -30.3437 S   0  0  1  0  0  0  0  0  0  0  0  0
  1  3  1  0  0  0  0
  1  9  1  0  0  0  0
  2 12  1  0  0  0  0
  3  5  1  0  0  0  0
  4 12  2  0  0  0  0
  5  7  1  0  0  0  0
  6 12  2  0  0  0  0
  7  8  1  0  0  0  0
  7 10  1  0  0  0  0
  8  9  1  0  0  0  0
 10 11  1  0  0  0  0
 12 11  1  1  0  0  0
M  CHG  2   6  -1   7   1
M  END
>  <CHROM.1>
86.34291930,66.04952281,-47.61501760,3.08752758,1.98021065,-29.04127442,2.29067915
0.15615281,0.89769679

>  <Name>
ligand

>  <RI>
0

>  <Rbt.Current_Directory>
/home/itssahil/PROJECTS/Mol_Feturizer/New_Systems/rnas/4P95

>  <Rbt.Executable>
rbdock ($Id: //depot/dev/client3/rdock/2013.1/src/exe/rbdock.cxx#4 $)

>  <Rbt.Library>
libRbt.so (2013.1, Build901 2013/11/27)

>  <Rbt.Parameter_File>
/export/apps/rDock/src/rDock_2013.1_src/data/scripts/dock_solv.prm

>  <Rbt.Receptor>
prm/pocket_docking_8.prm

>  <SCORE>
-14.5682

>  <SCORE.INTER>
-12.5064

>  <SCORE.INTER.CONST>
1

>  <SCORE.INTER.POLAR>
0

>  <SCORE.INTER.ROT>
3

>  <SCORE.INTER.SOLV>
6.4206

>  <SCORE.INTER.VDW>
-16.0778

>  <SCORE.INTER.norm>
-1.0422

>  <SCORE.INTRA>
-2.06177

>  <SCORE.INTRA.DIHEDRAL>
1.30148

>  <SCORE.INTRA.DIHEDRAL.0>
0.283163

>  <SCORE.INTRA.POLAR>
0

>  <SCORE.INTRA.POLAR.0>
0

>  <SCORE.INTRA.REPUL>
0

>  <SCORE.INTRA.REPUL.0>
0

>  <SCORE.INTRA.SOLV>
0.4955

>  <SCORE.INTRA.SOLV.lig_0>
-32.2894

>  <SCORE.INTRA.VDW>
-2.96027

>  <SCORE.INTRA.VDW.0>
2.0241

>  <SCORE.INTRA.norm>
-0.171814

>  <SCORE.RESTR>
0

>  <SCORE.RESTR.CAVITY>
0

>  <SCORE.RESTR.norm>
0

>  <SCORE.SYSTEM>
0

>  <SCORE.SYSTEM.CONST>
0

>  <SCORE.SYSTEM.DIHEDRAL>
0

>  <SCORE.SYSTEM.SOLV>
0

>  <SCORE.SYSTEM.norm>
0

>  <SCORE.heavy>
12

>  <SCORE.norm>
-1.21402

>  <RMSD>
3.871

$$$$
ligand
 OpenBabel11021811513D
libRbt.so/2013.1/901 2013/11/27
 12 12  0  0  0  0  0  0  0  0999 V2000
    0.6865    2.9879  -26.6170 O   0  0  0  0  0  0  0  0  0  0  0  0
    2.9425    0.9029  -31.7017 O   0  0  0  0  0  0  0  0  0  0  0  0
    2.0127    2.9649  -26.2429 C   0  0  0  0  0  0  0  0  0  0  0  0
    3.0891   -0.0187  -29.4488 O   0  0  0  0  0  0  0  0  0  0  0  0
    2.9361    3.3737  -27.3159 C   0  0  0  0  0  0  0  0  0  0  0  0
    4.9308   -0.3316  -31.0034 O   0  5  0  0  0  0  0  0  0  0  0  0
    2.6749    2.6484  -28.5663 N   0  3  0  0  0  0  0  0  0  0  0  0
    1.2809    2.7459  -28.9154 C   0  0  0  0  0  0  0  0  0  0  0  0
    0.4055    2.3275  -27.7800 C   0  0  0  0  0  0  0  0  0  0  0  0
    3.5078    3.1644  -29.6105 C   0  0  0  0  0  0  0  0  0  0  0  0
    4.6110    2.1309  -29.9517 C   0  0  0  0  0  0  0  0  0  0  0  0
    3.8661    0.6061  -30.5653 S   0  0  1  0  0  0  0  0  0  0  0  0
  1  3  1  0  0  0  0
  1  9  1  0  0  0  0
  2 12  1  0  0  0  0
  3  5  1  0  0  0  0
  4 12  2  0  0  0  0
  5  7  1  0  0  0  0
  6 12  2  0  0  0  0
  7  8  1  0  0  0  0
  7 10  1  0  0  0  0
  8  9  1  0  0  0  0
 10 11  1  0  0  0  0
 12 11  1  1  0  0  0
M  CHG  2   6  -1   7   1
M  END
>  <CHROM.1>
108.18734276,62.26233459,53.46965153,2.85617510,1.78927566,-29.15321371,2.13948622
0.31943800,0.77591007

>  <Name>
ligand

>  <RI>
0

>  <Rbt.Current_Directory>
/home/itssahil/PROJECTS/Mol_Feturizer/New_Systems/rnas/4P95

>  <Rbt.Executable>
rbdock ($Id: //depot/dev/client3/rdock/2013.1/src/exe/rbdock.cxx#4 $)

>  <Rbt.Library>
libRbt.so (2013.1, Build901 2013/11/27)

>  <Rbt.Parameter_File>
/export/apps/rDock/src/rDock_2013.1_src/data/scripts/dock_solv.prm

>  <Rbt.Receptor>
prm/pocket_docking_4.prm

>  <SCORE>
-12.8268

>  <SCORE.INTER>
-10.3803

>  <SCORE.INTER.CONST>
1

>  <SCORE.INTER.POLAR>
0

>  <SCORE.INTER.ROT>
3

>  <SCORE.INTER.SOLV>
7.47627

>  <SCORE.INTER.VDW>
-15.0123

>  <SCORE.INTER.norm>
-0.865022

>  <SCORE.INTRA>
-2.4465

>  <SCORE.INTRA.DIHEDRAL>
2.0356

>  <SCORE.INTRA.DIHEDRAL.0>
0.283163

>  <SCORE.INTRA.POLAR>
0

>  <SCORE.INTRA.POLAR.0>
0

>  <SCORE.INTRA.REPUL>
0

>  <SCORE.INTRA.REPUL.0>
0

>  <SCORE.INTRA.SOLV>
0.09195

>  <SCORE.INTRA.SOLV.lig_0>
-32.2894

>  <SCORE.INTRA.VDW>
-3.51027

>  <SCORE.INTRA.VDW.0>
2.0241

>  <SCORE.INTRA.norm>
-0.203875

>  <SCORE.RESTR>
0

>  <SCORE.RESTR.CAVITY>
0

>  <SCORE.RESTR.norm>
0

>  <SCORE.SYSTEM>
0

>  <SCORE.SYSTEM.CONST>
0

>  <SCORE.SYSTEM.DIHEDRAL>
0

>  <SCORE.SYSTEM.SOLV>
0

>  <SCORE.SYSTEM.norm>
0

>  <SCORE.heavy>
12

>  <SCORE.norm>
-1.0689

>  <RMSD>
3.873

$$$$
ligand
 OpenBabel11021811513D
libRbt.so/2013.1/901 2013/11/27
 12 12  0  0  0  0  0  0  0  0999 V2000
    0.5701    2.8439  -26.6329 O   0  0  0  0  0  0  0  0  0  0  0  0
    3.3467    0.3298  -29.5136 O   0  0  0  0  0  0  0  0  0  0  0  0
    1.9076    2.8988  -26.3052 C   0  0  0  0  0  0  0  0  0  0  0  0
    5.7076    0.2519  -30.1192 O   0  0  0  0  0  0  0  0  0  0  0  0
    2.7583    3.4322  -27.3835 C   0  0  0  0  0  0  0  0  0  0  0  0
    4.0567    0.9073  -31.7779 O   0  5  0  0  0  0  0  0  0  0  0  0
    2.5034    2.7583  -28.6637 N   0  3  0  0  0  0  0  0  0  0  0  0
    1.0939    2.7712  -28.9599 C   0  0  0  0  0  0  0  0  0  0  0  0
    0.2939    2.2284  -27.8214 C   0  0  0  0  0  0  0  0  0  0  0  0
    3.2573    3.3903  -29.7041 C   0  0  0  0  0  0  0  0  0  0  0  0
    4.6347    2.6935  -29.8421 C   0  0  0  0  0  0  0  0  0  0  0  0
    4.4140    0.9727  -30.3383 S   0  0  1  0  0  0  0  0  0  0  0  0
  1  3  1  0  0  0  0
  1  9  1  0  0  0  0
  2 12  1  0  0  0  0
  3  5  1  0  0  0  0
  4 12  2  0  0  0  0
  5  7  1  0  0  0  0
  6 12  2  0  0  0  0
  7  8  1  0  0  0  0
  7 10  1  0  0  0  0
  8  9  1  0  0  0  0
 10 11  1  0  0  0  0
 12 11  1  1  0  0  0
M  CHG  2   6  -1   7   1
M  END
>  <CHROM.1>
91.04603952,63.07531225,-46.18802632,3.04326957,1.97405459,-29.07728826,2.33185149
0.26770242,0.78069133

>  <Name>
ligand

>  <RI>
0

>  <Rbt.Current_Directory>
/home/itssahil/PROJECTS/Mol_Feturizer/New_Systems/rnas/4P95

>  <Rbt.Executable>
rbdock ($Id: //depot/dev/client3/rdock/2013.1/src/exe/rbdock.cxx#4 $)

>  <Rbt.Library>
libRbt.so (2013.1, Build901 2013/11/27)

>  <Rbt.Parameter_File>
/export/apps/rDock/src/rDock_2013.1_src/data/scripts/dock_solv.prm

>  <Rbt.Receptor>
prm/pocket_docking_4.prm

>  <SCORE>
-14.5581

>  <SCORE.INTER>
-12.5729

>  <SCORE.INTER.CONST>
1

>  <SCORE.INTER.POLAR>
0

>  <SCORE.INTER.ROT>
3

>  <SCORE.INTER.SOLV>
6.27847

>  <SCORE.INTER.VDW>
-16.0747

>  <SCORE.INTER.norm>
-1.04774

>  <SCORE.INTRA>
-1.98518

>  <SCORE.INTRA.DIHEDRAL>
1.58292

>  <SCORE.INTRA.DIHEDRAL.0>
0.283163

>  <SCORE.INTRA.POLAR>
0

>  <SCORE.INTRA.POLAR.0>
0

>  <SCORE.INTRA.REPUL>
0

>  <SCORE.INTRA.REPUL.0>
0

>  <SCORE.INTRA.SOLV>
0.568196

>  <SCORE.INTRA.SOLV.lig_0>
-32.2894

>  <SCORE.INTRA.VDW>
-3.06074

>  <SCORE.INTRA.VDW.0>
2.0241

>  <SCORE.INTRA.norm>
-0.165431

>  <SCORE.RESTR>
0

>  <SCORE.RESTR.CAVITY>
0

>  <SCORE.RESTR.norm>
0

>  <SCORE.SYSTEM>
0

>  <SCORE.SYSTEM.CONST>
0

>  <SCORE.SYSTEM.DIHEDRAL>
0

>  <SCORE.SYSTEM.SOLV>
0

>  <SCORE.SYSTEM.norm>
0

>  <SCORE.heavy>
12

>  <SCORE.norm>
-1.21317

>  <RMSD>
3.873

$$$$
ligand
 OpenBabel11021811513D
libRbt.so/2013.1/901 2013/11/27
 12 12  0  0  0  0  0  0  0  0999 V2000
    0.5654    2.8414  -26.6295 O   0  0  0  0  0  0  0  0  0  0  0  0
    3.3569    0.3195  -29.5080 O   0  0  0  0  0  0  0  0  0  0  0  0
    1.9042    2.8868  -26.3055 C   0  0  0  0  0  0  0  0  0  0  0  0
    5.7137    0.2588  -30.1312 O   0  0  0  0  0  0  0  0  0  0  0  0
    2.7549    3.4198  -27.3839 C   0  0  0  0  0  0  0  0  0  0  0  0
    4.0464    0.9086  -31.7756 O   0  5  0  0  0  0  0  0  0  0  0  0
    2.4923    2.7531  -28.6662 N   0  3  0  0  0  0  0  0  0  0  0  0
    1.0820    2.7757  -28.9583 C   0  0  0  0  0  0  0  0  0  0  0  0
    0.2821    2.2328  -27.8199 C   0  0  0  0  0  0  0  0  0  0  0  0
    3.2470    3.3850  -29.7061 C   0  0  0  0  0  0  0  0  0  0  0  0
    4.6271    2.6926  -29.8386 C   0  0  0  0  0  0  0  0  0  0  0  0
    4.4139    0.9718  -30.3384 S   0  0  1  0  0  0  0  0  0  0  0  0
  1  3  1  0  0  0  0
  1  9  1  0  0  0  0
  2 12  1  0  0  0  0
  3  5  1  0  0  0  0
  4 12  2  0  0  0  0
  5  7  1  0  0  0  0
  6 12  2  0  0  0  0
  7  8  1  0  0  0  0
  7 10  1  0  0  0  0
  8  9  1  0  0  0  0
 10 11  1  0  0  0  0
 12 11  1  1  0  0  0
M  CHG  2   6  -1   7   1
M  END
>  <CHROM.1>
90.30798318,63.33198967,-46.92059293,3.03906537,1.97158450,-29.07726771,2.32961168
0.25169619,0.79640633

>  <Name>
ligand

>  <RI>
0

>  <Rbt.Current_Directory>
/home/itssahil/PROJECTS/Mol_Feturizer/New_Systems/rnas/4P95

>  <Rbt.Executable>
rbdock ($Id: //depot/dev/client3/rdock/2013.1/src/exe/rbdock.cxx#4 $)

>  <Rbt.Library>
libRbt.so (2013.1, Build901 2013/11/27)

>  <Rbt.Parameter_File>
/export/apps/rDock/src/rDock_2013.1_src/data/scripts/dock_solv.prm

>  <Rbt.Receptor>
prm/pocket_docking_7.prm

>  <SCORE>
-14.5833

>  <SCORE.INTER>
-12.5682

>  <SCORE.INTER.CONST>
1

>  <SCORE.INTER.POLAR>
0

>  <SCORE.INTER.ROT>
3

>  <SCORE.INTER.SOLV>
6.26347

>  <SCORE.INTER.VDW>
-16.0666

>  <SCORE.INTER.norm>
-1.04735

>  <SCORE.INTRA>
-2.01509

>  <SCORE.INTRA.DIHEDRAL>
1.4965

>  <SCORE.INTRA.DIHEDRAL.0>
0.283163

>  <SCORE.INTRA.POLAR>
0

>  <SCORE.INTRA.POLAR.0>
0

>  <SCORE.INTRA.REPUL>
0

>  <SCORE.INTRA.REPUL.0>
0

>  <SCORE.INTRA.SOLV>
0.582249

>  <SCORE.INTRA.SOLV.lig_0>
-32.2894

>  <SCORE.INTRA.VDW>
-3.05446

>  <SCORE.INTRA.VDW.0>
2.0241

>  <SCORE.INTRA.norm>
-0.167924

>  <SCORE.RESTR>
0

>  <SCORE.RESTR.CAVITY>
0

>  <SCORE.RESTR.norm>
0

>  <SCORE.SYSTEM>
0

>  <SCORE.SYSTEM.CONST>
0

>  <SCORE.SYSTEM.DIHEDRAL>
0

>  <SCORE.SYSTEM.SOLV>
0

>  <SCORE.SYSTEM.norm>
0

>  <SCORE.heavy>
12

>  <SCORE.norm>
-1.21528

>  <RMSD>
3.873

$$$$
ligand
 OpenBabel11021811513D
libRbt.so/2013.1/901 2013/11/27
 12 12  0  0  0  0  0  0  0  0999 V2000
    0.6556    2.8817  -26.5281 O   0  0  0  0  0  0  0  0  0  0  0  0
    3.3834    0.2980  -29.5149 O   0  0  0  0  0  0  0  0  0  0  0  0
    2.0055    2.8809  -26.2506 C   0  0  0  0  0  0  0  0  0  0  0  0
    5.7392    0.2655  -30.1441 O   0  0  0  0  0  0  0  0  0  0  0  0
    2.8354    3.3964  -27.3534 C   0  0  0  0  0  0  0  0  0  0  0  0
    4.0622    0.9177  -31.7777 O   0  5  0  0  0  0  0  0  0  0  0  0
    2.5071    2.7507  -28.6314 N   0  3  0  0  0  0  0  0  0  0  0  0
    1.0891    2.8216  -28.8740 C   0  0  0  0  0  0  0  0  0  0  0  0
    0.3117    2.2939  -27.7130 C   0  0  0  0  0  0  0  0  0  0  0  0
    3.2456    3.3678  -29.6916 C   0  0  0  0  0  0  0  0  0  0  0  0
    4.6311    2.6860  -29.8229 C   0  0  0  0  0  0  0  0  0  0  0  0
    4.4325    0.9688  -30.3407 S   0  0  1  0  0  0  0  0  0  0  0  0
  1  3  1  0  0  0  0
  1  9  1  0  0  0  0
  2 12  1  0  0  0  0
  3  5  1  0  0  0  0
  4 12  2  0  0  0  0
  5  7  1  0  0  0  0
  6 12  2  0  0  0  0
  7  8  1  0  0  0  0
  7 10  1  0  0  0  0
  8  9  1  0  0  0  0
 10 11  1  0  0  0  0
 12 11  1  1  0  0  0
M  CHG  2   6  -1   7   1
M  END
>  <CHROM.1>
87.01757844,65.30828973,-47.39963826,3.07219088,1.97767428,-29.04642941,2.29672549
0.17142010,0.88221943

>  <Name>
ligand

>  <RI>
0

>  <Rbt.Current_Directory>
/home/itssahil/PROJECTS/Mol_Feturizer/New_Systems/rnas/4P95

>  <Rbt.Executable>
rbdock ($Id: //depot/dev/client3/rdock/2013.1/src/exe/rbdock.cxx#4 $)

>  <Rbt.Library>
libRbt.so (2013.1, Build901 2013/11/27)

>  <Rbt.Parameter_File>
/export/apps/rDock/src/rDock_2013.1_src/data/scripts/dock_solv.prm

>  <Rbt.Receptor>
prm/pocket_docking_5.prm

>  <SCORE>
-14.5596

>  <SCORE.INTER>
-12.5006

>  <SCORE.INTER.CONST>
1

>  <SCORE.INTER.POLAR>
0

>  <SCORE.INTER.ROT>
3

>  <SCORE.INTER.SOLV>
6.38634

>  <SCORE.INTER.VDW>
-16.0625

>  <SCORE.INTER.norm>
-1.04172

>  <SCORE.INTRA>
-2.05894

>  <SCORE.INTRA.DIHEDRAL>
1.32505

>  <SCORE.INTRA.DIHEDRAL.0>
0.283163

>  <SCORE.INTRA.POLAR>
0

>  <SCORE.INTRA.POLAR.0>
0

>  <SCORE.INTRA.REPUL>
0

>  <SCORE.INTRA.REPUL.0>
0

>  <SCORE.INTRA.SOLV>
0.512584

>  <SCORE.INTRA.SOLV.lig_0>
-32.2894

>  <SCORE.INTRA.VDW>
-2.97775

>  <SCORE.INTRA.VDW.0>
2.0241

>  <SCORE.INTRA.norm>
-0.171578

>  <SCORE.RESTR>
0

>  <SCORE.RESTR.CAVITY>
0

>  <SCORE.RESTR.norm>
0

>  <SCORE.SYSTEM>
0

>  <SCORE.SYSTEM.CONST>
0

>  <SCORE.SYSTEM.DIHEDRAL>
0

>  <SCORE.SYSTEM.SOLV>
0

>  <SCORE.SYSTEM.norm>
0

>  <SCORE.heavy>
12

>  <SCORE.norm>
-1.2133

>  <RMSD>
3.875

$$$$
ligand
 OpenBabel11021811513D
libRbt.so/2013.1/901 2013/11/27
 12 12  0  0  0  0  0  0  0  0999 V2000
    0.5575    2.8431  -26.6408 O   0  0  0  0  0  0  0  0  0  0  0  0
    3.3481    0.3272  -29.5014 O   0  0  0  0  0  0  0  0  0  0  0  0
    1.8951    2.8929  -26.3127 C   0  0  0  0  0  0  0  0  0  0  0  0
    5.7046    0.2561  -30.1248 O   0  0  0  0  0  0  0  0  0  0  0  0
    2.7477    3.4269  -27.3891 C   0  0  0  0  0  0  0  0  0  0  0  0
    4.0389    0.9026  -31.7722 O   0  5  0  0  0  0  0  0  0  0  0  0
    2.4911    2.7577  -28.6713 N   0  3  0  0  0  0  0  0  0  0  0  0
    1.0817    2.7758  -28.9680 C   0  0  0  0  0  0  0  0  0  0  0  0
    0.2798    2.2321  -27.8313 C   0  0  0  0  0  0  0  0  0  0  0  0
    3.2473    3.3904  -29.7097 C   0  0  0  0  0  0  0  0  0  0  0  0
    4.6255    2.6946  -29.8443 C   0  0  0  0  0  0  0  0  0  0  0  0
    4.4069    0.9720  -30.3354 S   0  0  1  0  0  0  0  0  0  0  0  0
  1  3  1  0  0  0  0
  1  9  1  0  0  0  0
  2 12  1  0  0  0  0
  3  5  1  0  0  0  0
  4 12  2  0  0  0  0
  5  7  1  0  0  0  0
  6 12  2  0  0  0  0
  7  8  1  0  0  0  0
  7 10  1  0  0  0  0
  8  9  1  0  0  0  0
 10 11  1  0  0  0  0
 12 11  1  1  0  0  0
M  CHG  2   6  -1   7   1
M  END
>  <CHROM.1>
90.75079027,62.85809712,-46.69743395,3.03363550,1.97344316,-29.07980525,2.33283190
0.26115285,0.78439942

>  <Name>
ligand

>  <RI>
0

>  <Rbt.Current_Directory>
/home/itssahil/PROJECTS/Mol_Feturizer/New_Systems/rnas/4P95

>  <Rbt.Executable>
rbdock ($Id: //depot/dev/client3/rdock/2013.1/src/exe/rbdock.cxx#4 $)

>  <Rbt.Library>
libRbt.so (2013.1, Build901 2013/11/27)

>  <Rbt.Parameter_File>
/export/apps/rDock/src/rDock_2013.1_src/data/scripts/dock_solv.prm

>  <Rbt.Receptor>
prm/pocket_docking_6.prm

>  <SCORE>
-14.5688

>  <SCORE.INTER>
-12.5686

>  <SCORE.INTER.CONST>
1

>  <SCORE.INTER.POLAR>
0

>  <SCORE.INTER.ROT>
3

>  <SCORE.INTER.SOLV>
6.24781

>  <SCORE.INTER.VDW>
-16.0617

>  <SCORE.INTER.norm>
-1.04738

>  <SCORE.INTRA>
-2.00016

>  <SCORE.INTRA.DIHEDRAL>
1.52709

>  <SCORE.INTRA.DIHEDRAL.0>
0.283163

>  <SCORE.INTRA.POLAR>
0

>  <SCORE.INTRA.POLAR.0>
0

>  <SCORE.INTRA.REPUL>
0

>  <SCORE.INTRA.REPUL.0>
0

>  <SCORE.INTRA.SOLV>
0.59023

>  <SCORE.INTRA.SOLV.lig_0>
-32.2894

>  <SCORE.INTRA.VDW>
-3.05882

>  <SCORE.INTRA.VDW.0>
2.0241

>  <SCORE.INTRA.norm>
-0.16668

>  <SCORE.RESTR>
0

>  <SCORE.RESTR.CAVITY>
0

>  <SCORE.RESTR.norm>
0

>  <SCORE.SYSTEM>
0

>  <SCORE.SYSTEM.CONST>
0

>  <SCORE.SYSTEM.DIHEDRAL>
0

>  <SCORE.SYSTEM.SOLV>
0

>  <SCORE.SYSTEM.norm>
0

>  <SCORE.heavy>
12

>  <SCORE.norm>
-1.21406

>  <RMSD>
3.875

$$$$
ligand
 OpenBabel11021811513D
libRbt.so/2013.1/901 2013/11/27
 12 12  0  0  0  0  0  0  0  0999 V2000
    0.7748    2.9167  -26.4119 O   0  0  0  0  0  0  0  0  0  0  0  0
    3.3871    0.2836  -29.5155 O   0  0  0  0  0  0  0  0  0  0  0  0
    2.1344    2.8846  -26.1889 C   0  0  0  0  0  0  0  0  0  0  0  0
    5.7465    0.2513  -30.1310 O   0  0  0  0  0  0  0  0  0  0  0  0
    2.9309    3.3814  -27.3245 C   0  0  0  0  0  0  0  0  0  0  0  0
    4.0782    0.8955  -31.7766 O   0  5  0  0  0  0  0  0  0  0  0  0
    2.5366    2.7441  -28.5879 N   0  3  0  0  0  0  0  0  0  0  0  0
    1.1120    2.8478  -28.7733 C   0  0  0  0  0  0  0  0  0  0  0  0
    0.3700    2.3376  -27.5817 C   0  0  0  0  0  0  0  0  0  0  0  0
    3.2459    3.3446  -29.6773 C   0  0  0  0  0  0  0  0  0  0  0  0
    4.6341    2.6717  -29.8252 C   0  0  0  0  0  0  0  0  0  0  0  0
    4.4402    0.9524  -30.3378 S   0  0  1  0  0  0  0  0  0  0  0  0
  1  3  1  0  0  0  0
  1  9  1  0  0  0  0
  2 12  1  0  0  0  0
  3  5  1  0  0  0  0
  4 12  2  0  0  0  0
  5  7  1  0  0  0  0
  6 12  2  0  0  0  0
  7  8  1  0  0  0  0
  7 10  1  0  0  0  0
  8  9  1  0  0  0  0
 10 11  1  0  0  0  0
 12 11  1  1  0  0  0
M  CHG  2   6  -1   7   1
M  END
>  <CHROM.1>
84.60197093,66.56802352,-46.28720259,3.10994170,1.97470357,-29.00793692,2.26438923
0.10272578,0.95057941

>  <Name>
ligand

>  <RI>
0

>  <Rbt.Current_Directory>
/home/itssahil/PROJECTS/Mol_Feturizer/New_Systems/rnas/4P95

>  <Rbt.Executable>
rbdock ($Id: //depot/dev/client3/rdock/2013.1/src/exe/rbdock.cxx#4 $)

>  <Rbt.Library>
libRbt.so (2013.1, Build901 2013/11/27)

>  <Rbt.Parameter_File>
/export/apps/rDock/src/rDock_2013.1_src/data/scripts/dock_solv.prm

>  <Rbt.Receptor>
prm/pocket_docking_6.prm

>  <SCORE>
-14.5712

>  <SCORE.INTER>
-12.537

>  <SCORE.INTER.CONST>
1

>  <SCORE.INTER.POLAR>
0

>  <SCORE.INTER.ROT>
3

>  <SCORE.INTER.SOLV>
6.54635

>  <SCORE.INTER.VDW>
-16.1401

>  <SCORE.INTER.norm>
-1.04475

>  <SCORE.INTRA>
-2.03417

>  <SCORE.INTRA.DIHEDRAL>
1.30075

>  <SCORE.INTRA.DIHEDRAL.0>
0.283163

>  <SCORE.INTRA.POLAR>
0

>  <SCORE.INTRA.POLAR.0>
0

>  <SCORE.INTRA.REPUL>
0

>  <SCORE.INTRA.REPUL.0>
0

>  <SCORE.INTRA.SOLV>
0.40837

>  <SCORE.INTRA.SOLV.lig_0>
-32.2894

>  <SCORE.INTRA.VDW>
-2.88873

>  <SCORE.INTRA.VDW.0>
2.0241

>  <SCORE.INTRA.norm>
-0.169514

>  <SCORE.RESTR>
0

>  <SCORE.RESTR.CAVITY>
0

>  <SCORE.RESTR.norm>
0

>  <SCORE.SYSTEM>
0

>  <SCORE.SYSTEM.CONST>
0

>  <SCORE.SYSTEM.DIHEDRAL>
0

>  <SCORE.SYSTEM.SOLV>
0

>  <SCORE.SYSTEM.norm>
0

>  <SCORE.heavy>
12

>  <SCORE.norm>
-1.21426

>  <RMSD>
3.877

$$$$
ligand
 OpenBabel11021811513D
libRbt.so/2013.1/901 2013/11/27
 12 12  0  0  0  0  0  0  0  0999 V2000
    0.7251    2.9267  -26.4669 O   0  0  0  0  0  0  0  0  0  0  0  0
    3.3997    0.2963  -29.5177 O   0  0  0  0  0  0  0  0  0  0  0  0
    2.0811    2.8740  -26.2264 C   0  0  0  0  0  0  0  0  0  0  0  0
    5.7544    0.2789  -30.1511 O   0  0  0  0  0  0  0  0  0  0  0  0
    2.8990    3.3764  -27.3442 C   0  0  0  0  0  0  0  0  0  0  0  0
    4.0709    0.9270  -31.7796 O   0  5  0  0  0  0  0  0  0  0  0  0
    2.5136    2.7619  -28.6216 N   0  3  0  0  0  0  0  0  0  0  0  0
    1.0931    2.8866  -28.8244 C   0  0  0  0  0  0  0  0  0  0  0  0
    0.3287    2.3694  -27.6501 C   0  0  0  0  0  0  0  0  0  0  0  0
    3.2451    3.3685  -29.6929 C   0  0  0  0  0  0  0  0  0  0  0  0
    4.6336    2.6921  -29.8201 C   0  0  0  0  0  0  0  0  0  0  0  0
    4.4435    0.9756  -30.3432 S   0  0  1  0  0  0  0  0  0  0  0  0
  1  3  1  0  0  0  0
  1  9  1  0  0  0  0
  2 12  1  0  0  0  0
  3  5  1  0  0  0  0
  4 12  2  0  0  0  0
  5  7  1  0  0  0  0
  6 12  2  0  0  0  0
  7  8  1  0  0  0  0
  7 10  1  0  0  0  0
  8  9  1  0  0  0  0
 10 11  1  0  0  0  0
 12 11  1  1  0  0  0
M  CHG  2   6  -1   7   1
M  END
>  <CHROM.1>
83.87784567,66.34123049,-47.76204201,3.09521308,1.99371809,-29.03139882,2.27471950
0.05609161,0.98459431

>  <Name>
ligand

>  <RI>
0

>  <Rbt.Current_Directory>
/home/itssahil/PROJECTS/Mol_Feturizer/New_Systems/rnas/4P95

>  <Rbt.Executable>
rbdock ($Id: //depot/dev/client3/rdock/2013.1/src/exe/rbdock.cxx#4 $)

>  <Rbt.Library>
libRbt.so (2013.1, Build901 2013/11/27)

>  <Rbt.Parameter_File>
/export/apps/rDock/src/rDock_2013.1_src/data/scripts/dock_solv.prm

>  <Rbt.Receptor>
prm/pocket_docking_4.prm

>  <SCORE>
-14.4958

>  <SCORE.INTER>
-12.4288

>  <SCORE.INTER.CONST>
1

>  <SCORE.INTER.POLAR>
0

>  <SCORE.INTER.ROT>
3

>  <SCORE.INTER.SOLV>
6.45149

>  <SCORE.INTER.VDW>
-16.0363

>  <SCORE.INTER.norm>
-1.03573

>  <SCORE.INTRA>
-2.06703

>  <SCORE.INTRA.DIHEDRAL>
1.15469

>  <SCORE.INTRA.DIHEDRAL.0>
0.283163

>  <SCORE.INTRA.POLAR>
0

>  <SCORE.INTRA.POLAR.0>
0

>  <SCORE.INTRA.REPUL>
0

>  <SCORE.INTRA.REPUL.0>
0

>  <SCORE.INTRA.SOLV>
0.463355

>  <SCORE.INTRA.SOLV.lig_0>
-32.2894

>  <SCORE.INTRA.VDW>
-2.87606

>  <SCORE.INTRA.VDW.0>
2.0241

>  <SCORE.INTRA.norm>
-0.172253

>  <SCORE.RESTR>
0

>  <SCORE.RESTR.CAVITY>
0

>  <SCORE.RESTR.norm>
0

>  <SCORE.SYSTEM>
0

>  <SCORE.SYSTEM.CONST>
0

>  <SCORE.SYSTEM.DIHEDRAL>
0

>  <SCORE.SYSTEM.SOLV>
0

>  <SCORE.SYSTEM.norm>
0

>  <SCORE.heavy>
12

>  <SCORE.norm>
-1.20798

>  <RMSD>
3.878

$$$$
ligand
 OpenBabel11021811513D
libRbt.so/2013.1/901 2013/11/27
 12 12  0  0  0  0  0  0  0  0999 V2000
    0.5787    2.8462  -26.6002 O   0  0  0  0  0  0  0  0  0  0  0  0
    3.3435    0.3191  -29.5127 O   0  0  0  0  0  0  0  0  0  0  0  0
    1.9190    2.8997  -26.2839 C   0  0  0  0  0  0  0  0  0  0  0  0
    5.7038    0.2533  -30.1220 O   0  0  0  0  0  0  0  0  0  0  0  0
    2.7615    3.4291  -27.3706 C   0  0  0  0  0  0  0  0  0  0  0  0
    4.0477    0.9077  -31.7759 O   0  5  0  0  0  0  0  0  0  0  0  0
    2.4948    2.7525  -28.6469 N   0  3  0  0  0  0  0  0  0  0  0  0
    1.0829    2.7670  -28.9314 C   0  0  0  0  0  0  0  0  0  0  0  0
    0.2916    2.2283  -27.7849 C   0  0  0  0  0  0  0  0  0  0  0  0
    3.2410    3.3807  -29.6952 C   0  0  0  0  0  0  0  0  0  0  0  0
    4.6210    2.6894  -29.8346 C   0  0  0  0  0  0  0  0  0  0  0  0
    4.4069    0.9694  -30.3366 S   0  0  1  0  0  0  0  0  0  0  0  0
  1  3  1  0  0  0  0
  1  9  1  0  0  0  0
  2 12  1  0  0  0  0
  3  5  1  0  0  0  0
  4 12  2  0  0  0  0
  5  7  1  0  0  0  0
  6 12  2  0  0  0  0
  7  8  1  0  0  0  0
  7 10  1  0  0  0  0
  8  9  1  0  0  0  0
 10 11  1  0  0  0  0
 12 11  1  1  0  0  0
M  CHG  2   6  -1   7   1
M  END
>  <CHROM.1>
90.55273177,63.73523433,-46.31226486,3.03877058,1.97107232,-29.06473950,2.32541856
0.26161963,0.79179757

>  <Name>
ligand

>  <RI>
0

>  <Rbt.Current_Directory>
/home/itssahil/PROJECTS/Mol_Feturizer/New_Systems/rnas/4P95

>  <Rbt.Executable>
rbdock ($Id: //depot/dev/client3/rdock/2013.1/src/exe/rbdock.cxx#4 $)

>  <Rbt.Library>
libRbt.so (2013.1, Build901 2013/11/27)

>  <Rbt.Parameter_File>
/export/apps/rDock/src/rDock_2013.1_src/data/scripts/dock_solv.prm

>  <Rbt.Receptor>
prm/pocket_docking_4.prm

>  <SCORE>
-14.5722

>  <SCORE.INTER>
-12.5728

>  <SCORE.INTER.CONST>
1

>  <SCORE.INTER.POLAR>
0

>  <SCORE.INTER.ROT>
3

>  <SCORE.INTER.SOLV>
6.30361

>  <SCORE.INTER.VDW>
-16.0831

>  <SCORE.INTER.norm>
-1.04773

>  <SCORE.INTRA>
-1.99944

>  <SCORE.INTRA.DIHEDRAL>
1.56102

>  <SCORE.INTRA.DIHEDRAL.0>
0.283163

>  <SCORE.INTRA.POLAR>
0

>  <SCORE.INTRA.POLAR.0>
0

>  <SCORE.INTRA.REPUL>
0

>  <SCORE.INTRA.REPUL.0>
0

>  <SCORE.INTRA.SOLV>
0.551148

>  <SCORE.INTRA.SOLV.lig_0>
-32.2894

>  <SCORE.INTRA.VDW>
-3.05552

>  <SCORE.INTRA.VDW.0>
2.0241

>  <SCORE.INTRA.norm>
-0.16662

>  <SCORE.RESTR>
0

>  <SCORE.RESTR.CAVITY>
0

>  <SCORE.RESTR.norm>
0

>  <SCORE.SYSTEM>
0

>  <SCORE.SYSTEM.CONST>
0

>  <SCORE.SYSTEM.DIHEDRAL>
0

>  <SCORE.SYSTEM.SOLV>
0

>  <SCORE.SYSTEM.norm>
0

>  <SCORE.heavy>
12

>  <SCORE.norm>
-1.21435

>  <RMSD>
3.879

$$$$
ligand
 OpenBabel11021811513D
libRbt.so/2013.1/901 2013/11/27
 12 12  0  0  0  0  0  0  0  0999 V2000
    0.5807    2.8366  -26.7195 O   0  0  0  0  0  0  0  0  0  0  0  0
    2.6714    1.0537  -31.6441 O   0  0  0  0  0  0  0  0  0  0  0  0
    1.8872    2.8867  -26.2837 C   0  0  0  0  0  0  0  0  0  0  0  0
    3.0910   -0.0441  -29.5074 O   0  0  0  0  0  0  0  0  0  0  0  0
    2.8349    3.3526  -27.3112 C   0  0  0  0  0  0  0  0  0  0  0  0
    4.7156   -0.2388  -31.3044 O   0  5  0  0  0  0  0  0  0  0  0  0
    2.6740    2.6202  -28.5744 N   0  3  0  0  0  0  0  0  0  0  0  0
    1.2944    2.6406  -28.9882 C   0  0  0  0  0  0  0  0  0  0  0  0
    0.3921    2.1674  -27.8960 C   0  0  0  0  0  0  0  0  0  0  0  0
    3.5240    3.1879  -29.5771 C   0  0  0  0  0  0  0  0  0  0  0  0
    4.5651    2.1336  -30.0311 C   0  0  0  0  0  0  0  0  0  0  0  0
    3.7279    0.6647  -30.6619 S   0  0  1  0  0  0  0  0  0  0  0  0
  1  3  1  0  0  0  0
  1  9  1  0  0  0  0
  2 12  1  0  0  0  0
  3  5  1  0  0  0  0
  4 12  2  0  0  0  0
  5  7  1  0  0  0  0
  6 12  2  0  0  0  0
  7  8  1  0  0  0  0
  7 10  1  0  0  0  0
  8  9  1  0  0  0  0
 10 11  1  0  0  0  0
 12 11  1  1  0  0  0
M  CHG  2   6  -1   7   1
M  END
>  <CHROM.1>
117.11741671,58.02349222,48.92259745,2.76617085,1.77799140,-29.22261973,2.13737440
0.36467522,0.79015256

>  <Name>
ligand

>  <RI>
0

>  <Rbt.Current_Directory>
/home/itssahil/PROJECTS/Mol_Feturizer/New_Systems/rnas/4P95

>  <Rbt.Executable>
rbdock ($Id: //depot/dev/client3/rdock/2013.1/src/exe/rbdock.cxx#4 $)

>  <Rbt.Library>
libRbt.so (2013.1, Build901 2013/11/27)

>  <Rbt.Parameter_File>
/export/apps/rDock/src/rDock_2013.1_src/data/scripts/dock_solv.prm

>  <Rbt.Receptor>
prm/pocket_docking_4.prm

>  <SCORE>
-12.7654

>  <SCORE.INTER>
-10.4029

>  <SCORE.INTER.CONST>
1

>  <SCORE.INTER.POLAR>
0

>  <SCORE.INTER.ROT>
3

>  <SCORE.INTER.SOLV>
6.69286

>  <SCORE.INTER.VDW>
-14.7662

>  <SCORE.INTER.norm>
-0.866908

>  <SCORE.INTRA>
-2.36254

>  <SCORE.INTRA.DIHEDRAL>
2.38508

>  <SCORE.INTRA.DIHEDRAL.0>
0.283163

>  <SCORE.INTRA.POLAR>
0

>  <SCORE.INTRA.POLAR.0>
0

>  <SCORE.INTRA.REPUL>
0

>  <SCORE.INTRA.REPUL.0>
0

>  <SCORE.INTRA.SOLV>
0.0893911

>  <SCORE.INTRA.SOLV.lig_0>
-32.2894

>  <SCORE.INTRA.VDW>
-3.59978

>  <SCORE.INTRA.VDW.0>
2.0241

>  <SCORE.INTRA.norm>
-0.196878

>  <SCORE.RESTR>
0

>  <SCORE.RESTR.CAVITY>
0

>  <SCORE.RESTR.norm>
0

>  <SCORE.SYSTEM>
0

>  <SCORE.SYSTEM.CONST>
0

>  <SCORE.SYSTEM.DIHEDRAL>
0

>  <SCORE.SYSTEM.SOLV>
0

>  <SCORE.SYSTEM.norm>
0

>  <SCORE.heavy>
12

>  <SCORE.norm>
-1.06379

>  <RMSD>
3.879

$$$$
ligand
 OpenBabel11021811513D
libRbt.so/2013.1/901 2013/11/27
 12 12  0  0  0  0  0  0  0  0999 V2000
    0.5623    2.8422  -26.6079 O   0  0  0  0  0  0  0  0  0  0  0  0
    3.3576    0.3098  -29.5033 O   0  0  0  0  0  0  0  0  0  0  0  0
    1.9007    2.8929  -26.2830 C   0  0  0  0  0  0  0  0  0  0  0  0
    5.7022    0.2590  -30.1716 O   0  0  0  0  0  0  0  0  0  0  0  0
    2.7506    3.4257  -27.3621 C   0  0  0  0  0  0  0  0  0  0  0  0
    4.0041    0.9315  -31.7749 O   0  5  0  0  0  0  0  0  0  0  0  0
    2.4911    2.7547  -28.6429 N   0  3  0  0  0  0  0  0  0  0  0  0
    1.0810    2.7720  -28.9362 C   0  0  0  0  0  0  0  0  0  0  0  0
    0.2820    2.2295  -27.7968 C   0  0  0  0  0  0  0  0  0  0  0  0
    3.2446    3.3863  -29.6839 C   0  0  0  0  0  0  0  0  0  0  0  0
    4.6209    2.6879  -29.8239 C   0  0  0  0  0  0  0  0  0  0  0  0
    4.3986    0.9744  -30.3441 S   0  0  1  0  0  0  0  0  0  0  0  0
  1  3  1  0  0  0  0
  1  9  1  0  0  0  0
  2 12  1  0  0  0  0
  3  5  1  0  0  0  0
  4 12  2  0  0  0  0
  5  7  1  0  0  0  0
  6 12  2  0  0  0  0
  7  8  1  0  0  0  0
  7 10  1  0  0  0  0
  8  9  1  0  0  0  0
 10 11  1  0  0  0  0
 12 11  1  1  0  0  0
M  CHG  2   6  -1   7   1
M  END
>  <CHROM.1>
90.92566609,63.90079976,-48.08644966,3.03055659,1.97339883,-29.06849164,2.32585719
0.26242107,0.79324079

>  <Name>
ligand

>  <RI>
0

>  <Rbt.Current_Directory>
/home/itssahil/PROJECTS/Mol_Feturizer/New_Systems/rnas/4P95

>  <Rbt.Executable>
rbdock ($Id: //depot/dev/client3/rdock/2013.1/src/exe/rbdock.cxx#4 $)

>  <Rbt.Library>
libRbt.so (2013.1, Build901 2013/11/27)

>  <Rbt.Parameter_File>
/export/apps/rDock/src/rDock_2013.1_src/data/scripts/dock_solv.prm

>  <Rbt.Receptor>
prm/pocket_docking_4.prm

>  <SCORE>
-14.5509

>  <SCORE.INTER>
-12.534

>  <SCORE.INTER.CONST>
1

>  <SCORE.INTER.POLAR>
0

>  <SCORE.INTER.ROT>
3

>  <SCORE.INTER.SOLV>
6.26213

>  <SCORE.INTER.VDW>
-16.0434

>  <SCORE.INTER.norm>
-1.0445

>  <SCORE.INTRA>
-2.0169

>  <SCORE.INTRA.DIHEDRAL>
1.48063

>  <SCORE.INTRA.DIHEDRAL.0>
0.283163

>  <SCORE.INTRA.POLAR>
0

>  <SCORE.INTRA.POLAR.0>
0

>  <SCORE.INTRA.REPUL>
0

>  <SCORE.INTRA.REPUL.0>
0

>  <SCORE.INTRA.SOLV>
0.624505

>  <SCORE.INTRA.SOLV.lig_0>
-32.2894

>  <SCORE.INTRA.VDW>
-3.06947

>  <SCORE.INTRA.VDW.0>
2.0241

>  <SCORE.INTRA.norm>
-0.168075

>  <SCORE.RESTR>
0

>  <SCORE.RESTR.CAVITY>
0

>  <SCORE.RESTR.norm>
0

>  <SCORE.SYSTEM>
0

>  <SCORE.SYSTEM.CONST>
0

>  <SCORE.SYSTEM.DIHEDRAL>
0

>  <SCORE.SYSTEM.SOLV>
0

>  <SCORE.SYSTEM.norm>
0

>  <SCORE.heavy>
12

>  <SCORE.norm>
-1.21257

>  <RMSD>
3.881

$$$$
ligand
 OpenBabel11021811513D
libRbt.so/2013.1/901 2013/11/27
 12 12  0  0  0  0  0  0  0  0999 V2000
    0.5628    2.7831  -26.6366 O   0  0  0  0  0  0  0  0  0  0  0  0
    3.5609    0.3918  -29.5555 O   0  0  0  0  0  0  0  0  0  0  0  0
    1.8986    2.8840  -26.3129 C   0  0  0  0  0  0  0  0  0  0  0  0
    5.8602    0.5438  -30.3535 O   0  0  0  0  0  0  0  0  0  0  0  0
    2.7231    3.4704  -27.3840 C   0  0  0  0  0  0  0  0  0  0  0  0
    4.0271    1.1459  -31.8312 O   0  5  0  0  0  0  0  0  0  0  0  0
    2.4890    2.8112  -28.6758 N   0  3  0  0  0  0  0  0  0  0  0  0
    1.0787    2.7747  -28.9665 C   0  0  0  0  0  0  0  0  0  0  0  0
    0.3056    2.1798  -27.8356 C   0  0  0  0  0  0  0  0  0  0  0  0
    3.2130    3.4916  -29.7069 C   0  0  0  0  0  0  0  0  0  0  0  0
    4.6255    2.8690  -29.8450 C   0  0  0  0  0  0  0  0  0  0  0  0
    4.4998    1.1645  -30.4238 S   0  0  1  0  0  0  0  0  0  0  0  0
  1  3  1  0  0  0  0
  1  9  1  0  0  0  0
  2 12  1  0  0  0  0
  3  5  1  0  0  0  0
  4 12  2  0  0  0  0
  5  7  1  0  0  0  0
  6 12  2  0  0  0  0
  7  8  1  0  0  0  0
  7 10  1  0  0  0  0
  8  9  1  0  0  0  0
 10 11  1  0  0  0  0
 12 11  1  1  0  0  0
M  CHG  2   6  -1   7   1
M  END
>  <CHROM.1>
89.99708770,65.40341452,-52.52002754,3.07626262,2.07174739,-29.12223044,2.35493428
0.27378549,0.82750639

>  <Name>
ligand

>  <RI>
0

>  <Rbt.Current_Directory>
/home/itssahil/PROJECTS/Mol_Feturizer/New_Systems/rnas/4P95

>  <Rbt.Executable>
rbdock ($Id: //depot/dev/client3/rdock/2013.1/src/exe/rbdock.cxx#4 $)

>  <Rbt.Library>
libRbt.so (2013.1, Build901 2013/11/27)

>  <Rbt.Parameter_File>
/export/apps/rDock/src/rDock_2013.1_src/data/scripts/dock_solv.prm

>  <Rbt.Receptor>
prm/pocket_docking_6.prm

>  <SCORE>
-14.5414

>  <SCORE.INTER>
-12.4567

>  <SCORE.INTER.CONST>
1

>  <SCORE.INTER.POLAR>
0

>  <SCORE.INTER.ROT>
3

>  <SCORE.INTER.SOLV>
6.36875

>  <SCORE.INTER.VDW>
-16.0274

>  <SCORE.INTER.norm>
-1.03806

>  <SCORE.INTRA>
-2.08464

>  <SCORE.INTRA.DIHEDRAL>
1.25938

>  <SCORE.INTRA.DIHEDRAL.0>
0.283163

>  <SCORE.INTRA.POLAR>
0

>  <SCORE.INTRA.POLAR.0>
0

>  <SCORE.INTRA.REPUL>
0

>  <SCORE.INTRA.REPUL.0>
0

>  <SCORE.INTRA.SOLV>
0.760055

>  <SCORE.INTRA.SOLV.lig_0>
-32.2894

>  <SCORE.INTRA.VDW>
-3.09436

>  <SCORE.INTRA.VDW.0>
2.0241

>  <SCORE.INTRA.norm>
-0.17372

>  <SCORE.RESTR>
0

>  <SCORE.RESTR.CAVITY>
0

>  <SCORE.RESTR.norm>
0

>  <SCORE.SYSTEM>
0

>  <SCORE.SYSTEM.CONST>
0

>  <SCORE.SYSTEM.DIHEDRAL>
0

>  <SCORE.SYSTEM.SOLV>
0

>  <SCORE.SYSTEM.norm>
0

>  <SCORE.heavy>
12

>  <SCORE.norm>
-1.21178

>  <RMSD>
3.884

$$$$
ligand
 OpenBabel11021811513D
libRbt.so/2013.1/901 2013/11/27
 12 12  0  0  0  0  0  0  0  0999 V2000
    0.5753    2.9126  -26.6295 O   0  0  0  0  0  0  0  0  0  0  0  0
    3.3928    0.3524  -29.4947 O   0  0  0  0  0  0  0  0  0  0  0  0
    1.9174    2.9130  -26.3163 C   0  0  0  0  0  0  0  0  0  0  0  0
    5.7462    0.3213  -30.1326 O   0  0  0  0  0  0  0  0  0  0  0  0
    2.7750    3.4382  -27.3932 C   0  0  0  0  0  0  0  0  0  0  0  0
    4.0611    0.9550  -31.7652 O   0  5  0  0  0  0  0  0  0  0  0  0
    2.4822    2.8007  -28.6839 N   0  3  0  0  0  0  0  0  0  0  0  0
    1.0709    2.8700  -28.9635 C   0  0  0  0  0  0  0  0  0  0  0  0
    0.2644    2.3324  -27.8271 C   0  0  0  0  0  0  0  0  0  0  0  0
    3.2470    3.4269  -29.7198 C   0  0  0  0  0  0  0  0  0  0  0  0
    4.6326    2.7412  -29.8274 C   0  0  0  0  0  0  0  0  0  0  0  0
    4.4368    1.0192  -30.3301 S   0  0  1  0  0  0  0  0  0  0  0  0
  1  3  1  0  0  0  0
  1  9  1  0  0  0  0
  2 12  1  0  0  0  0
  3  5  1  0  0  0  0
  4 12  2  0  0  0  0
  5  7  1  0  0  0  0
  6 12  2  0  0  0  0
  7  8  1  0  0  0  0
  7 10  1  0  0  0  0
  8  9  1  0  0  0  0
 10 11  1  0  0  0  0
 12 11  1  1  0  0  0
M  CHG  2   6  -1   7   1
M  END
>  <CHROM.1>
87.50223206,63.92321052,-48.35995993,3.05049077,2.02415928,-29.07786866,2.31977931
0.17062724,0.86554146

>  <Name>
ligand

>  <RI>
0

>  <Rbt.Current_Directory>
/home/itssahil/PROJECTS/Mol_Feturizer/New_Systems/rnas/4P95

>  <Rbt.Executable>
rbdock ($Id: //depot/dev/client3/rdock/2013.1/src/exe/rbdock.cxx#4 $)

>  <Rbt.Library>
libRbt.so (2013.1, Build901 2013/11/27)

>  <Rbt.Parameter_File>
/export/apps/rDock/src/rDock_2013.1_src/data/scripts/dock_solv.prm

>  <Rbt.Receptor>
prm/pocket_docking_4.prm

>  <SCORE>
-14.5416

>  <SCORE.INTER>
-12.4645

>  <SCORE.INTER.CONST>
1

>  <SCORE.INTER.POLAR>
0

>  <SCORE.INTER.ROT>
3

>  <SCORE.INTER.SOLV>
6.261

>  <SCORE.INTER.VDW>
-15.9967

>  <SCORE.INTER.norm>
-1.03871

>  <SCORE.INTRA>
-2.07711

>  <SCORE.INTRA.DIHEDRAL>
1.25123

>  <SCORE.INTRA.DIHEDRAL.0>
0.283163

>  <SCORE.INTRA.POLAR>
0

>  <SCORE.INTRA.POLAR.0>
0

>  <SCORE.INTRA.REPUL>
0

>  <SCORE.INTRA.REPUL.0>
0

>  <SCORE.INTRA.SOLV>
0.590275

>  <SCORE.INTRA.SOLV.lig_0>
-32.2894

>  <SCORE.INTRA.VDW>
-2.99787

>  <SCORE.INTRA.VDW.0>
2.0241

>  <SCORE.INTRA.norm>
-0.173093

>  <SCORE.RESTR>
0

>  <SCORE.RESTR.CAVITY>
0

>  <SCORE.RESTR.norm>
0

>  <SCORE.SYSTEM>
0

>  <SCORE.SYSTEM.CONST>
0

>  <SCORE.SYSTEM.DIHEDRAL>
0

>  <SCORE.SYSTEM.SOLV>
0

>  <SCORE.SYSTEM.norm>
0

>  <SCORE.heavy>
12

>  <SCORE.norm>
-1.2118

>  <RMSD>
3.891

$$$$
ligand
 OpenBabel11021811513D
libRbt.so/2013.1/901 2013/11/27
 12 12  0  0  0  0  0  0  0  0999 V2000
    0.5452    2.7912  -26.6394 O   0  0  0  0  0  0  0  0  0  0  0  0
    3.5007    0.4136  -29.5083 O   0  0  0  0  0  0  0  0  0  0  0  0
    1.8813    2.8766  -26.3123 C   0  0  0  0  0  0  0  0  0  0  0  0
    5.8067    0.5070  -30.2959 O   0  0  0  0  0  0  0  0  0  0  0  0
    2.7132    3.4657  -27.3762 C   0  0  0  0  0  0  0  0  0  0  0  0
    3.9928    1.1087  -31.7973 O   0  5  0  0  0  0  0  0  0  0  0  0
    2.4753    2.8213  -28.6747 N   0  3  0  0  0  0  0  0  0  0  0  0
    1.0654    2.8007  -28.9684 C   0  0  0  0  0  0  0  0  0  0  0  0
    0.2846    2.2020  -27.8446 C   0  0  0  0  0  0  0  0  0  0  0  0
    3.2077    3.5049  -29.6979 C   0  0  0  0  0  0  0  0  0  0  0  0
    4.6111    2.8645  -29.8462 C   0  0  0  0  0  0  0  0  0  0  0  0
    4.4580    1.1500  -30.3879 S   0  0  1  0  0  0  0  0  0  0  0  0
  1  3  1  0  0  0  0
  1  9  1  0  0  0  0
  2 12  1  0  0  0  0
  3  5  1  0  0  0  0
  4 12  2  0  0  0  0
  5  7  1  0  0  0  0
  6 12  2  0  0  0  0
  7  8  1  0  0  0  0
  7 10  1  0  0  0  0
  8  9  1  0  0  0  0
 10 11  1  0  0  0  0
 12 11  1  1  0  0  0
M  CHG  2   6  -1   7   1
M  END
>  <CHROM.1>
90.37718811,63.29422770,-51.18876589,3.04886691,2.06969039,-29.10464097,2.35584984
0.27851292,0.81233043

>  <Name>
ligand

>  <RI>
0

>  <Rbt.Current_Directory>
/home/itssahil/PROJECTS/Mol_Feturizer/New_Systems/rnas/4P95

>  <Rbt.Executable>
rbdock ($Id: //depot/dev/client3/rdock/2013.1/src/exe/rbdock.cxx#4 $)

>  <Rbt.Library>
libRbt.so (2013.1, Build901 2013/11/27)

>  <Rbt.Parameter_File>
/export/apps/rDock/src/rDock_2013.1_src/data/scripts/dock_solv.prm

>  <Rbt.Receptor>
prm/pocket_docking_4.prm

>  <SCORE>
-14.5584

>  <SCORE.INTER>
-12.4853

>  <SCORE.INTER.CONST>
1

>  <SCORE.INTER.POLAR>
0

>  <SCORE.INTER.ROT>
3

>  <SCORE.INTER.SOLV>
6.34399

>  <SCORE.INTER.VDW>
-16.0382

>  <SCORE.INTER.norm>
-1.04044

>  <SCORE.INTRA>
-2.07313

>  <SCORE.INTRA.DIHEDRAL>
1.27034

>  <SCORE.INTRA.DIHEDRAL.0>
0.283163

>  <SCORE.INTRA.POLAR>
0

>  <SCORE.INTRA.POLAR.0>
0

>  <SCORE.INTRA.REPUL>
0

>  <SCORE.INTRA.REPUL.0>
0

>  <SCORE.INTRA.SOLV>
0.76056

>  <SCORE.INTRA.SOLV.lig_0>
-32.2894

>  <SCORE.INTRA.VDW>
-3.08858

>  <SCORE.INTRA.VDW.0>
2.0241

>  <SCORE.INTRA.norm>
-0.172761

>  <SCORE.RESTR>
0

>  <SCORE.RESTR.CAVITY>
0

>  <SCORE.RESTR.norm>
0

>  <SCORE.SYSTEM>
0

>  <SCORE.SYSTEM.CONST>
0

>  <SCORE.SYSTEM.DIHEDRAL>
0

>  <SCORE.SYSTEM.SOLV>
0

>  <SCORE.SYSTEM.norm>
0

>  <SCORE.heavy>
12

>  <SCORE.norm>
-1.2132

>  <RMSD>
3.906

$$$$
ligand
 OpenBabel11021811513D
libRbt.so/2013.1/901 2013/11/27
 12 12  0  0  0  0  0  0  0  0999 V2000
    0.6857    2.8199  -26.6320 O   0  0  0  0  0  0  0  0  0  0  0  0
    6.2275    0.9616  -30.5691 O   0  0  0  0  0  0  0  0  0  0  0  0
    2.0398    2.8878  -26.3849 C   0  0  0  0  0  0  0  0  0  0  0  0
    4.5373    1.6907  -32.1685 O   0  0  0  0  0  0  0  0  0  0  0  0
    2.8150    3.4640  -27.4975 C   0  0  0  0  0  0  0  0  0  0  0  0
    3.8646    0.4989  -30.1601 O   0  5  0  0  0  0  0  0  0  0  0  0
    2.4920    2.8210  -28.7782 N   0  3  0  0  0  0  0  0  0  0  0  0
    1.0670    2.8190  -28.9878 C   0  0  0  0  0  0  0  0  0  0  0  0
    0.3463    2.2325  -27.8184 C   0  0  0  0  0  0  0  0  0  0  0  0
    3.1715    3.4932  -29.8445 C   0  0  0  0  0  0  0  0  0  0  0  0
    4.6590    3.0591  -29.8658 C   0  0  0  0  0  0  0  0  0  0  0  0
    4.8330    1.4773  -30.7166 S   0  0  1  0  0  0  0  0  0  0  0  0
  1  3  1  0  0  0  0
  1  9  1  0  0  0  0
  2 12  1  0  0  0  0
  3  5  1  0  0  0  0
  4 12  2  0  0  0  0
  5  7  1  0  0  0  0
  6 12  2  0  0  0  0
  7  8  1  0  0  0  0
  7 10  1  0  0  0  0
  8  9  1  0  0  0  0
 10 11  1  0  0  0  0
 12 11  1  1  0  0  0
M  CHG  2   6  -1   7   1
M  END
>  <CHROM.1>
77.63501489,81.56371383,-171.89754960,3.25724122,2.23589440,-29.29804540
-2.34415095,-0.04242779,-1.98896743

>  <Name>
ligand

>  <RI>
0

>  <Rbt.Current_Directory>
/home/itssahil/PROJECTS/Mol_Feturizer/New_Systems/rnas/4P95

>  <Rbt.Executable>
rbdock ($Id: //depot/dev/client3/rdock/2013.1/src/exe/rbdock.cxx#4 $)

>  <Rbt.Library>
libRbt.so (2013.1, Build901 2013/11/27)

>  <Rbt.Parameter_File>
/export/apps/rDock/src/rDock_2013.1_src/data/scripts/dock_solv.prm

>  <Rbt.Receptor>
prm/pocket_docking_7.prm

>  <SCORE>
-11.4727

>  <SCORE.INTER>
-11.6094

>  <SCORE.INTER.CONST>
1

>  <SCORE.INTER.POLAR>
0

>  <SCORE.INTER.ROT>
3

>  <SCORE.INTER.SOLV>
7.92566

>  <SCORE.INTER.VDW>
-15.9815

>  <SCORE.INTER.norm>
-0.967453

>  <SCORE.INTRA>
0.136765

>  <SCORE.INTRA.DIHEDRAL>
2.01966

>  <SCORE.INTRA.DIHEDRAL.0>
0.283163

>  <SCORE.INTRA.POLAR>
0

>  <SCORE.INTRA.POLAR.0>
0

>  <SCORE.INTRA.REPUL>
0

>  <SCORE.INTRA.REPUL.0>
0

>  <SCORE.INTRA.SOLV>
3.24476

>  <SCORE.INTRA.SOLV.lig_0>
-32.2894

>  <SCORE.INTRA.VDW>
-2.49545

>  <SCORE.INTRA.VDW.0>
2.0241

>  <SCORE.INTRA.norm>
0.0113971

>  <SCORE.RESTR>
0

>  <SCORE.RESTR.CAVITY>
0

>  <SCORE.RESTR.norm>
0

>  <SCORE.SYSTEM>
0

>  <SCORE.SYSTEM.CONST>
0

>  <SCORE.SYSTEM.DIHEDRAL>
0

>  <SCORE.SYSTEM.SOLV>
0

>  <SCORE.SYSTEM.norm>
0

>  <SCORE.heavy>
12

>  <SCORE.norm>
-0.956056

>  <RMSD>
3.908

$$$$
ligand
 OpenBabel11021811513D
libRbt.so/2013.1/901 2013/11/27
 12 12  0  0  0  0  0  0  0  0999 V2000
    0.5448    2.7878  -26.6217 O   0  0  0  0  0  0  0  0  0  0  0  0
    3.5067    0.4011  -29.5149 O   0  0  0  0  0  0  0  0  0  0  0  0
    1.8823    2.8702  -26.2998 C   0  0  0  0  0  0  0  0  0  0  0  0
    5.8116    0.5131  -30.3032 O   0  0  0  0  0  0  0  0  0  0  0  0
    2.7114    3.4573  -27.3670 C   0  0  0  0  0  0  0  0  0  0  0  0
    3.9934    1.1163  -31.7988 O   0  5  0  0  0  0  0  0  0  0  0  0
    2.4671    2.8134  -28.6645 N   0  3  0  0  0  0  0  0  0  0  0  0
    1.0559    2.7959  -28.9526 C   0  0  0  0  0  0  0  0  0  0  0  0
    0.2782    2.1991  -27.8258 C   0  0  0  0  0  0  0  0  0  0  0  0
    3.1970    3.4953  -29.6905 C   0  0  0  0  0  0  0  0  0  0  0  0
    4.6034    2.8605  -29.8347 C   0  0  0  0  0  0  0  0  0  0  0  0
    4.4594    1.1494  -30.3894 S   0  0  1  0  0  0  0  0  0  0  0  0
  1  3  1  0  0  0  0
  1  9  1  0  0  0  0
  2 12  1  0  0  0  0
  3  5  1  0  0  0  0
  4 12  2  0  0  0  0
  5  7  1  0  0  0  0
  6 12  2  0  0  0  0
  7  8  1  0  0  0  0
  7 10  1  0  0  0  0
  8  9  1  0  0  0  0
 10 11  1  0  0  0  0
 12 11  1  1  0  0  0
M  CHG  2   6  -1   7   1
M  END
>  <CHROM.1>
89.83186054,64.05178576,-51.59662337,3.04687755,2.06623582,-29.09854821,2.35176044
0.26716409,0.82775147

>  <Name>
ligand

>  <RI>
0

>  <Rbt.Current_Directory>
/home/itssahil/PROJECTS/Mol_Feturizer/New_Systems/rnas/4P95

>  <Rbt.Executable>
rbdock ($Id: //depot/dev/client3/rdock/2013.1/src/exe/rbdock.cxx#4 $)

>  <Rbt.Library>
libRbt.so (2013.1, Build901 2013/11/27)

>  <Rbt.Parameter_File>
/export/apps/rDock/src/rDock_2013.1_src/data/scripts/dock_solv.prm

>  <Rbt.Receptor>
prm/pocket_docking_5.prm

>  <SCORE>
-14.5796

>  <SCORE.INTER>
-12.4948

>  <SCORE.INTER.CONST>
1

>  <SCORE.INTER.POLAR>
0

>  <SCORE.INTER.ROT>
3

>  <SCORE.INTER.SOLV>
6.35898

>  <SCORE.INTER.VDW>
-16.0495

>  <SCORE.INTER.norm>
-1.04123

>  <SCORE.INTRA>
-2.08485

>  <SCORE.INTRA.DIHEDRAL>
1.23916

>  <SCORE.INTRA.DIHEDRAL.0>
0.283163

>  <SCORE.INTRA.POLAR>
0

>  <SCORE.INTRA.POLAR.0>
0

>  <SCORE.INTRA.REPUL>
0

>  <SCORE.INTRA.REPUL.0>
0

>  <SCORE.INTRA.SOLV>
0.75197

>  <SCORE.INTRA.SOLV.lig_0>
-32.2894

>  <SCORE.INTRA.VDW>
-3.08041

>  <SCORE.INTRA.VDW.0>
2.0241

>  <SCORE.INTRA.norm>
-0.173738

>  <SCORE.RESTR>
0

>  <SCORE.RESTR.CAVITY>
0

>  <SCORE.RESTR.norm>
0

>  <SCORE.SYSTEM>
0

>  <SCORE.SYSTEM.CONST>
0

>  <SCORE.SYSTEM.DIHEDRAL>
0

>  <SCORE.SYSTEM.SOLV>
0

>  <SCORE.SYSTEM.norm>
0

>  <SCORE.heavy>
12

>  <SCORE.norm>
-1.21497

>  <RMSD>
3.909

$$$$
ligand
 OpenBabel11021811513D
libRbt.so/2013.1/901 2013/11/27
 12 12  0  0  0  0  0  0  0  0999 V2000
    0.5703    2.7381  -26.6903 O   0  0  0  0  0  0  0  0  0  0  0  0
    6.1827    0.9349  -30.6326 O   0  0  0  0  0  0  0  0  0  0  0  0
    1.9059    2.8633  -26.3744 C   0  0  0  0  0  0  0  0  0  0  0  0
    4.5367    1.8202  -32.1989 O   0  0  0  0  0  0  0  0  0  0  0  0
    2.7130    3.4661  -27.4496 C   0  0  0  0  0  0  0  0  0  0  0  0
    3.8022    0.5136  -30.2859 O   0  5  0  0  0  0  0  0  0  0  0  0
    2.4834    2.8042  -28.7408 N   0  3  0  0  0  0  0  0  0  0  0  0
    1.0724    2.7419  -29.0232 C   0  0  0  0  0  0  0  0  0  0  0  0
    0.3171    2.1315  -27.8885 C   0  0  0  0  0  0  0  0  0  0  0  0
    3.1887    3.4991  -29.7753 C   0  0  0  0  0  0  0  0  0  0  0  0
    4.6634    3.0236  -29.8062 C   0  0  0  0  0  0  0  0  0  0  0  0
    4.8054    1.4994  -30.7617 S   0  0  1  0  0  0  0  0  0  0  0  0
  1  3  1  0  0  0  0
  1  9  1  0  0  0  0
  2 12  1  0  0  0  0
  3  5  1  0  0  0  0
  4 12  2  0  0  0  0
  5  7  1  0  0  0  0
  6 12  2  0  0  0  0
  7  8  1  0  0  0  0
  7 10  1  0  0  0  0
  8  9  1  0  0  0  0
 10 11  1  0  0  0  0
 12 11  1  1  0  0  0
M  CHG  2   6  -1   7   1
M  END
>  <CHROM.1>
83.10624235,83.26582884,-171.97740243,3.21649540,2.22466292,-29.31978978
2.36088321,0.16444652,1.05310094

>  <Name>
ligand

>  <RI>
0

>  <Rbt.Current_Directory>
/home/itssahil/PROJECTS/Mol_Feturizer/New_Systems/rnas/4P95

>  <Rbt.Executable>
rbdock ($Id: //depot/dev/client3/rdock/2013.1/src/exe/rbdock.cxx#4 $)

>  <Rbt.Library>
libRbt.so (2013.1, Build901 2013/11/27)

>  <Rbt.Parameter_File>
/export/apps/rDock/src/rDock_2013.1_src/data/scripts/dock_solv.prm

>  <Rbt.Receptor>
prm/pocket_docking_7.prm

>  <SCORE>
-11.443

>  <SCORE.INTER>
-11.6339

>  <SCORE.INTER.CONST>
1

>  <SCORE.INTER.POLAR>
0

>  <SCORE.INTER.ROT>
3

>  <SCORE.INTER.SOLV>
7.54087

>  <SCORE.INTER.VDW>
-15.8696

>  <SCORE.INTER.norm>
-0.969493

>  <SCORE.INTRA>
0.190892

>  <SCORE.INTRA.DIHEDRAL>
2.55169

>  <SCORE.INTRA.DIHEDRAL.0>
0.283163

>  <SCORE.INTRA.POLAR>
0

>  <SCORE.INTRA.POLAR.0>
0

>  <SCORE.INTRA.REPUL>
0

>  <SCORE.INTRA.REPUL.0>
0

>  <SCORE.INTRA.SOLV>
3.20863

>  <SCORE.INTRA.SOLV.lig_0>
-32.2894

>  <SCORE.INTRA.VDW>
-2.68927

>  <SCORE.INTRA.VDW.0>
2.0241

>  <SCORE.INTRA.norm>
0.0159077

>  <SCORE.RESTR>
0

>  <SCORE.RESTR.CAVITY>
0

>  <SCORE.RESTR.norm>
0

>  <SCORE.SYSTEM>
0

>  <SCORE.SYSTEM.CONST>
0

>  <SCORE.SYSTEM.DIHEDRAL>
0

>  <SCORE.SYSTEM.SOLV>
0

>  <SCORE.SYSTEM.norm>
0

>  <SCORE.heavy>
12

>  <SCORE.norm>
-0.953586

>  <RMSD>
3.914

$$$$
ligand
 OpenBabel11021811513D
libRbt.so/2013.1/901 2013/11/27
 12 12  0  0  0  0  0  0  0  0999 V2000
    0.7029    2.9105  -26.5442 O   0  0  0  0  0  0  0  0  0  0  0  0
    2.6758    1.0649  -31.6210 O   0  0  0  0  0  0  0  0  0  0  0  0
    2.0306    2.9026  -26.1747 C   0  0  0  0  0  0  0  0  0  0  0  0
    3.0595   -0.0014  -29.4618 O   0  0  0  0  0  0  0  0  0  0  0  0
    2.9427    3.3545  -27.2399 C   0  0  0  0  0  0  0  0  0  0  0  0
    4.7082   -0.2325  -31.2323 O   0  5  0  0  0  0  0  0  0  0  0  0
    2.6907    2.6555  -28.5071 N   0  3  0  0  0  0  0  0  0  0  0  0
    1.2939    2.7360  -28.8497 C   0  0  0  0  0  0  0  0  0  0  0  0
    0.4301    2.2739  -27.7223 C   0  0  0  0  0  0  0  0  0  0  0  0
    3.5105    3.2122  -29.5407 C   0  0  0  0  0  0  0  0  0  0  0  0
    4.5524    2.1603  -29.9985 C   0  0  0  0  0  0  0  0  0  0  0  0
    3.7164    0.6860  -30.6180 S   0  0  1  0  0  0  0  0  0  0  0  0
  1  3  1  0  0  0  0
  1  9  1  0  0  0  0
  2 12  1  0  0  0  0
  3  5  1  0  0  0  0
  4 12  2  0  0  0  0
  5  7  1  0  0  0  0
  6 12  2  0  0  0  0
  7  8  1  0  0  0  0
  7 10  1  0  0  0  0
  8  9  1  0  0  0  0
 10 11  1  0  0  0  0
 12 11  1  1  0  0  0
M  CHG  2   6  -1   7   1
M  END
>  <CHROM.1>
113.18511974,59.40786926,50.42019490,2.79164931,1.81461285,-29.14395365,2.10755792
0.35956308,0.81097633

>  <Name>
ligand

>  <RI>
0

>  <Rbt.Current_Directory>
/home/itssahil/PROJECTS/Mol_Feturizer/New_Systems/rnas/4P95

>  <Rbt.Executable>
rbdock ($Id: //depot/dev/client3/rdock/2013.1/src/exe/rbdock.cxx#4 $)

>  <Rbt.Library>
libRbt.so (2013.1, Build901 2013/11/27)

>  <Rbt.Parameter_File>
/export/apps/rDock/src/rDock_2013.1_src/data/scripts/dock_solv.prm

>  <Rbt.Receptor>
prm/pocket_docking_5.prm

>  <SCORE>
-12.7624

>  <SCORE.INTER>
-10.3513

>  <SCORE.INTER.CONST>
1

>  <SCORE.INTER.POLAR>
0

>  <SCORE.INTER.ROT>
3

>  <SCORE.INTER.SOLV>
7.04089

>  <SCORE.INTER.VDW>
-14.8478

>  <SCORE.INTER.norm>
-0.862605

>  <SCORE.INTRA>
-2.4111

>  <SCORE.INTRA.DIHEDRAL>
2.25563

>  <SCORE.INTRA.DIHEDRAL.0>
0.283163

>  <SCORE.INTRA.POLAR>
0

>  <SCORE.INTRA.POLAR.0>
0

>  <SCORE.INTRA.REPUL>
0

>  <SCORE.INTRA.REPUL.0>
0

>  <SCORE.INTRA.SOLV>
0.0951997

>  <SCORE.INTRA.SOLV.lig_0>
-32.2894

>  <SCORE.INTRA.VDW>
-3.58651

>  <SCORE.INTRA.VDW.0>
2.0241

>  <SCORE.INTRA.norm>
-0.200925

>  <SCORE.RESTR>
0

>  <SCORE.RESTR.CAVITY>
0

>  <SCORE.RESTR.norm>
0

>  <SCORE.SYSTEM>
0

>  <SCORE.SYSTEM.CONST>
0

>  <SCORE.SYSTEM.DIHEDRAL>
0

>  <SCORE.SYSTEM.SOLV>
0

>  <SCORE.SYSTEM.norm>
0

>  <SCORE.heavy>
12

>  <SCORE.norm>
-1.06353

>  <RMSD>
3.928

$$$$
ligand
 OpenBabel11021811513D
libRbt.so/2013.1/901 2013/11/27
 12 12  0  0  0  0  0  0  0  0999 V2000
    0.5488    2.7028  -26.7033 O   0  0  0  0  0  0  0  0  0  0  0  0
    6.1521    0.9075  -30.6064 O   0  0  0  0  0  0  0  0  0  0  0  0
    1.8747    2.8809  -26.3723 C   0  0  0  0  0  0  0  0  0  0  0  0
    4.3939    1.6652  -32.1167 O   0  0  0  0  0  0  0  0  0  0  0  0
    2.6744    3.4944  -27.4470 C   0  0  0  0  0  0  0  0  0  0  0  0
    3.8064    0.4788  -30.0787 O   0  5  0  0  0  0  0  0  0  0  0  0
    2.4860    2.8035  -28.7297 N   0  3  0  0  0  0  0  0  0  0  0  0
    1.0821    2.6862  -29.0293 C   0  0  0  0  0  0  0  0  0  0  0  0
    0.3336    2.0680  -27.8942 C   0  0  0  0  0  0  0  0  0  0  0  0
    3.1801    3.5060  -29.7665 C   0  0  0  0  0  0  0  0  0  0  0  0
    4.6527    3.0262  -29.8211 C   0  0  0  0  0  0  0  0  0  0  0  0
    4.7597    1.4440  -30.6822 S   0  0  1  0  0  0  0  0  0  0  0  0
  1  3  1  0  0  0  0
  1  9  1  0  0  0  0
  2 12  1  0  0  0  0
  3  5  1  0  0  0  0
  4 12  2  0  0  0  0
  5  7  1  0  0  0  0
  6 12  2  0  0  0  0
  7  8  1  0  0  0  0
  7 10  1  0  0  0  0
  8  9  1  0  0  0  0
 10 11  1  0  0  0  0
 12 11  1  1  0  0  0
M  CHG  2   6  -1   7   1
M  END
>  <CHROM.1>
86.18552817,78.85531517,-173.84418807,3.18891157,2.19007872,-29.28190218
2.37802601,0.23291841,0.96328323

>  <Name>
ligand

>  <RI>
0

>  <Rbt.Current_Directory>
/home/itssahil/PROJECTS/Mol_Feturizer/New_Systems/rnas/4P95

>  <Rbt.Executable>
rbdock ($Id: //depot/dev/client3/rdock/2013.1/src/exe/rbdock.cxx#4 $)

>  <Rbt.Library>
libRbt.so (2013.1, Build901 2013/11/27)

>  <Rbt.Parameter_File>
/export/apps/rDock/src/rDock_2013.1_src/data/scripts/dock_solv.prm

>  <Rbt.Receptor>
prm/pocket_docking_8.prm

>  <SCORE>
-11.4508

>  <SCORE.INTER>
-11.3728

>  <SCORE.INTER.CONST>
1

>  <SCORE.INTER.POLAR>
0

>  <SCORE.INTER.ROT>
3

>  <SCORE.INTER.SOLV>
8.14362

>  <SCORE.INTER.VDW>
-15.8964

>  <SCORE.INTER.norm>
-0.94773

>  <SCORE.INTRA>
-0.0780345

>  <SCORE.INTRA.DIHEDRAL>
2.10272

>  <SCORE.INTRA.DIHEDRAL.0>
0.283163

>  <SCORE.INTRA.POLAR>
0

>  <SCORE.INTRA.POLAR.0>
0

>  <SCORE.INTRA.REPUL>
0

>  <SCORE.INTRA.REPUL.0>
0

>  <SCORE.INTRA.SOLV>
3.5096

>  <SCORE.INTRA.SOLV.lig_0>
-32.2894

>  <SCORE.INTRA.VDW>
-2.88419

>  <SCORE.INTRA.VDW.0>
2.0241

>  <SCORE.INTRA.norm>
-0.00650288

>  <SCORE.RESTR>
0

>  <SCORE.RESTR.CAVITY>
0

>  <SCORE.RESTR.norm>
0

>  <SCORE.SYSTEM>
0

>  <SCORE.SYSTEM.CONST>
0

>  <SCORE.SYSTEM.DIHEDRAL>
0

>  <SCORE.SYSTEM.SOLV>
0

>  <SCORE.SYSTEM.norm>
0

>  <SCORE.heavy>
12

>  <SCORE.norm>
-0.954233

>  <RMSD>
3.931

$$$$
ligand
 OpenBabel11021811513D
libRbt.so/2013.1/901 2013/11/27
 12 12  0  0  0  0  0  0  0  0999 V2000
    0.6721    2.9267  -26.4780 O   0  0  0  0  0  0  0  0  0  0  0  0
    2.8315    1.0528  -31.6734 O   0  0  0  0  0  0  0  0  0  0  0  0
    2.0080    2.8740  -26.1435 C   0  0  0  0  0  0  0  0  0  0  0  0
    3.0393    0.1035  -29.4369 O   0  0  0  0  0  0  0  0  0  0  0  0
    2.9038    3.3463  -27.2137 C   0  0  0  0  0  0  0  0  0  0  0  0
    4.8510   -0.1629  -31.0347 O   0  5  0  0  0  0  0  0  0  0  0  0
    2.6036    2.7033  -28.4999 N   0  3  0  0  0  0  0  0  0  0  0  0
    1.2011    2.8290  -28.8029 C   0  0  0  0  0  0  0  0  0  0  0  0
    0.3548    2.3430  -27.6723 C   0  0  0  0  0  0  0  0  0  0  0  0
    3.4105    3.2811  -29.5321 C   0  0  0  0  0  0  0  0  0  0  0  0
    4.5204    2.2806  -29.9431 C   0  0  0  0  0  0  0  0  0  0  0  0
    3.7834    0.7539  -30.5613 S   0  0  1  0  0  0  0  0  0  0  0  0
  1  3  1  0  0  0  0
  1  9  1  0  0  0  0
  2 12  1  0  0  0  0
  3  5  1  0  0  0  0
  4 12  2  0  0  0  0
  5  7  1  0  0  0  0
  6 12  2  0  0  0  0
  7  8  1  0  0  0  0
  7 10  1  0  0  0  0
  8  9  1  0  0  0  0
 10 11  1  0  0  0  0
 12 11  1  1  0  0  0
M  CHG  2   6  -1   7   1
M  END
>  <CHROM.1>
106.71797953,60.19385799,54.84104724,2.79071329,1.86673177,-29.09884324,2.13583953
0.33787984,0.81739736

>  <Name>
ligand

>  <RI>
0

>  <Rbt.Current_Directory>
/home/itssahil/PROJECTS/Mol_Feturizer/New_Systems/rnas/4P95

>  <Rbt.Executable>
rbdock ($Id: //depot/dev/client3/rdock/2013.1/src/exe/rbdock.cxx#4 $)

>  <Rbt.Library>
libRbt.so (2013.1, Build901 2013/11/27)

>  <Rbt.Parameter_File>
/export/apps/rDock/src/rDock_2013.1_src/data/scripts/dock_solv.prm

>  <Rbt.Receptor>
prm/pocket_docking_4.prm

>  <SCORE>
-12.7445

>  <SCORE.INTER>
-10.2931

>  <SCORE.INTER.CONST>
1

>  <SCORE.INTER.POLAR>
0

>  <SCORE.INTER.ROT>
3

>  <SCORE.INTER.SOLV>
7.56083

>  <SCORE.INTER.VDW>
-14.9823

>  <SCORE.INTER.norm>
-0.857755

>  <SCORE.INTRA>
-2.45147

>  <SCORE.INTRA.DIHEDRAL>
1.93004

>  <SCORE.INTRA.DIHEDRAL.0>
0.283163

>  <SCORE.INTRA.POLAR>
0

>  <SCORE.INTRA.POLAR.0>
0

>  <SCORE.INTRA.REPUL>
0

>  <SCORE.INTRA.REPUL.0>
0

>  <SCORE.INTRA.SOLV>
0.151732

>  <SCORE.INTRA.SOLV.lig_0>
-32.2894

>  <SCORE.INTRA.VDW>
-3.49236

>  <SCORE.INTRA.VDW.0>
2.0241

>  <SCORE.INTRA.norm>
-0.204289

>  <SCORE.RESTR>
0

>  <SCORE.RESTR.CAVITY>
0

>  <SCORE.RESTR.norm>
0

>  <SCORE.SYSTEM>
0

>  <SCORE.SYSTEM.CONST>
0

>  <SCORE.SYSTEM.DIHEDRAL>
0

>  <SCORE.SYSTEM.SOLV>
0

>  <SCORE.SYSTEM.norm>
0

>  <SCORE.heavy>
12

>  <SCORE.norm>
-1.06204

>  <RMSD>
3.978

$$$$
ligand
 OpenBabel11021811513D
libRbt.so/2013.1/901 2013/11/27
 12 12  0  0  0  0  0  0  0  0999 V2000
    0.7384    2.5243  -26.8001 O   0  0  0  0  0  0  0  0  0  0  0  0
    1.7109    4.5622  -30.7841 O   0  0  0  0  0  0  0  0  0  0  0  0
    0.4891    2.1784  -28.1107 C   0  0  0  0  0  0  0  0  0  0  0  0
    2.2498    2.5161  -31.9963 O   0  0  0  0  0  0  0  0  0  0  0  0
    1.7074    1.8880  -28.8867 C   0  0  0  0  0  0  0  0  0  0  0  0
    3.1323    4.6448  -32.7683 O   0  5  0  0  0  0  0  0  0  0  0  0
    2.7085    2.9543  -28.7502 N   0  3  0  0  0  0  0  0  0  0  0  0
    2.9464    3.2372  -27.3580 C   0  0  0  0  0  0  0  0  0  0  0  0
    1.6696    3.5105  -26.6328 C   0  0  0  0  0  0  0  0  0  0  0  0
    3.9180    2.5736  -29.4155 C   0  0  0  0  0  0  0  0  0  0  0  0
    4.2308    3.5897  -30.5430 C   0  0  0  0  0  0  0  0  0  0  0  0
    2.7680    3.8530  -31.5663 S   0  0  1  0  0  0  0  0  0  0  0  0
  1  3  1  0  0  0  0
  1  9  1  0  0  0  0
  2 12  1  0  0  0  0
  3  5  1  0  0  0  0
  4 12  2  0  0  0  0
  5  7  1  0  0  0  0
  6 12  2  0  0  0  0
  7  8  1  0  0  0  0
  7 10  1  0  0  0  0
  8  9  1  0  0  0  0
 10 11  1  0  0  0  0
 12 11  1  1  0  0  0
M  CHG  2   6  -1   7   1
M  END
>  <CHROM.1>
119.19832173,-49.45359332,67.87654516,2.37783206,3.24877398,-29.70807445
1.87101660,0.19158142,1.76579919

>  <Name>
ligand

>  <RI>
0

>  <Rbt.Current_Directory>
/home/itssahil/PROJECTS/Mol_Feturizer/New_Systems/rnas/4P95

>  <Rbt.Executable>
rbdock ($Id: //depot/dev/client3/rdock/2013.1/src/exe/rbdock.cxx#4 $)

>  <Rbt.Library>
libRbt.so (2013.1, Build901 2013/11/27)

>  <Rbt.Parameter_File>
/export/apps/rDock/src/rDock_2013.1_src/data/scripts/dock_solv.prm

>  <Rbt.Receptor>
prm/pocket_docking_7.prm

>  <SCORE>
-11.0749

>  <SCORE.INTER>
-8.80312

>  <SCORE.INTER.CONST>
1

>  <SCORE.INTER.POLAR>
0

>  <SCORE.INTER.ROT>
3

>  <SCORE.INTER.SOLV>
6.88684

>  <SCORE.INTER.VDW>
-13.7644

>  <SCORE.INTER.norm>
-0.733593

>  <SCORE.INTRA>
-2.27176

>  <SCORE.INTRA.DIHEDRAL>
2.70363

>  <SCORE.INTRA.DIHEDRAL.0>
0.283163

>  <SCORE.INTRA.POLAR>
0

>  <SCORE.INTRA.POLAR.0>
0

>  <SCORE.INTRA.REPUL>
0

>  <SCORE.INTRA.REPUL.0>
0

>  <SCORE.INTRA.SOLV>
-0.125699

>  <SCORE.INTRA.SOLV.lig_0>
-32.2894

>  <SCORE.INTRA.VDW>
-3.56073

>  <SCORE.INTRA.VDW.0>
2.0241

>  <SCORE.INTRA.norm>
-0.189314

>  <SCORE.RESTR>
0

>  <SCORE.RESTR.CAVITY>
0

>  <SCORE.RESTR.norm>
0

>  <SCORE.SYSTEM>
0

>  <SCORE.SYSTEM.CONST>
0

>  <SCORE.SYSTEM.DIHEDRAL>
0

>  <SCORE.SYSTEM.SOLV>
0

>  <SCORE.SYSTEM.norm>
0

>  <SCORE.heavy>
12

>  <SCORE.norm>
-0.922907

>  <RMSD>
4.831

$$$$
ligand
 OpenBabel11021811513D
libRbt.so/2013.1/901 2013/11/27
 12 12  0  0  0  0  0  0  0  0999 V2000
    0.7132    2.6016  -26.7877 O   0  0  0  0  0  0  0  0  0  0  0  0
    1.7970    4.7289  -30.7446 O   0  0  0  0  0  0  0  0  0  0  0  0
    0.4360    2.2560  -28.0927 C   0  0  0  0  0  0  0  0  0  0  0  0
    2.2307    2.7086  -32.0395 O   0  0  0  0  0  0  0  0  0  0  0  0
    1.6344    1.9235  -28.8828 C   0  0  0  0  0  0  0  0  0  0  0  0
    3.2553    4.8104  -32.7019 O   0  5  0  0  0  0  0  0  0  0  0  0
    2.6697    2.9591  -28.7659 N   0  3  0  0  0  0  0  0  0  0  0  0
    2.9347    3.2425  -27.3787 C   0  0  0  0  0  0  0  0  0  0  0  0
    1.6767    3.5593  -26.6386 C   0  0  0  0  0  0  0  0  0  0  0  0
    3.8579    2.5372  -29.4446 C   0  0  0  0  0  0  0  0  0  0  0  0
    4.2481    3.5925  -30.5103 C   0  0  0  0  0  0  0  0  0  0  0  0
    2.8222    3.9906  -31.5422 S   0  0  1  0  0  0  0  0  0  0  0  0
  1  3  1  0  0  0  0
  1  9  1  0  0  0  0
  2 12  1  0  0  0  0
  3  5  1  0  0  0  0
  4 12  2  0  0  0  0
  5  7  1  0  0  0  0
  6 12  2  0  0  0  0
  7  8  1  0  0  0  0
  7 10  1  0  0  0  0
  8  9  1  0  0  0  0
 10 11  1  0  0  0  0
 12 11  1  1  0  0  0
M  CHG  2   6  -1   7   1
M  END
>  <CHROM.1>
123.49820808,-50.33408859,68.51565071,2.38503219,3.33109715,-29.69910843
1.88893427,0.15796897,1.79668897

>  <Name>
ligand

>  <RI>
0

>  <Rbt.Current_Directory>
/home/itssahil/PROJECTS/Mol_Feturizer/New_Systems/rnas/4P95

>  <Rbt.Executable>
rbdock ($Id: //depot/dev/client3/rdock/2013.1/src/exe/rbdock.cxx#4 $)

>  <Rbt.Library>
libRbt.so (2013.1, Build901 2013/11/27)

>  <Rbt.Parameter_File>
/export/apps/rDock/src/rDock_2013.1_src/data/scripts/dock_solv.prm

>  <Rbt.Receptor>
prm/pocket_docking_7.prm

>  <SCORE>
-11.0775

>  <SCORE.INTER>
-8.73432

>  <SCORE.INTER.CONST>
1

>  <SCORE.INTER.POLAR>
0

>  <SCORE.INTER.ROT>
3

>  <SCORE.INTER.SOLV>
7.45052

>  <SCORE.INTER.VDW>
-13.9064

>  <SCORE.INTER.norm>
-0.72786

>  <SCORE.INTRA>
-2.34321

>  <SCORE.INTRA.DIHEDRAL>
2.63176

>  <SCORE.INTRA.DIHEDRAL.0>
0.283163

>  <SCORE.INTRA.POLAR>
0

>  <SCORE.INTRA.POLAR.0>
0

>  <SCORE.INTRA.REPUL>
0

>  <SCORE.INTRA.REPUL.0>
0

>  <SCORE.INTRA.SOLV>
-0.145678

>  <SCORE.INTRA.SOLV.lig_0>
-32.2894

>  <SCORE.INTRA.VDW>
-3.58625

>  <SCORE.INTRA.VDW.0>
2.0241

>  <SCORE.INTRA.norm>
-0.195267

>  <SCORE.RESTR>
0

>  <SCORE.RESTR.CAVITY>
0

>  <SCORE.RESTR.norm>
0

>  <SCORE.SYSTEM>
0

>  <SCORE.SYSTEM.CONST>
0

>  <SCORE.SYSTEM.DIHEDRAL>
0

>  <SCORE.SYSTEM.SOLV>
0

>  <SCORE.SYSTEM.norm>
0

>  <SCORE.heavy>
12

>  <SCORE.norm>
-0.923127

>  <RMSD>
4.889

$$$$
ligand
 OpenBabel11021811513D
libRbt.so/2013.1/901 2013/11/27
 12 12  0  0  0  0  0  0  0  0999 V2000
    8.2839   -1.6360  -30.5229 O   0  0  0  0  0  0  0  0  0  0  0  0
    5.2148    1.9828  -30.1570 O   0  0  0  0  0  0  0  0  0  0  0  0
    7.8994   -1.0106  -29.3565 C   0  0  0  0  0  0  0  0  0  0  0  0
    3.1337    1.9348  -28.8869 O   0  0  0  0  0  0  0  0  0  0  0  0
    6.4551   -1.1090  -29.0822 C   0  0  0  0  0  0  0  0  0  0  0  0
    3.1258    2.7162  -31.1882 O   0  5  0  0  0  0  0  0  0  0  0  0
    5.6505   -0.7105  -30.2448 N   0  3  0  0  0  0  0  0  0  0  0  0
    6.0810   -1.4288  -31.4168 C   0  0  0  0  0  0  0  0  0  0  0  0
    7.5537   -1.2944  -31.6263 C   0  0  0  0  0  0  0  0  0  0  0  0
    4.2627   -0.9403  -29.9771 C   0  0  0  0  0  0  0  0  0  0  0  0
    3.4055    0.0640  -30.7884 C   0  0  0  0  0  0  0  0  0  0  0  0
    3.7412    1.7509  -30.2426 S   0  0  1  0  0  0  0  0  0  0  0  0
  1  3  1  0  0  0  0
  1  9  1  0  0  0  0
  2 12  1  0  0  0  0
  3  5  1  0  0  0  0
  4 12  2  0  0  0  0
  5  7  1  0  0  0  0
  6 12  2  0  0  0  0
  7  8  1  0  0  0  0
  7 10  1  0  0  0  0
  8  9  1  0  0  0  0
 10 11  1  0  0  0  0
 12 11  1  6  0  0  0
M  CHG  2   6  -1   7   1
M  END
>  <CHROM.1>
151.57342074,-63.92176326,47.58701226,5.22778505,0.23645842,-30.28217741
-0.39083503,-0.59247519,0.99795633

>  <Name>
ligand

>  <RI>
0

>  <Rbt.Current_Directory>
/home/itssahil/PROJECTS/Mol_Feturizer/New_Systems/rnas/4P95

>  <Rbt.Executable>
rbdock ($Id: //depot/dev/client3/rdock/2013.1/src/exe/rbdock.cxx#4 $)

>  <Rbt.Library>
libRbt.so (2013.1, Build901 2013/11/27)

>  <Rbt.Parameter_File>
/export/apps/rDock/src/rDock_2013.1_src/data/scripts/dock_solv.prm

>  <Rbt.Receptor>
prm/pocket_docking_7.prm

>  <SCORE>
-10.6411

>  <SCORE.INTER>
-8.01577

>  <SCORE.INTER.CONST>
1

>  <SCORE.INTER.POLAR>
0

>  <SCORE.INTER.ROT>
3

>  <SCORE.INTER.SOLV>
3.59945

>  <SCORE.INTER.VDW>
-12.1437

>  <SCORE.INTER.norm>
-0.66798

>  <SCORE.INTRA>
-2.62529

>  <SCORE.INTRA.DIHEDRAL>
1.13606

>  <SCORE.INTRA.DIHEDRAL.0>
0.283163

>  <SCORE.INTRA.POLAR>
0

>  <SCORE.INTRA.POLAR.0>
0

>  <SCORE.INTRA.REPUL>
0

>  <SCORE.INTRA.REPUL.0>
0

>  <SCORE.INTRA.SOLV>
-0.481047

>  <SCORE.INTRA.SOLV.lig_0>
-32.2894

>  <SCORE.INTRA.VDW>
-2.9528

>  <SCORE.INTRA.VDW.0>
2.0241

>  <SCORE.INTRA.norm>
-0.218774

>  <SCORE.RESTR>
0

>  <SCORE.RESTR.CAVITY>
0

>  <SCORE.RESTR.norm>
0

>  <SCORE.SYSTEM>
0

>  <SCORE.SYSTEM.CONST>
0

>  <SCORE.SYSTEM.DIHEDRAL>
0

>  <SCORE.SYSTEM.SOLV>
0

>  <SCORE.SYSTEM.norm>
0

>  <SCORE.heavy>
12

>  <SCORE.norm>
-0.886755

>  <RMSD>
5.137

$$$$
ligand
 OpenBabel11021811513D
libRbt.so/2013.1/901 2013/11/27
 12 12  0  0  0  0  0  0  0  0999 V2000
    4.6152   -2.2626  -30.8191 O   0  0  0  0  0  0  0  0  0  0  0  0
    2.1096    1.1867  -29.0468 O   0  0  0  0  0  0  0  0  0  0  0  0
    3.4624   -1.5639  -31.1055 C   0  0  0  0  0  0  0  0  0  0  0  0
    1.8437    3.1550  -30.4616 O   0  0  0  0  0  0  0  0  0  0  0  0
    3.6844   -0.1247  -31.3298 C   0  0  0  0  0  0  0  0  0  0  0  0
    2.0529    3.4177  -28.0546 O   0  5  0  0  0  0  0  0  0  0  0  0
    4.4744    0.4805  -30.2492 N   0  3  0  0  0  0  0  0  0  0  0  0
    5.6793   -0.2777  -30.0300 C   0  0  0  0  0  0  0  0  0  0  0  0
    5.3800   -1.7261  -29.8216 C   0  0  0  0  0  0  0  0  0  0  0  0
    4.7713    1.8442  -30.5693 C   0  0  0  0  0  0  0  0  0  0  0  0
    4.2838    2.7638  -29.4212 C   0  0  0  0  0  0  0  0  0  0  0  0
    2.4957    2.6190  -29.2253 S   0  0  1  0  0  0  0  0  0  0  0  0
  1  3  1  0  0  0  0
  1  9  1  0  0  0  0
  2 12  1  0  0  0  0
  3  5  1  0  0  0  0
  4 12  2  0  0  0  0
  5  7  1  0  0  0  0
  6 12  2  0  0  0  0
  7  8  1  0  0  0  0
  7 10  1  0  0  0  0
  8  9  1  0  0  0  0
 10 11  1  0  0  0  0
 12 11  1  6  0  0  0
M  CHG  2   6  -1   7   1
M  END
>  <CHROM.1>
124.86829544,-61.56390492,53.96442757,3.57835285,0.98588591,-29.92129063
1.09366385,0.04012317,-2.80071132

>  <Name>
ligand

>  <RI>
0

>  <Rbt.Current_Directory>
/home/itssahil/PROJECTS/Mol_Feturizer/New_Systems/rnas/4P95

>  <Rbt.Executable>
rbdock ($Id: //depot/dev/client3/rdock/2013.1/src/exe/rbdock.cxx#4 $)

>  <Rbt.Library>
libRbt.so (2013.1, Build901 2013/11/27)

>  <Rbt.Parameter_File>
/export/apps/rDock/src/rDock_2013.1_src/data/scripts/dock_solv.prm

>  <Rbt.Receptor>
prm/pocket_docking_4.prm

>  <SCORE>
-9.01672

>  <SCORE.INTER>
-6.48351

>  <SCORE.INTER.CONST>
1

>  <SCORE.INTER.POLAR>
0

>  <SCORE.INTER.ROT>
3

>  <SCORE.INTER.SOLV>
8.86736

>  <SCORE.INTER.VDW>
-12.8781

>  <SCORE.INTER.norm>
-0.540292

>  <SCORE.INTRA>
-2.53321

>  <SCORE.INTRA.DIHEDRAL>
2.13667

>  <SCORE.INTRA.DIHEDRAL.0>
0.283163

>  <SCORE.INTRA.POLAR>
0

>  <SCORE.INTRA.POLAR.0>
0

>  <SCORE.INTRA.REPUL>
0

>  <SCORE.INTRA.REPUL.0>
0

>  <SCORE.INTRA.SOLV>
-0.422547

>  <SCORE.INTRA.SOLV.lig_0>
-32.2894

>  <SCORE.INTRA.VDW>
-3.39028

>  <SCORE.INTRA.VDW.0>
2.0241

>  <SCORE.INTRA.norm>
-0.211101

>  <SCORE.RESTR>
0

>  <SCORE.RESTR.CAVITY>
0

>  <SCORE.RESTR.norm>
0

>  <SCORE.SYSTEM>
0

>  <SCORE.SYSTEM.CONST>
0

>  <SCORE.SYSTEM.DIHEDRAL>
0

>  <SCORE.SYSTEM.SOLV>
0

>  <SCORE.SYSTEM.norm>
0

>  <SCORE.heavy>
12

>  <SCORE.norm>
-0.751393

>  <RMSD>
5.177

$$$$
ligand
 OpenBabel11021811513D
libRbt.so/2013.1/901 2013/11/27
 12 12  0  0  0  0  0  0  0  0999 V2000
    6.8653   -0.9297  -31.1887 O   0  0  0  0  0  0  0  0  0  0  0  0
    4.7855    2.9813  -29.5311 O   0  0  0  0  0  0  0  0  0  0  0  0
    6.3759   -0.9465  -29.9005 C   0  0  0  0  0  0  0  0  0  0  0  0
    2.8750    3.8062  -28.2599 O   0  0  0  0  0  0  0  0  0  0  0  0
    4.9196   -0.7386  -29.8192 C   0  0  0  0  0  0  0  0  0  0  0  0
    2.7680    3.7291  -30.6866 O   0  5  0  0  0  0  0  0  0  0  0  0
    4.4931    0.4404  -30.5848 N   0  3  0  0  0  0  0  0  0  0  0  0
    5.0077    0.3731  -31.9284 C   0  0  0  0  0  0  0  0  0  0  0  0
    6.4846    0.1504  -31.9345 C   0  0  0  0  0  0  0  0  0  0  0  0
    3.0640    0.5312  -30.5814 C   0  0  0  0  0  0  0  0  0  0  0  0
    2.6020    1.3811  -29.3707 C   0  0  0  0  0  0  0  0  0  0  0  0
    3.2936    3.0443  -29.4785 S   0  0  1  0  0  0  0  0  0  0  0  0
  1  3  1  0  0  0  0
  1  9  1  0  0  0  0
  2 12  1  0  0  0  0
  3  5  1  0  0  0  0
  4 12  2  0  0  0  0
  5  7  1  0  0  0  0
  6 12  2  0  0  0  0
  7  8  1  0  0  0  0
  7 10  1  0  0  0  0
  8  9  1  0  0  0  0
 10 11  1  0  0  0  0
 12 11  1  1  0  0  0
M  CHG  2   6  -1   7   1
M  END
>  <CHROM.1>
90.39570590,60.22595247,-57.94153270,4.34718413,1.37821669,-30.18386745,-0.63502240
0.74947099,-0.34786722

>  <Name>
ligand

>  <RI>
0

>  <Rbt.Current_Directory>
/home/itssahil/PROJECTS/Mol_Feturizer/New_Systems/rnas/4P95

>  <Rbt.Executable>
rbdock ($Id: //depot/dev/client3/rdock/2013.1/src/exe/rbdock.cxx#4 $)

>  <Rbt.Library>
libRbt.so (2013.1, Build901 2013/11/27)

>  <Rbt.Parameter_File>
/export/apps/rDock/src/rDock_2013.1_src/data/scripts/dock_solv.prm

>  <Rbt.Receptor>
prm/pocket_docking_3.prm

>  <SCORE>
-10.1857

>  <SCORE.INTER>
-8.09597

>  <SCORE.INTER.CONST>
1

>  <SCORE.INTER.POLAR>
0

>  <SCORE.INTER.ROT>
3

>  <SCORE.INTER.SOLV>
4.73961

>  <SCORE.INTER.VDW>
-12.5772

>  <SCORE.INTER.norm>
-0.674664

>  <SCORE.INTRA>
-2.08974

>  <SCORE.INTRA.DIHEDRAL>
1.03133

>  <SCORE.INTRA.DIHEDRAL.0>
0.283163

>  <SCORE.INTRA.POLAR>
0

>  <SCORE.INTRA.POLAR.0>
0

>  <SCORE.INTRA.REPUL>
0

>  <SCORE.INTRA.REPUL.0>
0

>  <SCORE.INTRA.SOLV>
1.12563

>  <SCORE.INTRA.SOLV.lig_0>
-32.2894

>  <SCORE.INTRA.VDW>
-3.16822

>  <SCORE.INTRA.VDW.0>
2.0241

>  <SCORE.INTRA.norm>
-0.174145

>  <SCORE.RESTR>
0

>  <SCORE.RESTR.CAVITY>
0

>  <SCORE.RESTR.norm>
0

>  <SCORE.SYSTEM>
0

>  <SCORE.SYSTEM.CONST>
0

>  <SCORE.SYSTEM.DIHEDRAL>
0

>  <SCORE.SYSTEM.SOLV>
0

>  <SCORE.SYSTEM.norm>
0

>  <SCORE.heavy>
12

>  <SCORE.norm>
-0.848809

>  <RMSD>
5.193

$$$$
ligand
 OpenBabel11021811513D
libRbt.so/2013.1/901 2013/11/27
 12 12  0  0  0  0  0  0  0  0999 V2000
    5.4783   -2.0821  -29.9278 O   0  0  0  0  0  0  0  0  0  0  0  0
    2.5209    4.3410  -28.8450 O   0  0  0  0  0  0  0  0  0  0  0  0
    4.3157   -1.4805  -29.4966 C   0  0  0  0  0  0  0  0  0  0  0  0
    2.6094    1.9131  -28.6358 O   0  0  0  0  0  0  0  0  0  0  0  0
    4.0152   -0.2138  -30.1866 C   0  0  0  0  0  0  0  0  0  0  0  0
    1.9955    2.9202  -30.7607 O   0  5  0  0  0  0  0  0  0  0  0  0
    5.1701    0.6939  -30.1883 N   0  3  0  0  0  0  0  0  0  0  0  0
    6.3376    0.0117  -30.6845 C   0  0  0  0  0  0  0  0  0  0  0  0
    6.5744   -1.2662  -29.9485 C   0  0  0  0  0  0  0  0  0  0  0  0
    4.8751    1.8542  -30.9739 C   0  0  0  0  0  0  0  0  0  0  0  0
    4.5897    3.0552  -30.0370 C   0  0  0  0  0  0  0  0  0  0  0  0
    2.8505    3.0689  -29.5559 S   0  0  1  0  0  0  0  0  0  0  0  0
  1  3  1  0  0  0  0
  1  9  1  0  0  0  0
  2 12  1  0  0  0  0
  3  5  1  0  0  0  0
  4 12  2  0  0  0  0
  5  7  1  0  0  0  0
  6 12  2  0  0  0  0
  7  8  1  0  0  0  0
  7 10  1  0  0  0  0
  8  9  1  0  0  0  0
 10 11  1  0  0  0  0
 12 11  1  6  0  0  0
M  CHG  2   6  -1   7   1
M  END
>  <CHROM.1>
104.36488377,-86.32655714,-170.58260681,4.09931610,1.28242707,-29.88530326
0.93261797,-0.42081459,2.96348083

>  <Name>
ligand

>  <RI>
0

>  <Rbt.Current_Directory>
/home/itssahil/PROJECTS/Mol_Feturizer/New_Systems/rnas/4P95

>  <Rbt.Executable>
rbdock ($Id: //depot/dev/client3/rdock/2013.1/src/exe/rbdock.cxx#4 $)

>  <Rbt.Library>
libRbt.so (2013.1, Build901 2013/11/27)

>  <Rbt.Parameter_File>
/export/apps/rDock/src/rDock_2013.1_src/data/scripts/dock_solv.prm

>  <Rbt.Receptor>
prm/pocket_docking_4.prm

>  <SCORE>
-12.1779

>  <SCORE.INTER>
-12.354

>  <SCORE.INTER.CONST>
1

>  <SCORE.INTER.POLAR>
0

>  <SCORE.INTER.ROT>
3

>  <SCORE.INTER.SOLV>
5.17036

>  <SCORE.INTER.VDW>
-15.5595

>  <SCORE.INTER.norm>
-1.0295

>  <SCORE.INTRA>
0.160532

>  <SCORE.INTRA.DIHEDRAL>
4.26436

>  <SCORE.INTRA.DIHEDRAL.0>
0.283163

>  <SCORE.INTRA.POLAR>
0

>  <SCORE.INTRA.POLAR.0>
0

>  <SCORE.INTRA.REPUL>
0

>  <SCORE.INTRA.REPUL.0>
0

>  <SCORE.INTRA.SOLV>
2.28405

>  <SCORE.INTRA.SOLV.lig_0>
-32.2894

>  <SCORE.INTRA.VDW>
-3.11367

>  <SCORE.INTRA.VDW.0>
2.0241

>  <SCORE.INTRA.norm>
0.0133777

>  <SCORE.RESTR>
0.0155518

>  <SCORE.RESTR.CAVITY>
0.0155518

>  <SCORE.RESTR.norm>
0.00129599

>  <SCORE.SYSTEM>
0

>  <SCORE.SYSTEM.CONST>
0

>  <SCORE.SYSTEM.DIHEDRAL>
0

>  <SCORE.SYSTEM.SOLV>
0

>  <SCORE.SYSTEM.norm>
0

>  <SCORE.heavy>
12

>  <SCORE.norm>
-1.01483

>  <RMSD>
5.198

$$$$
ligand
 OpenBabel11021811513D
libRbt.so/2013.1/901 2013/11/27
 12 12  0  0  0  0  0  0  0  0999 V2000
    6.1077   -2.4714  -29.7260 O   0  0  0  0  0  0  0  0  0  0  0  0
    4.3713    4.4115  -31.3361 O   0  0  0  0  0  0  0  0  0  0  0  0
    4.8703   -2.0904  -29.2540 C   0  0  0  0  0  0  0  0  0  0  0  0
    2.5393    4.5044  -29.7294 O   0  0  0  0  0  0  0  0  0  0  0  0
    4.3342   -0.8843  -29.9088 C   0  0  0  0  0  0  0  0  0  0  0  0
    2.3501    3.0887  -31.6958 O   0  5  0  0  0  0  0  0  0  0  0  0
    5.3123    0.2117  -29.9187 N   0  3  0  0  0  0  0  0  0  0  0  0
    6.5669   -0.2468  -30.4576 C   0  0  0  0  0  0  0  0  0  0  0  0
    7.0435   -1.4759  -29.7555 C   0  0  0  0  0  0  0  0  0  0  0  0
    4.7976    1.3156  -30.6715 C   0  0  0  0  0  0  0  0  0  0  0  0
    4.0007    2.2563  -29.7325 C   0  0  0  0  0  0  0  0  0  0  0  0
    3.2895    3.6201  -30.6761 S   0  0  1  0  0  0  0  0  0  0  0  0
  1  3  1  0  0  0  0
  1  9  1  0  0  0  0
  2 12  1  0  0  0  0
  3  5  1  0  0  0  0
  4 12  2  0  0  0  0
  5  7  1  0  0  0  0
  6 12  2  0  0  0  0
  7  8  1  0  0  0  0
  7 10  1  0  0  0  0
  8  9  1  0  0  0  0
 10 11  1  0  0  0  0
 12 11  1  1  0  0  0
M  CHG  2   6  -1   7   1
M  END
>  <CHROM.1>
89.54722640,-177.78700771,-60.20282031,4.47512323,1.31683016,-30.29472243
1.10150625,-0.18697602,2.87324642

>  <Name>
ligand

>  <RI>
0

>  <Rbt.Current_Directory>
/home/itssahil/PROJECTS/Mol_Feturizer/New_Systems/rnas/4P95

>  <Rbt.Executable>
rbdock ($Id: //depot/dev/client3/rdock/2013.1/src/exe/rbdock.cxx#4 $)

>  <Rbt.Library>
libRbt.so (2013.1, Build901 2013/11/27)

>  <Rbt.Parameter_File>
/export/apps/rDock/src/rDock_2013.1_src/data/scripts/dock_solv.prm

>  <Rbt.Receptor>
prm/pocket_docking_6.prm

>  <SCORE>
-12.2845

>  <SCORE.INTER>
-10.3444

>  <SCORE.INTER.CONST>
1

>  <SCORE.INTER.POLAR>
0

>  <SCORE.INTER.ROT>
3

>  <SCORE.INTER.SOLV>
6.12461

>  <SCORE.INTER.VDW>
-14.5378

>  <SCORE.INTER.norm>
-0.862032

>  <SCORE.INTRA>
-1.94013

>  <SCORE.INTRA.DIHEDRAL>
0.978534

>  <SCORE.INTRA.DIHEDRAL.0>
0.283163

>  <SCORE.INTRA.POLAR>
0

>  <SCORE.INTRA.POLAR.0>
0

>  <SCORE.INTRA.REPUL>
0

>  <SCORE.INTRA.REPUL.0>
0

>  <SCORE.INTRA.SOLV>
-0.0476407

>  <SCORE.INTRA.SOLV.lig_0>
-32.2894

>  <SCORE.INTRA.VDW>
-2.40557

>  <SCORE.INTRA.VDW.0>
2.0241

>  <SCORE.INTRA.norm>
-0.161677

>  <SCORE.RESTR>
0

>  <SCORE.RESTR.CAVITY>
0

>  <SCORE.RESTR.norm>
0

>  <SCORE.SYSTEM>
0

>  <SCORE.SYSTEM.CONST>
0

>  <SCORE.SYSTEM.DIHEDRAL>
0

>  <SCORE.SYSTEM.SOLV>
0

>  <SCORE.SYSTEM.norm>
0

>  <SCORE.heavy>
12

>  <SCORE.norm>
-1.02371

>  <RMSD>
5.202

$$$$
ligand
 OpenBabel11021811513D
libRbt.so/2013.1/901 2013/11/27
 12 12  0  0  0  0  0  0  0  0999 V2000
    6.4090   -1.6328  -30.2612 O   0  0  0  0  0  0  0  0  0  0  0  0
    4.7062    2.8076  -29.2712 O   0  0  0  0  0  0  0  0  0  0  0  0
    5.4023   -2.0193  -29.4030 C   0  0  0  0  0  0  0  0  0  0  0  0
    2.8027    3.8959  -28.2041 O   0  0  0  0  0  0  0  0  0  0  0  0
    4.0885   -1.4412  -29.7354 C   0  0  0  0  0  0  0  0  0  0  0  0
    2.9213    3.7752  -30.6285 O   0  5  0  0  0  0  0  0  0  0  0  0
    4.1638    0.0141  -29.9208 N   0  3  0  0  0  0  0  0  0  0  0  0
    5.2091    0.3424  -30.8558 C   0  0  0  0  0  0  0  0  0  0  0  0
    6.5065   -0.2847  -30.4632 C   0  0  0  0  0  0  0  0  0  0  0  0
    2.8970    0.5138  -30.3635 C   0  0  0  0  0  0  0  0  0  0  0  0
    2.3315    1.4986  -29.3089 C   0  0  0  0  0  0  0  0  0  0  0  0
    3.2365    3.0587  -29.3668 S   0  0  1  0  0  0  0  0  0  0  0  0
  1  3  1  0  0  0  0
  1  9  1  0  0  0  0
  2 12  1  0  0  0  0
  3  5  1  0  0  0  0
  4 12  2  0  0  0  0
  5  7  1  0  0  0  0
  6 12  2  0  0  0  0
  7  8  1  0  0  0  0
  7 10  1  0  0  0  0
  8  9  1  0  0  0  0
 10 11  1  0  0  0  0
 12 11  1  1  0  0  0
M  CHG  2   6  -1   7   1
M  END
>  <CHROM.1>
117.65506359,73.77767688,-52.07033074,4.13077145,1.13419041,-29.76447590
-1.05940060,0.21839416,0.04121617

>  <Name>
ligand

>  <RI>
0

>  <Rbt.Current_Directory>
/home/itssahil/PROJECTS/Mol_Feturizer/New_Systems/rnas/4P95

>  <Rbt.Executable>
rbdock ($Id: //depot/dev/client3/rdock/2013.1/src/exe/rbdock.cxx#4 $)

>  <Rbt.Library>
libRbt.so (2013.1, Build901 2013/11/27)

>  <Rbt.Parameter_File>
/export/apps/rDock/src/rDock_2013.1_src/data/scripts/dock_solv.prm

>  <Rbt.Receptor>
prm/pocket_docking_4.prm

>  <SCORE>
-12.1761

>  <SCORE.INTER>
-10.8434

>  <SCORE.INTER.CONST>
1

>  <SCORE.INTER.POLAR>
0

>  <SCORE.INTER.ROT>
3

>  <SCORE.INTER.SOLV>
7.38002

>  <SCORE.INTER.VDW>
-15.2889

>  <SCORE.INTER.norm>
-0.903616

>  <SCORE.INTRA>
-1.33272

>  <SCORE.INTRA.DIHEDRAL>
2.98084

>  <SCORE.INTRA.DIHEDRAL.0>
0.283163

>  <SCORE.INTRA.POLAR>
0

>  <SCORE.INTRA.POLAR.0>
0

>  <SCORE.INTRA.REPUL>
0

>  <SCORE.INTRA.REPUL.0>
0

>  <SCORE.INTRA.SOLV>
0.834516

>  <SCORE.INTRA.SOLV.lig_0>
-32.2894

>  <SCORE.INTRA.VDW>
-3.2404

>  <SCORE.INTRA.VDW.0>
2.0241

>  <SCORE.INTRA.norm>
-0.11106

>  <SCORE.RESTR>
0

>  <SCORE.RESTR.CAVITY>
0

>  <SCORE.RESTR.norm>
0

>  <SCORE.SYSTEM>
0

>  <SCORE.SYSTEM.CONST>
0

>  <SCORE.SYSTEM.DIHEDRAL>
0

>  <SCORE.SYSTEM.SOLV>
0

>  <SCORE.SYSTEM.norm>
0

>  <SCORE.heavy>
12

>  <SCORE.norm>
-1.01468

>  <RMSD>
5.216

$$$$
ligand
 OpenBabel11021811513D
libRbt.so/2013.1/901 2013/11/27
 12 12  0  0  0  0  0  0  0  0999 V2000
    5.4068   -2.1324  -29.6916 O   0  0  0  0  0  0  0  0  0  0  0  0
    2.6491    4.3311  -28.6637 O   0  0  0  0  0  0  0  0  0  0  0  0
    4.1754   -1.5696  -29.4342 C   0  0  0  0  0  0  0  0  0  0  0  0
    2.6020    1.8934  -28.6234 O   0  0  0  0  0  0  0  0  0  0  0  0
    3.9232   -0.3300  -30.1897 C   0  0  0  0  0  0  0  0  0  0  0  0
    1.9579    3.0801  -30.6441 O   0  5  0  0  0  0  0  0  0  0  0  0
    5.0335    0.6232  -30.0605 N   0  3  0  0  0  0  0  0  0  0  0  0
    6.2814   -0.0214  -30.3796 C   0  0  0  0  0  0  0  0  0  0  0  0
    6.4648   -1.2738  -29.5868 C   0  0  0  0  0  0  0  0  0  0  0  0
    4.8035    1.7548  -30.9073 C   0  0  0  0  0  0  0  0  0  0  0  0
    4.5844    3.0176  -30.0361 C   0  0  0  0  0  0  0  0  0  0  0  0
    2.8715    3.0955  -29.4737 S   0  0  1  0  0  0  0  0  0  0  0  0
  1  3  1  0  0  0  0
  1  9  1  0  0  0  0
  2 12  1  0  0  0  0
  3  5  1  0  0  0  0
  4 12  2  0  0  0  0
  5  7  1  0  0  0  0
  6 12  2  0  0  0  0
  7  8  1  0  0  0  0
  7 10  1  0  0  0  0
  8  9  1  0  0  0  0
 10 11  1  0  0  0  0
 12 11  1  6  0  0  0
M  CHG  2   6  -1   7   1
M  END
>  <CHROM.1>
113.80884634,-82.67135545,-178.50228552,4.05961081,1.26063944,-29.76020061
0.98366356,-0.36872665,2.98708063

>  <Name>
ligand

>  <RI>
0

>  <Rbt.Current_Directory>
/home/itssahil/PROJECTS/Mol_Feturizer/New_Systems/rnas/4P95

>  <Rbt.Executable>
rbdock ($Id: //depot/dev/client3/rdock/2013.1/src/exe/rbdock.cxx#4 $)

>  <Rbt.Library>
libRbt.so (2013.1, Build901 2013/11/27)

>  <Rbt.Parameter_File>
/export/apps/rDock/src/rDock_2013.1_src/data/scripts/dock_solv.prm

>  <Rbt.Receptor>
prm/pocket_docking_6.prm

>  <SCORE>
-13.0141

>  <SCORE.INTER>
-12.7006

>  <SCORE.INTER.CONST>
1

>  <SCORE.INTER.POLAR>
0

>  <SCORE.INTER.ROT>
3

>  <SCORE.INTER.SOLV>
5.99734

>  <SCORE.INTER.VDW>
-16.0662

>  <SCORE.INTER.norm>
-1.05839

>  <SCORE.INTRA>
-0.313782

>  <SCORE.INTRA.DIHEDRAL>
3.81216

>  <SCORE.INTRA.DIHEDRAL.0>
0.283163

>  <SCORE.INTRA.POLAR>
0

>  <SCORE.INTRA.POLAR.0>
0

>  <SCORE.INTRA.REPUL>
0

>  <SCORE.INTRA.REPUL.0>
0

>  <SCORE.INTRA.SOLV>
2.05885

>  <SCORE.INTRA.SOLV.lig_0>
-32.2894

>  <SCORE.INTRA.VDW>
-3.24929

>  <SCORE.INTRA.VDW.0>
2.0241

>  <SCORE.INTRA.norm>
-0.0261485

>  <SCORE.RESTR>
0.000320986

>  <SCORE.RESTR.CAVITY>
0.000320986

>  <SCORE.RESTR.norm>
2.67488e-05

>  <SCORE.SYSTEM>
0

>  <SCORE.SYSTEM.CONST>
0

>  <SCORE.SYSTEM.DIHEDRAL>
0

>  <SCORE.SYSTEM.SOLV>
0

>  <SCORE.SYSTEM.norm>
0

>  <SCORE.heavy>
12

>  <SCORE.norm>
-1.08451

>  <RMSD>
5.220

$$$$
ligand
 OpenBabel11021811513D
libRbt.so/2013.1/901 2013/11/27
 12 12  0  0  0  0  0  0  0  0999 V2000
    6.5347   -1.7250  -30.1335 O   0  0  0  0  0  0  0  0  0  0  0  0
    4.7568    2.8290  -29.3814 O   0  0  0  0  0  0  0  0  0  0  0  0
    5.4910   -2.1162  -29.3230 C   0  0  0  0  0  0  0  0  0  0  0  0
    2.8577    3.8370  -28.2307 O   0  0  0  0  0  0  0  0  0  0  0  0
    4.1951   -1.5270  -29.7032 C   0  0  0  0  0  0  0  0  0  0  0  0
    2.8755    3.7207  -30.6581 O   0  5  0  0  0  0  0  0  0  0  0  0
    4.2854   -0.0700  -29.8675 N   0  3  0  0  0  0  0  0  0  0  0  0
    5.3707    0.2637  -30.7538 C   0  0  0  0  0  0  0  0  0  0  0  0
    6.6473   -0.3752  -30.3148 C   0  0  0  0  0  0  0  0  0  0  0  0
    3.0409    0.4419  -30.3568 C   0  0  0  0  0  0  0  0  0  0  0  0
    2.4395    1.4218  -29.3176 C   0  0  0  0  0  0  0  0  0  0  0  0
    3.2750    3.0185  -29.4125 S   0  0  1  0  0  0  0  0  0  0  0  0
  1  3  1  0  0  0  0
  1  9  1  0  0  0  0
  2 12  1  0  0  0  0
  3  5  1  0  0  0  0
  4 12  2  0  0  0  0
  5  7  1  0  0  0  0
  6 12  2  0  0  0  0
  7  8  1  0  0  0  0
  7 10  1  0  0  0  0
  8  9  1  0  0  0  0
 10 11  1  0  0  0  0
 12 11  1  1  0  0  0
M  CHG  2   6  -1   7   1
M  END
>  <CHROM.1>
117.89973488,78.04193384,-49.65551286,4.21530502,1.07016129,-29.74528740
-1.05133874,0.18737411,0.02137785

>  <Name>
ligand

>  <RI>
0

>  <Rbt.Current_Directory>
/home/itssahil/PROJECTS/Mol_Feturizer/New_Systems/rnas/4P95

>  <Rbt.Executable>
rbdock ($Id: //depot/dev/client3/rdock/2013.1/src/exe/rbdock.cxx#4 $)

>  <Rbt.Library>
libRbt.so (2013.1, Build901 2013/11/27)

>  <Rbt.Parameter_File>
/export/apps/rDock/src/rDock_2013.1_src/data/scripts/dock_solv.prm

>  <Rbt.Receptor>
prm/pocket_docking_8.prm

>  <SCORE>
-12.351

>  <SCORE.INTER>
-11.228

>  <SCORE.INTER.CONST>
1

>  <SCORE.INTER.POLAR>
0

>  <SCORE.INTER.ROT>
3

>  <SCORE.INTER.SOLV>
7.37561

>  <SCORE.INTER.VDW>
-15.5439

>  <SCORE.INTER.norm>
-0.935668

>  <SCORE.INTRA>
-1.12294

>  <SCORE.INTRA.DIHEDRAL>
3.54863

>  <SCORE.INTRA.DIHEDRAL.0>
0.283163

>  <SCORE.INTRA.POLAR>
0

>  <SCORE.INTRA.POLAR.0>
0

>  <SCORE.INTRA.REPUL>
0

>  <SCORE.INTRA.REPUL.0>
0

>  <SCORE.INTRA.SOLV>
0.609139

>  <SCORE.INTRA.SOLV.lig_0>
-32.2894

>  <SCORE.INTRA.VDW>
-3.20182

>  <SCORE.INTRA.VDW.0>
2.0241

>  <SCORE.INTRA.norm>
-0.0935782

>  <SCORE.RESTR>
0

>  <SCORE.RESTR.CAVITY>
0

>  <SCORE.RESTR.norm>
0

>  <SCORE.SYSTEM>
0

>  <SCORE.SYSTEM.CONST>
0

>  <SCORE.SYSTEM.DIHEDRAL>
0

>  <SCORE.SYSTEM.SOLV>
0

>  <SCORE.SYSTEM.norm>
0

>  <SCORE.heavy>
12

>  <SCORE.norm>
-1.02925

>  <RMSD>
5.221

$$$$
ligand
 OpenBabel11021811513D
libRbt.so/2013.1/901 2013/11/27
 12 12  0  0  0  0  0  0  0  0999 V2000
    5.5132   -2.2150  -29.7017 O   0  0  0  0  0  0  0  0  0  0  0  0
    2.8132    4.1699  -28.4675 O   0  0  0  0  0  0  0  0  0  0  0  0
    4.2710   -1.6734  -29.4509 C   0  0  0  0  0  0  0  0  0  0  0  0
    2.6354    1.7517  -28.7269 O   0  0  0  0  0  0  0  0  0  0  0  0
    4.0066   -0.4312  -30.1979 C   0  0  0  0  0  0  0  0  0  0  0  0
    2.0486    3.2111  -30.5796 O   0  5  0  0  0  0  0  0  0  0  0  0
    5.1008    0.5378  -30.0502 N   0  3  0  0  0  0  0  0  0  0  0  0
    6.3614   -0.0848  -30.3633 C   0  0  0  0  0  0  0  0  0  0  0  0
    6.5568   -1.3412  -29.5796 C   0  0  0  0  0  0  0  0  0  0  0  0
    4.8611    1.6730  -30.8893 C   0  0  0  0  0  0  0  0  0  0  0  0
    4.6702    2.9353  -30.0107 C   0  0  0  0  0  0  0  0  0  0  0  0
    2.9660    3.0336  -29.4256 S   0  0  1  0  0  0  0  0  0  0  0  0
  1  3  1  0  0  0  0
  1  9  1  0  0  0  0
  2 12  1  0  0  0  0
  3  5  1  0  0  0  0
  4 12  2  0  0  0  0
  5  7  1  0  0  0  0
  6 12  2  0  0  0  0
  7  8  1  0  0  0  0
  7 10  1  0  0  0  0
  8  9  1  0  0  0  0
 10 11  1  0  0  0  0
 12 11  1  6  0  0  0
M  CHG  2   6  -1   7   1
M  END
>  <CHROM.1>
116.03022497,-83.25616651,174.24524756,4.14824998,1.18722413,-29.73638061
0.98870909,-0.36695294,3.00148060

>  <Name>
ligand

>  <RI>
0

>  <Rbt.Current_Directory>
/home/itssahil/PROJECTS/Mol_Feturizer/New_Systems/rnas/4P95

>  <Rbt.Executable>
rbdock ($Id: //depot/dev/client3/rdock/2013.1/src/exe/rbdock.cxx#4 $)

>  <Rbt.Library>
libRbt.so (2013.1, Build901 2013/11/27)

>  <Rbt.Parameter_File>
/export/apps/rDock/src/rDock_2013.1_src/data/scripts/dock_solv.prm

>  <Rbt.Receptor>
prm/pocket_docking_5.prm

>  <SCORE>
-13.0184

>  <SCORE.INTER>
-12.7112

>  <SCORE.INTER.CONST>
1

>  <SCORE.INTER.POLAR>
0

>  <SCORE.INTER.ROT>
3

>  <SCORE.INTER.SOLV>
6.23282

>  <SCORE.INTER.VDW>
-16.1517

>  <SCORE.INTER.norm>
-1.05927

>  <SCORE.INTRA>
-0.307165

>  <SCORE.INTRA.DIHEDRAL>
3.97088

>  <SCORE.INTRA.DIHEDRAL.0>
0.283163

>  <SCORE.INTRA.POLAR>
0

>  <SCORE.INTRA.POLAR.0>
0

>  <SCORE.INTRA.REPUL>
0

>  <SCORE.INTRA.REPUL.0>
0

>  <SCORE.INTRA.SOLV>
1.76492

>  <SCORE.INTRA.SOLV.lig_0>
-32.2894

>  <SCORE.INTRA.VDW>
-3.17506

>  <SCORE.INTRA.VDW.0>
2.0241

>  <SCORE.INTRA.norm>
-0.0255971

>  <SCORE.RESTR>
0

>  <SCORE.RESTR.CAVITY>
0

>  <SCORE.RESTR.norm>
0

>  <SCORE.SYSTEM>
0

>  <SCORE.SYSTEM.CONST>
0

>  <SCORE.SYSTEM.DIHEDRAL>
0

>  <SCORE.SYSTEM.SOLV>
0

>  <SCORE.SYSTEM.norm>
0

>  <SCORE.heavy>
12

>  <SCORE.norm>
-1.08486

>  <RMSD>
5.230

$$$$
ligand
 OpenBabel11021811513D
libRbt.so/2013.1/901 2013/11/27
 12 12  0  0  0  0  0  0  0  0999 V2000
    5.3796   -2.1438  -29.6841 O   0  0  0  0  0  0  0  0  0  0  0  0
    2.7204    4.3005  -28.5536 O   0  0  0  0  0  0  0  0  0  0  0  0
    4.1467   -1.5776  -29.4420 C   0  0  0  0  0  0  0  0  0  0  0  0
    2.6202    1.8653  -28.6331 O   0  0  0  0  0  0  0  0  0  0  0  0
    3.9101   -0.3334  -30.1949 C   0  0  0  0  0  0  0  0  0  0  0  0
    1.9770    3.1645  -30.5837 O   0  5  0  0  0  0  0  0  0  0  0  0
    5.0218    0.6150  -30.0448 N   0  3  0  0  0  0  0  0  0  0  0  0
    6.2719   -0.0327  -30.3488 C   0  0  0  0  0  0  0  0  0  0  0  0
    6.4391   -1.2896  -29.5596 C   0  0  0  0  0  0  0  0  0  0  0  0
    4.8084    1.7515  -30.8893 C   0  0  0  0  0  0  0  0  0  0  0  0
    4.6089    3.0158  -30.0155 C   0  0  0  0  0  0  0  0  0  0  0  0
    2.9054    3.1022  -29.4266 S   0  0  1  0  0  0  0  0  0  0  0  0
  1  3  1  0  0  0  0
  1  9  1  0  0  0  0
  2 12  1  0  0  0  0
  3  5  1  0  0  0  0
  4 12  2  0  0  0  0
  5  7  1  0  0  0  0
  6 12  2  0  0  0  0
  7  8  1  0  0  0  0
  7 10  1  0  0  0  0
  8  9  1  0  0  0  0
 10 11  1  0  0  0  0
 12 11  1  6  0  0  0
M  CHG  2   6  -1   7   1
M  END
>  <CHROM.1>
114.91283743,-81.62187315,178.46402456,4.06761540,1.25918603,-29.73140497
0.99733362,-0.36865031,3.00137444

>  <Name>
ligand

>  <RI>
0

>  <Rbt.Current_Directory>
/home/itssahil/PROJECTS/Mol_Feturizer/New_Systems/rnas/4P95

>  <Rbt.Executable>
rbdock ($Id: //depot/dev/client3/rdock/2013.1/src/exe/rbdock.cxx#4 $)

>  <Rbt.Library>
libRbt.so (2013.1, Build901 2013/11/27)

>  <Rbt.Parameter_File>
/export/apps/rDock/src/rDock_2013.1_src/data/scripts/dock_solv.prm

>  <Rbt.Receptor>
prm/pocket_docking_8.prm

>  <SCORE>
-13.0665

>  <SCORE.INTER>
-12.6684

>  <SCORE.INTER.CONST>
1

>  <SCORE.INTER.POLAR>
0

>  <SCORE.INTER.ROT>
3

>  <SCORE.INTER.SOLV>
6.26371

>  <SCORE.INTER.VDW>
-16.1335

>  <SCORE.INTER.norm>
-1.0557

>  <SCORE.INTRA>
-0.398071

>  <SCORE.INTRA.DIHEDRAL>
3.67941

>  <SCORE.INTRA.DIHEDRAL.0>
0.283163

>  <SCORE.INTRA.POLAR>
0

>  <SCORE.INTRA.POLAR.0>
0

>  <SCORE.INTRA.REPUL>
0

>  <SCORE.INTRA.REPUL.0>
0

>  <SCORE.INTRA.SOLV>
1.99178

>  <SCORE.INTRA.SOLV.lig_0>
-32.2894

>  <SCORE.INTRA.VDW>
-3.23367

>  <SCORE.INTRA.VDW.0>
2.0241

>  <SCORE.INTRA.norm>
-0.0331726

>  <SCORE.RESTR>
0

>  <SCORE.RESTR.CAVITY>
0

>  <SCORE.RESTR.norm>
0

>  <SCORE.SYSTEM>
0

>  <SCORE.SYSTEM.CONST>
0

>  <SCORE.SYSTEM.DIHEDRAL>
0

>  <SCORE.SYSTEM.SOLV>
0

>  <SCORE.SYSTEM.norm>
0

>  <SCORE.heavy>
12

>  <SCORE.norm>
-1.08887

>  <RMSD>
5.230

$$$$
ligand
 OpenBabel11021811513D
libRbt.so/2013.1/901 2013/11/27
 12 12  0  0  0  0  0  0  0  0999 V2000
    5.3646   -2.2055  -29.6106 O   0  0  0  0  0  0  0  0  0  0  0  0
    2.7638    4.3084  -28.5916 O   0  0  0  0  0  0  0  0  0  0  0  0
    4.1337   -1.6269  -29.3884 C   0  0  0  0  0  0  0  0  0  0  0  0
    2.6261    1.8739  -28.6148 O   0  0  0  0  0  0  0  0  0  0  0  0
    3.9173   -0.3866  -30.1537 C   0  0  0  0  0  0  0  0  0  0  0  0
    2.0352    3.1356  -30.6061 O   0  5  0  0  0  0  0  0  0  0  0  0
    5.0353    0.5534  -29.9968 N   0  3  0  0  0  0  0  0  0  0  0  0
    6.2835   -0.1073  -30.2801 C   0  0  0  0  0  0  0  0  0  0  0  0
    6.4298   -1.3595  -29.4792 C   0  0  0  0  0  0  0  0  0  0  0  0
    4.8423    1.6852  -30.8525 C   0  0  0  0  0  0  0  0  0  0  0  0
    4.6549    2.9598  -29.9911 C   0  0  0  0  0  0  0  0  0  0  0  0
    2.9437    3.0867  -29.4327 S   0  0  1  0  0  0  0  0  0  0  0  0
  1  3  1  0  0  0  0
  1  9  1  0  0  0  0
  2 12  1  0  0  0  0
  3  5  1  0  0  0  0
  4 12  2  0  0  0  0
  5  7  1  0  0  0  0
  6 12  2  0  0  0  0
  7  8  1  0  0  0  0
  7 10  1  0  0  0  0
  8  9  1  0  0  0  0
 10 11  1  0  0  0  0
 12 11  1  6  0  0  0
M  CHG  2   6  -1   7   1
M  END
>  <CHROM.1>
115.39274943,-82.42057091,179.48241063,4.08806078,1.21941951,-29.70430684
1.01394968,-0.35471656,2.99940361

>  <Name>
ligand

>  <RI>
0

>  <Rbt.Current_Directory>
/home/itssahil/PROJECTS/Mol_Feturizer/New_Systems/rnas/4P95

>  <Rbt.Executable>
rbdock ($Id: //depot/dev/client3/rdock/2013.1/src/exe/rbdock.cxx#4 $)

>  <Rbt.Library>
libRbt.so (2013.1, Build901 2013/11/27)

>  <Rbt.Parameter_File>
/export/apps/rDock/src/rDock_2013.1_src/data/scripts/dock_solv.prm

>  <Rbt.Receptor>
prm/pocket_docking_8.prm

>  <SCORE>
-13.0223

>  <SCORE.INTER>
-12.6596

>  <SCORE.INTER.CONST>
1

>  <SCORE.INTER.POLAR>
0

>  <SCORE.INTER.ROT>
3

>  <SCORE.INTER.SOLV>
6.4053

>  <SCORE.INTER.VDW>
-16.1748

>  <SCORE.INTER.norm>
-1.05497

>  <SCORE.INTRA>
-0.362664

>  <SCORE.INTRA.DIHEDRAL>
3.78903

>  <SCORE.INTRA.DIHEDRAL.0>
0.283163

>  <SCORE.INTRA.POLAR>
0

>  <SCORE.INTRA.POLAR.0>
0

>  <SCORE.INTRA.REPUL>
0

>  <SCORE.INTRA.REPUL.0>
0

>  <SCORE.INTRA.SOLV>
1.98063

>  <SCORE.INTRA.SOLV.lig_0>
-32.2894

>  <SCORE.INTRA.VDW>
-3.24749

>  <SCORE.INTRA.VDW.0>
2.0241

>  <SCORE.INTRA.norm>
-0.030222

>  <SCORE.RESTR>
0

>  <SCORE.RESTR.CAVITY>
0

>  <SCORE.RESTR.norm>
0

>  <SCORE.SYSTEM>
0

>  <SCORE.SYSTEM.CONST>
0

>  <SCORE.SYSTEM.DIHEDRAL>
0

>  <SCORE.SYSTEM.SOLV>
0

>  <SCORE.SYSTEM.norm>
0

>  <SCORE.heavy>
12

>  <SCORE.norm>
-1.08519

>  <RMSD>
5.231

$$$$
ligand
 OpenBabel11021811513D
libRbt.so/2013.1/901 2013/11/27
 12 12  0  0  0  0  0  0  0  0999 V2000
    6.5114   -1.7579  -30.0985 O   0  0  0  0  0  0  0  0  0  0  0  0
    4.7561    2.8344  -29.3305 O   0  0  0  0  0  0  0  0  0  0  0  0
    5.4544   -2.1198  -29.2916 C   0  0  0  0  0  0  0  0  0  0  0  0
    2.8448    3.8129  -28.1747 O   0  0  0  0  0  0  0  0  0  0  0  0
    4.1726   -1.5117  -29.6895 C   0  0  0  0  0  0  0  0  0  0  0  0
    2.8889    3.7599  -30.6040 O   0  5  0  0  0  0  0  0  0  0  0  0
    4.2910   -0.0588  -29.8711 N   0  3  0  0  0  0  0  0  0  0  0  0
    5.3891    0.2439  -30.7527 C   0  0  0  0  0  0  0  0  0  0  0  0
    6.6503   -0.4127  -30.2956 C   0  0  0  0  0  0  0  0  0  0  0  0
    3.0599    0.4696  -30.3766 C   0  0  0  0  0  0  0  0  0  0  0  0
    2.4380    1.4270  -29.3286 C   0  0  0  0  0  0  0  0  0  0  0  0
    3.2748    3.0252  -29.3728 S   0  0  1  0  0  0  0  0  0  0  0  0
  1  3  1  0  0  0  0
  1  9  1  0  0  0  0
  2 12  1  0  0  0  0
  3  5  1  0  0  0  0
  4 12  2  0  0  0  0
  5  7  1  0  0  0  0
  6 12  2  0  0  0  0
  7  8  1  0  0  0  0
  7 10  1  0  0  0  0
  8  9  1  0  0  0  0
 10 11  1  0  0  0  0
 12 11  1  1  0  0  0
M  CHG  2   6  -1   7   1
M  END
>  <CHROM.1>
115.49976189,78.36973664,-49.09231341,4.21227366,1.07013069,-29.72036263
-1.05536687,0.18540635,0.02790334

>  <Name>
ligand

>  <RI>
0

>  <Rbt.Current_Directory>
/home/itssahil/PROJECTS/Mol_Feturizer/New_Systems/rnas/4P95

>  <Rbt.Executable>
rbdock ($Id: //depot/dev/client3/rdock/2013.1/src/exe/rbdock.cxx#4 $)

>  <Rbt.Library>
libRbt.so (2013.1, Build901 2013/11/27)

>  <Rbt.Parameter_File>
/export/apps/rDock/src/rDock_2013.1_src/data/scripts/dock_solv.prm

>  <Rbt.Receptor>
prm/pocket_docking_7.prm

>  <SCORE>
-12.4

>  <SCORE.INTER>
-11.2358

>  <SCORE.INTER.CONST>
1

>  <SCORE.INTER.POLAR>
0

>  <SCORE.INTER.ROT>
3

>  <SCORE.INTER.SOLV>
7.61209

>  <SCORE.INTER.VDW>
-15.6279

>  <SCORE.INTER.norm>
-0.936314

>  <SCORE.INTRA>
-1.1642

>  <SCORE.INTRA.DIHEDRAL>
3.59972

>  <SCORE.INTRA.DIHEDRAL.0>
0.283163

>  <SCORE.INTRA.POLAR>
0

>  <SCORE.INTRA.POLAR.0>
0

>  <SCORE.INTRA.REPUL>
0

>  <SCORE.INTRA.REPUL.0>
0

>  <SCORE.INTRA.SOLV>
0.554063

>  <SCORE.INTRA.SOLV.lig_0>
-32.2894

>  <SCORE.INTRA.VDW>
-3.24109

>  <SCORE.INTRA.VDW.0>
2.0241

>  <SCORE.INTRA.norm>
-0.097017

>  <SCORE.RESTR>
0

>  <SCORE.RESTR.CAVITY>
0

>  <SCORE.RESTR.norm>
0

>  <SCORE.SYSTEM>
0

>  <SCORE.SYSTEM.CONST>
0

>  <SCORE.SYSTEM.DIHEDRAL>
0

>  <SCORE.SYSTEM.SOLV>
0

>  <SCORE.SYSTEM.norm>
0

>  <SCORE.heavy>
12

>  <SCORE.norm>
-1.03333

>  <RMSD>
5.237

$$$$
ligand
 OpenBabel11021811513D
libRbt.so/2013.1/901 2013/11/27
 12 12  0  0  0  0  0  0  0  0999 V2000
    6.5025   -1.7567  -30.0843 O   0  0  0  0  0  0  0  0  0  0  0  0
    4.7733    2.8324  -29.3839 O   0  0  0  0  0  0  0  0  0  0  0  0
    5.4467   -2.1152  -29.2743 C   0  0  0  0  0  0  0  0  0  0  0  0
    2.9187    3.8103  -28.1387 O   0  0  0  0  0  0  0  0  0  0  0  0
    4.1654   -1.5045  -29.6694 C   0  0  0  0  0  0  0  0  0  0  0  0
    2.8663    3.7942  -30.5683 O   0  5  0  0  0  0  0  0  0  0  0  0
    4.2867   -0.0521  -29.8529 N   0  3  0  0  0  0  0  0  0  0  0  0
    5.3832    0.2470  -30.7378 C   0  0  0  0  0  0  0  0  0  0  0  0
    6.6440   -0.4121  -30.2833 C   0  0  0  0  0  0  0  0  0  0  0  0
    3.0555    0.4787  -30.3558 C   0  0  0  0  0  0  0  0  0  0  0  0
    2.4436    1.4462  -29.3112 C   0  0  0  0  0  0  0  0  0  0  0  0
    3.2934    3.0372  -29.3645 S   0  0  1  0  0  0  0  0  0  0  0  0
  1  3  1  0  0  0  0
  1  9  1  0  0  0  0
  2 12  1  0  0  0  0
  3  5  1  0  0  0  0
  4 12  2  0  0  0  0
  5  7  1  0  0  0  0
  6 12  2  0  0  0  0
  7  8  1  0  0  0  0
  7 10  1  0  0  0  0
  8  9  1  0  0  0  0
 10 11  1  0  0  0  0
 12 11  1  1  0  0  0
M  CHG  2   6  -1   7   1
M  END
>  <CHROM.1>
115.88078671,78.07323162,-46.64873291,4.21806849,1.07831736,-29.70757412
-1.06096473,0.18658122,0.02647848

>  <Name>
ligand

>  <RI>
0

>  <Rbt.Current_Directory>
/home/itssahil/PROJECTS/Mol_Feturizer/New_Systems/rnas/4P95

>  <Rbt.Executable>
rbdock ($Id: //depot/dev/client3/rdock/2013.1/src/exe/rbdock.cxx#4 $)

>  <Rbt.Library>
libRbt.so (2013.1, Build901 2013/11/27)

>  <Rbt.Parameter_File>
/export/apps/rDock/src/rDock_2013.1_src/data/scripts/dock_solv.prm

>  <Rbt.Receptor>
prm/pocket_docking_8.prm

>  <SCORE>
-12.2914

>  <SCORE.INTER>
-11.1977

>  <SCORE.INTER.CONST>
1

>  <SCORE.INTER.POLAR>
0

>  <SCORE.INTER.ROT>
3

>  <SCORE.INTER.SOLV>
7.85577

>  <SCORE.INTER.VDW>
-15.6837

>  <SCORE.INTER.norm>
-0.93314

>  <SCORE.INTRA>
-1.09368

>  <SCORE.INTRA.DIHEDRAL>
3.71178

>  <SCORE.INTRA.DIHEDRAL.0>
0.283163

>  <SCORE.INTRA.POLAR>
0

>  <SCORE.INTRA.POLAR.0>
0

>  <SCORE.INTRA.REPUL>
0

>  <SCORE.INTRA.REPUL.0>
0

>  <SCORE.INTRA.SOLV>
0.468904

>  <SCORE.INTRA.SOLV.lig_0>
-32.2894

>  <SCORE.INTRA.VDW>
-3.18402

>  <SCORE.INTRA.VDW.0>
2.0241

>  <SCORE.INTRA.norm>
-0.0911397

>  <SCORE.RESTR>
0

>  <SCORE.RESTR.CAVITY>
0

>  <SCORE.RESTR.norm>
0

>  <SCORE.SYSTEM>
0

>  <SCORE.SYSTEM.CONST>
0

>  <SCORE.SYSTEM.DIHEDRAL>
0

>  <SCORE.SYSTEM.SOLV>
0

>  <SCORE.SYSTEM.norm>
0

>  <SCORE.heavy>
12

>  <SCORE.norm>
-1.02428

>  <RMSD>
5.238

$$$$
ligand
 OpenBabel11021811513D
libRbt.so/2013.1/901 2013/11/27
 12 12  0  0  0  0  0  0  0  0999 V2000
    5.4483   -2.1451  -29.6746 O   0  0  0  0  0  0  0  0  0  0  0  0
    2.7327    4.2911  -28.5390 O   0  0  0  0  0  0  0  0  0  0  0  0
    4.2177   -1.5925  -29.3923 C   0  0  0  0  0  0  0  0  0  0  0  0
    2.6110    1.8574  -28.6333 O   0  0  0  0  0  0  0  0  0  0  0  0
    3.9367   -0.3594  -30.1482 C   0  0  0  0  0  0  0  0  0  0  0  0
    1.9593    3.1746  -30.5688 O   0  5  0  0  0  0  0  0  0  0  0  0
    5.0404    0.6049  -30.0491 N   0  3  0  0  0  0  0  0  0  0  0  0
    6.2869   -0.0295  -30.3930 C   0  0  0  0  0  0  0  0  0  0  0  0
    6.5002   -1.2759  -29.5981 C   0  0  0  0  0  0  0  0  0  0  0  0
    4.7805    1.7297  -30.8962 C   0  0  0  0  0  0  0  0  0  0  0  0
    4.5954    3.0001  -30.0282 C   0  0  0  0  0  0  0  0  0  0  0  0
    2.8987    3.0970  -29.4216 S   0  0  1  0  0  0  0  0  0  0  0  0
  1  3  1  0  0  0  0
  1  9  1  0  0  0  0
  2 12  1  0  0  0  0
  3  5  1  0  0  0  0
  4 12  2  0  0  0  0
  5  7  1  0  0  0  0
  6 12  2  0  0  0  0
  7  8  1  0  0  0  0
  7 10  1  0  0  0  0
  8  9  1  0  0  0  0
 10 11  1  0  0  0  0
 12 11  1  6  0  0  0
M  CHG  2   6  -1   7   1
M  END
>  <CHROM.1>
114.86488724,-83.43192142,177.69604059,4.08184655,1.25245679,-29.72812447
0.98010204,-0.39104989,2.98132956

>  <Name>
ligand

>  <RI>
0

>  <Rbt.Current_Directory>
/home/itssahil/PROJECTS/Mol_Feturizer/New_Systems/rnas/4P95

>  <Rbt.Executable>
rbdock ($Id: //depot/dev/client3/rdock/2013.1/src/exe/rbdock.cxx#4 $)

>  <Rbt.Library>
libRbt.so (2013.1, Build901 2013/11/27)

>  <Rbt.Parameter_File>
/export/apps/rDock/src/rDock_2013.1_src/data/scripts/dock_solv.prm

>  <Rbt.Receptor>
prm/pocket_docking_5.prm

>  <SCORE>
-13.0633

>  <SCORE.INTER>
-12.7487

>  <SCORE.INTER.CONST>
1

>  <SCORE.INTER.POLAR>
0

>  <SCORE.INTER.ROT>
3

>  <SCORE.INTER.SOLV>
6.27335

>  <SCORE.INTER.VDW>
-16.1902

>  <SCORE.INTER.norm>
-1.06239

>  <SCORE.INTRA>
-0.31461

>  <SCORE.INTRA.DIHEDRAL>
3.92516

>  <SCORE.INTRA.DIHEDRAL.0>
0.283163

>  <SCORE.INTRA.POLAR>
0

>  <SCORE.INTRA.POLAR.0>
0

>  <SCORE.INTRA.REPUL>
0

>  <SCORE.INTRA.REPUL.0>
0

>  <SCORE.INTRA.SOLV>
1.88729

>  <SCORE.INTRA.SOLV.lig_0>
-32.2894

>  <SCORE.INTRA.VDW>
-3.22083

>  <SCORE.INTRA.VDW.0>
2.0241

>  <SCORE.INTRA.norm>
-0.0262175

>  <SCORE.RESTR>
0

>  <SCORE.RESTR.CAVITY>
0

>  <SCORE.RESTR.norm>
0

>  <SCORE.SYSTEM>
0

>  <SCORE.SYSTEM.CONST>
0

>  <SCORE.SYSTEM.DIHEDRAL>
0

>  <SCORE.SYSTEM.SOLV>
0

>  <SCORE.SYSTEM.norm>
0

>  <SCORE.heavy>
12

>  <SCORE.norm>
-1.08861

>  <RMSD>
5.239

$$$$
ligand
 OpenBabel11021811513D
libRbt.so/2013.1/901 2013/11/27
 12 12  0  0  0  0  0  0  0  0999 V2000
    6.5229   -1.7610  -30.1144 O   0  0  0  0  0  0  0  0  0  0  0  0
    4.7464    2.8256  -29.3085 O   0  0  0  0  0  0  0  0  0  0  0  0
    5.4645   -2.1325  -29.3137 C   0  0  0  0  0  0  0  0  0  0  0  0
    2.8250    3.7824  -28.1513 O   0  0  0  0  0  0  0  0  0  0  0  0
    4.1824   -1.5242  -29.7098 C   0  0  0  0  0  0  0  0  0  0  0  0
    2.8780    3.7500  -30.5808 O   0  5  0  0  0  0  0  0  0  0  0  0
    4.2975   -0.0695  -29.8785 N   0  3  0  0  0  0  0  0  0  0  0  0
    5.3974    0.2437  -30.7543 C   0  0  0  0  0  0  0  0  0  0  0  0
    6.6589   -0.4138  -30.2993 C   0  0  0  0  0  0  0  0  0  0  0  0
    3.0666    0.4602  -30.3829 C   0  0  0  0  0  0  0  0  0  0  0  0
    2.4373    1.4038  -29.3267 C   0  0  0  0  0  0  0  0  0  0  0  0
    3.2641    3.0075  -29.3544 S   0  0  1  0  0  0  0  0  0  0  0  0
  1  3  1  0  0  0  0
  1  9  1  0  0  0  0
  2 12  1  0  0  0  0
  3  5  1  0  0  0  0
  4 12  2  0  0  0  0
  5  7  1  0  0  0  0
  6 12  2  0  0  0  0
  7  8  1  0  0  0  0
  7 10  1  0  0  0  0
  8  9  1  0  0  0  0
 10 11  1  0  0  0  0
 12 11  1  1  0  0  0
M  CHG  2   6  -1   7   1
M  END
>  <CHROM.1>
115.33938395,78.60087699,-49.23212256,4.21170089,1.05786416,-29.71728377
-1.05110201,0.18366381,0.03566211

>  <Name>
ligand

>  <RI>
0

>  <Rbt.Current_Directory>
/home/itssahil/PROJECTS/Mol_Feturizer/New_Systems/rnas/4P95

>  <Rbt.Executable>
rbdock ($Id: //depot/dev/client3/rdock/2013.1/src/exe/rbdock.cxx#4 $)

>  <Rbt.Library>
libRbt.so (2013.1, Build901 2013/11/27)

>  <Rbt.Parameter_File>
/export/apps/rDock/src/rDock_2013.1_src/data/scripts/dock_solv.prm

>  <Rbt.Receptor>
prm/pocket_docking_7.prm

>  <SCORE>
-12.3701

>  <SCORE.INTER>
-11.2081

>  <SCORE.INTER.CONST>
1

>  <SCORE.INTER.POLAR>
0

>  <SCORE.INTER.ROT>
3

>  <SCORE.INTER.SOLV>
7.56588

>  <SCORE.INTER.VDW>
-15.594

>  <SCORE.INTER.norm>
-0.934007

>  <SCORE.INTRA>
-1.16198

>  <SCORE.INTRA.DIHEDRAL>
3.61794

>  <SCORE.INTRA.DIHEDRAL.0>
0.283163

>  <SCORE.INTRA.POLAR>
0

>  <SCORE.INTRA.POLAR.0>
0

>  <SCORE.INTRA.REPUL>
0

>  <SCORE.INTRA.REPUL.0>
0

>  <SCORE.INTRA.SOLV>
0.551539

>  <SCORE.INTRA.SOLV.lig_0>
-32.2894

>  <SCORE.INTRA.VDW>
-3.24672

>  <SCORE.INTRA.VDW.0>
2.0241

>  <SCORE.INTRA.norm>
-0.0968313

>  <SCORE.RESTR>
0

>  <SCORE.RESTR.CAVITY>
0

>  <SCORE.RESTR.norm>
0

>  <SCORE.SYSTEM>
0

>  <SCORE.SYSTEM.CONST>
0

>  <SCORE.SYSTEM.DIHEDRAL>
0

>  <SCORE.SYSTEM.SOLV>
0

>  <SCORE.SYSTEM.norm>
0

>  <SCORE.heavy>
12

>  <SCORE.norm>
-1.03084

>  <RMSD>
5.244

$$$$
ligand
 OpenBabel11021811513D
libRbt.so/2013.1/901 2013/11/27
 12 12  0  0  0  0  0  0  0  0999 V2000
    6.5308   -1.7209  -30.1399 O   0  0  0  0  0  0  0  0  0  0  0  0
    4.7586    2.8480  -29.3166 O   0  0  0  0  0  0  0  0  0  0  0  0
    5.4883   -2.0929  -29.3190 C   0  0  0  0  0  0  0  0  0  0  0  0
    2.8524    3.8156  -28.1432 O   0  0  0  0  0  0  0  0  0  0  0  0
    4.1965   -1.4931  -29.6964 C   0  0  0  0  0  0  0  0  0  0  0  0
    2.8783    3.7704  -30.5730 O   0  5  0  0  0  0  0  0  0  0  0  0
    4.3016   -0.0389  -29.8753 N   0  3  0  0  0  0  0  0  0  0  0  0
    5.3846    0.2745  -30.7717 C   0  0  0  0  0  0  0  0  0  0  0  0
    6.6570   -0.3742  -30.3348 C   0  0  0  0  0  0  0  0  0  0  0  0
    3.0595    0.4820  -30.3614 C   0  0  0  0  0  0  0  0  0  0  0  0
    2.4459    1.4318  -29.3016 C   0  0  0  0  0  0  0  0  0  0  0  0
    3.2763    3.0333  -29.3470 S   0  0  1  0  0  0  0  0  0  0  0  0
  1  3  1  0  0  0  0
  1  9  1  0  0  0  0
  2 12  1  0  0  0  0
  3  5  1  0  0  0  0
  4 12  2  0  0  0  0
  5  7  1  0  0  0  0
  6 12  2  0  0  0  0
  7  8  1  0  0  0  0
  7 10  1  0  0  0  0
  8  9  1  0  0  0  0
 10 11  1  0  0  0  0
 12 11  1  1  0  0  0
M  CHG  2   6  -1   7   1
M  END
>  <CHROM.1>
115.50462099,78.06777979,-49.32867238,4.21971629,1.08767665,-29.71715868
-1.04932622,0.19918661,0.03173218

>  <Name>
ligand

>  <RI>
0

>  <Rbt.Current_Directory>
/home/itssahil/PROJECTS/Mol_Feturizer/New_Systems/rnas/4P95

>  <Rbt.Executable>
rbdock ($Id: //depot/dev/client3/rdock/2013.1/src/exe/rbdock.cxx#4 $)

>  <Rbt.Library>
libRbt.so (2013.1, Build901 2013/11/27)

>  <Rbt.Parameter_File>
/export/apps/rDock/src/rDock_2013.1_src/data/scripts/dock_solv.prm

>  <Rbt.Receptor>
prm/pocket_docking_6.prm

>  <SCORE>
-12.3733

>  <SCORE.INTER>
-11.1908

>  <SCORE.INTER.CONST>
1

>  <SCORE.INTER.POLAR>
0

>  <SCORE.INTER.ROT>
3

>  <SCORE.INTER.SOLV>
7.62078

>  <SCORE.INTER.VDW>
-15.6008

>  <SCORE.INTER.norm>
-0.93257

>  <SCORE.INTRA>
-1.18242

>  <SCORE.INTRA.DIHEDRAL>
3.55159

>  <SCORE.INTRA.DIHEDRAL.0>
0.283163

>  <SCORE.INTRA.POLAR>
0

>  <SCORE.INTRA.POLAR.0>
0

>  <SCORE.INTRA.REPUL>
0

>  <SCORE.INTRA.REPUL.0>
0

>  <SCORE.INTRA.SOLV>
0.57231

>  <SCORE.INTRA.SOLV.lig_0>
-32.2894

>  <SCORE.INTRA.VDW>
-3.24437

>  <SCORE.INTRA.VDW.0>
2.0241

>  <SCORE.INTRA.norm>
-0.0985347

>  <SCORE.RESTR>
0

>  <SCORE.RESTR.CAVITY>
0

>  <SCORE.RESTR.norm>
0

>  <SCORE.SYSTEM>
0

>  <SCORE.SYSTEM.CONST>
0

>  <SCORE.SYSTEM.DIHEDRAL>
0

>  <SCORE.SYSTEM.SOLV>
0

>  <SCORE.SYSTEM.norm>
0

>  <SCORE.heavy>
12

>  <SCORE.norm>
-1.0311

>  <RMSD>
5.246

$$$$
ligand
 OpenBabel11021811513D
libRbt.so/2013.1/901 2013/11/27
 12 12  0  0  0  0  0  0  0  0999 V2000
    6.4371   -1.6002  -30.2527 O   0  0  0  0  0  0  0  0  0  0  0  0
    4.6957    2.8354  -29.1890 O   0  0  0  0  0  0  0  0  0  0  0  0
    5.4360   -2.0202  -29.4038 C   0  0  0  0  0  0  0  0  0  0  0  0
    2.7802    3.8884  -28.1081 O   0  0  0  0  0  0  0  0  0  0  0  0
    4.1164   -1.4443  -29.7165 C   0  0  0  0  0  0  0  0  0  0  0  0
    2.8842    3.7713  -30.5333 O   0  5  0  0  0  0  0  0  0  0  0  0
    4.1785    0.0164  -29.8600 N   0  3  0  0  0  0  0  0  0  0  0  0
    5.2186    0.3808  -30.7874 C   0  0  0  0  0  0  0  0  0  0  0  0
    6.5224   -0.2460  -30.4159 C   0  0  0  0  0  0  0  0  0  0  0  0
    2.9063    0.5174  -30.2852 C   0  0  0  0  0  0  0  0  0  0  0  0
    2.3449    1.4836  -29.2114 C   0  0  0  0  0  0  0  0  0  0  0  0
    3.2210    3.0599  -29.2743 S   0  0  1  0  0  0  0  0  0  0  0  0
  1  3  1  0  0  0  0
  1  9  1  0  0  0  0
  2 12  1  0  0  0  0
  3  5  1  0  0  0  0
  4 12  2  0  0  0  0
  5  7  1  0  0  0  0
  6 12  2  0  0  0  0
  7  8  1  0  0  0  0
  7 10  1  0  0  0  0
  8  9  1  0  0  0  0
 10 11  1  0  0  0  0
 12 11  1  1  0  0  0
M  CHG  2   6  -1   7   1
M  END
>  <CHROM.1>
118.53406611,74.90227185,-52.93896187,4.13373176,1.14303869,-29.69923025
-1.05146102,0.22226895,0.05294058

>  <Name>
ligand

>  <RI>
0

>  <Rbt.Current_Directory>
/home/itssahil/PROJECTS/Mol_Feturizer/New_Systems/rnas/4P95

>  <Rbt.Executable>
rbdock ($Id: //depot/dev/client3/rdock/2013.1/src/exe/rbdock.cxx#4 $)

>  <Rbt.Library>
libRbt.so (2013.1, Build901 2013/11/27)

>  <Rbt.Parameter_File>
/export/apps/rDock/src/rDock_2013.1_src/data/scripts/dock_solv.prm

>  <Rbt.Receptor>
prm/pocket_docking_4.prm

>  <SCORE>
-12.1809

>  <SCORE.INTER>
-10.8885

>  <SCORE.INTER.CONST>
1

>  <SCORE.INTER.POLAR>
0

>  <SCORE.INTER.ROT>
3

>  <SCORE.INTER.SOLV>
7.63522

>  <SCORE.INTER.VDW>
-15.4041

>  <SCORE.INTER.norm>
-0.907374

>  <SCORE.INTRA>
-1.2924

>  <SCORE.INTRA.DIHEDRAL>
3.05998

>  <SCORE.INTRA.DIHEDRAL.0>
0.283163

>  <SCORE.INTRA.POLAR>
0

>  <SCORE.INTRA.POLAR.0>
0

>  <SCORE.INTRA.REPUL>
0

>  <SCORE.INTRA.REPUL.0>
0

>  <SCORE.INTRA.SOLV>
0.84497

>  <SCORE.INTRA.SOLV.lig_0>
-32.2894

>  <SCORE.INTRA.VDW>
-3.24488

>  <SCORE.INTRA.VDW.0>
2.0241

>  <SCORE.INTRA.norm>
-0.1077

>  <SCORE.RESTR>
0

>  <SCORE.RESTR.CAVITY>
0

>  <SCORE.RESTR.norm>
0

>  <SCORE.SYSTEM>
0

>  <SCORE.SYSTEM.CONST>
0

>  <SCORE.SYSTEM.DIHEDRAL>
0

>  <SCORE.SYSTEM.SOLV>
0

>  <SCORE.SYSTEM.norm>
0

>  <SCORE.heavy>
12

>  <SCORE.norm>
-1.01507

>  <RMSD>
5.255

$$$$
ligand
 OpenBabel11021811513D
libRbt.so/2013.1/901 2013/11/27
 12 12  0  0  0  0  0  0  0  0999 V2000
    5.4463   -2.1629  -29.7494 O   0  0  0  0  0  0  0  0  0  0  0  0
    2.7563    4.2550  -28.4466 O   0  0  0  0  0  0  0  0  0  0  0  0
    4.2160   -1.6129  -29.4611 C   0  0  0  0  0  0  0  0  0  0  0  0
    2.5983    1.8294  -28.6420 O   0  0  0  0  0  0  0  0  0  0  0  0
    3.9473   -0.3564  -30.1822 C   0  0  0  0  0  0  0  0  0  0  0  0
    2.0003    3.2344  -30.5327 O   0  5  0  0  0  0  0  0  0  0  0  0
    5.0547    0.5990  -30.0450 N   0  3  0  0  0  0  0  0  0  0  0  0
    6.3011   -0.0311  -30.3972 C   0  0  0  0  0  0  0  0  0  0  0  0
    6.5016   -1.3017  -29.6381 C   0  0  0  0  0  0  0  0  0  0  0  0
    4.8074    1.7498  -30.8604 C   0  0  0  0  0  0  0  0  0  0  0  0
    4.6238    2.9952  -29.9565 C   0  0  0  0  0  0  0  0  0  0  0  0
    2.9187    3.0951  -29.3743 S   0  0  1  0  0  0  0  0  0  0  0  0
  1  3  1  0  0  0  0
  1  9  1  0  0  0  0
  2 12  1  0  0  0  0
  3  5  1  0  0  0  0
  4 12  2  0  0  0  0
  5  7  1  0  0  0  0
  6 12  2  0  0  0  0
  7  8  1  0  0  0  0
  7 10  1  0  0  0  0
  8  9  1  0  0  0  0
 10 11  1  0  0  0  0
 12 11  1  6  0  0  0
M  CHG  2   6  -1   7   1
M  END
>  <CHROM.1>
114.97941737,-84.08327544,177.10003936,4.09604913,1.24776569,-29.71916208
0.98883871,-0.37970955,3.01347990

>  <Name>
ligand

>  <RI>
0

>  <Rbt.Current_Directory>
/home/itssahil/PROJECTS/Mol_Feturizer/New_Systems/rnas/4P95

>  <Rbt.Executable>
rbdock ($Id: //depot/dev/client3/rdock/2013.1/src/exe/rbdock.cxx#4 $)

>  <Rbt.Library>
libRbt.so (2013.1, Build901 2013/11/27)

>  <Rbt.Parameter_File>
/export/apps/rDock/src/rDock_2013.1_src/data/scripts/dock_solv.prm

>  <Rbt.Receptor>
prm/pocket_docking_7.prm

>  <SCORE>
-13.0429

>  <SCORE.INTER>
-12.7587

>  <SCORE.INTER.CONST>
1

>  <SCORE.INTER.POLAR>
0

>  <SCORE.INTER.ROT>
3

>  <SCORE.INTER.SOLV>
6.3193

>  <SCORE.INTER.VDW>
-16.2123

>  <SCORE.INTER.norm>
-1.06323

>  <SCORE.INTRA>
-0.284127

>  <SCORE.INTRA.DIHEDRAL>
4.0214

>  <SCORE.INTRA.DIHEDRAL.0>
0.283163

>  <SCORE.INTRA.POLAR>
0

>  <SCORE.INTRA.POLAR.0>
0

>  <SCORE.INTRA.REPUL>
0

>  <SCORE.INTRA.REPUL.0>
0

>  <SCORE.INTRA.SOLV>
1.83733

>  <SCORE.INTRA.SOLV.lig_0>
-32.2894

>  <SCORE.INTRA.VDW>
-3.21349

>  <SCORE.INTRA.VDW.0>
2.0241

>  <SCORE.INTRA.norm>
-0.0236772

>  <SCORE.RESTR>
0

>  <SCORE.RESTR.CAVITY>
0

>  <SCORE.RESTR.norm>
0

>  <SCORE.SYSTEM>
0

>  <SCORE.SYSTEM.CONST>
0

>  <SCORE.SYSTEM.DIHEDRAL>
0

>  <SCORE.SYSTEM.SOLV>
0

>  <SCORE.SYSTEM.norm>
0

>  <SCORE.heavy>
12

>  <SCORE.norm>
-1.0869

>  <RMSD>
5.256

$$$$
ligand
 OpenBabel11021811513D
libRbt.so/2013.1/901 2013/11/27
 12 12  0  0  0  0  0  0  0  0999 V2000
    6.6676   -1.8961  -29.9288 O   0  0  0  0  0  0  0  0  0  0  0  0
    4.8379    2.7904  -29.3952 O   0  0  0  0  0  0  0  0  0  0  0  0
    5.5402   -2.2579  -29.2236 C   0  0  0  0  0  0  0  0  0  0  0  0
    2.9494    3.6046  -28.0849 O   0  0  0  0  0  0  0  0  0  0  0  0
    4.3067   -1.6177  -29.7130 C   0  0  0  0  0  0  0  0  0  0  0  0
    2.8870    3.7471  -30.5102 O   0  5  0  0  0  0  0  0  0  0  0  0
    4.4631   -0.1633  -29.8474 N   0  3  0  0  0  0  0  0  0  0  0  0
    5.6368    0.1405  -30.6251 C   0  0  0  0  0  0  0  0  0  0  0  0
    6.8441   -0.5493  -30.0796 C   0  0  0  0  0  0  0  0  0  0  0  0
    3.2880    0.3990  -30.4419 C   0  0  0  0  0  0  0  0  0  0  0  0
    2.5690    1.3053  -29.4108 C   0  0  0  0  0  0  0  0  0  0  0  0
    3.3509    2.9309  -29.3599 S   0  0  1  0  0  0  0  0  0  0  0  0
  1  3  1  0  0  0  0
  1  9  1  0  0  0  0
  2 12  1  0  0  0  0
  3  5  1  0  0  0  0
  4 12  2  0  0  0  0
  5  7  1  0  0  0  0
  6 12  2  0  0  0  0
  7  8  1  0  0  0  0
  7 10  1  0  0  0  0
  8  9  1  0  0  0  0
 10 11  1  0  0  0  0
 12 11  1  6  0  0  0
M  CHG  2   6  -1   7   1
M  END
>  <CHROM.1>
113.63047737,81.63230631,-42.28029733,4.33901757,0.96494920,-29.67537248
-1.04874603,0.11463158,0.04398949

>  <Name>
ligand

>  <RI>
0

>  <Rbt.Current_Directory>
/home/itssahil/PROJECTS/Mol_Feturizer/New_Systems/rnas/4P95

>  <Rbt.Executable>
rbdock ($Id: //depot/dev/client3/rdock/2013.1/src/exe/rbdock.cxx#4 $)

>  <Rbt.Library>
libRbt.so (2013.1, Build901 2013/11/27)

>  <Rbt.Parameter_File>
/export/apps/rDock/src/rDock_2013.1_src/data/scripts/dock_solv.prm

>  <Rbt.Receptor>
prm/pocket_docking_8.prm

>  <SCORE>
-12.3312

>  <SCORE.INTER>
-11.4728

>  <SCORE.INTER.CONST>
1

>  <SCORE.INTER.POLAR>
0

>  <SCORE.INTER.ROT>
3

>  <SCORE.INTER.SOLV>
8.05587

>  <SCORE.INTER.VDW>
-15.9338

>  <SCORE.INTER.norm>
-0.956069

>  <SCORE.INTRA>
-0.858408

>  <SCORE.INTRA.DIHEDRAL>
4.43265

>  <SCORE.INTRA.DIHEDRAL.0>
0.283163

>  <SCORE.INTRA.POLAR>
0

>  <SCORE.INTRA.POLAR.0>
0

>  <SCORE.INTRA.REPUL>
0

>  <SCORE.INTRA.REPUL.0>
0

>  <SCORE.INTRA.SOLV>
0.181546

>  <SCORE.INTRA.SOLV.lig_0>
-32.2894

>  <SCORE.INTRA.VDW>
-3.16551

>  <SCORE.INTRA.VDW.0>
2.0241

>  <SCORE.INTRA.norm>
-0.071534

>  <SCORE.RESTR>
0

>  <SCORE.RESTR.CAVITY>
0

>  <SCORE.RESTR.norm>
0

>  <SCORE.SYSTEM>
0

>  <SCORE.SYSTEM.CONST>
0

>  <SCORE.SYSTEM.DIHEDRAL>
0

>  <SCORE.SYSTEM.SOLV>
0

>  <SCORE.SYSTEM.norm>
0

>  <SCORE.heavy>
12

>  <SCORE.norm>
-1.0276

>  <RMSD>
5.256

$$$$
ligand
 OpenBabel11021811513D
libRbt.so/2013.1/901 2013/11/27
 12 12  0  0  0  0  0  0  0  0999 V2000
    6.6109   -1.8258  -29.9454 O   0  0  0  0  0  0  0  0  0  0  0  0
    4.7808    2.8795  -29.3219 O   0  0  0  0  0  0  0  0  0  0  0  0
    5.4921   -2.1799  -29.2227 C   0  0  0  0  0  0  0  0  0  0  0  0
    2.8233    3.7343  -28.1454 O   0  0  0  0  0  0  0  0  0  0  0  0
    4.2536   -1.5409  -29.7009 C   0  0  0  0  0  0  0  0  0  0  0  0
    2.8872    3.7794  -30.5745 O   0  5  0  0  0  0  0  0  0  0  0  0
    4.4111   -0.0878  -29.8485 N   0  3  0  0  0  0  0  0  0  0  0  0
    5.5752    0.2075  -30.6438 C   0  0  0  0  0  0  0  0  0  0  0  0
    6.7881   -0.4806  -30.1088 C   0  0  0  0  0  0  0  0  0  0  0  0
    3.2294    0.4723  -30.4319 C   0  0  0  0  0  0  0  0  0  0  0  0
    2.5214    1.3817  -29.3958 C   0  0  0  0  0  0  0  0  0  0  0  0
    3.2934    3.0125  -29.3697 S   0  0  1  0  0  0  0  0  0  0  0  0
  1  3  1  0  0  0  0
  1  9  1  0  0  0  0
  2 12  1  0  0  0  0
  3  5  1  0  0  0  0
  4 12  2  0  0  0  0
  5  7  1  0  0  0  0
  6 12  2  0  0  0  0
  7  8  1  0  0  0  0
  7 10  1  0  0  0  0
  8  9  1  0  0  0  0
 10 11  1  0  0  0  0
 12 11  1  6  0  0  0
M  CHG  2   6  -1   7   1
M  END
>  <CHROM.1>
113.31025479,82.16643769,-46.63220611,4.28256983,1.04213154,-29.68338526
-1.04779783,0.12941716,0.03517506

>  <Name>
ligand

>  <RI>
0

>  <Rbt.Current_Directory>
/home/itssahil/PROJECTS/Mol_Feturizer/New_Systems/rnas/4P95

>  <Rbt.Executable>
rbdock ($Id: //depot/dev/client3/rdock/2013.1/src/exe/rbdock.cxx#4 $)

>  <Rbt.Library>
libRbt.so (2013.1, Build901 2013/11/27)

>  <Rbt.Parameter_File>
/export/apps/rDock/src/rDock_2013.1_src/data/scripts/dock_solv.prm

>  <Rbt.Receptor>
prm/pocket_docking_7.prm

>  <SCORE>
-12.2938

>  <SCORE.INTER>
-11.3199

>  <SCORE.INTER.CONST>
1

>  <SCORE.INTER.POLAR>
0

>  <SCORE.INTER.ROT>
3

>  <SCORE.INTER.SOLV>
7.84916

>  <SCORE.INTER.VDW>
-15.763

>  <SCORE.INTER.norm>
-0.943326

>  <SCORE.INTRA>
-0.973887

>  <SCORE.INTRA.DIHEDRAL>
4.1901

>  <SCORE.INTRA.DIHEDRAL.0>
0.283163

>  <SCORE.INTRA.POLAR>
0

>  <SCORE.INTRA.POLAR.0>
0

>  <SCORE.INTRA.REPUL>
0

>  <SCORE.INTRA.REPUL.0>
0

>  <SCORE.INTRA.SOLV>
0.330411

>  <SCORE.INTRA.SOLV.lig_0>
-32.2894

>  <SCORE.INTRA.VDW>
-3.23414

>  <SCORE.INTRA.VDW.0>
2.0241

>  <SCORE.INTRA.norm>
-0.0811573

>  <SCORE.RESTR>
0

>  <SCORE.RESTR.CAVITY>
0

>  <SCORE.RESTR.norm>
0

>  <SCORE.SYSTEM>
0

>  <SCORE.SYSTEM.CONST>
0

>  <SCORE.SYSTEM.DIHEDRAL>
0

>  <SCORE.SYSTEM.SOLV>
0

>  <SCORE.SYSTEM.norm>
0

>  <SCORE.heavy>
12

>  <SCORE.norm>
-1.02448

>  <RMSD>
5.262

$$$$
ligand
 OpenBabel11021811513D
libRbt.so/2013.1/901 2013/11/27
 12 12  0  0  0  0  0  0  0  0999 V2000
    6.6518   -1.8822  -29.9586 O   0  0  0  0  0  0  0  0  0  0  0  0
    4.7988    2.8186  -29.3555 O   0  0  0  0  0  0  0  0  0  0  0  0
    5.5403   -2.2368  -29.2251 C   0  0  0  0  0  0  0  0  0  0  0  0
    2.8800    3.6306  -28.0885 O   0  0  0  0  0  0  0  0  0  0  0  0
    4.2960   -1.6024  -29.6945 C   0  0  0  0  0  0  0  0  0  0  0  0
    2.8525    3.7288  -30.5167 O   0  5  0  0  0  0  0  0  0  0  0  0
    4.4486   -0.1495  -29.8482 N   0  3  0  0  0  0  0  0  0  0  0  0
    5.6049    0.1461  -30.6546 C   0  0  0  0  0  0  0  0  0  0  0  0
    6.8241   -0.5372  -30.1279 C   0  0  0  0  0  0  0  0  0  0  0  0
    3.2604    0.4058  -30.4231 C   0  0  0  0  0  0  0  0  0  0  0  0
    2.5500    1.3031  -29.3781 C   0  0  0  0  0  0  0  0  0  0  0  0
    3.3096    2.9396  -29.3450 S   0  0  1  0  0  0  0  0  0  0  0  0
  1  3  1  0  0  0  0
  1  9  1  0  0  0  0
  2 12  1  0  0  0  0
  3  5  1  0  0  0  0
  4 12  2  0  0  0  0
  5  7  1  0  0  0  0
  6 12  2  0  0  0  0
  7  8  1  0  0  0  0
  7 10  1  0  0  0  0
  8  9  1  0  0  0  0
 10 11  1  0  0  0  0
 12 11  1  6  0  0  0
M  CHG  2   6  -1   7   1
M  END
>  <CHROM.1>
112.62798814,82.19684329,-44.54597179,4.31019435,0.97574050,-29.67364915
-1.04118088,0.14053068,0.03572647

>  <Name>
ligand

>  <RI>
0

>  <Rbt.Current_Directory>
/home/itssahil/PROJECTS/Mol_Feturizer/New_Systems/rnas/4P95

>  <Rbt.Executable>
rbdock ($Id: //depot/dev/client3/rdock/2013.1/src/exe/rbdock.cxx#4 $)

>  <Rbt.Library>
libRbt.so (2013.1, Build901 2013/11/27)

>  <Rbt.Parameter_File>
/export/apps/rDock/src/rDock_2013.1_src/data/scripts/dock_solv.prm

>  <Rbt.Receptor>
prm/pocket_docking_5.prm

>  <SCORE>
-12.291

>  <SCORE.INTER>
-11.3617

>  <SCORE.INTER.CONST>
1

>  <SCORE.INTER.POLAR>
0

>  <SCORE.INTER.ROT>
3

>  <SCORE.INTER.SOLV>
7.88985

>  <SCORE.INTER.VDW>
-15.8044

>  <SCORE.INTER.norm>
-0.946806

>  <SCORE.INTRA>
-0.929315

>  <SCORE.INTRA.DIHEDRAL>
4.3207

>  <SCORE.INTRA.DIHEDRAL.0>
0.283163

>  <SCORE.INTRA.POLAR>
0

>  <SCORE.INTRA.POLAR.0>
0

>  <SCORE.INTRA.REPUL>
0

>  <SCORE.INTRA.REPUL.0>
0

>  <SCORE.INTRA.SOLV>
0.24319

>  <SCORE.INTRA.SOLV.lig_0>
-32.2894

>  <SCORE.INTRA.VDW>
-3.21126

>  <SCORE.INTRA.VDW.0>
2.0241

>  <SCORE.INTRA.norm>
-0.0774429

>  <SCORE.RESTR>
0

>  <SCORE.RESTR.CAVITY>
0

>  <SCORE.RESTR.norm>
0

>  <SCORE.SYSTEM>
0

>  <SCORE.SYSTEM.CONST>
0

>  <SCORE.SYSTEM.DIHEDRAL>
0

>  <SCORE.SYSTEM.SOLV>
0

>  <SCORE.SYSTEM.norm>
0

>  <SCORE.heavy>
12

>  <SCORE.norm>
-1.02425

>  <RMSD>
5.267

$$$$
ligand
 OpenBabel11021811513D
libRbt.so/2013.1/901 2013/11/27
 12 12  0  0  0  0  0  0  0  0999 V2000
    5.6077   -2.0321  -29.9671 O   0  0  0  0  0  0  0  0  0  0  0  0
    2.5067    1.6575  -28.6669 O   0  0  0  0  0  0  0  0  0  0  0  0
    4.4086   -1.5322  -29.5072 C   0  0  0  0  0  0  0  0  0  0  0  0
    1.9008    3.3810  -30.2821 O   0  0  0  0  0  0  0  0  0  0  0  0
    4.0257   -0.2518  -30.1277 C   0  0  0  0  0  0  0  0  0  0  0  0
    2.6826    4.0195  -28.0713 O   0  5  0  0  0  0  0  0  0  0  0  0
    5.1189    0.7280  -30.0762 N   0  3  0  0  0  0  0  0  0  0  0  0
    6.3282    0.1516  -30.6055 C   0  0  0  0  0  0  0  0  0  0  0  0
    6.6483   -1.1466  -29.9398 C   0  0  0  0  0  0  0  0  0  0  0  0
    4.7484    1.9079  -30.7980 C   0  0  0  0  0  0  0  0  0  0  0  0
    4.5210    3.0739  -29.8028 C   0  0  0  0  0  0  0  0  0  0  0  0
    2.8333    3.0275  -29.1657 S   0  0  1  0  0  0  0  0  0  0  0  0
  1  3  1  0  0  0  0
  1  9  1  0  0  0  0
  2 12  1  0  0  0  0
  3  5  1  0  0  0  0
  4 12  2  0  0  0  0
  5  7  1  0  0  0  0
  6 12  2  0  0  0  0
  7  8  1  0  0  0  0
  7 10  1  0  0  0  0
  8  9  1  0  0  0  0
 10 11  1  0  0  0  0
 12 11  1  6  0  0  0
M  CHG  2   6  -1   7   1
M  END
>  <CHROM.1>
109.89980868,-85.31325680,50.30488021,4.09854318,1.29008480,-29.67602541
0.90429014,-0.45440701,3.01343982

>  <Name>
ligand

>  <RI>
0

>  <Rbt.Current_Directory>
/home/itssahil/PROJECTS/Mol_Feturizer/New_Systems/rnas/4P95

>  <Rbt.Executable>
rbdock ($Id: //depot/dev/client3/rdock/2013.1/src/exe/rbdock.cxx#4 $)

>  <Rbt.Library>
libRbt.so (2013.1, Build901 2013/11/27)

>  <Rbt.Parameter_File>
/export/apps/rDock/src/rDock_2013.1_src/data/scripts/dock_solv.prm

>  <Rbt.Receptor>
prm/pocket_docking_4.prm

>  <SCORE>
-10.6131

>  <SCORE.INTER>
-9.51953

>  <SCORE.INTER.CONST>
1

>  <SCORE.INTER.POLAR>
0

>  <SCORE.INTER.ROT>
3

>  <SCORE.INTER.SOLV>
13.1689

>  <SCORE.INTER.VDW>
-16.336

>  <SCORE.INTER.norm>
-0.793294

>  <SCORE.INTRA>
-1.09413

>  <SCORE.INTRA.DIHEDRAL>
4.27152

>  <SCORE.INTRA.DIHEDRAL.0>
0.283163

>  <SCORE.INTRA.POLAR>
0

>  <SCORE.INTRA.POLAR.0>
0

>  <SCORE.INTRA.REPUL>
0

>  <SCORE.INTRA.REPUL.0>
0

>  <SCORE.INTRA.SOLV>
-0.69321

>  <SCORE.INTRA.SOLV.lig_0>
-32.2894

>  <SCORE.INTRA.VDW>
-2.88329

>  <SCORE.INTRA.VDW.0>
2.0241

>  <SCORE.INTRA.norm>
-0.0911777

>  <SCORE.RESTR>
0.000570445

>  <SCORE.RESTR.CAVITY>
0.000570445

>  <SCORE.RESTR.norm>
4.75371e-05

>  <SCORE.SYSTEM>
0

>  <SCORE.SYSTEM.CONST>
0

>  <SCORE.SYSTEM.DIHEDRAL>
0

>  <SCORE.SYSTEM.SOLV>
0

>  <SCORE.SYSTEM.norm>
0

>  <SCORE.heavy>
12

>  <SCORE.norm>
-0.884424

>  <RMSD>
5.270

$$$$
ligand
 OpenBabel11021811513D
libRbt.so/2013.1/901 2013/11/27
 12 12  0  0  0  0  0  0  0  0999 V2000
    5.3672   -2.1564  -29.7421 O   0  0  0  0  0  0  0  0  0  0  0  0
    2.7590    4.2123  -28.3141 O   0  0  0  0  0  0  0  0  0  0  0  0
    4.1380   -1.5965  -29.4686 C   0  0  0  0  0  0  0  0  0  0  0  0
    2.6047    1.7948  -28.5932 O   0  0  0  0  0  0  0  0  0  0  0  0
    3.8960   -0.3279  -30.1777 C   0  0  0  0  0  0  0  0  0  0  0  0
    1.9741    3.2641  -30.4235 O   0  5  0  0  0  0  0  0  0  0  0  0
    5.0110    0.6133  -30.0082 N   0  3  0  0  0  0  0  0  0  0  0  0
    6.2567   -0.0260  -30.3464 C   0  0  0  0  0  0  0  0  0  0  0  0
    6.4296   -1.3085  -29.6007 C   0  0  0  0  0  0  0  0  0  0  0  0
    4.7910    1.7774  -30.8126 C   0  0  0  0  0  0  0  0  0  0  0  0
    4.6067    3.0132  -29.8958 C   0  0  0  0  0  0  0  0  0  0  0  0
    2.9104    3.0867  -29.2848 S   0  0  1  0  0  0  0  0  0  0  0  0
  1  3  1  0  0  0  0
  1  9  1  0  0  0  0
  2 12  1  0  0  0  0
  3  5  1  0  0  0  0
  4 12  2  0  0  0  0
  5  7  1  0  0  0  0
  6 12  2  0  0  0  0
  7  8  1  0  0  0  0
  7 10  1  0  0  0  0
  8  9  1  0  0  0  0
 10 11  1  0  0  0  0
 12 11  1  6  0  0  0
M  CHG  2   6  -1   7   1
M  END
>  <CHROM.1>
115.05783744,-81.69561405,175.42088551,4.06346360,1.25043129,-29.66320332
0.99910521,-0.37979859,3.03492920

>  <Name>
ligand

>  <RI>
0

>  <Rbt.Current_Directory>
/home/itssahil/PROJECTS/Mol_Feturizer/New_Systems/rnas/4P95

>  <Rbt.Executable>
rbdock ($Id: //depot/dev/client3/rdock/2013.1/src/exe/rbdock.cxx#4 $)

>  <Rbt.Library>
libRbt.so (2013.1, Build901 2013/11/27)

>  <Rbt.Parameter_File>
/export/apps/rDock/src/rDock_2013.1_src/data/scripts/dock_solv.prm

>  <Rbt.Receptor>
prm/pocket_docking_5.prm

>  <SCORE>
-12.9544

>  <SCORE.INTER>
-12.5973

>  <SCORE.INTER.CONST>
1

>  <SCORE.INTER.POLAR>
0

>  <SCORE.INTER.ROT>
3

>  <SCORE.INTER.SOLV>
6.63552

>  <SCORE.INTER.VDW>
-16.2101

>  <SCORE.INTER.norm>
-1.04978

>  <SCORE.INTRA>
-0.357092

>  <SCORE.INTRA.DIHEDRAL>
3.72635

>  <SCORE.INTRA.DIHEDRAL.0>
0.283163

>  <SCORE.INTRA.POLAR>
0

>  <SCORE.INTRA.POLAR.0>
0

>  <SCORE.INTRA.REPUL>
0

>  <SCORE.INTRA.REPUL.0>
0

>  <SCORE.INTRA.SOLV>
1.88824

>  <SCORE.INTRA.SOLV.lig_0>
-32.2894

>  <SCORE.INTRA.VDW>
-3.16439

>  <SCORE.INTRA.VDW.0>
2.0241

>  <SCORE.INTRA.norm>
-0.0297576

>  <SCORE.RESTR>
0

>  <SCORE.RESTR.CAVITY>
0

>  <SCORE.RESTR.norm>
0

>  <SCORE.SYSTEM>
0

>  <SCORE.SYSTEM.CONST>
0

>  <SCORE.SYSTEM.DIHEDRAL>
0

>  <SCORE.SYSTEM.SOLV>
0

>  <SCORE.SYSTEM.norm>
0

>  <SCORE.heavy>
12

>  <SCORE.norm>
-1.07954

>  <RMSD>
5.273

$$$$
ligand
 OpenBabel11021811513D
libRbt.so/2013.1/901 2013/11/27
 12 12  0  0  0  0  0  0  0  0999 V2000
    5.7121   -2.2543  -29.6281 O   0  0  0  0  0  0  0  0  0  0  0  0
    2.9873    3.9080  -28.1271 O   0  0  0  0  0  0  0  0  0  0  0  0
    4.4411   -1.7854  -29.3752 C   0  0  0  0  0  0  0  0  0  0  0  0
    2.6162    1.5984  -28.8159 O   0  0  0  0  0  0  0  0  0  0  0  0
    4.1018   -0.5643  -30.1267 C   0  0  0  0  0  0  0  0  0  0  0  0
    2.0696    3.4142  -30.3358 O   0  5  0  0  0  0  0  0  0  0  0  0
    5.1377    0.4678  -29.9875 N   0  3  0  0  0  0  0  0  0  0  0  0
    6.4316   -0.0812  -30.3024 C   0  0  0  0  0  0  0  0  0  0  0  0
    6.7031   -1.3203  -29.5139 C   0  0  0  0  0  0  0  0  0  0  0  0
    4.8290    1.5831  -30.8307 C   0  0  0  0  0  0  0  0  0  0  0  0
    4.6829    2.8611  -29.9664 C   0  0  0  0  0  0  0  0  0  0  0  0
    3.0155    2.9630  -29.2841 S   0  0  1  0  0  0  0  0  0  0  0  0
  1  3  1  0  0  0  0
  1  9  1  0  0  0  0
  2 12  1  0  0  0  0
  3  5  1  0  0  0  0
  4 12  2  0  0  0  0
  5  7  1  0  0  0  0
  6 12  2  0  0  0  0
  7  8  1  0  0  0  0
  7 10  1  0  0  0  0
  8  9  1  0  0  0  0
 10 11  1  0  0  0  0
 12 11  1  6  0  0  0
M  CHG  2   6  -1   7   1
M  END
>  <CHROM.1>
120.68143219,-83.86064251,161.65247263,4.22334942,1.12201596,-29.63445941
0.96775303,-0.38370942,2.99809357

>  <Name>
ligand

>  <RI>
0

>  <Rbt.Current_Directory>
/home/itssahil/PROJECTS/Mol_Feturizer/New_Systems/rnas/4P95

>  <Rbt.Executable>
rbdock ($Id: //depot/dev/client3/rdock/2013.1/src/exe/rbdock.cxx#4 $)

>  <Rbt.Library>
libRbt.so (2013.1, Build901 2013/11/27)

>  <Rbt.Parameter_File>
/export/apps/rDock/src/rDock_2013.1_src/data/scripts/dock_solv.prm

>  <Rbt.Receptor>
prm/pocket_docking_6.prm

>  <SCORE>
-12.9113

>  <SCORE.INTER>
-12.8853

>  <SCORE.INTER.CONST>
1

>  <SCORE.INTER.POLAR>
0

>  <SCORE.INTER.ROT>
3

>  <SCORE.INTER.SOLV>
6.84478

>  <SCORE.INTER.VDW>
-16.4718

>  <SCORE.INTER.norm>
-1.07378

>  <SCORE.INTRA>
-0.0270505

>  <SCORE.INTRA.DIHEDRAL>
4.71424

>  <SCORE.INTRA.DIHEDRAL.0>
0.283163

>  <SCORE.INTRA.POLAR>
0

>  <SCORE.INTRA.POLAR.0>
0

>  <SCORE.INTRA.REPUL>
0

>  <SCORE.INTRA.REPUL.0>
0

>  <SCORE.INTRA.SOLV>
1.24621

>  <SCORE.INTRA.SOLV.lig_0>
-32.2894

>  <SCORE.INTRA.VDW>
-3.00728

>  <SCORE.INTRA.VDW.0>
2.0241

>  <SCORE.INTRA.norm>
-0.00225421

>  <SCORE.RESTR>
0.00106205

>  <SCORE.RESTR.CAVITY>
0.00106205

>  <SCORE.RESTR.norm>
8.85045e-05

>  <SCORE.SYSTEM>
0

>  <SCORE.SYSTEM.CONST>
0

>  <SCORE.SYSTEM.DIHEDRAL>
0

>  <SCORE.SYSTEM.SOLV>
0

>  <SCORE.SYSTEM.norm>
0

>  <SCORE.heavy>
12

>  <SCORE.norm>
-1.07594

>  <RMSD>
5.277

$$$$
ligand
 OpenBabel11021811513D
libRbt.so/2013.1/901 2013/11/27
 12 12  0  0  0  0  0  0  0  0999 V2000
    6.1769   -2.4309  -29.7543 O   0  0  0  0  0  0  0  0  0  0  0  0
    4.1767    4.3892  -31.2880 O   0  0  0  0  0  0  0  0  0  0  0  0
    4.9407   -2.1191  -29.2309 C   0  0  0  0  0  0  0  0  0  0  0  0
    2.5978    4.5662  -29.4380 O   0  0  0  0  0  0  0  0  0  0  0  0
    4.3241   -0.9284  -29.8417 C   0  0  0  0  0  0  0  0  0  0  0  0
    2.1130    3.0832  -31.3014 O   0  5  0  0  0  0  0  0  0  0  0  0
    5.2477    0.2137  -29.8641 N   0  3  0  0  0  0  0  0  0  0  0  0
    6.5023   -0.1735  -30.4564 C   0  0  0  0  0  0  0  0  0  0  0  0
    7.0624   -1.3908  -29.7968 C   0  0  0  0  0  0  0  0  0  0  0  0
    4.6537    1.3051  -30.5756 C   0  0  0  0  0  0  0  0  0  0  0  0
    4.0234    2.2989  -29.5673 C   0  0  0  0  0  0  0  0  0  0  0  0
    3.1949    3.6377  -30.4491 S   0  0  1  0  0  0  0  0  0  0  0  0
  1  3  1  0  0  0  0
  1  9  1  0  0  0  0
  2 12  1  0  0  0  0
  3  5  1  0  0  0  0
  4 12  2  0  0  0  0
  5  7  1  0  0  0  0
  6 12  2  0  0  0  0
  7  8  1  0  0  0  0
  7 10  1  0  0  0  0
  8  9  1  0  0  0  0
 10 11  1  0  0  0  0
 12 11  1  1  0  0  0
M  CHG  2   6  -1   7   1
M  END
>  <CHROM.1>
97.74399908,-177.06577340,-60.83440790,4.42212673,1.33453817,-30.17273064
1.07864472,-0.21314160,2.89699451

>  <Name>
ligand

>  <RI>
0

>  <Rbt.Current_Directory>
/home/itssahil/PROJECTS/Mol_Feturizer/New_Systems/rnas/4P95

>  <Rbt.Executable>
rbdock ($Id: //depot/dev/client3/rdock/2013.1/src/exe/rbdock.cxx#4 $)

>  <Rbt.Library>
libRbt.so (2013.1, Build901 2013/11/27)

>  <Rbt.Parameter_File>
/export/apps/rDock/src/rDock_2013.1_src/data/scripts/dock_solv.prm

>  <Rbt.Receptor>
prm/pocket_docking_7.prm

>  <SCORE>
-12.2738

>  <SCORE.INTER>
-10.4253

>  <SCORE.INTER.CONST>
1

>  <SCORE.INTER.POLAR>
0

>  <SCORE.INTER.ROT>
3

>  <SCORE.INTER.SOLV>
6.50178

>  <SCORE.INTER.VDW>
-14.7175

>  <SCORE.INTER.norm>
-0.868775

>  <SCORE.INTRA>
-1.8485

>  <SCORE.INTRA.DIHEDRAL>
1.48642

>  <SCORE.INTRA.DIHEDRAL.0>
0.283163

>  <SCORE.INTRA.POLAR>
0

>  <SCORE.INTRA.POLAR.0>
0

>  <SCORE.INTRA.REPUL>
0

>  <SCORE.INTRA.REPUL.0>
0

>  <SCORE.INTRA.SOLV>
-0.0453402

>  <SCORE.INTRA.SOLV.lig_0>
-32.2894

>  <SCORE.INTRA.VDW>
-2.56904

>  <SCORE.INTRA.VDW.0>
2.0241

>  <SCORE.INTRA.norm>
-0.154042

>  <SCORE.RESTR>
0

>  <SCORE.RESTR.CAVITY>
0

>  <SCORE.RESTR.norm>
0

>  <SCORE.SYSTEM>
0

>  <SCORE.SYSTEM.CONST>
0

>  <SCORE.SYSTEM.DIHEDRAL>
0

>  <SCORE.SYSTEM.SOLV>
0

>  <SCORE.SYSTEM.norm>
0

>  <SCORE.heavy>
12

>  <SCORE.norm>
-1.02282

>  <RMSD>
5.279

$$$$
ligand
 OpenBabel11021811513D
libRbt.so/2013.1/901 2013/11/27
 12 12  0  0  0  0  0  0  0  0999 V2000
    5.4735   -2.1628  -29.7706 O   0  0  0  0  0  0  0  0  0  0  0  0
    2.8267    4.2378  -28.3257 O   0  0  0  0  0  0  0  0  0  0  0  0
    4.2353   -1.6356  -29.4738 C   0  0  0  0  0  0  0  0  0  0  0  0
    2.5869    1.8305  -28.6325 O   0  0  0  0  0  0  0  0  0  0  0  0
    3.9443   -0.3768  -30.1821 C   0  0  0  0  0  0  0  0  0  0  0  0
    2.0005    3.3426  -30.4425 O   0  5  0  0  0  0  0  0  0  0  0  0
    5.0364    0.5951  -30.0387 N   0  3  0  0  0  0  0  0  0  0  0  0
    6.2919   -0.0114  -30.4003 C   0  0  0  0  0  0  0  0  0  0  0  0
    6.5151   -1.2857  -29.6540 C   0  0  0  0  0  0  0  0  0  0  0  0
    4.7683    1.7495  -30.8423 C   0  0  0  0  0  0  0  0  0  0  0  0
    4.6249    2.9939  -29.9298 C   0  0  0  0  0  0  0  0  0  0  0  0
    2.9347    3.1191  -29.3103 S   0  0  1  0  0  0  0  0  0  0  0  0
  1  3  1  0  0  0  0
  1  9  1  0  0  0  0
  2 12  1  0  0  0  0
  3  5  1  0  0  0  0
  4 12  2  0  0  0  0
  5  7  1  0  0  0  0
  6 12  2  0  0  0  0
  7  8  1  0  0  0  0
  7 10  1  0  0  0  0
  8  9  1  0  0  0  0
 10 11  1  0  0  0  0
 12 11  1  6  0  0  0
M  CHG  2   6  -1   7   1
M  END
>  <CHROM.1>
117.28876009,-85.04287636,174.44648242,4.10325033,1.25840891,-29.69076684
0.99312081,-0.38711855,3.02804545

>  <Name>
ligand

>  <RI>
0

>  <Rbt.Current_Directory>
/home/itssahil/PROJECTS/Mol_Feturizer/New_Systems/rnas/4P95

>  <Rbt.Executable>
rbdock ($Id: //depot/dev/client3/rdock/2013.1/src/exe/rbdock.cxx#4 $)

>  <Rbt.Library>
libRbt.so (2013.1, Build901 2013/11/27)

>  <Rbt.Parameter_File>
/export/apps/rDock/src/rDock_2013.1_src/data/scripts/dock_solv.prm

>  <Rbt.Receptor>
prm/pocket_docking_5.prm

>  <SCORE>
-13.1006

>  <SCORE.INTER>
-12.8316

>  <SCORE.INTER.CONST>
1

>  <SCORE.INTER.POLAR>
0

>  <SCORE.INTER.ROT>
3

>  <SCORE.INTER.SOLV>
6.539

>  <SCORE.INTER.VDW>
-16.3341

>  <SCORE.INTER.norm>
-1.0693

>  <SCORE.INTRA>
-0.269021

>  <SCORE.INTRA.DIHEDRAL>
4.22126

>  <SCORE.INTRA.DIHEDRAL.0>
0.283163

>  <SCORE.INTRA.POLAR>
0

>  <SCORE.INTRA.POLAR.0>
0

>  <SCORE.INTRA.REPUL>
0

>  <SCORE.INTRA.REPUL.0>
0

>  <SCORE.INTRA.SOLV>
1.67295

>  <SCORE.INTRA.SOLV.lig_0>
-32.2894

>  <SCORE.INTRA.VDW>
-3.21612

>  <SCORE.INTRA.VDW.0>
2.0241

>  <SCORE.INTRA.norm>
-0.0224184

>  <SCORE.RESTR>
0

>  <SCORE.RESTR.CAVITY>
0

>  <SCORE.RESTR.norm>
0

>  <SCORE.SYSTEM>
0

>  <SCORE.SYSTEM.CONST>
0

>  <SCORE.SYSTEM.DIHEDRAL>
0

>  <SCORE.SYSTEM.SOLV>
0

>  <SCORE.SYSTEM.norm>
0

>  <SCORE.heavy>
12

>  <SCORE.norm>
-1.09172

>  <RMSD>
5.285

$$$$
ligand
 OpenBabel11021811513D
libRbt.so/2013.1/901 2013/11/27
 12 12  0  0  0  0  0  0  0  0999 V2000
    6.2004   -2.4097  -29.7705 O   0  0  0  0  0  0  0  0  0  0  0  0
    4.1384    4.3972  -31.2789 O   0  0  0  0  0  0  0  0  0  0  0  0
    4.9417   -2.1356  -29.2809 C   0  0  0  0  0  0  0  0  0  0  0  0
    2.5744    4.5711  -29.4161 O   0  0  0  0  0  0  0  0  0  0  0  0
    4.3182   -0.9464  -29.8873 C   0  0  0  0  0  0  0  0  0  0  0  0
    2.0795    3.0836  -31.2732 O   0  5  0  0  0  0  0  0  0  0  0  0
    5.2163    0.2158  -29.8576 N   0  3  0  0  0  0  0  0  0  0  0  0
    6.4972   -0.1318  -30.4170 C   0  0  0  0  0  0  0  0  0  0  0  0
    7.0633   -1.3499  -29.7640 C   0  0  0  0  0  0  0  0  0  0  0  0
    4.6208    1.3084  -30.5660 C   0  0  0  0  0  0  0  0  0  0  0  0
    4.0071    2.3089  -29.5539 C   0  0  0  0  0  0  0  0  0  0  0  0
    3.1665    3.6434  -30.4307 S   0  0  1  0  0  0  0  0  0  0  0  0
  1  3  1  0  0  0  0
  1  9  1  0  0  0  0
  2 12  1  0  0  0  0
  3  5  1  0  0  0  0
  4 12  2  0  0  0  0
  5  7  1  0  0  0  0
  6 12  2  0  0  0  0
  7  8  1  0  0  0  0
  7 10  1  0  0  0  0
  8  9  1  0  0  0  0
 10 11  1  0  0  0  0
 12 11  1  1  0  0  0
M  CHG  2   6  -1   7   1
M  END
>  <CHROM.1>
100.95153559,-176.65813314,-61.38893063,4.40506333,1.34289989,-30.16572990
1.07724182,-0.17719425,2.91987192

>  <Name>
ligand

>  <RI>
0

>  <Rbt.Current_Directory>
/home/itssahil/PROJECTS/Mol_Feturizer/New_Systems/rnas/4P95

>  <Rbt.Executable>
rbdock ($Id: //depot/dev/client3/rdock/2013.1/src/exe/rbdock.cxx#4 $)

>  <Rbt.Library>
libRbt.so (2013.1, Build901 2013/11/27)

>  <Rbt.Parameter_File>
/export/apps/rDock/src/rDock_2013.1_src/data/scripts/dock_solv.prm

>  <Rbt.Receptor>
prm/pocket_docking_5.prm

>  <SCORE>
-12.2766

>  <SCORE.INTER>
-10.4825

>  <SCORE.INTER.CONST>
1

>  <SCORE.INTER.POLAR>
0

>  <SCORE.INTER.ROT>
3

>  <SCORE.INTER.SOLV>
6.47674

>  <SCORE.INTER.VDW>
-14.7472

>  <SCORE.INTER.norm>
-0.87354

>  <SCORE.INTRA>
-1.79413

>  <SCORE.INTRA.DIHEDRAL>
1.66875

>  <SCORE.INTRA.DIHEDRAL.0>
0.283163

>  <SCORE.INTRA.POLAR>
0

>  <SCORE.INTRA.POLAR.0>
0

>  <SCORE.INTRA.REPUL>
0

>  <SCORE.INTRA.REPUL.0>
0

>  <SCORE.INTRA.SOLV>
-0.0342689

>  <SCORE.INTRA.SOLV.lig_0>
-32.2894

>  <SCORE.INTRA.VDW>
-2.61137

>  <SCORE.INTRA.VDW.0>
2.0241

>  <SCORE.INTRA.norm>
-0.149511

>  <SCORE.RESTR>
0

>  <SCORE.RESTR.CAVITY>
0

>  <SCORE.RESTR.norm>
0

>  <SCORE.SYSTEM>
0

>  <SCORE.SYSTEM.CONST>
0

>  <SCORE.SYSTEM.DIHEDRAL>
0

>  <SCORE.SYSTEM.SOLV>
0

>  <SCORE.SYSTEM.norm>
0

>  <SCORE.heavy>
12

>  <SCORE.norm>
-1.02305

>  <RMSD>
5.287

$$$$
ligand
 OpenBabel11021811513D
libRbt.so/2013.1/901 2013/11/27
 12 12  0  0  0  0  0  0  0  0999 V2000
    6.7305   -0.7824  -31.2834 O   0  0  0  0  0  0  0  0  0  0  0  0
    4.6540    2.8837  -29.3033 O   0  0  0  0  0  0  0  0  0  0  0  0
    6.5253   -0.8754  -29.9238 C   0  0  0  0  0  0  0  0  0  0  0  0
    2.8033    2.7298  -27.7228 O   0  0  0  0  0  0  0  0  0  0  0  0
    5.1056   -0.8110  -29.5350 C   0  0  0  0  0  0  0  0  0  0  0  0
    2.6755    4.2878  -29.5836 O   0  5  0  0  0  0  0  0  0  0  0  0
    4.4242    0.3382  -30.1457 N   0  3  0  0  0  0  0  0  0  0  0  0
    4.6500    0.3513  -31.5682 C   0  0  0  0  0  0  0  0  0  0  0  0
    6.1067    0.2724  -31.8883 C   0  0  0  0  0  0  0  0  0  0  0  0
    3.0254    0.2905  -29.8436 C   0  0  0  0  0  0  0  0  0  0  0  0
    2.3824    1.6673  -30.1484 C   0  0  0  0  0  0  0  0  0  0  0  0
    3.1687    2.9539  -29.1571 S   0  0  1  0  0  0  0  0  0  0  0  0
  1  3  1  0  0  0  0
  1  9  1  0  0  0  0
  2 12  1  0  0  0  0
  3  5  1  0  0  0  0
  4 12  2  0  0  0  0
  5  7  1  0  0  0  0
  6 12  2  0  0  0  0
  7  8  1  0  0  0  0
  7 10  1  0  0  0  0
  8  9  1  0  0  0  0
 10 11  1  0  0  0  0
 12 11  1  6  0  0  0
M  CHG  2   6  -1   7   1
M  END
>  <CHROM.1>
164.85432724,-59.53038254,51.01778776,4.23860830,1.32778149,-29.90778449
-0.53064673,0.80610623,-0.42624416

>  <Name>
ligand

>  <RI>
0

>  <Rbt.Current_Directory>
/home/itssahil/PROJECTS/Mol_Feturizer/New_Systems/rnas/4P95

>  <Rbt.Executable>
rbdock ($Id: //depot/dev/client3/rdock/2013.1/src/exe/rbdock.cxx#4 $)

>  <Rbt.Library>
libRbt.so (2013.1, Build901 2013/11/27)

>  <Rbt.Parameter_File>
/export/apps/rDock/src/rDock_2013.1_src/data/scripts/dock_solv.prm

>  <Rbt.Receptor>
prm/pocket_docking_3.prm

>  <SCORE>
-9.84606

>  <SCORE.INTER>
-7.32513

>  <SCORE.INTER.CONST>
1

>  <SCORE.INTER.POLAR>
0

>  <SCORE.INTER.ROT>
3

>  <SCORE.INTER.SOLV>
9.8428

>  <SCORE.INTER.VDW>
-13.7644

>  <SCORE.INTER.norm>
-0.610427

>  <SCORE.INTRA>
-2.52093

>  <SCORE.INTRA.DIHEDRAL>
0.196553

>  <SCORE.INTRA.DIHEDRAL.0>
0.283163

>  <SCORE.INTRA.POLAR>
0

>  <SCORE.INTRA.POLAR.0>
0

>  <SCORE.INTRA.REPUL>
0

>  <SCORE.INTRA.REPUL.0>
0

>  <SCORE.INTRA.SOLV>
-0.464795

>  <SCORE.INTRA.SOLV.lig_0>
-32.2894

>  <SCORE.INTRA.VDW>
-2.38681

>  <SCORE.INTRA.VDW.0>
2.0241

>  <SCORE.INTRA.norm>
-0.210078

>  <SCORE.RESTR>
0

>  <SCORE.RESTR.CAVITY>
0

>  <SCORE.RESTR.norm>
0

>  <SCORE.SYSTEM>
0

>  <SCORE.SYSTEM.CONST>
0

>  <SCORE.SYSTEM.DIHEDRAL>
0

>  <SCORE.SYSTEM.SOLV>
0

>  <SCORE.SYSTEM.norm>
0

>  <SCORE.heavy>
12

>  <SCORE.norm>
-0.820505

>  <RMSD>
5.317

$$$$
ligand
 OpenBabel11021811513D
libRbt.so/2013.1/901 2013/11/27
 12 12  0  0  0  0  0  0  0  0999 V2000
    1.2388    2.2863  -26.1547 O   0  0  0  0  0  0  0  0  0  0  0  0
    4.2840    5.0575  -32.1035 O   0  0  0  0  0  0  0  0  0  0  0  0
    0.3383    2.6462  -27.1338 C   0  0  0  0  0  0  0  0  0  0  0  0
    2.1815    5.8563  -33.0459 O   0  0  0  0  0  0  0  0  0  0  0  0
    0.9465    2.8031  -28.4666 C   0  0  0  0  0  0  0  0  0  0  0  0
    2.6297    3.4698  -32.9444 O   0  5  0  0  0  0  0  0  0  0  0  0
    2.1336    3.6674  -28.4265 N   0  3  0  0  0  0  0  0  0  0  0  0
    3.0458    3.2117  -27.4091 C   0  0  0  0  0  0  0  0  0  0  0  0
    2.3601    3.0649  -26.0903 C   0  0  0  0  0  0  0  0  0  0  0  0
    2.7619    3.6902  -29.7130 C   0  0  0  0  0  0  0  0  0  0  0  0
    2.0369    4.7118  -30.6254 C   0  0  0  0  0  0  0  0  0  0  0  0
    2.8257    4.7661  -32.2474 S   0  0  1  0  0  0  0  0  0  0  0  0
  1  3  1  0  0  0  0
  1  9  1  0  0  0  0
  2 12  1  0  0  0  0
  3  5  1  0  0  0  0
  4 12  2  0  0  0  0
  5  7  1  0  0  0  0
  6 12  2  0  0  0  0
  7  8  1  0  0  0  0
  7 10  1  0  0  0  0
  8  9  1  0  0  0  0
 10 11  1  0  0  0  0
 12 11  1  1  0  0  0
M  CHG  2   6  -1   7   1
M  END
>  <CHROM.1>
82.23512209,179.44831362,-55.09673661,2.30132445,3.87803229,-29.84469818
1.79576168,0.29025776,1.85764282

>  <Name>
ligand

>  <RI>
0

>  <Rbt.Current_Directory>
/home/itssahil/PROJECTS/Mol_Feturizer/New_Systems/rnas/4P95

>  <Rbt.Executable>
rbdock ($Id: //depot/dev/client3/rdock/2013.1/src/exe/rbdock.cxx#4 $)

>  <Rbt.Library>
libRbt.so (2013.1, Build901 2013/11/27)

>  <Rbt.Parameter_File>
/export/apps/rDock/src/rDock_2013.1_src/data/scripts/dock_solv.prm

>  <Rbt.Receptor>
prm/pocket_docking_6.prm

>  <SCORE>
-10.0855

>  <SCORE.INTER>
-8.16385

>  <SCORE.INTER.CONST>
1

>  <SCORE.INTER.POLAR>
0

>  <SCORE.INTER.ROT>
3

>  <SCORE.INTER.SOLV>
7.05593

>  <SCORE.INTER.VDW>
-13.3945

>  <SCORE.INTER.norm>
-0.680321

>  <SCORE.INTRA>
-1.92164

>  <SCORE.INTRA.DIHEDRAL>
0.586863

>  <SCORE.INTRA.DIHEDRAL.0>
0.283163

>  <SCORE.INTRA.POLAR>
0

>  <SCORE.INTRA.POLAR.0>
0

>  <SCORE.INTRA.REPUL>
0

>  <SCORE.INTRA.REPUL.0>
0

>  <SCORE.INTRA.SOLV>
-0.113636

>  <SCORE.INTRA.SOLV.lig_0>
-32.2894

>  <SCORE.INTRA.VDW>
-2.15825

>  <SCORE.INTRA.VDW.0>
2.0241

>  <SCORE.INTRA.norm>
-0.160136

>  <SCORE.RESTR>
0

>  <SCORE.RESTR.CAVITY>
0

>  <SCORE.RESTR.norm>
0

>  <SCORE.SYSTEM>
0

>  <SCORE.SYSTEM.CONST>
0

>  <SCORE.SYSTEM.DIHEDRAL>
0

>  <SCORE.SYSTEM.SOLV>
0

>  <SCORE.SYSTEM.norm>
0

>  <SCORE.heavy>
12

>  <SCORE.norm>
-0.840457

>  <RMSD>
5.335

$$$$
ligand
 OpenBabel11021811513D
libRbt.so/2013.1/901 2013/11/27
 12 12  0  0  0  0  0  0  0  0999 V2000
    5.4851   -1.5608  -30.4661 O   0  0  0  0  0  0  0  0  0  0  0  0
    2.4591    4.2439  -27.9647 O   0  0  0  0  0  0  0  0  0  0  0  0
    4.2307   -1.2157  -30.0113 C   0  0  0  0  0  0  0  0  0  0  0  0
    2.5450    1.8627  -28.4831 O   0  0  0  0  0  0  0  0  0  0  0  0
    3.7408    0.0668  -30.5463 C   0  0  0  0  0  0  0  0  0  0  0  0
    1.4058    3.3870  -29.9947 O   0  5  0  0  0  0  0  0  0  0  0  0
    4.7307    1.1398  -30.3835 N   0  3  0  0  0  0  0  0  0  0  0  0
    6.0045    0.7252  -30.9128 C   0  0  0  0  0  0  0  0  0  0  0  0
    6.4326   -0.5845  -30.3363 C   0  0  0  0  0  0  0  0  0  0  0  0
    4.2657    2.3317  -31.0265 C   0  0  0  0  0  0  0  0  0  0  0  0
    4.1014    3.4576  -29.9743 C   0  0  0  0  0  0  0  0  0  0  0  0
    2.5563    3.2407  -29.0677 S   0  0  1  0  0  0  0  0  0  0  0  0
  1  3  1  0  0  0  0
  1  9  1  0  0  0  0
  2 12  1  0  0  0  0
  3  5  1  0  0  0  0
  4 12  2  0  0  0  0
  5  7  1  0  0  0  0
  6 12  2  0  0  0  0
  7  8  1  0  0  0  0
  7 10  1  0  0  0  0
  8  9  1  0  0  0  0
 10 11  1  0  0  0  0
 12 11  1  6  0  0  0
M  CHG  2   6  -1   7   1
M  END
>  <CHROM.1>
118.35633644,-79.40128245,174.46545911,3.82112977,1.61588127,-29.82184816
0.85959809,-0.51175271,3.08845070

>  <Name>
ligand

>  <RI>
0

>  <Rbt.Current_Directory>
/home/itssahil/PROJECTS/Mol_Feturizer/New_Systems/rnas/4P95

>  <Rbt.Executable>
rbdock ($Id: //depot/dev/client3/rdock/2013.1/src/exe/rbdock.cxx#4 $)

>  <Rbt.Library>
libRbt.so (2013.1, Build901 2013/11/27)

>  <Rbt.Parameter_File>
/export/apps/rDock/src/rDock_2013.1_src/data/scripts/dock_solv.prm

>  <Rbt.Receptor>
prm/pocket_docking_3.prm

>  <SCORE>
-9.74518

>  <SCORE.INTER>
-9.21612

>  <SCORE.INTER.CONST>
1

>  <SCORE.INTER.POLAR>
0

>  <SCORE.INTER.ROT>
3

>  <SCORE.INTER.SOLV>
6.17539

>  <SCORE.INTER.VDW>
-13.8025

>  <SCORE.INTER.norm>
-0.76801

>  <SCORE.INTRA>
-0.533567

>  <SCORE.INTRA.DIHEDRAL>
3.47864

>  <SCORE.INTRA.DIHEDRAL.0>
0.283163

>  <SCORE.INTRA.POLAR>
0

>  <SCORE.INTRA.POLAR.0>
0

>  <SCORE.INTRA.REPUL>
0

>  <SCORE.INTRA.REPUL.0>
0

>  <SCORE.INTRA.SOLV>
1.90269

>  <SCORE.INTRA.SOLV.lig_0>
-32.2894

>  <SCORE.INTRA.VDW>
-3.22423

>  <SCORE.INTRA.VDW.0>
2.0241

>  <SCORE.INTRA.norm>
-0.0444639

>  <SCORE.RESTR>
0.0045033

>  <SCORE.RESTR.CAVITY>
0.0045033

>  <SCORE.RESTR.norm>
0.000375275

>  <SCORE.SYSTEM>
0

>  <SCORE.SYSTEM.CONST>
0

>  <SCORE.SYSTEM.DIHEDRAL>
0

>  <SCORE.SYSTEM.SOLV>
0

>  <SCORE.SYSTEM.norm>
0

>  <SCORE.heavy>
12

>  <SCORE.norm>
-0.812099

>  <RMSD>
5.360

$$$$
ligand
 OpenBabel11021811513D
libRbt.so/2013.1/901 2013/11/27
 12 12  0  0  0  0  0  0  0  0999 V2000
    5.4954   -1.5953  -30.4974 O   0  0  0  0  0  0  0  0  0  0  0  0
    2.7364    4.2475  -27.8931 O   0  0  0  0  0  0  0  0  0  0  0  0
    4.2248   -1.2540  -30.0871 C   0  0  0  0  0  0  0  0  0  0  0  0
    2.6078    1.9001  -28.5411 O   0  0  0  0  0  0  0  0  0  0  0  0
    3.7566    0.0351  -30.6256 C   0  0  0  0  0  0  0  0  0  0  0  0
    1.5270    3.5918  -29.9110 O   0  5  0  0  0  0  0  0  0  0  0  0
    4.7404    1.1050  -30.4126 N   0  3  0  0  0  0  0  0  0  0  0  0
    6.0333    0.6949  -30.8974 C   0  0  0  0  0  0  0  0  0  0  0  0
    6.4379   -0.6218  -30.3202 C   0  0  0  0  0  0  0  0  0  0  0  0
    4.3012    2.3047  -31.0592 C   0  0  0  0  0  0  0  0  0  0  0  0
    4.2178    3.4520  -30.0207 C   0  0  0  0  0  0  0  0  0  0  0  0
    2.7029    3.3042  -29.0513 S   0  0  1  0  0  0  0  0  0  0  0  0
  1  3  1  0  0  0  0
  1  9  1  0  0  0  0
  2 12  1  0  0  0  0
  3  5  1  0  0  0  0
  4 12  2  0  0  0  0
  5  7  1  0  0  0  0
  6 12  2  0  0  0  0
  7  8  1  0  0  0  0
  7 10  1  0  0  0  0
  8  9  1  0  0  0  0
 10 11  1  0  0  0  0
 12 11  1  6  0  0  0
M  CHG  2   6  -1   7   1
M  END
>  <CHROM.1>
123.30866728,-78.99423463,169.63535508,3.89902176,1.62896757,-29.83044705
0.91012792,-0.50466367,3.12863769

>  <Name>
ligand

>  <RI>
0

>  <Rbt.Current_Directory>
/home/itssahil/PROJECTS/Mol_Feturizer/New_Systems/rnas/4P95

>  <Rbt.Executable>
rbdock ($Id: //depot/dev/client3/rdock/2013.1/src/exe/rbdock.cxx#4 $)

>  <Rbt.Library>
libRbt.so (2013.1, Build901 2013/11/27)

>  <Rbt.Parameter_File>
/export/apps/rDock/src/rDock_2013.1_src/data/scripts/dock_solv.prm

>  <Rbt.Receptor>
prm/pocket_docking_3.prm

>  <SCORE>
-9.84059

>  <SCORE.INTER>
-9.24751

>  <SCORE.INTER.CONST>
1

>  <SCORE.INTER.POLAR>
0

>  <SCORE.INTER.ROT>
3

>  <SCORE.INTER.SOLV>
6.61028

>  <SCORE.INTER.VDW>
-13.9684

>  <SCORE.INTER.norm>
-0.770626

>  <SCORE.INTRA>
-0.594455

>  <SCORE.INTRA.DIHEDRAL>
3.56582

>  <SCORE.INTRA.DIHEDRAL.0>
0.283163

>  <SCORE.INTRA.POLAR>
0

>  <SCORE.INTRA.POLAR.0>
0

>  <SCORE.INTRA.REPUL>
0

>  <SCORE.INTRA.REPUL.0>
0

>  <SCORE.INTRA.SOLV>
1.67583

>  <SCORE.INTRA.SOLV.lig_0>
-32.2894

>  <SCORE.INTRA.VDW>
-3.21528

>  <SCORE.INTRA.VDW.0>
2.0241

>  <SCORE.INTRA.norm>
-0.0495379

>  <SCORE.RESTR>
0.00137526

>  <SCORE.RESTR.CAVITY>
0.00137526

>  <SCORE.RESTR.norm>
0.000114605

>  <SCORE.SYSTEM>
0

>  <SCORE.SYSTEM.CONST>
0

>  <SCORE.SYSTEM.DIHEDRAL>
0

>  <SCORE.SYSTEM.SOLV>
0

>  <SCORE.SYSTEM.norm>
0

>  <SCORE.heavy>
12

>  <SCORE.norm>
-0.82005

>  <RMSD>
5.365

$$$$
ligand
 OpenBabel11021811513D
libRbt.so/2013.1/901 2013/11/27
 12 12  0  0  0  0  0  0  0  0999 V2000
    6.3305   -2.1880  -29.9928 O   0  0  0  0  0  0  0  0  0  0  0  0
    2.3921    4.6225  -29.0872 O   0  0  0  0  0  0  0  0  0  0  0  0
    5.0954   -2.2171  -29.3822 C   0  0  0  0  0  0  0  0  0  0  0  0
    1.2871    2.7136  -30.1272 O   0  0  0  0  0  0  0  0  0  0  0  0
    4.1786   -1.1644  -29.8537 C   0  0  0  0  0  0  0  0  0  0  0  0
    2.8875    4.0244  -31.4026 O   0  5  0  0  0  0  0  0  0  0  0  0
    4.8086    0.1623  -29.8220 N   0  3  0  0  0  0  0  0  0  0  0  0
    6.0742    0.1278  -30.5088 C   0  0  0  0  0  0  0  0  0  0  0  0
    6.9458   -0.9677  -29.9882 C   0  0  0  0  0  0  0  0  0  0  0  0
    3.9297    1.1316  -30.4037 C   0  0  0  0  0  0  0  0  0  0  0  0
    3.8735    2.3886  -29.4989 C   0  0  0  0  0  0  0  0  0  0  0  0
    2.5612    3.4959  -30.0540 S   0  0  1  0  0  0  0  0  0  0  0  0
  1  3  1  0  0  0  0
  1  9  1  0  0  0  0
  2 12  1  0  0  0  0
  3  5  1  0  0  0  0
  4 12  2  0  0  0  0
  5  7  1  0  0  0  0
  6 12  2  0  0  0  0
  7  8  1  0  0  0  0
  7 10  1  0  0  0  0
  8  9  1  0  0  0  0
 10 11  1  0  0  0  0
 12 11  1  1  0  0  0
M  CHG  2   6  -1   7   1
M  END
>  <CHROM.1>
134.02186971,-170.07697152,172.98757380,4.00555941,1.29371107,-30.01997593
-0.96846772,0.20041346,-0.16840158

>  <Name>
ligand

>  <RI>
0

>  <Rbt.Current_Directory>
/home/itssahil/PROJECTS/Mol_Feturizer/New_Systems/rnas/4P95

>  <Rbt.Executable>
rbdock ($Id: //depot/dev/client3/rdock/2013.1/src/exe/rbdock.cxx#4 $)

>  <Rbt.Library>
libRbt.so (2013.1, Build901 2013/11/27)

>  <Rbt.Parameter_File>
/export/apps/rDock/src/rDock_2013.1_src/data/scripts/dock_solv.prm

>  <Rbt.Receptor>
prm/pocket_docking_4.prm

>  <SCORE>
-11.045

>  <SCORE.INTER>
-9.5883

>  <SCORE.INTER.CONST>
1

>  <SCORE.INTER.POLAR>
0

>  <SCORE.INTER.ROT>
3

>  <SCORE.INTER.SOLV>
6.408

>  <SCORE.INTER.VDW>
-14.1282

>  <SCORE.INTER.norm>
-0.799025

>  <SCORE.INTRA>
-1.45777

>  <SCORE.INTRA.DIHEDRAL>
2.22062

>  <SCORE.INTRA.DIHEDRAL.0>
0.283163

>  <SCORE.INTRA.POLAR>
0

>  <SCORE.INTRA.POLAR.0>
0

>  <SCORE.INTRA.REPUL>
0

>  <SCORE.INTRA.REPUL.0>
0

>  <SCORE.INTRA.SOLV>
0.104166

>  <SCORE.INTRA.SOLV.lig_0>
-32.2894

>  <SCORE.INTRA.VDW>
-2.62016

>  <SCORE.INTRA.VDW.0>
2.0241

>  <SCORE.INTRA.norm>
-0.121481

>  <SCORE.RESTR>
0.00110665

>  <SCORE.RESTR.CAVITY>
0.00110665

>  <SCORE.RESTR.norm>
9.22205e-05

>  <SCORE.SYSTEM>
0

>  <SCORE.SYSTEM.CONST>
0

>  <SCORE.SYSTEM.DIHEDRAL>
0

>  <SCORE.SYSTEM.SOLV>
0

>  <SCORE.SYSTEM.norm>
0

>  <SCORE.heavy>
12

>  <SCORE.norm>
-0.920413

>  <RMSD>
5.378

$$$$
ligand
 OpenBabel11021811513D
libRbt.so/2013.1/901 2013/11/27
 12 12  0  0  0  0  0  0  0  0999 V2000
    5.4776   -1.9912  -29.7316 O   0  0  0  0  0  0  0  0  0  0  0  0
    2.4816    4.6935  -29.1042 O   0  0  0  0  0  0  0  0  0  0  0  0
    4.2102   -1.5597  -29.4046 C   0  0  0  0  0  0  0  0  0  0  0  0
    3.3535    2.9459  -27.6439 O   0  0  0  0  0  0  0  0  0  0  0  0
    3.7887   -0.3545  -30.1399 C   0  0  0  0  0  0  0  0  0  0  0  0
    1.9424    2.3500  -29.5308 O   0  5  0  0  0  0  0  0  0  0  0  0
    4.7987    0.7098  -30.0681 N   0  3  0  0  0  0  0  0  0  0  0  0
    6.0877    0.1986  -30.4579 C   0  0  0  0  0  0  0  0  0  0  0  0
    6.4443   -1.0265  -29.6816 C   0  0  0  0  0  0  0  0  0  0  0  0
    4.4055    1.8097  -30.8962 C   0  0  0  0  0  0  0  0  0  0  0  0
    4.4675    3.1234  -30.0764 C   0  0  0  0  0  0  0  0  0  0  0  0
    2.9893    3.2891  -29.0547 S   0  0  1  0  0  0  0  0  0  0  0  0
  1  3  1  0  0  0  0
  1  9  1  0  0  0  0
  2 12  1  0  0  0  0
  3  5  1  0  0  0  0
  4 12  2  0  0  0  0
  5  7  1  0  0  0  0
  6 12  2  0  0  0  0
  7  8  1  0  0  0  0
  7 10  1  0  0  0  0
  8  9  1  0  0  0  0
 10 11  1  0  0  0  0
 12 11  1  6  0  0  0
M  CHG  2   6  -1   7   1
M  END
>  <CHROM.1>
128.68272336,-80.43098080,-137.21487668,4.05491488,1.41119881,-29.56766662
1.00368350,-0.49466589,3.03044228

>  <Name>
ligand

>  <RI>
0

>  <Rbt.Current_Directory>
/home/itssahil/PROJECTS/Mol_Feturizer/New_Systems/rnas/4P95

>  <Rbt.Executable>
rbdock ($Id: //depot/dev/client3/rdock/2013.1/src/exe/rbdock.cxx#4 $)

>  <Rbt.Library>
libRbt.so (2013.1, Build901 2013/11/27)

>  <Rbt.Parameter_File>
/export/apps/rDock/src/rDock_2013.1_src/data/scripts/dock_solv.prm

>  <Rbt.Receptor>
prm/pocket_docking_7.prm

>  <SCORE>
-11.2294

>  <SCORE.INTER>
-13.0436

>  <SCORE.INTER.CONST>
1

>  <SCORE.INTER.POLAR>
0

>  <SCORE.INTER.ROT>
3

>  <SCORE.INTER.SOLV>
7.46483

>  <SCORE.INTER.VDW>
-16.784

>  <SCORE.INTER.norm>
-1.08697

>  <SCORE.INTRA>
1.81415

>  <SCORE.INTRA.DIHEDRAL>
6.36123

>  <SCORE.INTRA.DIHEDRAL.0>
0.283163

>  <SCORE.INTRA.POLAR>
0

>  <SCORE.INTRA.POLAR.0>
0

>  <SCORE.INTRA.REPUL>
0

>  <SCORE.INTRA.REPUL.0>
0

>  <SCORE.INTRA.SOLV>
3.22902

>  <SCORE.INTRA.SOLV.lig_0>
-32.2894

>  <SCORE.INTRA.VDW>
-2.98098

>  <SCORE.INTRA.VDW.0>
2.0241

>  <SCORE.INTRA.norm>
0.151179

>  <SCORE.RESTR>
0

>  <SCORE.RESTR.CAVITY>
0

>  <SCORE.RESTR.norm>
0

>  <SCORE.SYSTEM>
0

>  <SCORE.SYSTEM.CONST>
0

>  <SCORE.SYSTEM.DIHEDRAL>
0

>  <SCORE.SYSTEM.SOLV>
0

>  <SCORE.SYSTEM.norm>
0

>  <SCORE.heavy>
12

>  <SCORE.norm>
-0.935787

>  <RMSD>
5.388

$$$$
ligand
 OpenBabel11021811513D
libRbt.so/2013.1/901 2013/11/27
 12 12  0  0  0  0  0  0  0  0999 V2000
    5.6670   -1.9619  -29.8879 O   0  0  0  0  0  0  0  0  0  0  0  0
    2.4138    4.6322  -29.1154 O   0  0  0  0  0  0  0  0  0  0  0  0
    4.4150   -1.5825  -29.4544 C   0  0  0  0  0  0  0  0  0  0  0  0
    3.4458    3.0527  -27.5705 O   0  0  0  0  0  0  0  0  0  0  0  0
    3.8951   -0.3808  -30.1303 C   0  0  0  0  0  0  0  0  0  0  0  0
    2.0098    2.2353  -29.3526 O   0  5  0  0  0  0  0  0  0  0  0  0
    4.8700    0.7180  -30.1160 N   0  3  0  0  0  0  0  0  0  0  0  0
    6.1413    0.2608  -30.6154 C   0  0  0  0  0  0  0  0  0  0  0  0
    6.6004   -0.9638  -29.8940 C   0  0  0  0  0  0  0  0  0  0  0  0
    4.3747    1.8171  -30.8887 C   0  0  0  0  0  0  0  0  0  0  0  0
    4.4599    3.1186  -30.0517 C   0  0  0  0  0  0  0  0  0  0  0  0
    3.0111    3.2687  -28.9865 S   0  0  1  0  0  0  0  0  0  0  0  0
  1  3  1  0  0  0  0
  1  9  1  0  0  0  0
  2 12  1  0  0  0  0
  3  5  1  0  0  0  0
  4 12  2  0  0  0  0
  5  7  1  0  0  0  0
  6 12  2  0  0  0  0
  7  8  1  0  0  0  0
  7 10  1  0  0  0  0
  8  9  1  0  0  0  0
 10 11  1  0  0  0  0
 12 11  1  6  0  0  0
M  CHG  2   6  -1   7   1
M  END
>  <CHROM.1>
128.87973020,-84.02036078,-131.07089393,4.12166998,1.41081189,-29.58020555
0.95908979,-0.54052235,3.02318663

>  <Name>
ligand

>  <RI>
0

>  <Rbt.Current_Directory>
/home/itssahil/PROJECTS/Mol_Feturizer/New_Systems/rnas/4P95

>  <Rbt.Executable>
rbdock ($Id: //depot/dev/client3/rdock/2013.1/src/exe/rbdock.cxx#4 $)

>  <Rbt.Library>
libRbt.so (2013.1, Build901 2013/11/27)

>  <Rbt.Parameter_File>
/export/apps/rDock/src/rDock_2013.1_src/data/scripts/dock_solv.prm

>  <Rbt.Receptor>
prm/pocket_docking_4.prm

>  <SCORE>
-10.8234

>  <SCORE.INTER>
-13.1459

>  <SCORE.INTER.CONST>
1

>  <SCORE.INTER.POLAR>
0

>  <SCORE.INTER.ROT>
3

>  <SCORE.INTER.SOLV>
7.74693

>  <SCORE.INTER.VDW>
-16.9463

>  <SCORE.INTER.norm>
-1.09549

>  <SCORE.INTRA>
2.31473

>  <SCORE.INTRA.DIHEDRAL>
7.20397

>  <SCORE.INTRA.DIHEDRAL.0>
0.283163

>  <SCORE.INTRA.POLAR>
0

>  <SCORE.INTRA.POLAR.0>
0

>  <SCORE.INTRA.REPUL>
0

>  <SCORE.INTRA.REPUL.0>
0

>  <SCORE.INTRA.SOLV>
3.20912

>  <SCORE.INTRA.SOLV.lig_0>
-32.2894

>  <SCORE.INTRA.VDW>
-2.89181

>  <SCORE.INTRA.VDW.0>
2.0241

>  <SCORE.INTRA.norm>
0.192894

>  <SCORE.RESTR>
0.00774245

>  <SCORE.RESTR.CAVITY>
0.00774245

>  <SCORE.RESTR.norm>
0.000645204

>  <SCORE.SYSTEM>
0

>  <SCORE.SYSTEM.CONST>
0

>  <SCORE.SYSTEM.DIHEDRAL>
0

>  <SCORE.SYSTEM.SOLV>
0

>  <SCORE.SYSTEM.norm>
0

>  <SCORE.heavy>
12

>  <SCORE.norm>
-0.901954

>  <RMSD>
5.424

$$$$
ligand
 OpenBabel11021811513D
libRbt.so/2013.1/901 2013/11/27
 12 12  0  0  0  0  0  0  0  0999 V2000
    1.1702    2.2547  -26.6782 O   0  0  0  0  0  0  0  0  0  0  0  0
    4.4535    5.3702  -32.1469 O   0  0  0  0  0  0  0  0  0  0  0  0
    0.2451    2.3785  -27.6921 C   0  0  0  0  0  0  0  0  0  0  0  0
    2.5900    6.6175  -33.1050 O   0  0  0  0  0  0  0  0  0  0  0  0
    0.8485    2.5920  -29.0192 C   0  0  0  0  0  0  0  0  0  0  0  0
    2.7500    4.2194  -33.4655 O   0  5  0  0  0  0  0  0  0  0  0  0
    1.8361    3.6794  -29.0011 N   0  3  0  0  0  0  0  0  0  0  0  0
    2.7907    3.4661  -27.9438 C   0  0  0  0  0  0  0  0  0  0  0  0
    2.1098    3.2461  -26.6327 C   0  0  0  0  0  0  0  0  0  0  0  0
    2.4847    3.7681  -30.2746 C   0  0  0  0  0  0  0  0  0  0  0  0
    2.0135    5.0495  -31.0077 C   0  0  0  0  0  0  0  0  0  0  0  0
    3.0014    5.3142  -32.4944 S   0  0  1  0  0  0  0  0  0  0  0  0
  1  3  1  0  0  0  0
  1  9  1  0  0  0  0
  2 12  1  0  0  0  0
  3  5  1  0  0  0  0
  4 12  2  0  0  0  0
  5  7  1  0  0  0  0
  6 12  2  0  0  0  0
  7  8  1  0  0  0  0
  7 10  1  0  0  0  0
  8  9  1  0  0  0  0
 10 11  1  0  0  0  0
 12 11  1  1  0  0  0
M  CHG  2   6  -1   7   1
M  END
>  <CHROM.1>
108.98267733,171.32039170,-55.90451694,2.28872536,4.14384996,-30.24759492
-1.89819742,-0.53027556,-1.27150921

>  <Name>
ligand

>  <RI>
0

>  <Rbt.Current_Directory>
/home/itssahil/PROJECTS/Mol_Feturizer/New_Systems/rnas/4P95

>  <Rbt.Executable>
rbdock ($Id: //depot/dev/client3/rdock/2013.1/src/exe/rbdock.cxx#4 $)

>  <Rbt.Library>
libRbt.so (2013.1, Build901 2013/11/27)

>  <Rbt.Parameter_File>
/export/apps/rDock/src/rDock_2013.1_src/data/scripts/dock_solv.prm

>  <Rbt.Receptor>
prm/pocket_docking_7.prm

>  <SCORE>
-9.55476

>  <SCORE.INTER>
-7.95321

>  <SCORE.INTER.CONST>
1

>  <SCORE.INTER.POLAR>
0

>  <SCORE.INTER.ROT>
3

>  <SCORE.INTER.SOLV>
6.67576

>  <SCORE.INTER.VDW>
-13.1274

>  <SCORE.INTER.norm>
-0.662768

>  <SCORE.INTRA>
-1.60155

>  <SCORE.INTRA.DIHEDRAL>
2.29461

>  <SCORE.INTRA.DIHEDRAL.0>
0.283163

>  <SCORE.INTRA.POLAR>
0

>  <SCORE.INTRA.POLAR.0>
0

>  <SCORE.INTRA.REPUL>
0

>  <SCORE.INTRA.REPUL.0>
0

>  <SCORE.INTRA.SOLV>
-0.111478

>  <SCORE.INTRA.SOLV.lig_0>
-32.2894

>  <SCORE.INTRA.VDW>
-2.69312

>  <SCORE.INTRA.VDW.0>
2.0241

>  <SCORE.INTRA.norm>
-0.133462

>  <SCORE.RESTR>
0

>  <SCORE.RESTR.CAVITY>
0

>  <SCORE.RESTR.norm>
0

>  <SCORE.SYSTEM>
0

>  <SCORE.SYSTEM.CONST>
0

>  <SCORE.SYSTEM.DIHEDRAL>
0

>  <SCORE.SYSTEM.SOLV>
0

>  <SCORE.SYSTEM.norm>
0

>  <SCORE.heavy>
12

>  <SCORE.norm>
-0.79623

>  <RMSD>
5.432

$$$$
ligand
 OpenBabel11021811513D
libRbt.so/2013.1/901 2013/11/27
 12 12  0  0  0  0  0  0  0  0999 V2000
    5.1883   -2.9276  -33.3571 O   0  0  0  0  0  0  0  0  0  0  0  0
    4.9982    3.5226  -29.9865 O   0  0  0  0  0  0  0  0  0  0  0  0
    4.1524   -2.7734  -32.4614 C   0  0  0  0  0  0  0  0  0  0  0  0
    3.2941    2.7954  -28.4010 O   0  0  0  0  0  0  0  0  0  0  0  0
    3.8835   -1.3692  -32.1054 C   0  0  0  0  0  0  0  0  0  0  0  0
    2.7307    3.0364  -30.7527 O   0  5  0  0  0  0  0  0  0  0  0  0
    5.1076   -0.6647  -31.7013 N   0  3  0  0  0  0  0  0  0  0  0  0
    6.1324   -0.8372  -32.6986 C   0  0  0  0  0  0  0  0  0  0  0  0
    6.3433   -2.2810  -33.0174 C   0  0  0  0  0  0  0  0  0  0  0  0
    4.8218    0.7219  -31.4864 C   0  0  0  0  0  0  0  0  0  0  0  0
    4.2482    0.9175  -30.0601 C   0  0  0  0  0  0  0  0  0  0  0  0
    3.8019    2.6467  -29.8013 S   0  0  1  0  0  0  0  0  0  0  0  0
  1  3  1  0  0  0  0
  1  9  1  0  0  0  0
  2 12  1  0  0  0  0
  3  5  1  0  0  0  0
  4 12  2  0  0  0  0
  5  7  1  0  0  0  0
  6 12  2  0  0  0  0
  7  8  1  0  0  0  0
  7 10  1  0  0  0  0
  8  9  1  0  0  0  0
 10 11  1  0  0  0  0
 12 11  1  6  0  0  0
M  CHG  2   6  -1   7   1
M  END
>  <CHROM.1>
82.99503071,-177.07558329,-58.84566299,4.46768058,0.51239740,-31.14990795
1.30724534,-0.35191860,-2.68018604

>  <Name>
ligand

>  <RI>
0

>  <Rbt.Current_Directory>
/home/itssahil/PROJECTS/Mol_Feturizer/New_Systems/rnas/4P95

>  <Rbt.Executable>
rbdock ($Id: //depot/dev/client3/rdock/2013.1/src/exe/rbdock.cxx#4 $)

>  <Rbt.Library>
libRbt.so (2013.1, Build901 2013/11/27)

>  <Rbt.Parameter_File>
/export/apps/rDock/src/rDock_2013.1_src/data/scripts/dock_solv.prm

>  <Rbt.Receptor>
prm/pocket_docking_2.prm

>  <SCORE>
-4.41117

>  <SCORE.INTER>
-2.49451

>  <SCORE.INTER.CONST>
1

>  <SCORE.INTER.POLAR>
0

>  <SCORE.INTER.ROT>
3

>  <SCORE.INTER.SOLV>
2.38538

>  <SCORE.INTER.VDW>
-8.05813

>  <SCORE.INTER.norm>
-0.207876

>  <SCORE.INTRA>
-1.91666

>  <SCORE.INTRA.DIHEDRAL>
0.594947

>  <SCORE.INTRA.DIHEDRAL.0>
0.283163

>  <SCORE.INTRA.POLAR>
0

>  <SCORE.INTRA.POLAR.0>
0

>  <SCORE.INTRA.REPUL>
0

>  <SCORE.INTRA.REPUL.0>
0

>  <SCORE.INTRA.SOLV>
-0.0329151

>  <SCORE.INTRA.SOLV.lig_0>
-32.2894

>  <SCORE.INTRA.VDW>
-2.19767

>  <SCORE.INTRA.VDW.0>
2.0241

>  <SCORE.INTRA.norm>
-0.159721

>  <SCORE.RESTR>
0

>  <SCORE.RESTR.CAVITY>
0

>  <SCORE.RESTR.norm>
0

>  <SCORE.SYSTEM>
0

>  <SCORE.SYSTEM.CONST>
0

>  <SCORE.SYSTEM.DIHEDRAL>
0

>  <SCORE.SYSTEM.SOLV>
0

>  <SCORE.SYSTEM.norm>
0

>  <SCORE.heavy>
12

>  <SCORE.norm>
-0.367597

>  <RMSD>
5.433

$$$$
ligand
 OpenBabel11021811513D
libRbt.so/2013.1/901 2013/11/27
 12 12  0  0  0  0  0  0  0  0999 V2000
    4.7749   -1.8488  -30.8886 O   0  0  0  0  0  0  0  0  0  0  0  0
    1.9192    4.3412  -29.7067 O   0  0  0  0  0  0  0  0  0  0  0  0
    3.4989   -1.3656  -31.0827 C   0  0  0  0  0  0  0  0  0  0  0  0
    2.9687    3.8302  -27.5657 O   0  0  0  0  0  0  0  0  0  0  0  0
    3.4567    0.0627  -31.4420 C   0  0  0  0  0  0  0  0  0  0  0  0
    2.0856    2.0292  -28.9378 O   0  5  0  0  0  0  0  0  0  0  0  0
    4.2512    0.8818  -30.5169 N   0  3  0  0  0  0  0  0  0  0  0  0
    5.5805    0.3417  -30.3913 C   0  0  0  0  0  0  0  0  0  0  0  0
    5.5468   -1.1090  -30.0375 C   0  0  0  0  0  0  0  0  0  0  0  0
    4.2842    2.2382  -30.9746 C   0  0  0  0  0  0  0  0  0  0  0  0
    4.3756    3.1934  -29.7577 C   0  0  0  0  0  0  0  0  0  0  0  0
    2.7605    3.3514  -28.9686 S   0  0  1  0  0  0  0  0  0  0  0  0
  1  3  1  0  0  0  0
  1  9  1  0  0  0  0
  2 12  1  0  0  0  0
  3  5  1  0  0  0  0
  4 12  2  0  0  0  0
  5  7  1  0  0  0  0
  6 12  2  0  0  0  0
  7  8  1  0  0  0  0
  7 10  1  0  0  0  0
  8  9  1  0  0  0  0
 10 11  1  0  0  0  0
 12 11  1  6  0  0  0
M  CHG  2   6  -1   7   1
M  END
>  <CHROM.1>
148.59169964,-77.42244663,-81.38456922,3.66136513,1.54753037,-29.89423810
1.18848050,0.08512174,-2.71344768

>  <Name>
ligand

>  <RI>
0

>  <Rbt.Current_Directory>
/home/itssahil/PROJECTS/Mol_Feturizer/New_Systems/rnas/4P95

>  <Rbt.Executable>
rbdock ($Id: //depot/dev/client3/rdock/2013.1/src/exe/rbdock.cxx#4 $)

>  <Rbt.Library>
libRbt.so (2013.1, Build901 2013/11/27)

>  <Rbt.Parameter_File>
/export/apps/rDock/src/rDock_2013.1_src/data/scripts/dock_solv.prm

>  <Rbt.Receptor>
prm/pocket_docking_3.prm

>  <SCORE>
-7.53904

>  <SCORE.INTER>
-7.95982

>  <SCORE.INTER.CONST>
1

>  <SCORE.INTER.POLAR>
0

>  <SCORE.INTER.ROT>
3

>  <SCORE.INTER.SOLV>
6.97232

>  <SCORE.INTER.VDW>
-13.2307

>  <SCORE.INTER.norm>
-0.663318

>  <SCORE.INTRA>
0.419195

>  <SCORE.INTRA.DIHEDRAL>
2.96393

>  <SCORE.INTRA.DIHEDRAL.0>
0.283163

>  <SCORE.INTRA.POLAR>
0

>  <SCORE.INTRA.POLAR.0>
0

>  <SCORE.INTRA.REPUL>
0

>  <SCORE.INTRA.REPUL.0>
0

>  <SCORE.INTRA.SOLV>
3.71586

>  <SCORE.INTRA.SOLV.lig_0>
-32.2894

>  <SCORE.INTRA.VDW>
-2.9207

>  <SCORE.INTRA.VDW.0>
2.0241

>  <SCORE.INTRA.norm>
0.0349329

>  <SCORE.RESTR>
0.00158323

>  <SCORE.RESTR.CAVITY>
0.00158323

>  <SCORE.RESTR.norm>
0.000131936

>  <SCORE.SYSTEM>
0

>  <SCORE.SYSTEM.CONST>
0

>  <SCORE.SYSTEM.DIHEDRAL>
0

>  <SCORE.SYSTEM.SOLV>
0

>  <SCORE.SYSTEM.norm>
0

>  <SCORE.heavy>
12

>  <SCORE.norm>
-0.628254

>  <RMSD>
5.440

$$$$
ligand
 OpenBabel11021811513D
libRbt.so/2013.1/901 2013/11/27
 12 12  0  0  0  0  0  0  0  0999 V2000
    6.8497   -2.8166  -30.1473 O   0  0  0  0  0  0  0  0  0  0  0  0
    4.6401    3.9727  -30.4815 O   0  0  0  0  0  0  0  0  0  0  0  0
    7.1820   -2.1074  -31.2812 C   0  0  0  0  0  0  0  0  0  0  0  0
    3.6946    3.0097  -28.4504 O   0  0  0  0  0  0  0  0  0  0  0  0
    6.9180   -0.6619  -31.1722 C   0  0  0  0  0  0  0  0  0  0  0  0
    2.2468    3.5077  -30.3379 O   0  5  0  0  0  0  0  0  0  0  0  0
    5.5541   -0.3905  -30.6988 N   0  3  0  0  0  0  0  0  0  0  0  0
    5.2894   -1.1335  -29.4936 C   0  0  0  0  0  0  0  0  0  0  0  0
    5.5889   -2.5857  -29.6733 C   0  0  0  0  0  0  0  0  0  0  0  0
    5.3835    1.0156  -30.4885 C   0  0  0  0  0  0  0  0  0  0  0  0
    3.8772    1.3718  -30.5654 C   0  0  0  0  0  0  0  0  0  0  0  0
    3.6010    3.0433  -29.9440 S   0  0  1  0  0  0  0  0  0  0  0  0
  1  3  1  0  0  0  0
  1  9  1  0  0  0  0
  2 12  1  0  0  0  0
  3  5  1  0  0  0  0
  4 12  2  0  0  0  0
  5  7  1  0  0  0  0
  6 12  2  0  0  0  0
  7  8  1  0  0  0  0
  7 10  1  0  0  0  0
  8  9  1  0  0  0  0
 10 11  1  0  0  0  0
 12 11  1  6  0  0  0
M  CHG  2   6  -1   7   1
M  END
>  <CHROM.1>
156.89757125,167.32191932,43.93319551,4.90355181,0.81010912,-30.18626380
0.88784284,-0.68273549,2.76533242

>  <Name>
ligand

>  <RI>
0

>  <Rbt.Current_Directory>
/home/itssahil/PROJECTS/Mol_Feturizer/New_Systems/rnas/4P95

>  <Rbt.Executable>
rbdock ($Id: //depot/dev/client3/rdock/2013.1/src/exe/rbdock.cxx#4 $)

>  <Rbt.Library>
libRbt.so (2013.1, Build901 2013/11/27)

>  <Rbt.Parameter_File>
/export/apps/rDock/src/rDock_2013.1_src/data/scripts/dock_solv.prm

>  <Rbt.Receptor>
prm/pocket_docking_7.prm

>  <SCORE>
-9.92684

>  <SCORE.INTER>
-8.26382

>  <SCORE.INTER.CONST>
1

>  <SCORE.INTER.POLAR>
0

>  <SCORE.INTER.ROT>
3

>  <SCORE.INTER.SOLV>
6.27816

>  <SCORE.INTER.VDW>
-13.2019

>  <SCORE.INTER.norm>
-0.688652

>  <SCORE.INTRA>
-1.66302

>  <SCORE.INTRA.DIHEDRAL>
1.5682

>  <SCORE.INTRA.DIHEDRAL.0>
0.283163

>  <SCORE.INTRA.POLAR>
0

>  <SCORE.INTRA.POLAR.0>
0

>  <SCORE.INTRA.REPUL>
0

>  <SCORE.INTRA.REPUL.0>
0

>  <SCORE.INTRA.SOLV>
-0.723013

>  <SCORE.INTRA.SOLV.lig_0>
-32.2894

>  <SCORE.INTRA.VDW>
-2.08561

>  <SCORE.INTRA.VDW.0>
2.0241

>  <SCORE.INTRA.norm>
-0.138585

>  <SCORE.RESTR>
0

>  <SCORE.RESTR.CAVITY>
0

>  <SCORE.RESTR.norm>
0

>  <SCORE.SYSTEM>
0

>  <SCORE.SYSTEM.CONST>
0

>  <SCORE.SYSTEM.DIHEDRAL>
0

>  <SCORE.SYSTEM.SOLV>
0

>  <SCORE.SYSTEM.norm>
0

>  <SCORE.heavy>
12

>  <SCORE.norm>
-0.827237

>  <RMSD>
5.460

$$$$
ligand
 OpenBabel11021811513D
libRbt.so/2013.1/901 2013/11/27
 12 12  0  0  0  0  0  0  0  0999 V2000
    6.6948   -2.0514  -29.8438 O   0  0  0  0  0  0  0  0  0  0  0  0
    4.2385    2.7809  -28.6318 O   0  0  0  0  0  0  0  0  0  0  0  0
    5.4855   -2.2249  -29.2059 C   0  0  0  0  0  0  0  0  0  0  0  0
    2.0733    2.4980  -27.5463 O   0  0  0  0  0  0  0  0  0  0  0  0
    4.3874   -1.4415  -29.7987 C   0  0  0  0  0  0  0  0  0  0  0  0
    2.2081    3.6221  -29.6969 O   0  5  0  0  0  0  0  0  0  0  0  0
    4.7545   -0.0293  -29.9687 N   0  3  0  0  0  0  0  0  0  0  0  0
    6.0060    0.0774  -30.6738 C   0  0  0  0  0  0  0  0  0  0  0  0
    7.0676   -0.7492  -30.0253 C   0  0  0  0  0  0  0  0  0  0  0  0
    3.7098    0.6646  -30.6596 C   0  0  0  0  0  0  0  0  0  0  0  0
    2.5404    0.9460  -29.6823 C   0  0  0  0  0  0  0  0  0  0  0  0
    2.7830    2.5358  -28.8638 S   0  0  1  0  0  0  0  0  0  0  0  0
  1  3  1  0  0  0  0
  1  9  1  0  0  0  0
  2 12  1  0  0  0  0
  3  5  1  0  0  0  0
  4 12  2  0  0  0  0
  5  7  1  0  0  0  0
  6 12  2  0  0  0  0
  7  8  1  0  0  0  0
  7 10  1  0  0  0  0
  8  9  1  0  0  0  0
 10 11  1  0  0  0  0
 12 11  1  6  0  0  0
M  CHG  2   6  -1   7   1
M  END
>  <CHROM.1>
76.93321221,89.66309100,-34.42304132,4.16414172,0.78371661,-29.46081405,0.82910182
-0.37619641,3.07201783

>  <Name>
ligand

>  <RI>
0

>  <Rbt.Current_Directory>
/home/itssahil/PROJECTS/Mol_Feturizer/New_Systems/rnas/4P95

>  <Rbt.Executable>
rbdock ($Id: //depot/dev/client3/rdock/2013.1/src/exe/rbdock.cxx#4 $)

>  <Rbt.Library>
libRbt.so (2013.1, Build901 2013/11/27)

>  <Rbt.Parameter_File>
/export/apps/rDock/src/rDock_2013.1_src/data/scripts/dock_solv.prm

>  <Rbt.Receptor>
prm/pocket_docking_6.prm

>  <SCORE>
-10.6567

>  <SCORE.INTER>
-10.5331

>  <SCORE.INTER.CONST>
1

>  <SCORE.INTER.POLAR>
0

>  <SCORE.INTER.ROT>
3

>  <SCORE.INTER.SOLV>
8.59786

>  <SCORE.INTER.VDW>
-15.488

>  <SCORE.INTER.norm>
-0.877761

>  <SCORE.INTRA>
-0.12355

>  <SCORE.INTRA.DIHEDRAL>
4.37695

>  <SCORE.INTRA.DIHEDRAL.0>
0.283163

>  <SCORE.INTRA.POLAR>
0

>  <SCORE.INTRA.POLAR.0>
0

>  <SCORE.INTRA.REPUL>
0

>  <SCORE.INTRA.REPUL.0>
0

>  <SCORE.INTRA.SOLV>
-0.201332

>  <SCORE.INTRA.SOLV.lig_0>
-32.2894

>  <SCORE.INTRA.VDW>
-2.21136

>  <SCORE.INTRA.VDW.0>
2.0241

>  <SCORE.INTRA.norm>
-0.0102959

>  <SCORE.RESTR>
0

>  <SCORE.RESTR.CAVITY>
0

>  <SCORE.RESTR.norm>
0

>  <SCORE.SYSTEM>
0

>  <SCORE.SYSTEM.CONST>
0

>  <SCORE.SYSTEM.DIHEDRAL>
0

>  <SCORE.SYSTEM.SOLV>
0

>  <SCORE.SYSTEM.norm>
0

>  <SCORE.heavy>
12

>  <SCORE.norm>
-0.888057

>  <RMSD>
5.472

$$$$
ligand
 OpenBabel11021811513D
libRbt.so/2013.1/901 2013/11/27
 12 12  0  0  0  0  0  0  0  0999 V2000
    5.7043   -3.6221  -31.4565 O   0  0  0  0  0  0  0  0  0  0  0  0
    4.7588    4.1592  -30.5148 O   0  0  0  0  0  0  0  0  0  0  0  0
    6.2365   -3.1941  -30.2595 C   0  0  0  0  0  0  0  0  0  0  0  0
    4.1201    2.7872  -28.6028 O   0  0  0  0  0  0  0  0  0  0  0  0
    5.5588   -2.0108  -29.7014 C   0  0  0  0  0  0  0  0  0  0  0  0
    2.7972    2.7098  -30.6400 O   0  5  0  0  0  0  0  0  0  0  0  0
    5.4305   -0.9363  -30.6948 N   0  3  0  0  0  0  0  0  0  0  0  0
    4.8344   -1.4453  -31.9032 C   0  0  0  0  0  0  0  0  0  0  0  0
    5.5643   -2.6480  -32.4047 C   0  0  0  0  0  0  0  0  0  0  0  0
    4.6588    0.1398  -30.1499 C   0  0  0  0  0  0  0  0  0  0  0  0
    5.2013    1.4892  -30.6850 C   0  0  0  0  0  0  0  0  0  0  0  0
    4.1721    2.8500  -30.0975 S   0  0  1  0  0  0  0  0  0  0  0  0
  1  3  1  0  0  0  0
  1  9  1  0  0  0  0
  2 12  1  0  0  0  0
  3  5  1  0  0  0  0
  4 12  2  0  0  0  0
  5  7  1  0  0  0  0
  6 12  2  0  0  0  0
  7  8  1  0  0  0  0
  7 10  1  0  0  0  0
  8  9  1  0  0  0  0
 10 11  1  0  0  0  0
 12 11  1  6  0  0  0
M  CHG  2   6  -1   7   1
M  END
>  <CHROM.1>
145.02401590,176.19787226,175.19379286,4.82693946,0.34611729,-30.53481139
0.75711325,1.21216280,-2.17133027

>  <Name>
ligand

>  <RI>
0

>  <Rbt.Current_Directory>
/home/itssahil/PROJECTS/Mol_Feturizer/New_Systems/rnas/4P95

>  <Rbt.Executable>
rbdock ($Id: //depot/dev/client3/rdock/2013.1/src/exe/rbdock.cxx#4 $)

>  <Rbt.Library>
libRbt.so (2013.1, Build901 2013/11/27)

>  <Rbt.Parameter_File>
/export/apps/rDock/src/rDock_2013.1_src/data/scripts/dock_solv.prm

>  <Rbt.Receptor>
prm/pocket_docking_6.prm

>  <SCORE>
-8.82862

>  <SCORE.INTER>
-7.05129

>  <SCORE.INTER.CONST>
1

>  <SCORE.INTER.POLAR>
0

>  <SCORE.INTER.ROT>
3

>  <SCORE.INTER.SOLV>
4.76898

>  <SCORE.INTER.VDW>
-11.8905

>  <SCORE.INTER.norm>
-0.587608

>  <SCORE.INTRA>
-1.77733

>  <SCORE.INTRA.DIHEDRAL>
1.25432

>  <SCORE.INTRA.DIHEDRAL.0>
0.283163

>  <SCORE.INTRA.POLAR>
0

>  <SCORE.INTRA.POLAR.0>
0

>  <SCORE.INTRA.REPUL>
0

>  <SCORE.INTRA.REPUL.0>
0

>  <SCORE.INTRA.SOLV>
0.130107

>  <SCORE.INTRA.SOLV.lig_0>
-32.2894

>  <SCORE.INTRA.VDW>
-2.46954

>  <SCORE.INTRA.VDW.0>
2.0241

>  <SCORE.INTRA.norm>
-0.148111

>  <SCORE.RESTR>
0

>  <SCORE.RESTR.CAVITY>
0

>  <SCORE.RESTR.norm>
0

>  <SCORE.SYSTEM>
0

>  <SCORE.SYSTEM.CONST>
0

>  <SCORE.SYSTEM.DIHEDRAL>
0

>  <SCORE.SYSTEM.SOLV>
0

>  <SCORE.SYSTEM.norm>
0

>  <SCORE.heavy>
12

>  <SCORE.norm>
-0.735718

>  <RMSD>
5.479

$$$$
ligand
 OpenBabel11021811513D
libRbt.so/2013.1/901 2013/11/27
 12 12  0  0  0  0  0  0  0  0999 V2000
    5.8582   -0.4564  -30.6467 O   0  0  0  0  0  0  0  0  0  0  0  0
    3.9444    2.9764  -28.4339 O   0  0  0  0  0  0  0  0  0  0  0  0
    5.1044   -1.0279  -29.6445 C   0  0  0  0  0  0  0  0  0  0  0  0
    2.0020    4.0700  -27.4452 O   0  0  0  0  0  0  0  0  0  0  0  0
    3.6709   -0.6963  -29.7216 C   0  0  0  0  0  0  0  0  0  0  0  0
    2.3767    4.2105  -29.8423 O   0  5  0  0  0  0  0  0  0  0  0  0
    3.4519    0.7499  -29.8573 N   0  3  0  0  0  0  0  0  0  0  0  0
    4.2399    1.2719  -30.9441 C   0  0  0  0  0  0  0  0  0  0  0  0
    5.6769    0.8886  -30.8070 C   0  0  0  0  0  0  0  0  0  0  0  0
    2.0584    1.0140  -30.0542 C   0  0  0  0  0  0  0  0  0  0  0  0
    1.5164    1.8485  -28.8661 C   0  0  0  0  0  0  0  0  0  0  0  0
    2.5108    3.3385  -28.6481 S   0  0  1  0  0  0  0  0  0  0  0  0
  1  3  1  0  0  0  0
  1  9  1  0  0  0  0
  2 12  1  0  0  0  0
  3  5  1  0  0  0  0
  4 12  2  0  0  0  0
  5  7  1  0  0  0  0
  6 12  2  0  0  0  0
  7  8  1  0  0  0  0
  7 10  1  0  0  0  0
  8  9  1  0  0  0  0
 10 11  1  0  0  0  0
 12 11  1  6  0  0  0
M  CHG  2   6  -1   7   1
M  END
>  <CHROM.1>
116.67686634,54.34535784,-57.33651553,3.43968602,1.73308350,-29.47008745
-0.94862422,0.36349193,0.19063806

>  <Name>
ligand

>  <RI>
0

>  <Rbt.Current_Directory>
/home/itssahil/PROJECTS/Mol_Feturizer/New_Systems/rnas/4P95

>  <Rbt.Executable>
rbdock ($Id: //depot/dev/client3/rdock/2013.1/src/exe/rbdock.cxx#4 $)

>  <Rbt.Library>
libRbt.so (2013.1, Build901 2013/11/27)

>  <Rbt.Parameter_File>
/export/apps/rDock/src/rDock_2013.1_src/data/scripts/dock_solv.prm

>  <Rbt.Receptor>
prm/pocket_docking_3.prm

>  <SCORE>
-9.68025

>  <SCORE.INTER>
-8.21816

>  <SCORE.INTER.CONST>
1

>  <SCORE.INTER.POLAR>
0

>  <SCORE.INTER.ROT>
3

>  <SCORE.INTER.SOLV>
9.78692

>  <SCORE.INTER.VDW>
-14.3411

>  <SCORE.INTER.norm>
-0.684847

>  <SCORE.INTRA>
-1.46208

>  <SCORE.INTRA.DIHEDRAL>
2.25544

>  <SCORE.INTRA.DIHEDRAL.0>
0.283163

>  <SCORE.INTRA.POLAR>
0

>  <SCORE.INTRA.POLAR.0>
0

>  <SCORE.INTRA.REPUL>
0

>  <SCORE.INTRA.REPUL.0>
0

>  <SCORE.INTRA.SOLV>
1.6596

>  <SCORE.INTRA.SOLV.lig_0>
-32.2894

>  <SCORE.INTRA.VDW>
-3.4196

>  <SCORE.INTRA.VDW.0>
2.0241

>  <SCORE.INTRA.norm>
-0.12184

>  <SCORE.RESTR>
0

>  <SCORE.RESTR.CAVITY>
0

>  <SCORE.RESTR.norm>
0

>  <SCORE.SYSTEM>
0

>  <SCORE.SYSTEM.CONST>
0

>  <SCORE.SYSTEM.DIHEDRAL>
0

>  <SCORE.SYSTEM.SOLV>
0

>  <SCORE.SYSTEM.norm>
0

>  <SCORE.heavy>
12

>  <SCORE.norm>
-0.806687

>  <RMSD>
5.490

$$$$
ligand
 OpenBabel11021811513D
libRbt.so/2013.1/901 2013/11/27
 12 12  0  0  0  0  0  0  0  0999 V2000
    6.4447   -2.1869  -30.0450 O   0  0  0  0  0  0  0  0  0  0  0  0
    2.6322    4.5949  -28.7017 O   0  0  0  0  0  0  0  0  0  0  0  0
    5.2763   -2.2111  -29.3146 C   0  0  0  0  0  0  0  0  0  0  0  0
    1.4318    2.6106  -29.4554 O   0  0  0  0  0  0  0  0  0  0  0  0
    4.3172   -1.1611  -29.6998 C   0  0  0  0  0  0  0  0  0  0  0  0
    2.6546    3.9644  -31.0611 O   0  5  0  0  0  0  0  0  0  0  0  0
    4.9471    0.1653  -29.7399 N   0  3  0  0  0  0  0  0  0  0  0  0
    6.1383    0.1255  -30.5488 C   0  0  0  0  0  0  0  0  0  0  0  0
    7.0573   -0.9670  -30.1098 C   0  0  0  0  0  0  0  0  0  0  0  0
    4.0148    1.1313  -30.2380 C   0  0  0  0  0  0  0  0  0  0  0  0
    4.1058    2.4247  -29.3891 C   0  0  0  0  0  0  0  0  0  0  0  0
    2.6501    3.4543  -29.6666 S   0  0  1  0  0  0  0  0  0  0  0  0
  1  3  1  0  0  0  0
  1  9  1  0  0  0  0
  2 12  1  0  0  0  0
  3  5  1  0  0  0  0
  4 12  2  0  0  0  0
  5  7  1  0  0  0  0
  6 12  2  0  0  0  0
  7  8  1  0  0  0  0
  7 10  1  0  0  0  0
  8  9  1  0  0  0  0
 10 11  1  0  0  0  0
 12 11  1  1  0  0  0
M  CHG  2   6  -1   7   1
M  END
>  <CHROM.1>
137.19543599,-163.53607867,171.42361184,4.11082125,1.27456298,-29.81497387
0.93778975,-0.30828171,2.97257107

>  <Name>
ligand

>  <RI>
0

>  <Rbt.Current_Directory>
/home/itssahil/PROJECTS/Mol_Feturizer/New_Systems/rnas/4P95

>  <Rbt.Executable>
rbdock ($Id: //depot/dev/client3/rdock/2013.1/src/exe/rbdock.cxx#4 $)

>  <Rbt.Library>
libRbt.so (2013.1, Build901 2013/11/27)

>  <Rbt.Parameter_File>
/export/apps/rDock/src/rDock_2013.1_src/data/scripts/dock_solv.prm

>  <Rbt.Receptor>
prm/pocket_docking_6.prm

>  <SCORE>
-11.91

>  <SCORE.INTER>
-10.7687

>  <SCORE.INTER.CONST>
1

>  <SCORE.INTER.POLAR>
0

>  <SCORE.INTER.ROT>
3

>  <SCORE.INTER.SOLV>
6.83758

>  <SCORE.INTER.VDW>
-15.0583

>  <SCORE.INTER.norm>
-0.897395

>  <SCORE.INTRA>
-1.14124

>  <SCORE.INTRA.DIHEDRAL>
2.72079

>  <SCORE.INTRA.DIHEDRAL.0>
0.283163

>  <SCORE.INTRA.POLAR>
0

>  <SCORE.INTRA.POLAR.0>
0

>  <SCORE.INTRA.REPUL>
0

>  <SCORE.INTRA.REPUL.0>
0

>  <SCORE.INTRA.SOLV>
0.0957554

>  <SCORE.INTRA.SOLV.lig_0>
-32.2894

>  <SCORE.INTRA.VDW>
-2.54952

>  <SCORE.INTRA.VDW.0>
2.0241

>  <SCORE.INTRA.norm>
-0.0951036

>  <SCORE.RESTR>
0

>  <SCORE.RESTR.CAVITY>
0

>  <SCORE.RESTR.norm>
0

>  <SCORE.SYSTEM>
0

>  <SCORE.SYSTEM.CONST>
0

>  <SCORE.SYSTEM.DIHEDRAL>
0

>  <SCORE.SYSTEM.SOLV>
0

>  <SCORE.SYSTEM.norm>
0

>  <SCORE.heavy>
12

>  <SCORE.norm>
-0.992498

>  <RMSD>
5.513

$$$$
ligand
 OpenBabel11021811513D
libRbt.so/2013.1/901 2013/11/27
 12 12  0  0  0  0  0  0  0  0999 V2000
    6.4433   -2.2184  -30.0914 O   0  0  0  0  0  0  0  0  0  0  0  0
    2.6805    4.6042  -28.7451 O   0  0  0  0  0  0  0  0  0  0  0  0
    5.2902   -2.2352  -29.3369 C   0  0  0  0  0  0  0  0  0  0  0  0
    1.4376    2.6064  -29.3861 O   0  0  0  0  0  0  0  0  0  0  0  0
    4.3266   -1.1841  -29.7077 C   0  0  0  0  0  0  0  0  0  0  0  0
    2.6265    3.8834  -31.0779 O   0  5  0  0  0  0  0  0  0  0  0  0
    4.9596    0.1401  -29.7675 N   0  3  0  0  0  0  0  0  0  0  0  0
    6.1337    0.0923  -30.6006 C   0  0  0  0  0  0  0  0  0  0  0  0
    7.0582   -1.0008  -30.1751 C   0  0  0  0  0  0  0  0  0  0  0  0
    4.0202    1.1065  -30.2512 C   0  0  0  0  0  0  0  0  0  0  0  0
    4.1104    2.3923  -29.3908 C   0  0  0  0  0  0  0  0  0  0  0  0
    2.6579    3.4273  -29.6653 S   0  0  1  0  0  0  0  0  0  0  0  0
  1  3  1  0  0  0  0
  1  9  1  0  0  0  0
  2 12  1  0  0  0  0
  3  5  1  0  0  0  0
  4 12  2  0  0  0  0
  5  7  1  0  0  0  0
  6 12  2  0  0  0  0
  7  8  1  0  0  0  0
  7 10  1  0  0  0  0
  8  9  1  0  0  0  0
 10 11  1  0  0  0  0
 12 11  1  1  0  0  0
M  CHG  2   6  -1   7   1
M  END
>  <CHROM.1>
135.92545462,-164.21190477,174.78379433,4.11717703,1.24708086,-29.83153033
0.93362022,-0.32906908,2.96549821

>  <Name>
ligand

>  <RI>
0

>  <Rbt.Current_Directory>
/home/itssahil/PROJECTS/Mol_Feturizer/New_Systems/rnas/4P95

>  <Rbt.Executable>
rbdock ($Id: //depot/dev/client3/rdock/2013.1/src/exe/rbdock.cxx#4 $)

>  <Rbt.Library>
libRbt.so (2013.1, Build901 2013/11/27)

>  <Rbt.Parameter_File>
/export/apps/rDock/src/rDock_2013.1_src/data/scripts/dock_solv.prm

>  <Rbt.Receptor>
prm/pocket_docking_5.prm

>  <SCORE>
-11.9864

>  <SCORE.INTER>
-10.7592

>  <SCORE.INTER.CONST>
1

>  <SCORE.INTER.POLAR>
0

>  <SCORE.INTER.ROT>
3

>  <SCORE.INTER.SOLV>
6.55273

>  <SCORE.INTER.VDW>
-14.957

>  <SCORE.INTER.norm>
-0.896599

>  <SCORE.INTRA>
-1.22719

>  <SCORE.INTRA.DIHEDRAL>
2.61045

>  <SCORE.INTRA.DIHEDRAL.0>
0.283163

>  <SCORE.INTRA.POLAR>
0

>  <SCORE.INTRA.POLAR.0>
0

>  <SCORE.INTRA.REPUL>
0

>  <SCORE.INTRA.REPUL.0>
0

>  <SCORE.INTRA.SOLV>
0.120562

>  <SCORE.INTRA.SOLV.lig_0>
-32.2894

>  <SCORE.INTRA.VDW>
-2.5927

>  <SCORE.INTRA.VDW.0>
2.0241

>  <SCORE.INTRA.norm>
-0.102266

>  <SCORE.RESTR>
0

>  <SCORE.RESTR.CAVITY>
0

>  <SCORE.RESTR.norm>
0

>  <SCORE.SYSTEM>
0

>  <SCORE.SYSTEM.CONST>
0

>  <SCORE.SYSTEM.DIHEDRAL>
0

>  <SCORE.SYSTEM.SOLV>
0

>  <SCORE.SYSTEM.norm>
0

>  <SCORE.heavy>
12

>  <SCORE.norm>
-0.998865

>  <RMSD>
5.514

$$$$
ligand
 OpenBabel11021811513D
libRbt.so/2013.1/901 2013/11/27
 12 12  0  0  0  0  0  0  0  0999 V2000
    6.4691   -2.1871  -30.0841 O   0  0  0  0  0  0  0  0  0  0  0  0
    2.6652    4.6152  -28.7483 O   0  0  0  0  0  0  0  0  0  0  0  0
    5.3066   -2.2369  -29.3455 C   0  0  0  0  0  0  0  0  0  0  0  0
    1.4168    2.6304  -29.4180 O   0  0  0  0  0  0  0  0  0  0  0  0
    4.3298   -1.1962  -29.7110 C   0  0  0  0  0  0  0  0  0  0  0  0
    2.6503    3.8999  -31.0834 O   0  5  0  0  0  0  0  0  0  0  0  0
    4.9404    0.1395  -29.7394 N   0  3  0  0  0  0  0  0  0  0  0  0
    6.1260    0.1266  -30.5573 C   0  0  0  0  0  0  0  0  0  0  0  0
    7.0637   -0.9578  -30.1384 C   0  0  0  0  0  0  0  0  0  0  0  0
    3.9907    1.0979  -30.2188 C   0  0  0  0  0  0  0  0  0  0  0  0
    4.0871    2.3915  -29.3709 C   0  0  0  0  0  0  0  0  0  0  0  0
    2.6498    3.4405  -29.6714 S   0  0  1  0  0  0  0  0  0  0  0  0
  1  3  1  0  0  0  0
  1  9  1  0  0  0  0
  2 12  1  0  0  0  0
  3  5  1  0  0  0  0
  4 12  2  0  0  0  0
  5  7  1  0  0  0  0
  6 12  2  0  0  0  0
  7  8  1  0  0  0  0
  7 10  1  0  0  0  0
  8  9  1  0  0  0  0
 10 11  1  0  0  0  0
 12 11  1  1  0  0  0
M  CHG  2   6  -1   7   1
M  END
>  <CHROM.1>
138.19394745,-165.85030380,173.87903486,4.11300641,1.25994804,-29.82455433
-0.93690001,0.30579063,-0.16397212

>  <Name>
ligand

>  <RI>
0

>  <Rbt.Current_Directory>
/home/itssahil/PROJECTS/Mol_Feturizer/New_Systems/rnas/4P95

>  <Rbt.Executable>
rbdock ($Id: //depot/dev/client3/rdock/2013.1/src/exe/rbdock.cxx#4 $)

>  <Rbt.Library>
libRbt.so (2013.1, Build901 2013/11/27)

>  <Rbt.Parameter_File>
/export/apps/rDock/src/rDock_2013.1_src/data/scripts/dock_solv.prm

>  <Rbt.Receptor>
prm/pocket_docking_6.prm

>  <SCORE>
-11.996

>  <SCORE.INTER>
-10.6694

>  <SCORE.INTER.CONST>
1

>  <SCORE.INTER.POLAR>
0

>  <SCORE.INTER.ROT>
3

>  <SCORE.INTER.SOLV>
6.64084

>  <SCORE.INTER.VDW>
-14.9266

>  <SCORE.INTER.norm>
-0.889121

>  <SCORE.INTRA>
-1.3286

>  <SCORE.INTRA.DIHEDRAL>
2.34951

>  <SCORE.INTRA.DIHEDRAL.0>
0.283163

>  <SCORE.INTRA.POLAR>
0

>  <SCORE.INTRA.POLAR.0>
0

>  <SCORE.INTRA.REPUL>
0

>  <SCORE.INTRA.REPUL.0>
0

>  <SCORE.INTRA.SOLV>
0.113064

>  <SCORE.INTRA.SOLV.lig_0>
-32.2894

>  <SCORE.INTRA.VDW>
-2.55989

>  <SCORE.INTRA.VDW.0>
2.0241

>  <SCORE.INTRA.norm>
-0.110717

>  <SCORE.RESTR>
0.00209153

>  <SCORE.RESTR.CAVITY>
0.00209153

>  <SCORE.RESTR.norm>
0.000174294

>  <SCORE.SYSTEM>
0

>  <SCORE.SYSTEM.CONST>
0

>  <SCORE.SYSTEM.DIHEDRAL>
0

>  <SCORE.SYSTEM.SOLV>
0

>  <SCORE.SYSTEM.norm>
0

>  <SCORE.heavy>
12

>  <SCORE.norm>
-0.999663

>  <RMSD>
5.514

$$$$
ligand
 OpenBabel11021811513D
libRbt.so/2013.1/901 2013/11/27
 12 12  0  0  0  0  0  0  0  0999 V2000
    6.5200   -2.2119  -30.0616 O   0  0  0  0  0  0  0  0  0  0  0  0
    2.7635    4.5837  -28.6790 O   0  0  0  0  0  0  0  0  0  0  0  0
    5.3562   -2.2208  -29.3235 C   0  0  0  0  0  0  0  0  0  0  0  0
    1.5581    2.5980  -29.4209 O   0  0  0  0  0  0  0  0  0  0  0  0
    4.4053   -1.1629  -29.7075 C   0  0  0  0  0  0  0  0  0  0  0  0
    2.7382    3.9703  -31.0428 O   0  5  0  0  0  0  0  0  0  0  0  0
    5.0484    0.1569  -29.7580 N   0  3  0  0  0  0  0  0  0  0  0  0
    6.2338    0.1010  -30.5744 C   0  0  0  0  0  0  0  0  0  0  0  0
    7.1445   -0.9987  -30.1362 C   0  0  0  0  0  0  0  0  0  0  0  0
    4.1227    1.1299  -30.2546 C   0  0  0  0  0  0  0  0  0  0  0  0
    4.2340    2.4271  -29.4141 C   0  0  0  0  0  0  0  0  0  0  0  0
    2.7668    3.4502  -29.6524 S   0  0  1  0  0  0  0  0  0  0  0  0
  1  3  1  0  0  0  0
  1  9  1  0  0  0  0
  2 12  1  0  0  0  0
  3  5  1  0  0  0  0
  4 12  2  0  0  0  0
  5  7  1  0  0  0  0
  6 12  2  0  0  0  0
  7  8  1  0  0  0  0
  7 10  1  0  0  0  0
  8  9  1  0  0  0  0
 10 11  1  0  0  0  0
 12 11  1  1  0  0  0
M  CHG  2   6  -1   7   1
M  END
>  <CHROM.1>
137.28540556,-162.02236347,170.62494122,4.21408650,1.26495876,-29.81702617
0.94119249,-0.32022626,2.97283420

>  <Name>
ligand

>  <RI>
0

>  <Rbt.Current_Directory>
/home/itssahil/PROJECTS/Mol_Feturizer/New_Systems/rnas/4P95

>  <Rbt.Executable>
rbdock ($Id: //depot/dev/client3/rdock/2013.1/src/exe/rbdock.cxx#4 $)

>  <Rbt.Library>
libRbt.so (2013.1, Build901 2013/11/27)

>  <Rbt.Parameter_File>
/export/apps/rDock/src/rDock_2013.1_src/data/scripts/dock_solv.prm

>  <Rbt.Receptor>
prm/pocket_docking_5.prm

>  <SCORE>
-11.9845

>  <SCORE.INTER>
-10.9444

>  <SCORE.INTER.CONST>
1

>  <SCORE.INTER.POLAR>
0

>  <SCORE.INTER.ROT>
3

>  <SCORE.INTER.SOLV>
6.85566

>  <SCORE.INTER.VDW>
-15.1815

>  <SCORE.INTER.norm>
-0.912032

>  <SCORE.INTRA>
-1.04007

>  <SCORE.INTRA.DIHEDRAL>
2.91933

>  <SCORE.INTRA.DIHEDRAL.0>
0.283163

>  <SCORE.INTRA.POLAR>
0

>  <SCORE.INTRA.POLAR.0>
0

>  <SCORE.INTRA.REPUL>
0

>  <SCORE.INTRA.REPUL.0>
0

>  <SCORE.INTRA.SOLV>
0.0946907

>  <SCORE.INTRA.SOLV.lig_0>
-32.2894

>  <SCORE.INTRA.VDW>
-2.54708

>  <SCORE.INTRA.VDW.0>
2.0241

>  <SCORE.INTRA.norm>
-0.0866721

>  <SCORE.RESTR>
0

>  <SCORE.RESTR.CAVITY>
0

>  <SCORE.RESTR.norm>
0

>  <SCORE.SYSTEM>
0

>  <SCORE.SYSTEM.CONST>
0

>  <SCORE.SYSTEM.DIHEDRAL>
0

>  <SCORE.SYSTEM.SOLV>
0

>  <SCORE.SYSTEM.norm>
0

>  <SCORE.heavy>
12

>  <SCORE.norm>
-0.998705

>  <RMSD>
5.517

$$$$
ligand
 OpenBabel11021811513D
libRbt.so/2013.1/901 2013/11/27
 12 12  0  0  0  0  0  0  0  0999 V2000
    6.5393   -2.1504  -30.1301 O   0  0  0  0  0  0  0  0  0  0  0  0
    2.7246    4.6131  -28.7581 O   0  0  0  0  0  0  0  0  0  0  0  0
    5.3943   -2.2789  -29.3739 C   0  0  0  0  0  0  0  0  0  0  0  0
    1.4338    2.6281  -29.3414 O   0  0  0  0  0  0  0  0  0  0  0  0
    4.3611   -1.2778  -29.6920 C   0  0  0  0  0  0  0  0  0  0  0  0
    2.6007    3.8630  -31.0791 O   0  5  0  0  0  0  0  0  0  0  0  0
    4.9049    0.0868  -29.6912 N   0  3  0  0  0  0  0  0  0  0  0  0
    6.0746    0.1561  -30.5289 C   0  0  0  0  0  0  0  0  0  0  0  0
    7.0719   -0.8921  -30.1580 C   0  0  0  0  0  0  0  0  0  0  0  0
    3.9008    1.0104  -30.1261 C   0  0  0  0  0  0  0  0  0  0  0  0
    4.1018    2.3696  -29.4092 C   0  0  0  0  0  0  0  0  0  0  0  0
    2.6599    3.4248  -29.6616 S   0  0  1  0  0  0  0  0  0  0  0  0
  1  3  1  0  0  0  0
  1  9  1  0  0  0  0
  2 12  1  0  0  0  0
  3  5  1  0  0  0  0
  4 12  2  0  0  0  0
  5  7  1  0  0  0  0
  6 12  2  0  0  0  0
  7  8  1  0  0  0  0
  7 10  1  0  0  0  0
  8  9  1  0  0  0  0
 10 11  1  0  0  0  0
 12 11  1  1  0  0  0
M  CHG  2   6  -1   7   1
M  END
>  <CHROM.1>
147.72256949,-167.80897815,168.66831639,4.12015734,1.24324664,-29.81353323
-0.93690704,0.29527870,-0.15334295

>  <Name>
ligand

>  <RI>
0

>  <Rbt.Current_Directory>
/home/itssahil/PROJECTS/Mol_Feturizer/New_Systems/rnas/4P95

>  <Rbt.Executable>
rbdock ($Id: //depot/dev/client3/rdock/2013.1/src/exe/rbdock.cxx#4 $)

>  <Rbt.Library>
libRbt.so (2013.1, Build901 2013/11/27)

>  <Rbt.Parameter_File>
/export/apps/rDock/src/rDock_2013.1_src/data/scripts/dock_solv.prm

>  <Rbt.Receptor>
prm/pocket_docking_8.prm

>  <SCORE>
-12.0371

>  <SCORE.INTER>
-10.6164

>  <SCORE.INTER.CONST>
1

>  <SCORE.INTER.POLAR>
0

>  <SCORE.INTER.ROT>
3

>  <SCORE.INTER.SOLV>
6.58666

>  <SCORE.INTER.VDW>
-14.8732

>  <SCORE.INTER.norm>
-0.884704

>  <SCORE.INTRA>
-1.42065

>  <SCORE.INTRA.DIHEDRAL>
1.80617

>  <SCORE.INTRA.DIHEDRAL.0>
0.283163

>  <SCORE.INTRA.POLAR>
0

>  <SCORE.INTRA.POLAR.0>
0

>  <SCORE.INTRA.REPUL>
0

>  <SCORE.INTRA.REPUL.0>
0

>  <SCORE.INTRA.SOLV>
0.0718026

>  <SCORE.INTRA.SOLV.lig_0>
-32.2894

>  <SCORE.INTRA.VDW>
-2.35964

>  <SCORE.INTRA.VDW.0>
2.0241

>  <SCORE.INTRA.norm>
-0.118388

>  <SCORE.RESTR>
0

>  <SCORE.RESTR.CAVITY>
0

>  <SCORE.RESTR.norm>
0

>  <SCORE.SYSTEM>
0

>  <SCORE.SYSTEM.CONST>
0

>  <SCORE.SYSTEM.DIHEDRAL>
0

>  <SCORE.SYSTEM.SOLV>
0

>  <SCORE.SYSTEM.norm>
0

>  <SCORE.heavy>
12

>  <SCORE.norm>
-1.00309

>  <RMSD>
5.522

$$$$
ligand
 OpenBabel11021811513D
libRbt.so/2013.1/901 2013/11/27
 12 12  0  0  0  0  0  0  0  0999 V2000
    7.6852   -3.2459  -30.4529 O   0  0  0  0  0  0  0  0  0  0  0  0
    4.8441    3.1440  -29.4845 O   0  0  0  0  0  0  0  0  0  0  0  0
    8.1696   -1.9867  -30.7337 C   0  0  0  0  0  0  0  0  0  0  0  0
    2.8351    1.8403  -29.0254 O   0  0  0  0  0  0  0  0  0  0  0  0
    7.3467   -0.8994  -30.1755 C   0  0  0  0  0  0  0  0  0  0  0  0
    3.0048    3.1096  -31.0909 O   0  5  0  0  0  0  0  0  0  0  0  0
    5.9263   -1.0615  -30.5132 N   0  3  0  0  0  0  0  0  0  0  0  0
    5.4792   -2.3843  -30.1593 C   0  0  0  0  0  0  0  0  0  0  0  0
    6.3642   -3.4332  -30.7488 C   0  0  0  0  0  0  0  0  0  0  0  0
    5.1511   -0.0576  -29.8487 C   0  0  0  0  0  0  0  0  0  0  0  0
    4.4808    0.8607  -30.9019 C   0  0  0  0  0  0  0  0  0  0  0  0
    3.7669    2.3103  -30.0985 S   0  0  1  0  0  0  0  0  0  0  0  0
  1  3  1  0  0  0  0
  1  9  1  0  0  0  0
  2 12  1  0  0  0  0
  3  5  1  0  0  0  0
  4 12  2  0  0  0  0
  5  7  1  0  0  0  0
  6 12  2  0  0  0  0
  7  8  1  0  0  0  0
  7 10  1  0  0  0  0
  8  9  1  0  0  0  0
 10 11  1  0  0  0  0
 12 11  1  6  0  0  0
M  CHG  2   6  -1   7   1
M  END
>  <CHROM.1>
116.50060311,-169.10312325,64.47012655,5.23382920,0.13359642,-30.24314664
-0.97066906,0.05036910,0.05253494

>  <Name>
ligand

>  <RI>
0

>  <Rbt.Current_Directory>
/home/itssahil/PROJECTS/Mol_Feturizer/New_Systems/rnas/4P95

>  <Rbt.Executable>
rbdock ($Id: //depot/dev/client3/rdock/2013.1/src/exe/rbdock.cxx#4 $)

>  <Rbt.Library>
libRbt.so (2013.1, Build901 2013/11/27)

>  <Rbt.Parameter_File>
/export/apps/rDock/src/rDock_2013.1_src/data/scripts/dock_solv.prm

>  <Rbt.Receptor>
prm/pocket_docking_8.prm

>  <SCORE>
-9.32689

>  <SCORE.INTER>
-7.58048

>  <SCORE.INTER.CONST>
1

>  <SCORE.INTER.POLAR>
0

>  <SCORE.INTER.ROT>
3

>  <SCORE.INTER.SOLV>
3.6446

>  <SCORE.INTER.VDW>
-11.8685

>  <SCORE.INTER.norm>
-0.631707

>  <SCORE.INTRA>
-1.74641

>  <SCORE.INTRA.DIHEDRAL>
2.60879

>  <SCORE.INTRA.DIHEDRAL.0>
0.283163

>  <SCORE.INTRA.POLAR>
0

>  <SCORE.INTRA.POLAR.0>
0

>  <SCORE.INTRA.REPUL>
0

>  <SCORE.INTRA.REPUL.0>
0

>  <SCORE.INTRA.SOLV>
-0.700099

>  <SCORE.INTRA.SOLV.lig_0>
-32.2894

>  <SCORE.INTRA.VDW>
-2.70076

>  <SCORE.INTRA.VDW.0>
2.0241

>  <SCORE.INTRA.norm>
-0.145534

>  <SCORE.RESTR>
0

>  <SCORE.RESTR.CAVITY>
0

>  <SCORE.RESTR.norm>
0

>  <SCORE.SYSTEM>
0

>  <SCORE.SYSTEM.CONST>
0

>  <SCORE.SYSTEM.DIHEDRAL>
0

>  <SCORE.SYSTEM.SOLV>
0

>  <SCORE.SYSTEM.norm>
0

>  <SCORE.heavy>
12

>  <SCORE.norm>
-0.777241

>  <RMSD>
5.552

$$$$
ligand
 OpenBabel11021811513D
libRbt.so/2013.1/901 2013/11/27
 12 12  0  0  0  0  0  0  0  0999 V2000
    6.6349   -2.1959  -30.1307 O   0  0  0  0  0  0  0  0  0  0  0  0
    2.6910    4.4762  -28.7014 O   0  0  0  0  0  0  0  0  0  0  0  0
    5.5112   -2.2940  -29.3388 C   0  0  0  0  0  0  0  0  0  0  0  0
    1.5365    2.3312  -28.8136 O   0  0  0  0  0  0  0  0  0  0  0  0
    4.4658   -1.3110  -29.6728 C   0  0  0  0  0  0  0  0  0  0  0  0
    2.1494    3.4812  -30.8650 O   0  5  0  0  0  0  0  0  0  0  0  0
    5.0038    0.0539  -29.7471 N   0  3  0  0  0  0  0  0  0  0  0  0
    6.1502    0.0893  -30.6185 C   0  0  0  0  0  0  0  0  0  0  0  0
    7.1613   -0.9386  -30.2288 C   0  0  0  0  0  0  0  0  0  0  0  0
    3.9846    0.9544  -30.1951 C   0  0  0  0  0  0  0  0  0  0  0  0
    4.1372    2.3134  -29.4661 C   0  0  0  0  0  0  0  0  0  0  0  0
    2.5654    3.1998  -29.4677 S   0  0  1  0  0  0  0  0  0  0  0  0
  1  3  1  0  0  0  0
  1  9  1  0  0  0  0
  2 12  1  0  0  0  0
  3  5  1  0  0  0  0
  4 12  2  0  0  0  0
  5  7  1  0  0  0  0
  6 12  2  0  0  0  0
  7  8  1  0  0  0  0
  7 10  1  0  0  0  0
  8  9  1  0  0  0  0
 10 11  1  0  0  0  0
 12 11  1  6  0  0  0
M  CHG  2   6  -1   7   1
M  END
>  <CHROM.1>
143.60355839,-156.93260360,176.93233957,4.12458644,1.11301136,-29.73655593
0.86863092,-0.35840757,2.96198714

>  <Name>
ligand

>  <RI>
0

>  <Rbt.Current_Directory>
/home/itssahil/PROJECTS/Mol_Feturizer/New_Systems/rnas/4P95

>  <Rbt.Executable>
rbdock ($Id: //depot/dev/client3/rdock/2013.1/src/exe/rbdock.cxx#4 $)

>  <Rbt.Library>
libRbt.so (2013.1, Build901 2013/11/27)

>  <Rbt.Parameter_File>
/export/apps/rDock/src/rDock_2013.1_src/data/scripts/dock_solv.prm

>  <Rbt.Receptor>
prm/pocket_docking_8.prm

>  <SCORE>
-11.673

>  <SCORE.INTER>
-10.7787

>  <SCORE.INTER.CONST>
1

>  <SCORE.INTER.POLAR>
0

>  <SCORE.INTER.ROT>
3

>  <SCORE.INTER.SOLV>
6.39214

>  <SCORE.INTER.VDW>
-14.9165

>  <SCORE.INTER.norm>
-0.898223

>  <SCORE.INTRA>
-0.894376

>  <SCORE.INTRA.DIHEDRAL>
3.03863

>  <SCORE.INTRA.DIHEDRAL.0>
0.283163

>  <SCORE.INTRA.POLAR>
0

>  <SCORE.INTRA.POLAR.0>
0

>  <SCORE.INTRA.REPUL>
0

>  <SCORE.INTRA.REPUL.0>
0

>  <SCORE.INTRA.SOLV>
0.154012

>  <SCORE.INTRA.SOLV.lig_0>
-32.2894

>  <SCORE.INTRA.VDW>
-2.4907

>  <SCORE.INTRA.VDW.0>
2.0241

>  <SCORE.INTRA.norm>
-0.0745314

>  <SCORE.RESTR>
0

>  <SCORE.RESTR.CAVITY>
0

>  <SCORE.RESTR.norm>
0

>  <SCORE.SYSTEM>
0

>  <SCORE.SYSTEM.CONST>
0

>  <SCORE.SYSTEM.DIHEDRAL>
0

>  <SCORE.SYSTEM.SOLV>
0

>  <SCORE.SYSTEM.norm>
0

>  <SCORE.heavy>
12

>  <SCORE.norm>
-0.972754

>  <RMSD>
5.558

$$$$
ligand
 OpenBabel11021811513D
libRbt.so/2013.1/901 2013/11/27
 12 12  0  0  0  0  0  0  0  0999 V2000
    6.7569   -1.8690  -30.5896 O   0  0  0  0  0  0  0  0  0  0  0  0
    2.9756    4.4063  -30.9075 O   0  0  0  0  0  0  0  0  0  0  0  0
    6.0614   -1.5364  -29.4473 C   0  0  0  0  0  0  0  0  0  0  0  0
    2.6240    4.3865  -28.4945 O   0  0  0  0  0  0  0  0  0  0  0  0
    5.0340   -0.5023  -29.6615 C   0  0  0  0  0  0  0  0  0  0  0  0
    1.6446    2.6399  -29.8717 O   0  5  0  0  0  0  0  0  0  0  0  0
    5.5744    0.6653  -30.3704 N   0  3  0  0  0  0  0  0  0  0  0  0
    6.2536    0.2477  -31.5700 C   0  0  0  0  0  0  0  0  0  0  0  0
    7.2704   -0.8072  -31.2799 C   0  0  0  0  0  0  0  0  0  0  0  0
    4.5183    1.5857  -30.6668 C   0  0  0  0  0  0  0  0  0  0  0  0
    4.3080    2.5380  -29.4624 C   0  0  0  0  0  0  0  0  0  0  0  0
    2.8210    3.5306  -29.7068 S   0  0  1  0  0  0  0  0  0  0  0  0
  1  3  1  0  0  0  0
  1  9  1  0  0  0  0
  2 12  1  0  0  0  0
  3  5  1  0  0  0  0
  4 12  2  0  0  0  0
  5  7  1  0  0  0  0
  6 12  2  0  0  0  0
  7  8  1  0  0  0  0
  7 10  1  0  0  0  0
  8  9  1  0  0  0  0
 10 11  1  0  0  0  0
 12 11  1  1  0  0  0
M  CHG  2   6  -1   7   1
M  END
>  <CHROM.1>
86.76979986,-171.15024297,-63.16201858,4.43642335,1.52876580,-30.11783908
0.56220110,-0.75287024,2.49920004

>  <Name>
ligand

>  <RI>
0

>  <Rbt.Current_Directory>
/home/itssahil/PROJECTS/Mol_Feturizer/New_Systems/rnas/4P95

>  <Rbt.Executable>
rbdock ($Id: //depot/dev/client3/rdock/2013.1/src/exe/rbdock.cxx#4 $)

>  <Rbt.Library>
libRbt.so (2013.1, Build901 2013/11/27)

>  <Rbt.Parameter_File>
/export/apps/rDock/src/rDock_2013.1_src/data/scripts/dock_solv.prm

>  <Rbt.Receptor>
prm/pocket_docking_8.prm

>  <SCORE>
-10.4872

>  <SCORE.INTER>
-8.78875

>  <SCORE.INTER.CONST>
1

>  <SCORE.INTER.POLAR>
0

>  <SCORE.INTER.ROT>
3

>  <SCORE.INTER.SOLV>
5.72305

>  <SCORE.INTER.VDW>
-13.3668

>  <SCORE.INTER.norm>
-0.732396

>  <SCORE.INTRA>
-1.69845

>  <SCORE.INTRA.DIHEDRAL>
1.09163

>  <SCORE.INTRA.DIHEDRAL.0>
0.283163

>  <SCORE.INTRA.POLAR>
0

>  <SCORE.INTRA.POLAR.0>
0

>  <SCORE.INTRA.REPUL>
0

>  <SCORE.INTRA.REPUL.0>
0

>  <SCORE.INTRA.SOLV>
0.183897

>  <SCORE.INTRA.SOLV.lig_0>
-32.2894

>  <SCORE.INTRA.VDW>
-2.33621

>  <SCORE.INTRA.VDW.0>
2.0241

>  <SCORE.INTRA.norm>
-0.141537

>  <SCORE.RESTR>
0

>  <SCORE.RESTR.CAVITY>
0

>  <SCORE.RESTR.norm>
0

>  <SCORE.SYSTEM>
0

>  <SCORE.SYSTEM.CONST>
0

>  <SCORE.SYSTEM.DIHEDRAL>
0

>  <SCORE.SYSTEM.SOLV>
0

>  <SCORE.SYSTEM.norm>
0

>  <SCORE.heavy>
12

>  <SCORE.norm>
-0.873933

>  <RMSD>
5.562

$$$$
ligand
 OpenBabel11021811513D
libRbt.so/2013.1/901 2013/11/27
 12 12  0  0  0  0  0  0  0  0999 V2000
    8.0287   -3.1733  -30.5263 O   0  0  0  0  0  0  0  0  0  0  0  0
    4.1676    2.7394  -28.7031 O   0  0  0  0  0  0  0  0  0  0  0  0
    8.4994   -1.8804  -30.4485 C   0  0  0  0  0  0  0  0  0  0  0  0
    2.5456    0.9987  -29.2377 O   0  0  0  0  0  0  0  0  0  0  0  0
    7.5479   -0.9418  -29.8283 C   0  0  0  0  0  0  0  0  0  0  0  0
    2.9003    2.8359  -30.7886 O   0  5  0  0  0  0  0  0  0  0  0  0
    6.2138   -1.0361  -30.4359 N   0  3  0  0  0  0  0  0  0  0  0  0
    5.7701   -2.4064  -30.4501 C   0  0  0  0  0  0  0  0  0  0  0  0
    6.7864   -3.3005  -31.0815 C   0  0  0  0  0  0  0  0  0  0  0  0
    5.2948   -0.2014  -29.7226 C   0  0  0  0  0  0  0  0  0  0  0  0
    4.8315    0.9597  -30.6386 C   0  0  0  0  0  0  0  0  0  0  0  0
    3.5620    1.9376  -29.8089 S   0  0  1  0  0  0  0  0  0  0  0  0
  1  3  1  0  0  0  0
  1  9  1  0  0  0  0
  2 12  1  0  0  0  0
  3  5  1  0  0  0  0
  4 12  2  0  0  0  0
  5  7  1  0  0  0  0
  6 12  2  0  0  0  0
  7  8  1  0  0  0  0
  7 10  1  0  0  0  0
  8  9  1  0  0  0  0
 10 11  1  0  0  0  0
 12 11  1  6  0  0  0
M  CHG  2   6  -1   7   1
M  END
>  <CHROM.1>
113.56335342,174.95835896,71.75616903,5.28641249,-0.03595102,-30.09526512
0.84555283,0.12519038,-2.86645437

>  <Name>
ligand

>  <RI>
0

>  <Rbt.Current_Directory>
/home/itssahil/PROJECTS/Mol_Feturizer/New_Systems/rnas/4P95

>  <Rbt.Executable>
rbdock ($Id: //depot/dev/client3/rdock/2013.1/src/exe/rbdock.cxx#4 $)

>  <Rbt.Library>
libRbt.so (2013.1, Build901 2013/11/27)

>  <Rbt.Parameter_File>
/export/apps/rDock/src/rDock_2013.1_src/data/scripts/dock_solv.prm

>  <Rbt.Receptor>
prm/pocket_docking_7.prm

>  <SCORE>
-9.987

>  <SCORE.INTER>
-8.28001

>  <SCORE.INTER.CONST>
1

>  <SCORE.INTER.POLAR>
0

>  <SCORE.INTER.ROT>
3

>  <SCORE.INTER.SOLV>
3.69333

>  <SCORE.INTER.VDW>
-12.3511

>  <SCORE.INTER.norm>
-0.690001

>  <SCORE.INTRA>
-1.70699

>  <SCORE.INTRA.DIHEDRAL>
2.53371

>  <SCORE.INTRA.DIHEDRAL.0>
0.283163

>  <SCORE.INTRA.POLAR>
0

>  <SCORE.INTRA.POLAR.0>
0

>  <SCORE.INTRA.REPUL>
0

>  <SCORE.INTRA.REPUL.0>
0

>  <SCORE.INTRA.SOLV>
-0.677157

>  <SCORE.INTRA.SOLV.lig_0>
-32.2894

>  <SCORE.INTRA.VDW>
-2.63526

>  <SCORE.INTRA.VDW.0>
2.0241

>  <SCORE.INTRA.norm>
-0.142249

>  <SCORE.RESTR>
0

>  <SCORE.RESTR.CAVITY>
0

>  <SCORE.RESTR.norm>
0

>  <SCORE.SYSTEM>
0

>  <SCORE.SYSTEM.CONST>
0

>  <SCORE.SYSTEM.DIHEDRAL>
0

>  <SCORE.SYSTEM.SOLV>
0

>  <SCORE.SYSTEM.norm>
0

>  <SCORE.heavy>
12

>  <SCORE.norm>
-0.83225

>  <RMSD>
5.659

$$$$
ligand
 OpenBabel11021811513D
libRbt.so/2013.1/901 2013/11/27
 12 12  0  0  0  0  0  0  0  0999 V2000
    6.9321   -2.2427  -30.4208 O   0  0  0  0  0  0  0  0  0  0  0  0
    3.3900    3.0434  -27.8804 O   0  0  0  0  0  0  0  0  0  0  0  0
    6.9232   -1.3530  -31.4733 C   0  0  0  0  0  0  0  0  0  0  0  0
    1.1163    2.4618  -28.5425 O   0  0  0  0  0  0  0  0  0  0  0  0
    6.3537   -0.0381  -31.1303 C   0  0  0  0  0  0  0  0  0  0  0  0
    2.5535    3.6653  -30.0890 O   0  5  0  0  0  0  0  0  0  0  0  0
    5.0483   -0.1647  -30.4686 N   0  3  0  0  0  0  0  0  0  0  0  0
    5.1403   -1.0781  -29.3587 C   0  0  0  0  0  0  0  0  0  0  0  0
    5.7352   -2.3829  -29.7762 C   0  0  0  0  0  0  0  0  0  0  0  0
    4.5925    1.1241  -30.0425 C   0  0  0  0  0  0  0  0  0  0  0  0
    3.0841    1.0510  -29.6944 C   0  0  0  0  0  0  0  0  0  0  0  0
    2.5232    2.6302  -29.0251 S   0  0  1  0  0  0  0  0  0  0  0  0
  1  3  1  0  0  0  0
  1  9  1  0  0  0  0
  2 12  1  0  0  0  0
  3  5  1  0  0  0  0
  4 12  2  0  0  0  0
  5  7  1  0  0  0  0
  6 12  2  0  0  0  0
  7  8  1  0  0  0  0
  7 10  1  0  0  0  0
  8  9  1  0  0  0  0
 10 11  1  0  0  0  0
 12 11  1  6  0  0  0
M  CHG  2   6  -1   7   1
M  END
>  <CHROM.1>
165.09749423,175.30501087,-53.43125507,4.23181224,0.79963608,-29.72674370
0.53953426,-0.70824596,2.66358423

>  <Name>
ligand

>  <RI>
0

>  <Rbt.Current_Directory>
/home/itssahil/PROJECTS/Mol_Feturizer/New_Systems/rnas/4P95

>  <Rbt.Executable>
rbdock ($Id: //depot/dev/client3/rdock/2013.1/src/exe/rbdock.cxx#4 $)

>  <Rbt.Library>
libRbt.so (2013.1, Build901 2013/11/27)

>  <Rbt.Parameter_File>
/export/apps/rDock/src/rDock_2013.1_src/data/scripts/dock_solv.prm

>  <Rbt.Receptor>
prm/pocket_docking_5.prm

>  <SCORE>
-9.54927

>  <SCORE.INTER>
-7.90221

>  <SCORE.INTER.CONST>
1

>  <SCORE.INTER.POLAR>
0

>  <SCORE.INTER.ROT>
3

>  <SCORE.INTER.SOLV>
6.42965

>  <SCORE.INTER.VDW>
-13.0114

>  <SCORE.INTER.norm>
-0.658517

>  <SCORE.INTRA>
-1.64707

>  <SCORE.INTRA.DIHEDRAL>
0.229821

>  <SCORE.INTRA.DIHEDRAL.0>
0.283163

>  <SCORE.INTRA.POLAR>
0

>  <SCORE.INTRA.POLAR.0>
0

>  <SCORE.INTRA.REPUL>
0

>  <SCORE.INTRA.REPUL.0>
0

>  <SCORE.INTRA.SOLV>
-0.127285

>  <SCORE.INTRA.SOLV.lig_0>
-32.2894

>  <SCORE.INTRA.VDW>
-1.69833

>  <SCORE.INTRA.VDW.0>
2.0241

>  <SCORE.INTRA.norm>
-0.137256

>  <SCORE.RESTR>
0

>  <SCORE.RESTR.CAVITY>
0

>  <SCORE.RESTR.norm>
0

>  <SCORE.SYSTEM>
0

>  <SCORE.SYSTEM.CONST>
0

>  <SCORE.SYSTEM.DIHEDRAL>
0

>  <SCORE.SYSTEM.SOLV>
0

>  <SCORE.SYSTEM.norm>
0

>  <SCORE.heavy>
12

>  <SCORE.norm>
-0.795773

>  <RMSD>
5.666

$$$$
ligand
 OpenBabel11021811513D
libRbt.so/2013.1/901 2013/11/27
 12 12  0  0  0  0  0  0  0  0999 V2000
    7.2628   -1.4800  -31.1668 O   0  0  0  0  0  0  0  0  0  0  0  0
    2.6936    4.5679  -28.8188 O   0  0  0  0  0  0  0  0  0  0  0  0
    6.9915   -1.3590  -29.8210 C   0  0  0  0  0  0  0  0  0  0  0  0
    2.3032    2.3730  -27.8306 O   0  0  0  0  0  0  0  0  0  0  0  0
    5.6897   -0.7309  -29.5352 C   0  0  0  0  0  0  0  0  0  0  0  0
    1.6339    2.7992  -30.1277 O   0  5  0  0  0  0  0  0  0  0  0  0
    5.5158    0.5258  -30.2758 N   0  3  0  0  0  0  0  0  0  0  0  0
    5.7781    0.3174  -31.6767 C   0  0  0  0  0  0  0  0  0  0  0  0
    7.1063   -0.3313  -31.8905 C   0  0  0  0  0  0  0  0  0  0  0  0
    4.1937    1.0344  -30.0663 C   0  0  0  0  0  0  0  0  0  0  0  0
    4.2725    2.5234  -29.6441 C   0  0  0  0  0  0  0  0  0  0  0  0
    2.6541    3.0994  -29.0916 S   0  0  1  0  0  0  0  0  0  0  0  0
  1  3  1  0  0  0  0
  1  9  1  0  0  0  0
  2 12  1  0  0  0  0
  3  5  1  0  0  0  0
  4 12  2  0  0  0  0
  5  7  1  0  0  0  0
  6 12  2  0  0  0  0
  7  8  1  0  0  0  0
  7 10  1  0  0  0  0
  8  9  1  0  0  0  0
 10 11  1  0  0  0  0
 12 11  1  6  0  0  0
M  CHG  2   6  -1   7   1
M  END
>  <CHROM.1>
129.60671772,-169.89703994,-174.15475029,4.43810688,1.33495657,-29.89078005
0.06090171,-0.80912191,2.08259005

>  <Name>
ligand

>  <RI>
0

>  <Rbt.Current_Directory>
/home/itssahil/PROJECTS/Mol_Feturizer/New_Systems/rnas/4P95

>  <Rbt.Executable>
rbdock ($Id: //depot/dev/client3/rdock/2013.1/src/exe/rbdock.cxx#4 $)

>  <Rbt.Library>
libRbt.so (2013.1, Build901 2013/11/27)

>  <Rbt.Parameter_File>
/export/apps/rDock/src/rDock_2013.1_src/data/scripts/dock_solv.prm

>  <Rbt.Receptor>
prm/pocket_docking_6.prm

>  <SCORE>
-11.0895

>  <SCORE.INTER>
-9.73489

>  <SCORE.INTER.CONST>
1

>  <SCORE.INTER.POLAR>
0

>  <SCORE.INTER.ROT>
3

>  <SCORE.INTER.SOLV>
4.68094

>  <SCORE.INTER.VDW>
-13.6502

>  <SCORE.INTER.norm>
-0.811241

>  <SCORE.INTRA>
-1.35461

>  <SCORE.INTRA.DIHEDRAL>
2.41323

>  <SCORE.INTRA.DIHEDRAL.0>
0.283163

>  <SCORE.INTRA.POLAR>
0

>  <SCORE.INTRA.POLAR.0>
0

>  <SCORE.INTRA.REPUL>
0

>  <SCORE.INTRA.REPUL.0>
0

>  <SCORE.INTRA.SOLV>
0.201487

>  <SCORE.INTRA.SOLV.lig_0>
-32.2894

>  <SCORE.INTRA.VDW>
-2.66197

>  <SCORE.INTRA.VDW.0>
2.0241

>  <SCORE.INTRA.norm>
-0.112885

>  <SCORE.RESTR>
0

>  <SCORE.RESTR.CAVITY>
0

>  <SCORE.RESTR.norm>
0

>  <SCORE.SYSTEM>
0

>  <SCORE.SYSTEM.CONST>
0

>  <SCORE.SYSTEM.DIHEDRAL>
0

>  <SCORE.SYSTEM.SOLV>
0

>  <SCORE.SYSTEM.norm>
0

>  <SCORE.heavy>
12

>  <SCORE.norm>
-0.924125

>  <RMSD>
5.728

$$$$
ligand
 OpenBabel11021811513D
libRbt.so/2013.1/901 2013/11/27
 12 12  0  0  0  0  0  0  0  0999 V2000
    7.2566   -1.5107  -31.2416 O   0  0  0  0  0  0  0  0  0  0  0  0
    2.8136    4.5739  -28.7664 O   0  0  0  0  0  0  0  0  0  0  0  0
    7.0344   -1.3977  -29.8862 C   0  0  0  0  0  0  0  0  0  0  0  0
    2.3136    2.3465  -27.9091 O   0  0  0  0  0  0  0  0  0  0  0  0
    5.7460   -0.7671  -29.5496 C   0  0  0  0  0  0  0  0  0  0  0  0
    1.7163    2.9232  -30.1932 O   0  5  0  0  0  0  0  0  0  0  0  0
    5.5501    0.4951  -30.2752 N   0  3  0  0  0  0  0  0  0  0  0  0
    5.7609    0.2950  -31.6859 C   0  0  0  0  0  0  0  0  0  0  0  0
    7.0782   -0.3568  -31.9518 C   0  0  0  0  0  0  0  0  0  0  0  0
    4.2383    1.0067  -30.0149 C   0  0  0  0  0  0  0  0  0  0  0  0
    4.3297    2.5146  -29.6688 C   0  0  0  0  0  0  0  0  0  0  0  0
    2.7227    3.1252  -29.1203 S   0  0  1  0  0  0  0  0  0  0  0  0
  1  3  1  0  0  0  0
  1  9  1  0  0  0  0
  2 12  1  0  0  0  0
  3  5  1  0  0  0  0
  4 12  2  0  0  0  0
  5  7  1  0  0  0  0
  6 12  2  0  0  0  0
  7  8  1  0  0  0  0
  7 10  1  0  0  0  0
  8  9  1  0  0  0  0
 10 11  1  0  0  0  0
 12 11  1  6  0  0  0
M  CHG  2   6  -1   7   1
M  END
>  <CHROM.1>
132.97614692,-172.33613843,179.14319231,4.48017849,1.33150108,-29.91809489
-0.05290027,0.82406693,-1.07450724

>  <Name>
ligand

>  <RI>
0

>  <Rbt.Current_Directory>
/home/itssahil/PROJECTS/Mol_Feturizer/New_Systems/rnas/4P95

>  <Rbt.Executable>
rbdock ($Id: //depot/dev/client3/rdock/2013.1/src/exe/rbdock.cxx#4 $)

>  <Rbt.Library>
libRbt.so (2013.1, Build901 2013/11/27)

>  <Rbt.Parameter_File>
/export/apps/rDock/src/rDock_2013.1_src/data/scripts/dock_solv.prm

>  <Rbt.Receptor>
prm/pocket_docking_5.prm

>  <SCORE>
-11.0989

>  <SCORE.INTER>
-9.54471

>  <SCORE.INTER.CONST>
1

>  <SCORE.INTER.POLAR>
0

>  <SCORE.INTER.ROT>
3

>  <SCORE.INTER.SOLV>
4.6601

>  <SCORE.INTER.VDW>
-13.5165

>  <SCORE.INTER.norm>
-0.795392

>  <SCORE.INTRA>
-1.55418

>  <SCORE.INTRA.DIHEDRAL>
2.02339

>  <SCORE.INTRA.DIHEDRAL.0>
0.283163

>  <SCORE.INTRA.POLAR>
0

>  <SCORE.INTRA.POLAR.0>
0

>  <SCORE.INTRA.REPUL>
0

>  <SCORE.INTRA.REPUL.0>
0

>  <SCORE.INTRA.SOLV>
0.152253

>  <SCORE.INTRA.SOLV.lig_0>
-32.2894

>  <SCORE.INTRA.VDW>
-2.642

>  <SCORE.INTRA.VDW.0>
2.0241

>  <SCORE.INTRA.norm>
-0.129515

>  <SCORE.RESTR>
0

>  <SCORE.RESTR.CAVITY>
0

>  <SCORE.RESTR.norm>
0

>  <SCORE.SYSTEM>
0

>  <SCORE.SYSTEM.CONST>
0

>  <SCORE.SYSTEM.DIHEDRAL>
0

>  <SCORE.SYSTEM.SOLV>
0

>  <SCORE.SYSTEM.norm>
0

>  <SCORE.heavy>
12

>  <SCORE.norm>
-0.924908

>  <RMSD>
5.729

$$$$
ligand
 OpenBabel11021811513D
libRbt.so/2013.1/901 2013/11/27
 12 12  0  0  0  0  0  0  0  0999 V2000
    7.2171   -1.4980  -31.2418 O   0  0  0  0  0  0  0  0  0  0  0  0
    2.7320    4.5600  -28.7830 O   0  0  0  0  0  0  0  0  0  0  0  0
    6.9770   -1.4055  -29.8879 C   0  0  0  0  0  0  0  0  0  0  0  0
    2.3352    2.3558  -27.8183 O   0  0  0  0  0  0  0  0  0  0  0  0
    5.6834   -0.7816  -29.5588 C   0  0  0  0  0  0  0  0  0  0  0  0
    1.6159    2.8260  -30.0916 O   0  5  0  0  0  0  0  0  0  0  0  0
    5.4953    0.4910  -30.2681 N   0  3  0  0  0  0  0  0  0  0  0  0
    5.7249    0.3123  -31.6788 C   0  0  0  0  0  0  0  0  0  0  0  0
    7.0465   -0.3339  -31.9370 C   0  0  0  0  0  0  0  0  0  0  0  0
    4.1795    0.9972  -30.0174 C   0  0  0  0  0  0  0  0  0  0  0  0
    4.2614    2.5070  -29.6775 C   0  0  0  0  0  0  0  0  0  0  0  0
    2.6653    3.0965  -29.0766 S   0  0  1  0  0  0  0  0  0  0  0  0
  1  3  1  0  0  0  0
  1  9  1  0  0  0  0
  2 12  1  0  0  0  0
  3  5  1  0  0  0  0
  4 12  2  0  0  0  0
  5  7  1  0  0  0  0
  6 12  2  0  0  0  0
  7  8  1  0  0  0  0
  7 10  1  0  0  0  0
  8  9  1  0  0  0  0
 10 11  1  0  0  0  0
 12 11  1  6  0  0  0
M  CHG  2   6  -1   7   1
M  END
>  <CHROM.1>
134.18116464,-170.03074323,-178.48466033,4.42754251,1.31916881,-29.89590498
-0.06318454,0.82034806,-1.04753917

>  <Name>
ligand

>  <RI>
0

>  <Rbt.Current_Directory>
/home/itssahil/PROJECTS/Mol_Feturizer/New_Systems/rnas/4P95

>  <Rbt.Executable>
rbdock ($Id: //depot/dev/client3/rdock/2013.1/src/exe/rbdock.cxx#4 $)

>  <Rbt.Library>
libRbt.so (2013.1, Build901 2013/11/27)

>  <Rbt.Parameter_File>
/export/apps/rDock/src/rDock_2013.1_src/data/scripts/dock_solv.prm

>  <Rbt.Receptor>
prm/pocket_docking_7.prm

>  <SCORE>
-11.1745

>  <SCORE.INTER>
-9.69373

>  <SCORE.INTER.CONST>
1

>  <SCORE.INTER.POLAR>
0

>  <SCORE.INTER.ROT>
3

>  <SCORE.INTER.SOLV>
4.73741

>  <SCORE.INTER.VDW>
-13.6416

>  <SCORE.INTER.norm>
-0.80781

>  <SCORE.INTRA>
-1.48082

>  <SCORE.INTRA.DIHEDRAL>
2.13099

>  <SCORE.INTRA.DIHEDRAL.0>
0.283163

>  <SCORE.INTRA.POLAR>
0

>  <SCORE.INTRA.POLAR.0>
0

>  <SCORE.INTRA.REPUL>
0

>  <SCORE.INTRA.REPUL.0>
0

>  <SCORE.INTRA.SOLV>
0.170583

>  <SCORE.INTRA.SOLV.lig_0>
-32.2894

>  <SCORE.INTRA.VDW>
-2.63161

>  <SCORE.INTRA.VDW.0>
2.0241

>  <SCORE.INTRA.norm>
-0.123402

>  <SCORE.RESTR>
0

>  <SCORE.RESTR.CAVITY>
0

>  <SCORE.RESTR.norm>
0

>  <SCORE.SYSTEM>
0

>  <SCORE.SYSTEM.CONST>
0

>  <SCORE.SYSTEM.DIHEDRAL>
0

>  <SCORE.SYSTEM.SOLV>
0

>  <SCORE.SYSTEM.norm>
0

>  <SCORE.heavy>
12

>  <SCORE.norm>
-0.931212

>  <RMSD>
5.731

$$$$
ligand
 OpenBabel11021811513D
libRbt.so/2013.1/901 2013/11/27
 12 12  0  0  0  0  0  0  0  0999 V2000
    7.2402   -1.4967  -31.2098 O   0  0  0  0  0  0  0  0  0  0  0  0
    2.7628    4.5664  -28.7325 O   0  0  0  0  0  0  0  0  0  0  0  0
    6.9615   -1.3961  -29.8639 C   0  0  0  0  0  0  0  0  0  0  0  0
    2.3421    2.3444  -27.8201 O   0  0  0  0  0  0  0  0  0  0  0  0
    5.6677   -0.7530  -29.5752 C   0  0  0  0  0  0  0  0  0  0  0  0
    1.6651    2.8631  -30.0958 O   0  5  0  0  0  0  0  0  0  0  0  0
    5.5185    0.5195  -30.2937 N   0  3  0  0  0  0  0  0  0  0  0  0
    5.7871    0.3326  -31.6964 C   0  0  0  0  0  0  0  0  0  0  0  0
    7.1066   -0.3328  -31.9134 C   0  0  0  0  0  0  0  0  0  0  0  0
    4.2031    1.0449  -30.0837 C   0  0  0  0  0  0  0  0  0  0  0  0
    4.3017    2.5268  -29.6411 C   0  0  0  0  0  0  0  0  0  0  0  0
    2.6969    3.1094  -29.0569 S   0  0  1  0  0  0  0  0  0  0  0  0
  1  3  1  0  0  0  0
  1  9  1  0  0  0  0
  2 12  1  0  0  0  0
  3  5  1  0  0  0  0
  4 12  2  0  0  0  0
  5  7  1  0  0  0  0
  6 12  2  0  0  0  0
  7  8  1  0  0  0  0
  7 10  1  0  0  0  0
  8  9  1  0  0  0  0
 10 11  1  0  0  0  0
 12 11  1  6  0  0  0
M  CHG  2   6  -1   7   1
M  END
>  <CHROM.1>
129.91109334,-168.74557499,-175.50394131,4.45468687,1.33528647,-29.88939438
0.07567955,-0.82112651,2.11440440

>  <Name>
ligand

>  <RI>
0

>  <Rbt.Current_Directory>
/home/itssahil/PROJECTS/Mol_Feturizer/New_Systems/rnas/4P95

>  <Rbt.Executable>
rbdock ($Id: //depot/dev/client3/rdock/2013.1/src/exe/rbdock.cxx#4 $)

>  <Rbt.Library>
libRbt.so (2013.1, Build901 2013/11/27)

>  <Rbt.Parameter_File>
/export/apps/rDock/src/rDock_2013.1_src/data/scripts/dock_solv.prm

>  <Rbt.Receptor>
prm/pocket_docking_5.prm

>  <SCORE>
-11.0835

>  <SCORE.INTER>
-9.74221

>  <SCORE.INTER.CONST>
1

>  <SCORE.INTER.POLAR>
0

>  <SCORE.INTER.ROT>
3

>  <SCORE.INTER.SOLV>
4.74488

>  <SCORE.INTER.VDW>
-13.6764

>  <SCORE.INTER.norm>
-0.811851

>  <SCORE.INTRA>
-1.34133

>  <SCORE.INTRA.DIHEDRAL>
2.45282

>  <SCORE.INTRA.DIHEDRAL.0>
0.283163

>  <SCORE.INTRA.POLAR>
0

>  <SCORE.INTRA.POLAR.0>
0

>  <SCORE.INTRA.REPUL>
0

>  <SCORE.INTRA.REPUL.0>
0

>  <SCORE.INTRA.SOLV>
0.192311

>  <SCORE.INTRA.SOLV.lig_0>
-32.2894

>  <SCORE.INTRA.VDW>
-2.6639

>  <SCORE.INTRA.VDW.0>
2.0241

>  <SCORE.INTRA.norm>
-0.111778

>  <SCORE.RESTR>
0

>  <SCORE.RESTR.CAVITY>
0

>  <SCORE.RESTR.norm>
0

>  <SCORE.SYSTEM>
0

>  <SCORE.SYSTEM.CONST>
0

>  <SCORE.SYSTEM.DIHEDRAL>
0

>  <SCORE.SYSTEM.SOLV>
0

>  <SCORE.SYSTEM.norm>
0

>  <SCORE.heavy>
12

>  <SCORE.norm>
-0.923629

>  <RMSD>
5.734

$$$$
ligand
 OpenBabel11021811513D
libRbt.so/2013.1/901 2013/11/27
 12 12  0  0  0  0  0  0  0  0999 V2000
    7.2138   -1.5123  -31.2487 O   0  0  0  0  0  0  0  0  0  0  0  0
    2.8002    4.5770  -28.7272 O   0  0  0  0  0  0  0  0  0  0  0  0
    6.9669   -1.4117  -29.8965 C   0  0  0  0  0  0  0  0  0  0  0  0
    2.3748    2.3608  -27.8029 O   0  0  0  0  0  0  0  0  0  0  0  0
    5.6802   -0.7686  -29.5774 C   0  0  0  0  0  0  0  0  0  0  0  0
    1.6706    2.8787  -30.0706 O   0  5  0  0  0  0  0  0  0  0  0  0
    5.5142    0.5040  -30.2921 N   0  3  0  0  0  0  0  0  0  0  0  0
    5.7497    0.3172  -31.7007 C   0  0  0  0  0  0  0  0  0  0  0  0
    7.0636   -0.3482  -31.9488 C   0  0  0  0  0  0  0  0  0  0  0  0
    4.2042    1.0294  -30.0510 C   0  0  0  0  0  0  0  0  0  0  0  0
    4.3106    2.5229  -29.6512 C   0  0  0  0  0  0  0  0  0  0  0  0
    2.7185    3.1197  -29.0466 S   0  0  1  0  0  0  0  0  0  0  0  0
  1  3  1  0  0  0  0
  1  9  1  0  0  0  0
  2 12  1  0  0  0  0
  3  5  1  0  0  0  0
  4 12  2  0  0  0  0
  5  7  1  0  0  0  0
  6 12  2  0  0  0  0
  7  8  1  0  0  0  0
  7 10  1  0  0  0  0
  8  9  1  0  0  0  0
 10 11  1  0  0  0  0
 12 11  1  6  0  0  0
M  CHG  2   6  -1   7   1
M  END
>  <CHROM.1>
131.56323693,-169.42852967,-177.08279723,4.45820143,1.33222003,-29.89059809
0.06069090,-0.83165713,2.09719433

>  <Name>
ligand

>  <RI>
0

>  <Rbt.Current_Directory>
/home/itssahil/PROJECTS/Mol_Feturizer/New_Systems/rnas/4P95

>  <Rbt.Executable>
rbdock ($Id: //depot/dev/client3/rdock/2013.1/src/exe/rbdock.cxx#4 $)

>  <Rbt.Library>
libRbt.so (2013.1, Build901 2013/11/27)

>  <Rbt.Parameter_File>
/export/apps/rDock/src/rDock_2013.1_src/data/scripts/dock_solv.prm

>  <Rbt.Receptor>
prm/pocket_docking_8.prm

>  <SCORE>
-11.1579

>  <SCORE.INTER>
-9.74704

>  <SCORE.INTER.CONST>
1

>  <SCORE.INTER.POLAR>
0

>  <SCORE.INTER.ROT>
3

>  <SCORE.INTER.SOLV>
4.7647

>  <SCORE.INTER.VDW>
-13.6863

>  <SCORE.INTER.norm>
-0.812253

>  <SCORE.INTRA>
-1.41089

>  <SCORE.INTRA.DIHEDRAL>
2.30529

>  <SCORE.INTRA.DIHEDRAL.0>
0.283163

>  <SCORE.INTRA.POLAR>
0

>  <SCORE.INTRA.POLAR.0>
0

>  <SCORE.INTRA.REPUL>
0

>  <SCORE.INTRA.REPUL.0>
0

>  <SCORE.INTRA.SOLV>
0.180712

>  <SCORE.INTRA.SOLV.lig_0>
-32.2894

>  <SCORE.INTRA.VDW>
-2.65389

>  <SCORE.INTRA.VDW.0>
2.0241

>  <SCORE.INTRA.norm>
-0.117574

>  <SCORE.RESTR>
0

>  <SCORE.RESTR.CAVITY>
0

>  <SCORE.RESTR.norm>
0

>  <SCORE.SYSTEM>
0

>  <SCORE.SYSTEM.CONST>
0

>  <SCORE.SYSTEM.DIHEDRAL>
0

>  <SCORE.SYSTEM.SOLV>
0

>  <SCORE.SYSTEM.norm>
0

>  <SCORE.heavy>
12

>  <SCORE.norm>
-0.929827

>  <RMSD>
5.739

$$$$
ligand
 OpenBabel11021811513D
libRbt.so/2013.1/901 2013/11/27
 12 12  0  0  0  0  0  0  0  0999 V2000
    7.2065   -1.4897  -31.2110 O   0  0  0  0  0  0  0  0  0  0  0  0
    2.7002    4.5873  -28.8300 O   0  0  0  0  0  0  0  0  0  0  0  0
    6.9431   -1.3973  -29.8614 C   0  0  0  0  0  0  0  0  0  0  0  0
    2.3956    2.4316  -27.7314 O   0  0  0  0  0  0  0  0  0  0  0  0
    5.6485   -0.7642  -29.5544 C   0  0  0  0  0  0  0  0  0  0  0  0
    1.5906    2.7541  -30.0018 O   0  5  0  0  0  0  0  0  0  0  0  0
    5.4825    0.5108  -30.2649 N   0  3  0  0  0  0  0  0  0  0  0  0
    5.7358    0.3323  -31.6715 C   0  0  0  0  0  0  0  0  0  0  0  0
    7.0569   -0.3233  -31.9073 C   0  0  0  0  0  0  0  0  0  0  0  0
    4.1663    1.0264  -30.0368 C   0  0  0  0  0  0  0  0  0  0  0  0
    4.2559    2.5270  -29.6601 C   0  0  0  0  0  0  0  0  0  0  0  0
    2.6644    3.1083  -29.0393 S   0  0  1  0  0  0  0  0  0  0  0  0
  1  3  1  0  0  0  0
  1  9  1  0  0  0  0
  2 12  1  0  0  0  0
  3  5  1  0  0  0  0
  4 12  2  0  0  0  0
  5  7  1  0  0  0  0
  6 12  2  0  0  0  0
  7  8  1  0  0  0  0
  7 10  1  0  0  0  0
  8  9  1  0  0  0  0
 10 11  1  0  0  0  0
 12 11  1  6  0  0  0
M  CHG  2   6  -1   7   1
M  END
>  <CHROM.1>
132.84371224,-168.29109580,-173.25174751,4.42108499,1.33341842,-29.87154433
0.07272238,-0.82191616,2.11147223

>  <Name>
ligand

>  <RI>
0

>  <Rbt.Current_Directory>
/home/itssahil/PROJECTS/Mol_Feturizer/New_Systems/rnas/4P95

>  <Rbt.Executable>
rbdock ($Id: //depot/dev/client3/rdock/2013.1/src/exe/rbdock.cxx#4 $)

>  <Rbt.Library>
libRbt.so (2013.1, Build901 2013/11/27)

>  <Rbt.Parameter_File>
/export/apps/rDock/src/rDock_2013.1_src/data/scripts/dock_solv.prm

>  <Rbt.Receptor>
prm/pocket_docking_6.prm

>  <SCORE>
-11.1039

>  <SCORE.INTER>
-9.79639

>  <SCORE.INTER.CONST>
1

>  <SCORE.INTER.POLAR>
0

>  <SCORE.INTER.ROT>
3

>  <SCORE.INTER.SOLV>
4.77698

>  <SCORE.INTER.VDW>
-13.7233

>  <SCORE.INTER.norm>
-0.816366

>  <SCORE.INTRA>
-1.30753

>  <SCORE.INTRA.DIHEDRAL>
2.44692

>  <SCORE.INTRA.DIHEDRAL.0>
0.283163

>  <SCORE.INTRA.POLAR>
0

>  <SCORE.INTRA.POLAR.0>
0

>  <SCORE.INTRA.REPUL>
0

>  <SCORE.INTRA.REPUL.0>
0

>  <SCORE.INTRA.SOLV>
0.208479

>  <SCORE.INTRA.SOLV.lig_0>
-32.2894

>  <SCORE.INTRA.VDW>
-2.63523

>  <SCORE.INTRA.VDW.0>
2.0241

>  <SCORE.INTRA.norm>
-0.108961

>  <SCORE.RESTR>
0

>  <SCORE.RESTR.CAVITY>
0

>  <SCORE.RESTR.norm>
0

>  <SCORE.SYSTEM>
0

>  <SCORE.SYSTEM.CONST>
0

>  <SCORE.SYSTEM.DIHEDRAL>
0

>  <SCORE.SYSTEM.SOLV>
0

>  <SCORE.SYSTEM.norm>
0

>  <SCORE.heavy>
12

>  <SCORE.norm>
-0.925326

>  <RMSD>
5.740

$$$$
ligand
 OpenBabel11021811513D
libRbt.so/2013.1/901 2013/11/27
 12 12  0  0  0  0  0  0  0  0999 V2000
    7.0464   -1.0226  -31.8748 O   0  0  0  0  0  0  0  0  0  0  0  0
    2.5453    4.6782  -28.7589 O   0  0  0  0  0  0  0  0  0  0  0  0
    7.0344   -1.0620  -30.4972 C   0  0  0  0  0  0  0  0  0  0  0  0
    2.5030    2.5639  -27.5446 O   0  0  0  0  0  0  0  0  0  0  0  0
    5.7873   -0.5498  -29.9027 C   0  0  0  0  0  0  0  0  0  0  0  0
    1.4625    2.7190  -29.7354 O   0  5  0  0  0  0  0  0  0  0  0  0
    5.4231    0.7651  -30.4471 N   0  3  0  0  0  0  0  0  0  0  0  0
    5.4193    0.7230  -31.8869 C   0  0  0  0  0  0  0  0  0  0  0  0
    6.7069    0.1843  -32.4185 C   0  0  0  0  0  0  0  0  0  0  0  0
    4.1465    1.1656  -29.9371 C   0  0  0  0  0  0  0  0  0  0  0  0
    4.1577    2.6886  -29.6508 C   0  0  0  0  0  0  0  0  0  0  0  0
    2.5956    3.1917  -28.9004 S   0  0  1  0  0  0  0  0  0  0  0  0
  1  3  1  0  0  0  0
  1  9  1  0  0  0  0
  2 12  1  0  0  0  0
  3  5  1  0  0  0  0
  4 12  2  0  0  0  0
  5  7  1  0  0  0  0
  6 12  2  0  0  0  0
  7  8  1  0  0  0  0
  7 10  1  0  0  0  0
  8  9  1  0  0  0  0
 10 11  1  0  0  0  0
 12 11  1  6  0  0  0
M  CHG  2   6  -1   7   1
M  END
>  <CHROM.1>
141.72366335,-176.09253666,-173.91607689,4.33775283,1.54579080,-29.98892865
0.11177889,0.83076274,-1.12251224

>  <Name>
ligand

>  <RI>
0

>  <Rbt.Current_Directory>
/home/itssahil/PROJECTS/Mol_Feturizer/New_Systems/rnas/4P95

>  <Rbt.Executable>
rbdock ($Id: //depot/dev/client3/rdock/2013.1/src/exe/rbdock.cxx#4 $)

>  <Rbt.Library>
libRbt.so (2013.1, Build901 2013/11/27)

>  <Rbt.Parameter_File>
/export/apps/rDock/src/rDock_2013.1_src/data/scripts/dock_solv.prm

>  <Rbt.Receptor>
prm/pocket_docking_3.prm

>  <SCORE>
-10.3181

>  <SCORE.INTER>
-8.67138

>  <SCORE.INTER.CONST>
1

>  <SCORE.INTER.POLAR>
0

>  <SCORE.INTER.ROT>
3

>  <SCORE.INTER.SOLV>
5.04808

>  <SCORE.INTER.VDW>
-13.0636

>  <SCORE.INTER.norm>
-0.722615

>  <SCORE.INTRA>
-1.64674

>  <SCORE.INTRA.DIHEDRAL>
1.52582

>  <SCORE.INTRA.DIHEDRAL.0>
0.283163

>  <SCORE.INTRA.POLAR>
0

>  <SCORE.INTRA.POLAR.0>
0

>  <SCORE.INTRA.REPUL>
0

>  <SCORE.INTRA.REPUL.0>
0

>  <SCORE.INTRA.SOLV>
0.229483

>  <SCORE.INTRA.SOLV.lig_0>
-32.2894

>  <SCORE.INTRA.VDW>
-2.52439

>  <SCORE.INTRA.VDW.0>
2.0241

>  <SCORE.INTRA.norm>
-0.137228

>  <SCORE.RESTR>
4.77603e-05

>  <SCORE.RESTR.CAVITY>
4.77603e-05

>  <SCORE.RESTR.norm>
3.98002e-06

>  <SCORE.SYSTEM>
0

>  <SCORE.SYSTEM.CONST>
0

>  <SCORE.SYSTEM.DIHEDRAL>
0

>  <SCORE.SYSTEM.SOLV>
0

>  <SCORE.SYSTEM.norm>
0

>  <SCORE.heavy>
12

>  <SCORE.norm>
-0.85984

>  <RMSD>
5.788

$$$$
ligand
 OpenBabel11021811513D
libRbt.so/2013.1/901 2013/11/27
 12 12  0  0  0  0  0  0  0  0999 V2000
    7.0363   -1.0574  -31.8526 O   0  0  0  0  0  0  0  0  0  0  0  0
    2.6576    4.6971  -28.6195 O   0  0  0  0  0  0  0  0  0  0  0  0
    7.0048   -1.0708  -30.4749 C   0  0  0  0  0  0  0  0  0  0  0  0
    2.4823    2.5118  -27.5517 O   0  0  0  0  0  0  0  0  0  0  0  0
    5.7570   -0.5306  -29.9075 C   0  0  0  0  0  0  0  0  0  0  0  0
    1.5270    2.8569  -29.7596 O   0  5  0  0  0  0  0  0  0  0  0  0
    5.4185    0.7786  -30.4813 N   0  3  0  0  0  0  0  0  0  0  0  0
    5.4337    0.7095  -31.9199 C   0  0  0  0  0  0  0  0  0  0  0  0
    6.7209    0.1435  -32.4235 C   0  0  0  0  0  0  0  0  0  0  0  0
    4.1406    1.2059  -29.9967 C   0  0  0  0  0  0  0  0  0  0  0  0
    4.2137    2.6997  -29.5904 C   0  0  0  0  0  0  0  0  0  0  0  0
    2.6492    3.2223  -28.8587 S   0  0  1  0  0  0  0  0  0  0  0  0
  1  3  1  0  0  0  0
  1  9  1  0  0  0  0
  2 12  1  0  0  0  0
  3  5  1  0  0  0  0
  4 12  2  0  0  0  0
  5  7  1  0  0  0  0
  6 12  2  0  0  0  0
  7  8  1  0  0  0  0
  7 10  1  0  0  0  0
  8  9  1  0  0  0  0
 10 11  1  0  0  0  0
 12 11  1  6  0  0  0
M  CHG  2   6  -1   7   1
M  END
>  <CHROM.1>
135.49967231,-175.64784481,-173.12055488,4.35964608,1.55812905,-29.97519330
0.12424266,0.84476105,-1.13370886

>  <Name>
ligand

>  <RI>
0

>  <Rbt.Current_Directory>
/home/itssahil/PROJECTS/Mol_Feturizer/New_Systems/rnas/4P95

>  <Rbt.Executable>
rbdock ($Id: //depot/dev/client3/rdock/2013.1/src/exe/rbdock.cxx#4 $)

>  <Rbt.Library>
libRbt.so (2013.1, Build901 2013/11/27)

>  <Rbt.Parameter_File>
/export/apps/rDock/src/rDock_2013.1_src/data/scripts/dock_solv.prm

>  <Rbt.Receptor>
prm/pocket_docking_3.prm

>  <SCORE>
-10.2397

>  <SCORE.INTER>
-8.70174

>  <SCORE.INTER.CONST>
1

>  <SCORE.INTER.POLAR>
0

>  <SCORE.INTER.ROT>
3

>  <SCORE.INTER.SOLV>
5.13577

>  <SCORE.INTER.VDW>
-13.1131

>  <SCORE.INTER.norm>
-0.725145

>  <SCORE.INTRA>
-1.53793

>  <SCORE.INTRA.DIHEDRAL>
1.90089

>  <SCORE.INTRA.DIHEDRAL.0>
0.283163

>  <SCORE.INTRA.POLAR>
0

>  <SCORE.INTRA.POLAR.0>
0

>  <SCORE.INTRA.REPUL>
0

>  <SCORE.INTRA.REPUL.0>
0

>  <SCORE.INTRA.SOLV>
0.236476

>  <SCORE.INTRA.SOLV.lig_0>
-32.2894

>  <SCORE.INTRA.VDW>
-2.60661

>  <SCORE.INTRA.VDW.0>
2.0241

>  <SCORE.INTRA.norm>
-0.128161

>  <SCORE.RESTR>
0

>  <SCORE.RESTR.CAVITY>
0

>  <SCORE.RESTR.norm>
0

>  <SCORE.SYSTEM>
0

>  <SCORE.SYSTEM.CONST>
0

>  <SCORE.SYSTEM.DIHEDRAL>
0

>  <SCORE.SYSTEM.SOLV>
0

>  <SCORE.SYSTEM.norm>
0

>  <SCORE.heavy>
12

>  <SCORE.norm>
-0.853306

>  <RMSD>
5.799

$$$$
ligand
 OpenBabel11021811513D
libRbt.so/2013.1/901 2013/11/27
 12 12  0  0  0  0  0  0  0  0999 V2000
    6.1115   -1.3242  -31.7336 O   0  0  0  0  0  0  0  0  0  0  0  0
    2.5846    4.2916  -27.4394 O   0  0  0  0  0  0  0  0  0  0  0  0
    5.5308   -1.5746  -30.5091 C   0  0  0  0  0  0  0  0  0  0  0  0
    1.4887    2.1825  -27.9846 O   0  0  0  0  0  0  0  0  0  0  0  0
    4.3914   -0.6916  -30.2043 C   0  0  0  0  0  0  0  0  0  0  0  0
    1.5598    3.9674  -29.6324 O   0  5  0  0  0  0  0  0  0  0  0  0
    4.7287    0.7239  -30.4062 N   0  3  0  0  0  0  0  0  0  0  0  0
    5.2944    0.9178  -31.7165 C   0  0  0  0  0  0  0  0  0  0  0  0
    6.4345   -0.0158  -31.9602 C   0  0  0  0  0  0  0  0  0  0  0  0
    3.5618    1.5328  -30.2207 C   0  0  0  0  0  0  0  0  0  0  0  0
    3.8541    2.6295  -29.1656 C   0  0  0  0  0  0  0  0  0  0  0  0
    2.3079    3.3099  -28.5312 S   0  0  1  0  0  0  0  0  0  0  0  0
  1  3  1  0  0  0  0
  1  9  1  0  0  0  0
  2 12  1  0  0  0  0
  3  5  1  0  0  0  0
  4 12  2  0  0  0  0
  5  7  1  0  0  0  0
  6 12  2  0  0  0  0
  7  8  1  0  0  0  0
  7 10  1  0  0  0  0
  8  9  1  0  0  0  0
 10 11  1  0  0  0  0
 12 11  1  6  0  0  0
M  CHG  2   6  -1   7   1
M  END
>  <CHROM.1>
125.76750191,-162.03949797,175.65671033,3.78863826,1.55166825,-29.79513670
0.53014732,-0.83851590,2.85023409

>  <Name>
ligand

>  <RI>
0

>  <Rbt.Current_Directory>
/home/itssahil/PROJECTS/Mol_Feturizer/New_Systems/rnas/4P95

>  <Rbt.Executable>
rbdock ($Id: //depot/dev/client3/rdock/2013.1/src/exe/rbdock.cxx#4 $)

>  <Rbt.Library>
libRbt.so (2013.1, Build901 2013/11/27)

>  <Rbt.Parameter_File>
/export/apps/rDock/src/rDock_2013.1_src/data/scripts/dock_solv.prm

>  <Rbt.Receptor>
prm/pocket_docking_3.prm

>  <SCORE>
-7.51541

>  <SCORE.INTER>
-6.50558

>  <SCORE.INTER.CONST>
1

>  <SCORE.INTER.POLAR>
0

>  <SCORE.INTER.ROT>
3

>  <SCORE.INTER.SOLV>
7.93427

>  <SCORE.INTER.VDW>
-12.5818

>  <SCORE.INTER.norm>
-0.542131

>  <SCORE.INTRA>
-1.00984

>  <SCORE.INTRA.DIHEDRAL>
3.20466

>  <SCORE.INTRA.DIHEDRAL.0>
0.283163

>  <SCORE.INTRA.POLAR>
0

>  <SCORE.INTRA.POLAR.0>
0

>  <SCORE.INTRA.REPUL>
0

>  <SCORE.INTRA.REPUL.0>
0

>  <SCORE.INTRA.SOLV>
0.130793

>  <SCORE.INTRA.SOLV.lig_0>
-32.2894

>  <SCORE.INTRA.VDW>
-2.67756

>  <SCORE.INTRA.VDW.0>
2.0241

>  <SCORE.INTRA.norm>
-0.0841531

>  <SCORE.RESTR>
0

>  <SCORE.RESTR.CAVITY>
0

>  <SCORE.RESTR.norm>
0

>  <SCORE.SYSTEM>
0

>  <SCORE.SYSTEM.CONST>
0

>  <SCORE.SYSTEM.DIHEDRAL>
0

>  <SCORE.SYSTEM.SOLV>
0

>  <SCORE.SYSTEM.norm>
0

>  <SCORE.heavy>
12

>  <SCORE.norm>
-0.626285

>  <RMSD>
5.808

$$$$
ligand
 OpenBabel11021811513D
libRbt.so/2013.1/901 2013/11/27
 12 12  0  0  0  0  0  0  0  0999 V2000
    5.8092   -1.5362  -30.4798 O   0  0  0  0  0  0  0  0  0  0  0  0
    2.0864    4.8715  -29.8622 O   0  0  0  0  0  0  0  0  0  0  0  0
    4.7481   -1.5347  -29.6005 C   0  0  0  0  0  0  0  0  0  0  0  0
    1.2742    4.0978  -27.6970 O   0  0  0  0  0  0  0  0  0  0  0  0
    3.8386   -0.3886  -29.7744 C   0  0  0  0  0  0  0  0  0  0  0  0
    0.7443    2.8371  -29.7061 O   0  5  0  0  0  0  0  0  0  0  0  0
    4.5672    0.8866  -29.8042 N   0  3  0  0  0  0  0  0  0  0  0  0
    5.6352    0.8262  -30.7687 C   0  0  0  0  0  0  0  0  0  0  0  0
    6.5085   -0.3635  -30.5393 C   0  0  0  0  0  0  0  0  0  0  0  0
    3.6624    1.9565  -30.0993 C   0  0  0  0  0  0  0  0  0  0  0  0
    3.2748    2.6839  -28.7869 C   0  0  0  0  0  0  0  0  0  0  0  0
    1.7804    3.6639  -29.0373 S   0  0  1  0  0  0  0  0  0  0  0  0
  1  3  1  0  0  0  0
  1  9  1  0  0  0  0
  2 12  1  0  0  0  0
  3  5  1  0  0  0  0
  4 12  2  0  0  0  0
  5  7  1  0  0  0  0
  6 12  2  0  0  0  0
  7  8  1  0  0  0  0
  7 10  1  0  0  0  0
  8  9  1  0  0  0  0
 10 11  1  0  0  0  0
 12 11  1  1  0  0  0
M  CHG  2   6  -1   7   1
M  END
>  <CHROM.1>
99.93052190,-162.21249130,-72.92820318,3.43807224,1.74437710,-29.61009312
0.79095332,-0.45432933,3.00342870

>  <Name>
ligand

>  <RI>
0

>  <Rbt.Current_Directory>
/home/itssahil/PROJECTS/Mol_Feturizer/New_Systems/rnas/4P95

>  <Rbt.Executable>
rbdock ($Id: //depot/dev/client3/rdock/2013.1/src/exe/rbdock.cxx#4 $)

>  <Rbt.Library>
libRbt.so (2013.1, Build901 2013/11/27)

>  <Rbt.Parameter_File>
/export/apps/rDock/src/rDock_2013.1_src/data/scripts/dock_solv.prm

>  <Rbt.Receptor>
prm/pocket_docking_4.prm

>  <SCORE>
-10.298

>  <SCORE.INTER>
-9.51034

>  <SCORE.INTER.CONST>
1

>  <SCORE.INTER.POLAR>
0

>  <SCORE.INTER.ROT>
3

>  <SCORE.INTER.SOLV>
7.51434

>  <SCORE.INTER.VDW>
-14.445

>  <SCORE.INTER.norm>
-0.792528

>  <SCORE.INTRA>
-0.787711

>  <SCORE.INTRA.DIHEDRAL>
3.04274

>  <SCORE.INTRA.DIHEDRAL.0>
0.283163

>  <SCORE.INTRA.POLAR>
0

>  <SCORE.INTRA.POLAR.0>
0

>  <SCORE.INTRA.REPUL>
0

>  <SCORE.INTRA.REPUL.0>
0

>  <SCORE.INTRA.SOLV>
0.533972

>  <SCORE.INTRA.SOLV.lig_0>
-32.2894

>  <SCORE.INTRA.VDW>
-2.57606

>  <SCORE.INTRA.VDW.0>
2.0241

>  <SCORE.INTRA.norm>
-0.0656426

>  <SCORE.RESTR>
0

>  <SCORE.RESTR.CAVITY>
0

>  <SCORE.RESTR.norm>
0

>  <SCORE.SYSTEM>
0

>  <SCORE.SYSTEM.CONST>
0

>  <SCORE.SYSTEM.DIHEDRAL>
0

>  <SCORE.SYSTEM.SOLV>
0

>  <SCORE.SYSTEM.norm>
0

>  <SCORE.heavy>
12

>  <SCORE.norm>
-0.858171

>  <RMSD>
5.808

$$$$
ligand
 OpenBabel11021811513D
libRbt.so/2013.1/901 2013/11/27
 12 12  0  0  0  0  0  0  0  0999 V2000
    5.4478    0.3714  -30.7471 O   0  0  0  0  0  0  0  0  0  0  0  0
    1.8784    4.4810  -28.9450 O   0  0  0  0  0  0  0  0  0  0  0  0
    4.7480   -0.4609  -29.9005 C   0  0  0  0  0  0  0  0  0  0  0  0
    3.3582    3.0964  -27.5887 O   0  0  0  0  0  0  0  0  0  0  0  0
    3.3002   -0.1896  -29.8693 C   0  0  0  0  0  0  0  0  0  0  0  0
    1.3136    3.9853  -26.6213 O   0  5  0  0  0  0  0  0  0  0  0  0
    3.0165    1.2343  -29.6458 N   0  3  0  0  0  0  0  0  0  0  0  0
    3.7501    2.0408  -30.5871 C   0  0  0  0  0  0  0  0  0  0  0  0
    5.2053    1.7050  -30.5726 C   0  0  0  0  0  0  0  0  0  0  0  0
    1.6080    1.4710  -29.7479 C   0  0  0  0  0  0  0  0  0  0  0  0
    1.0639    1.9568  -28.3805 C   0  0  0  0  0  0  0  0  0  0  0  0
    1.9303    3.4525  -27.8625 S   0  0  1  0  0  0  0  0  0  0  0  0
  1  3  1  0  0  0  0
  1  9  1  0  0  0  0
  2 12  1  0  0  0  0
  3  5  1  0  0  0  0
  4 12  2  0  0  0  0
  5  7  1  0  0  0  0
  6 12  2  0  0  0  0
  7  8  1  0  0  0  0
  7 10  1  0  0  0  0
  8  9  1  0  0  0  0
 10 11  1  0  0  0  0
 12 11  1  6  0  0  0
M  CHG  2   6  -1   7   1
M  END
>  <CHROM.1>
116.27279410,57.85093842,52.96035792,2.94545255,2.11308270,-29.05125500,-0.89409356
0.41592447,0.38488803

>  <Name>
ligand

>  <RI>
0

>  <Rbt.Current_Directory>
/home/itssahil/PROJECTS/Mol_Feturizer/New_Systems/rnas/4P95

>  <Rbt.Executable>
rbdock ($Id: //depot/dev/client3/rdock/2013.1/src/exe/rbdock.cxx#4 $)

>  <Rbt.Library>
libRbt.so (2013.1, Build901 2013/11/27)

>  <Rbt.Parameter_File>
/export/apps/rDock/src/rDock_2013.1_src/data/scripts/dock_solv.prm

>  <Rbt.Receptor>
prm/pocket_docking_5.prm

>  <SCORE>
-9.78313

>  <SCORE.INTER>
-7.40917

>  <SCORE.INTER.CONST>
1

>  <SCORE.INTER.POLAR>
0

>  <SCORE.INTER.ROT>
3

>  <SCORE.INTER.SOLV>
13.8944

>  <SCORE.INTER.VDW>
-15.1709

>  <SCORE.INTER.norm>
-0.617431

>  <SCORE.INTRA>
-2.37396

>  <SCORE.INTRA.DIHEDRAL>
2.22059

>  <SCORE.INTRA.DIHEDRAL.0>
0.283163

>  <SCORE.INTRA.POLAR>
0

>  <SCORE.INTRA.POLAR.0>
0

>  <SCORE.INTRA.REPUL>
0

>  <SCORE.INTRA.REPUL.0>
0

>  <SCORE.INTRA.SOLV>
0.166817

>  <SCORE.INTRA.SOLV.lig_0>
-32.2894

>  <SCORE.INTRA.VDW>
-3.56766

>  <SCORE.INTRA.VDW.0>
2.0241

>  <SCORE.INTRA.norm>
-0.19783

>  <SCORE.RESTR>
0

>  <SCORE.RESTR.CAVITY>
0

>  <SCORE.RESTR.norm>
0

>  <SCORE.SYSTEM>
0

>  <SCORE.SYSTEM.CONST>
0

>  <SCORE.SYSTEM.DIHEDRAL>
0

>  <SCORE.SYSTEM.SOLV>
0

>  <SCORE.SYSTEM.norm>
0

>  <SCORE.heavy>
12

>  <SCORE.norm>
-0.815261

>  <RMSD>
5.901

$$$$
ligand
 OpenBabel11021811513D
libRbt.so/2013.1/901 2013/11/27
 12 12  0  0  0  0  0  0  0  0999 V2000
    4.8201   -0.2884  -30.6258 O   0  0  0  0  0  0  0  0  0  0  0  0
    1.1536    4.4444  -26.6643 O   0  0  0  0  0  0  0  0  0  0  0  0
    3.6906   -0.4209  -29.8473 C   0  0  0  0  0  0  0  0  0  0  0  0
    3.0641    2.9295  -26.6237 O   0  0  0  0  0  0  0  0  0  0  0  0
    2.7397    0.6952  -29.9917 C   0  0  0  0  0  0  0  0  0  0  0  0
    1.0117    2.2548  -27.7368 O   0  5  0  0  0  0  0  0  0  0  0  0
    3.3999    1.9982  -29.8363 N   0  3  0  0  0  0  0  0  0  0  0  0
    4.5465    2.0809  -30.7042 C   0  0  0  0  0  0  0  0  0  0  0  0
    5.4591    0.9143  -30.5121 C   0  0  0  0  0  0  0  0  0  0  0  0
    2.4678    3.0508  -30.1076 C   0  0  0  0  0  0  0  0  0  0  0  0
    2.5333    4.1056  -28.9742 C   0  0  0  0  0  0  0  0  0  0  0  0
    1.9004    3.4057  -27.4361 S   0  0  1  0  0  0  0  0  0  0  0  0
  1  3  1  0  0  0  0
  1  9  1  0  0  0  0
  2 12  1  0  0  0  0
  3  5  1  0  0  0  0
  4 12  2  0  0  0  0
  5  7  1  0  0  0  0
  6 12  2  0  0  0  0
  7  8  1  0  0  0  0
  7 10  1  0  0  0  0
  8  9  1  0  0  0  0
 10 11  1  0  0  0  0
 12 11  1  6  0  0  0
M  CHG  2   6  -1   7   1
M  END
>  <CHROM.1>
131.43566050,-67.85680509,-143.79085429,2.93489228,2.22863154,-28.88708887
0.54674465,-0.91442583,3.02440300

>  <Name>
ligand

>  <RI>
0

>  <Rbt.Current_Directory>
/home/itssahil/PROJECTS/Mol_Feturizer/New_Systems/rnas/4P95

>  <Rbt.Executable>
rbdock ($Id: //depot/dev/client3/rdock/2013.1/src/exe/rbdock.cxx#4 $)

>  <Rbt.Library>
libRbt.so (2013.1, Build901 2013/11/27)

>  <Rbt.Parameter_File>
/export/apps/rDock/src/rDock_2013.1_src/data/scripts/dock_solv.prm

>  <Rbt.Receptor>
prm/pocket_docking_5.prm

>  <SCORE>
-9.03301

>  <SCORE.INTER>
-9.99747

>  <SCORE.INTER.CONST>
1

>  <SCORE.INTER.POLAR>
0

>  <SCORE.INTER.ROT>
3

>  <SCORE.INTER.SOLV>
9.79903

>  <SCORE.INTER.VDW>
-15.5313

>  <SCORE.INTER.norm>
-0.833123

>  <SCORE.INTRA>
0.964458

>  <SCORE.INTRA.DIHEDRAL>
4.53111

>  <SCORE.INTRA.DIHEDRAL.0>
0.283163

>  <SCORE.INTRA.POLAR>
0

>  <SCORE.INTRA.POLAR.0>
0

>  <SCORE.INTRA.REPUL>
0

>  <SCORE.INTRA.REPUL.0>
0

>  <SCORE.INTRA.SOLV>
3.78485

>  <SCORE.INTRA.SOLV.lig_0>
-32.2894

>  <SCORE.INTRA.VDW>
-3.19352

>  <SCORE.INTRA.VDW.0>
2.0241

>  <SCORE.INTRA.norm>
0.0803715

>  <SCORE.RESTR>
0

>  <SCORE.RESTR.CAVITY>
0

>  <SCORE.RESTR.norm>
0

>  <SCORE.SYSTEM>
0

>  <SCORE.SYSTEM.CONST>
0

>  <SCORE.SYSTEM.DIHEDRAL>
0

>  <SCORE.SYSTEM.SOLV>
0

>  <SCORE.SYSTEM.norm>
0

>  <SCORE.heavy>
12

>  <SCORE.norm>
-0.752751

>  <RMSD>
6.043

$$$$
ligand
 OpenBabel11021811513D
libRbt.so/2013.1/901 2013/11/27
 12 12  0  0  0  0  0  0  0  0999 V2000
    4.9300   -0.5777  -30.5681 O   0  0  0  0  0  0  0  0  0  0  0  0
    3.3936    3.0254  -26.4159 O   0  0  0  0  0  0  0  0  0  0  0  0
    3.8193   -0.7289  -29.7663 C   0  0  0  0  0  0  0  0  0  0  0  0
    1.4186    2.0524  -27.4643 O   0  0  0  0  0  0  0  0  0  0  0  0
    2.8557    0.3802  -29.8770 C   0  0  0  0  0  0  0  0  0  0  0  0
    1.3556    4.3475  -26.6674 O   0  5  0  0  0  0  0  0  0  0  0  0
    3.5079    1.6873  -29.7217 N   0  3  0  0  0  0  0  0  0  0  0  0
    4.6340    1.7898  -30.6139 C   0  0  0  0  0  0  0  0  0  0  0  0
    5.5608    0.6294  -30.4553 C   0  0  0  0  0  0  0  0  0  0  0  0
    2.5608    2.7344  -29.9604 C   0  0  0  0  0  0  0  0  0  0  0  0
    2.7617    3.8623  -28.9168 C   0  0  0  0  0  0  0  0  0  0  0  0
    2.2145    3.3080  -27.2890 S   0  0  1  0  0  0  0  0  0  0  0  0
  1  3  1  0  0  0  0
  1  9  1  0  0  0  0
  2 12  1  0  0  0  0
  3  5  1  0  0  0  0
  4 12  2  0  0  0  0
  5  7  1  0  0  0  0
  6 12  2  0  0  0  0
  7  8  1  0  0  0  0
  7 10  1  0  0  0  0
  8  9  1  0  0  0  0
 10 11  1  0  0  0  0
 12 11  1  6  0  0  0
M  CHG  2   6  -1   7   1
M  END
>  <CHROM.1>
138.39565109,-70.89364915,105.74018624,3.13543155,2.02248311,-28.77094890
0.64284729,-0.94138163,3.09098848

>  <Name>
ligand

>  <RI>
0

>  <Rbt.Current_Directory>
/home/itssahil/PROJECTS/Mol_Feturizer/New_Systems/rnas/4P95

>  <Rbt.Executable>
rbdock ($Id: //depot/dev/client3/rdock/2013.1/src/exe/rbdock.cxx#4 $)

>  <Rbt.Library>
libRbt.so (2013.1, Build901 2013/11/27)

>  <Rbt.Parameter_File>
/export/apps/rDock/src/rDock_2013.1_src/data/scripts/dock_solv.prm

>  <Rbt.Receptor>
prm/pocket_docking_7.prm

>  <SCORE>
-9.24721

>  <SCORE.INTER>
-9.04446

>  <SCORE.INTER.CONST>
1

>  <SCORE.INTER.POLAR>
0

>  <SCORE.INTER.ROT>
3

>  <SCORE.INTER.SOLV>
14.7207

>  <SCORE.INTER.VDW>
-16.5365

>  <SCORE.INTER.norm>
-0.753705

>  <SCORE.INTRA>
-0.202741

>  <SCORE.INTRA.DIHEDRAL>
5.14259

>  <SCORE.INTRA.DIHEDRAL.0>
0.283163

>  <SCORE.INTRA.POLAR>
0

>  <SCORE.INTRA.POLAR.0>
0

>  <SCORE.INTRA.REPUL>
0

>  <SCORE.INTRA.REPUL.0>
0

>  <SCORE.INTRA.SOLV>
0.179411

>  <SCORE.INTRA.SOLV.lig_0>
-32.2894

>  <SCORE.INTRA.VDW>
-2.86374

>  <SCORE.INTRA.VDW.0>
2.0241

>  <SCORE.INTRA.norm>
-0.0168951

>  <SCORE.RESTR>
0

>  <SCORE.RESTR.CAVITY>
0

>  <SCORE.RESTR.norm>
0

>  <SCORE.SYSTEM>
0

>  <SCORE.SYSTEM.CONST>
0

>  <SCORE.SYSTEM.DIHEDRAL>
0

>  <SCORE.SYSTEM.SOLV>
0

>  <SCORE.SYSTEM.norm>
0

>  <SCORE.heavy>
12

>  <SCORE.norm>
-0.7706

>  <RMSD>
6.046

$$$$
ligand
 OpenBabel11021811513D
libRbt.so/2013.1/901 2013/11/27
 12 12  0  0  0  0  0  0  0  0999 V2000
    5.6256    1.1190  -32.1793 O   0  0  0  0  0  0  0  0  0  0  0  0
    1.2091    4.5835  -26.5900 O   0  0  0  0  0  0  0  0  0  0  0  0
    5.8131    0.6336  -30.9031 C   0  0  0  0  0  0  0  0  0  0  0  0
    1.8885    2.2921  -26.1059 O   0  0  0  0  0  0  0  0  0  0  0  0
    4.6212    0.7524  -30.0451 C   0  0  0  0  0  0  0  0  0  0  0  0
    0.2823    2.7265  -27.8773 O   0  5  0  0  0  0  0  0  0  0  0  0
    4.0633    2.1111  -30.0712 N   0  3  0  0  0  0  0  0  0  0  0  0
    3.8588    2.5382  -31.4315 C   0  0  0  0  0  0  0  0  0  0  0  0
    5.1020    2.3797  -32.2439 C   0  0  0  0  0  0  0  0  0  0  0  0
    2.8406    2.1487  -29.3270 C   0  0  0  0  0  0  0  0  0  0  0  0
    2.8568    3.3636  -28.3650 C   0  0  0  0  0  0  0  0  0  0  0  0
    1.4922    3.2449  -27.1903 S   0  0  1  0  0  0  0  0  0  0  0  0
  1  3  1  0  0  0  0
  1  9  1  0  0  0  0
  2 12  1  0  0  0  0
  3  5  1  0  0  0  0
  4 12  2  0  0  0  0
  5  7  1  0  0  0  0
  6 12  2  0  0  0  0
  7  8  1  0  0  0  0
  7 10  1  0  0  0  0
  8  9  1  0  0  0  0
 10 11  1  0  0  0  0
 12 11  1  6  0  0  0
M  CHG  2   6  -1   7   1
M  END
>  <CHROM.1>
132.29961091,-168.56304872,-160.55762035,3.09334128,2.42438324,-29.11154522
-0.46142140,-0.80875484,2.14682082

>  <Name>
ligand

>  <RI>
0

>  <Rbt.Current_Directory>
/home/itssahil/PROJECTS/Mol_Feturizer/New_Systems/rnas/4P95

>  <Rbt.Executable>
rbdock ($Id: //depot/dev/client3/rdock/2013.1/src/exe/rbdock.cxx#4 $)

>  <Rbt.Library>
libRbt.so (2013.1, Build901 2013/11/27)

>  <Rbt.Parameter_File>
/export/apps/rDock/src/rDock_2013.1_src/data/scripts/dock_solv.prm

>  <Rbt.Receptor>
prm/pocket_docking_7.prm

>  <SCORE>
-8.92592

>  <SCORE.INTER>
-8.15498

>  <SCORE.INTER.CONST>
1

>  <SCORE.INTER.POLAR>
0

>  <SCORE.INTER.ROT>
3

>  <SCORE.INTER.SOLV>
9.02411

>  <SCORE.INTER.VDW>
-14.0447

>  <SCORE.INTER.norm>
-0.679582

>  <SCORE.INTRA>
-0.77094

>  <SCORE.INTRA.DIHEDRAL>
3.22248

>  <SCORE.INTRA.DIHEDRAL.0>
0.283163

>  <SCORE.INTRA.POLAR>
0

>  <SCORE.INTRA.POLAR.0>
0

>  <SCORE.INTRA.REPUL>
0

>  <SCORE.INTRA.REPUL.0>
0

>  <SCORE.INTRA.SOLV>
0.364986

>  <SCORE.INTRA.SOLV.lig_0>
-32.2894

>  <SCORE.INTRA.VDW>
-2.56467

>  <SCORE.INTRA.VDW.0>
2.0241

>  <SCORE.INTRA.norm>
-0.064245

>  <SCORE.RESTR>
0

>  <SCORE.RESTR.CAVITY>
0

>  <SCORE.RESTR.norm>
0

>  <SCORE.SYSTEM>
0

>  <SCORE.SYSTEM.CONST>
0

>  <SCORE.SYSTEM.DIHEDRAL>
0

>  <SCORE.SYSTEM.SOLV>
0

>  <SCORE.SYSTEM.norm>
0

>  <SCORE.heavy>
12

>  <SCORE.norm>
-0.743827

>  <RMSD>
6.349

$$$$
ligand
 OpenBabel11021811513D
libRbt.so/2013.1/901 2013/11/27
 12 12  0  0  0  0  0  0  0  0999 V2000
    5.3449    1.5657  -32.3116 O   0  0  0  0  0  0  0  0  0  0  0  0
    0.5098    2.1791  -27.3377 O   0  0  0  0  0  0  0  0  0  0  0  0
    5.6950    0.9116  -31.1501 C   0  0  0  0  0  0  0  0  0  0  0  0
    0.8428    4.5126  -26.7129 O   0  0  0  0  0  0  0  0  0  0  0  0
    4.6155    0.8687  -30.1483 C   0  0  0  0  0  0  0  0  0  0  0  0
    2.1837    2.7785  -25.6634 O   0  5  0  0  0  0  0  0  0  0  0  0
    4.0372    2.1983  -29.9119 N   0  3  0  0  0  0  0  0  0  0  0  0
    3.6610    2.8060  -31.1624 C   0  0  0  0  0  0  0  0  0  0  0  0
    4.7977    2.8049  -32.1312 C   0  0  0  0  0  0  0  0  0  0  0  0
    2.9144    2.0901  -29.0299 C   0  0  0  0  0  0  0  0  0  0  0  0
    2.7618    3.4038  -28.2221 C   0  0  0  0  0  0  0  0  0  0  0  0
    1.5235    3.1965  -26.9260 S   0  0  1  0  0  0  0  0  0  0  0  0
  1  3  1  0  0  0  0
  1  9  1  0  0  0  0
  2 12  1  0  0  0  0
  3  5  1  0  0  0  0
  4 12  2  0  0  0  0
  5  7  1  0  0  0  0
  6 12  2  0  0  0  0
  7  8  1  0  0  0  0
  7 10  1  0  0  0  0
  8  9  1  0  0  0  0
 10 11  1  0  0  0  0
 12 11  1  6  0  0  0
M  CHG  2   6  -1   7   1
M  END
>  <CHROM.1>
151.14066191,-171.06415015,-28.60759101,3.03964210,2.52579845,-28.96248846
0.48776336,0.84829211,-0.92165731

>  <Name>
ligand

>  <RI>
0

>  <Rbt.Current_Directory>
/home/itssahil/PROJECTS/Mol_Feturizer/New_Systems/rnas/4P95

>  <Rbt.Executable>
rbdock ($Id: //depot/dev/client3/rdock/2013.1/src/exe/rbdock.cxx#4 $)

>  <Rbt.Library>
libRbt.so (2013.1, Build901 2013/11/27)

>  <Rbt.Parameter_File>
/export/apps/rDock/src/rDock_2013.1_src/data/scripts/dock_solv.prm

>  <Rbt.Receptor>
prm/pocket_docking_6.prm

>  <SCORE>
-7.94198

>  <SCORE.INTER>
-7.16346

>  <SCORE.INTER.CONST>
1

>  <SCORE.INTER.POLAR>
0

>  <SCORE.INTER.ROT>
3

>  <SCORE.INTER.SOLV>
14.8425

>  <SCORE.INTER.VDW>
-15.3231

>  <SCORE.INTER.norm>
-0.596955

>  <SCORE.INTRA>
-0.778521

>  <SCORE.INTRA.DIHEDRAL>
3.0677

>  <SCORE.INTRA.DIHEDRAL.0>
0.283163

>  <SCORE.INTRA.POLAR>
0

>  <SCORE.INTRA.POLAR.0>
0

>  <SCORE.INTRA.REPUL>
0

>  <SCORE.INTRA.REPUL.0>
0

>  <SCORE.INTRA.SOLV>
-0.378544

>  <SCORE.INTRA.SOLV.lig_0>
-32.2894

>  <SCORE.INTRA.VDW>
-2.1231

>  <SCORE.INTRA.VDW.0>
2.0241

>  <SCORE.INTRA.norm>
-0.0648768

>  <SCORE.RESTR>
0

>  <SCORE.RESTR.CAVITY>
0

>  <SCORE.RESTR.norm>
0

>  <SCORE.SYSTEM>
0

>  <SCORE.SYSTEM.CONST>
0

>  <SCORE.SYSTEM.DIHEDRAL>
0

>  <SCORE.SYSTEM.SOLV>
0

>  <SCORE.SYSTEM.norm>
0

>  <SCORE.heavy>
12

>  <SCORE.norm>
-0.661832

>  <RMSD>
6.392

$$$$
ligand
 OpenBabel11021811513D
libRbt.so/2013.1/901 2013/11/27
 12 12  0  0  0  0  0  0  0  0999 V2000
    5.5718    2.2514  -32.6009 O   0  0  0  0  0  0  0  0  0  0  0  0
    3.4873    3.2740  -26.1471 O   0  0  0  0  0  0  0  0  0  0  0  0
    4.5613    3.1698  -32.7868 C   0  0  0  0  0  0  0  0  0  0  0  0
    1.3774    2.0545  -26.0607 O   0  0  0  0  0  0  0  0  0  0  0  0
    4.0620    3.7604  -31.5327 C   0  0  0  0  0  0  0  0  0  0  0  0
    1.4225    4.3303  -26.9123 O   0  5  0  0  0  0  0  0  0  0  0  0
    3.7323    2.7308  -30.5380 N   0  3  0  0  0  0  0  0  0  0  0  0
    4.8438    1.8307  -30.3676 C   0  0  0  0  0  0  0  0  0  0  0  0
    5.3035    1.2801  -31.6777 C   0  0  0  0  0  0  0  0  0  0  0  0
    3.3725    3.3503  -29.2983 C   0  0  0  0  0  0  0  0  0  0  0  0
    2.4470    2.4019  -28.4947 C   0  0  0  0  0  0  0  0  0  0  0  0
    2.1787    3.0548  -26.8340 S   0  0  1  0  0  0  0  0  0  0  0  0
  1  3  1  0  0  0  0
  1  9  1  0  0  0  0
  2 12  1  0  0  0  0
  3  5  1  0  0  0  0
  4 12  2  0  0  0  0
  5  7  1  0  0  0  0
  6 12  2  0  0  0  0
  7  8  1  0  0  0  0
  7 10  1  0  0  0  0
  8  9  1  0  0  0  0
 10 11  1  0  0  0  0
 12 11  1  6  0  0  0
M  CHG  2   6  -1   7   1
M  END
>  <CHROM.1>
154.55305175,171.73246104,-55.91033583,3.38155006,2.82287249,-29.13449056
-0.71871488,-0.90423187,2.18718358

>  <Name>
ligand

>  <RI>
0

>  <Rbt.Current_Directory>
/home/itssahil/PROJECTS/Mol_Feturizer/New_Systems/rnas/4P95

>  <Rbt.Executable>
rbdock ($Id: //depot/dev/client3/rdock/2013.1/src/exe/rbdock.cxx#4 $)

>  <Rbt.Library>
libRbt.so (2013.1, Build901 2013/11/27)

>  <Rbt.Parameter_File>
/export/apps/rDock/src/rDock_2013.1_src/data/scripts/dock_solv.prm

>  <Rbt.Receptor>
prm/pocket_docking_6.prm

>  <SCORE>
-10.3869

>  <SCORE.INTER>
-8.55515

>  <SCORE.INTER.CONST>
1

>  <SCORE.INTER.POLAR>
0

>  <SCORE.INTER.ROT>
3

>  <SCORE.INTER.SOLV>
14.8082

>  <SCORE.INTER.VDW>
-16.2395

>  <SCORE.INTER.norm>
-0.712929

>  <SCORE.INTRA>
-1.83176

>  <SCORE.INTRA.DIHEDRAL>
0.877858

>  <SCORE.INTRA.DIHEDRAL.0>
0.283163

>  <SCORE.INTRA.POLAR>
0

>  <SCORE.INTRA.POLAR.0>
0

>  <SCORE.INTRA.REPUL>
0

>  <SCORE.INTRA.REPUL.0>
0

>  <SCORE.INTRA.SOLV>
-0.102836

>  <SCORE.INTRA.SOLV.lig_0>
-32.2894

>  <SCORE.INTRA.VDW>
-2.21927

>  <SCORE.INTRA.VDW.0>
2.0241

>  <SCORE.INTRA.norm>
-0.152646

>  <SCORE.RESTR>
0

>  <SCORE.RESTR.CAVITY>
0

>  <SCORE.RESTR.norm>
0

>  <SCORE.SYSTEM>
0

>  <SCORE.SYSTEM.CONST>
0

>  <SCORE.SYSTEM.DIHEDRAL>
0

>  <SCORE.SYSTEM.SOLV>
0

>  <SCORE.SYSTEM.norm>
0

>  <SCORE.heavy>
12

>  <SCORE.norm>
-0.865575

>  <RMSD>
6.394

$$$$
ligand
 OpenBabel11021811513D
libRbt.so/2013.1/901 2013/11/27
 12 12  0  0  0  0  0  0  0  0999 V2000
    3.6019    3.0514  -28.0212 O   0  0  0  0  0  0  0  0  0  0  0  0
   -3.0031    0.1688  -28.2862 O   0  0  0  0  0  0  0  0  0  0  0  0
    2.5892    3.5397  -27.2242 C   0  0  0  0  0  0  0  0  0  0  0  0
   -1.6367   -1.1673  -29.8008 O   0  0  0  0  0  0  0  0  0  0  0  0
    1.4065    2.6627  -27.1685 C   0  0  0  0  0  0  0  0  0  0  0  0
   -3.2784    0.3805  -30.7037 O   0  5  0  0  0  0  0  0  0  0  0  0
    0.9511    2.2749  -28.5102 N   0  3  0  0  0  0  0  0  0  0  0  0
    2.0499    1.7400  -29.2726 C   0  0  0  0  0  0  0  0  0  0  0  0
    3.2149    2.6746  -29.2765 C   0  0  0  0  0  0  0  0  0  0  0  0
   -0.1170    1.3270  -28.4058 C   0  0  0  0  0  0  0  0  0  0  0  0
   -1.0343    1.4411  -29.6497 C   0  0  0  0  0  0  0  0  0  0  0  0
   -2.3032    0.1588  -29.6063 S   0  0  1  0  0  0  0  0  0  0  0  0
  1  3  1  0  0  0  0
  1  9  1  0  0  0  0
  2 12  1  0  0  0  0
  3  5  1  0  0  0  0
  4 12  2  0  0  0  0
  5  7  1  0  0  0  0
  6 12  2  0  0  0  0
  7  8  1  0  0  0  0
  7 10  1  0  0  0  0
  8  9  1  0  0  0  0
 10 11  1  0  0  0  0
 12 11  1  6  0  0  0
M  CHG  2   6  -1   7   1
M  END
>  <CHROM.1>
152.13457159,175.10415030,51.31215858,-0.08150160,1.35737171,-28.91477757
-0.44765181,-0.33657241,-2.04323389

>  <Name>
ligand

>  <RI>
0

>  <Rbt.Current_Directory>
/home/itssahil/PROJECTS/Mol_Feturizer/New_Systems/rnas/4P95

>  <Rbt.Executable>
rbdock ($Id: //depot/dev/client3/rdock/2013.1/src/exe/rbdock.cxx#4 $)

>  <Rbt.Library>
libRbt.so (2013.1, Build901 2013/11/27)

>  <Rbt.Parameter_File>
/export/apps/rDock/src/rDock_2013.1_src/data/scripts/dock_solv.prm

>  <Rbt.Receptor>
prm/pocket_docking_8.prm

>  <SCORE>
-8.32574

>  <SCORE.INTER>
-6.16559

>  <SCORE.INTER.CONST>
1

>  <SCORE.INTER.POLAR>
0

>  <SCORE.INTER.ROT>
3

>  <SCORE.INTER.SOLV>
6.14918

>  <SCORE.INTER.VDW>
-11.7601

>  <SCORE.INTER.norm>
-0.513799

>  <SCORE.INTRA>
-2.16015

>  <SCORE.INTRA.DIHEDRAL>
0.960499

>  <SCORE.INTRA.DIHEDRAL.0>
0.283163

>  <SCORE.INTRA.POLAR>
0

>  <SCORE.INTRA.POLAR.0>
0

>  <SCORE.INTRA.REPUL>
0

>  <SCORE.INTRA.REPUL.0>
0

>  <SCORE.INTRA.SOLV>
-0.726785

>  <SCORE.INTRA.SOLV.lig_0>
-32.2894

>  <SCORE.INTRA.VDW>
-2.277

>  <SCORE.INTRA.VDW.0>
2.0241

>  <SCORE.INTRA.norm>
-0.180012

>  <SCORE.RESTR>
0

>  <SCORE.RESTR.CAVITY>
0

>  <SCORE.RESTR.norm>
0

>  <SCORE.SYSTEM>
0

>  <SCORE.SYSTEM.CONST>
0

>  <SCORE.SYSTEM.DIHEDRAL>
0

>  <SCORE.SYSTEM.SOLV>
0

>  <SCORE.SYSTEM.norm>
0

>  <SCORE.heavy>
12

>  <SCORE.norm>
-0.693812

>  <RMSD>
6.394

$$$$
ligand
 OpenBabel11021811513D
libRbt.so/2013.1/901 2013/11/27
 12 12  0  0  0  0  0  0  0  0999 V2000
    4.5799    0.2285  -31.1965 O   0  0  0  0  0  0  0  0  0  0  0  0
    0.4743    4.2222  -26.7766 O   0  0  0  0  0  0  0  0  0  0  0  0
    3.6395   -0.0979  -30.2434 C   0  0  0  0  0  0  0  0  0  0  0  0
    1.3071    2.3420  -25.4658 O   0  0  0  0  0  0  0  0  0  0  0  0
    2.9158    1.0670  -29.7046 C   0  0  0  0  0  0  0  0  0  0  0  0
    0.6591    2.0050  -27.7838 O   0  5  0  0  0  0  0  0  0  0  0  0
    3.8350    2.1278  -29.2711 N   0  3  0  0  0  0  0  0  0  0  0  0
    4.7628    2.4432  -30.3268 C   0  0  0  0  0  0  0  0  0  0  0  0
    5.4501    1.2168  -30.8311 C   0  0  0  0  0  0  0  0  0  0  0  0
    3.0897    3.2840  -28.8737 C   0  0  0  0  0  0  0  0  0  0  0  0
    2.9705    3.3176  -27.3289 C   0  0  0  0  0  0  0  0  0  0  0  0
    1.2738    2.9610  -26.8284 S   0  0  1  0  0  0  0  0  0  0  0  0
  1  3  1  0  0  0  0
  1  9  1  0  0  0  0
  2 12  1  0  0  0  0
  3  5  1  0  0  0  0
  4 12  2  0  0  0  0
  5  7  1  0  0  0  0
  6 12  2  0  0  0  0
  7  8  1  0  0  0  0
  7 10  1  0  0  0  0
  8  9  1  0  0  0  0
 10 11  1  0  0  0  0
 12 11  1  6  0  0  0
M  CHG  2   6  -1   7   1
M  END
>  <CHROM.1>
99.62155147,-109.24421108,-88.36285783,2.71377899,2.17802049,-28.50649371
0.69814512,-0.66315928,-2.69314196

>  <Name>
ligand

>  <RI>
0

>  <Rbt.Current_Directory>
/home/itssahil/PROJECTS/Mol_Feturizer/New_Systems/rnas/4P95

>  <Rbt.Executable>
rbdock ($Id: //depot/dev/client3/rdock/2013.1/src/exe/rbdock.cxx#4 $)

>  <Rbt.Library>
libRbt.so (2013.1, Build901 2013/11/27)

>  <Rbt.Parameter_File>
/export/apps/rDock/src/rDock_2013.1_src/data/scripts/dock_solv.prm

>  <Rbt.Receptor>
prm/pocket_docking_7.prm

>  <SCORE>
-8.5557

>  <SCORE.INTER>
-11.2885

>  <SCORE.INTER.CONST>
1

>  <SCORE.INTER.POLAR>
0

>  <SCORE.INTER.ROT>
3

>  <SCORE.INTER.SOLV>
11.6774

>  <SCORE.INTER.VDW>
-17.0181

>  <SCORE.INTER.norm>
-0.94071

>  <SCORE.INTRA>
2.73282

>  <SCORE.INTRA.DIHEDRAL>
8.23081

>  <SCORE.INTRA.DIHEDRAL.0>
0.283163

>  <SCORE.INTRA.POLAR>
0

>  <SCORE.INTRA.POLAR.0>
0

>  <SCORE.INTRA.REPUL>
0

>  <SCORE.INTRA.REPUL.0>
0

>  <SCORE.INTRA.SOLV>
2.89087

>  <SCORE.INTRA.SOLV.lig_0>
-32.2894

>  <SCORE.INTRA.VDW>
-2.82802

>  <SCORE.INTRA.VDW.0>
2.0241

>  <SCORE.INTRA.norm>
0.227735

>  <SCORE.RESTR>
0

>  <SCORE.RESTR.CAVITY>
0

>  <SCORE.RESTR.norm>
0

>  <SCORE.SYSTEM>
0

>  <SCORE.SYSTEM.CONST>
0

>  <SCORE.SYSTEM.DIHEDRAL>
0

>  <SCORE.SYSTEM.SOLV>
0

>  <SCORE.SYSTEM.norm>
0

>  <SCORE.heavy>
12

>  <SCORE.norm>
-0.712975

>  <RMSD>
6.400

$$$$
ligand
 OpenBabel11021811513D
libRbt.so/2013.1/901 2013/11/27
 12 12  0  0  0  0  0  0  0  0999 V2000
    4.9142    1.6952  -30.0579 O   0  0  0  0  0  0  0  0  0  0  0  0
   -1.5817    2.6276  -27.2339 O   0  0  0  0  0  0  0  0  0  0  0  0
    4.3825    2.9301  -29.7553 C   0  0  0  0  0  0  0  0  0  0  0  0
   -1.7336    0.2882  -27.9050 O   0  0  0  0  0  0  0  0  0  0  0  0
    3.1495    2.8613  -28.9517 C   0  0  0  0  0  0  0  0  0  0  0  0
   -2.9412    1.9845  -29.1582 O   0  5  0  0  0  0  0  0  0  0  0  0
    2.1687    1.9364  -29.5352 N   0  3  0  0  0  0  0  0  0  0  0  0
    2.7817    0.6581  -29.7901 C   0  0  0  0  0  0  0  0  0  0  0  0
    4.0293    0.8048  -30.5981 C   0  0  0  0  0  0  0  0  0  0  0  0
    1.0431    1.8058  -28.6599 C   0  0  0  0  0  0  0  0  0  0  0  0
   -0.2664    1.8819  -29.4851 C   0  0  0  0  0  0  0  0  0  0  0  0
   -1.6967    1.7004  -28.3999 S   0  0  1  0  0  0  0  0  0  0  0  0
  1  3  1  0  0  0  0
  1  9  1  0  0  0  0
  2 12  1  0  0  0  0
  3  5  1  0  0  0  0
  4 12  2  0  0  0  0
  5  7  1  0  0  0  0
  6 12  2  0  0  0  0
  7  8  1  0  0  0  0
  7 10  1  0  0  0  0
  8  9  1  0  0  0  0
 10 11  1  0  0  0  0
 12 11  1  6  0  0  0
M  CHG  2   6  -1   7   1
M  END
>  <CHROM.1>
135.40661592,179.36314476,49.73667049,0.85770814,1.75386484,-29.03804748
0.08899654,-0.24528389,-2.70214605

>  <Name>
ligand

>  <RI>
0

>  <Rbt.Current_Directory>
/home/itssahil/PROJECTS/Mol_Feturizer/New_Systems/rnas/4P95

>  <Rbt.Executable>
rbdock ($Id: //depot/dev/client3/rdock/2013.1/src/exe/rbdock.cxx#4 $)

>  <Rbt.Library>
libRbt.so (2013.1, Build901 2013/11/27)

>  <Rbt.Parameter_File>
/export/apps/rDock/src/rDock_2013.1_src/data/scripts/dock_solv.prm

>  <Rbt.Receptor>
prm/pocket_docking_6.prm

>  <SCORE>
-8.39868

>  <SCORE.INTER>
-6.37652

>  <SCORE.INTER.CONST>
1

>  <SCORE.INTER.POLAR>
0

>  <SCORE.INTER.ROT>
3

>  <SCORE.INTER.SOLV>
5.66693

>  <SCORE.INTER.VDW>
-11.74

>  <SCORE.INTER.norm>
-0.531377

>  <SCORE.INTRA>
-2.02216

>  <SCORE.INTRA.DIHEDRAL>
1.91758

>  <SCORE.INTRA.DIHEDRAL.0>
0.283163

>  <SCORE.INTRA.POLAR>
0

>  <SCORE.INTRA.POLAR.0>
0

>  <SCORE.INTRA.REPUL>
0

>  <SCORE.INTRA.REPUL.0>
0

>  <SCORE.INTRA.SOLV>
-0.733793

>  <SCORE.INTRA.SOLV.lig_0>
-32.2894

>  <SCORE.INTRA.VDW>
-2.61406

>  <SCORE.INTRA.VDW.0>
2.0241

>  <SCORE.INTRA.norm>
-0.168514

>  <SCORE.RESTR>
0

>  <SCORE.RESTR.CAVITY>
0

>  <SCORE.RESTR.norm>
0

>  <SCORE.SYSTEM>
0

>  <SCORE.SYSTEM.CONST>
0

>  <SCORE.SYSTEM.DIHEDRAL>
0

>  <SCORE.SYSTEM.SOLV>
0

>  <SCORE.SYSTEM.norm>
0

>  <SCORE.heavy>
12

>  <SCORE.norm>
-0.69989

>  <RMSD>
6.533

$$$$
ligand
 OpenBabel11021811513D
libRbt.so/2013.1/901 2013/11/27
 12 12  0  0  0  0  0  0  0  0999 V2000
    5.4407    2.1321  -32.0201 O   0  0  0  0  0  0  0  0  0  0  0  0
    1.1198    4.5071  -26.8787 O   0  0  0  0  0  0  0  0  0  0  0  0
    4.6055    3.2258  -32.0961 C   0  0  0  0  0  0  0  0  0  0  0  0
    1.9232    2.4848  -25.7782 O   0  0  0  0  0  0  0  0  0  0  0  0
    4.0559    3.6407  -30.7936 C   0  0  0  0  0  0  0  0  0  0  0  0
   -0.3456    2.5673  -26.6453 O   0  5  0  0  0  0  0  0  0  0  0  0
    3.4640    2.5101  -30.0659 N   0  3  0  0  0  0  0  0  0  0  0  0
    4.4029    1.4202  -29.9926 C   0  0  0  0  0  0  0  0  0  0  0  0
    4.9261    1.0613  -31.3447 C   0  0  0  0  0  0  0  0  0  0  0  0
    3.0573    2.9323  -28.7595 C   0  0  0  0  0  0  0  0  0  0  0  0
    1.6536    2.3571  -28.4429 C   0  0  0  0  0  0  0  0  0  0  0  0
    1.0517    3.0146  -26.8739 S   0  0  1  0  0  0  0  0  0  0  0  0
  1  3  1  0  0  0  0
  1  9  1  0  0  0  0
  2 12  1  0  0  0  0
  3  5  1  0  0  0  0
  4 12  2  0  0  0  0
  5  7  1  0  0  0  0
  6 12  2  0  0  0  0
  7  8  1  0  0  0  0
  7 10  1  0  0  0  0
  8  9  1  0  0  0  0
 10 11  1  0  0  0  0
 12 11  1  6  0  0  0
M  CHG  2   6  -1   7   1
M  END
>  <CHROM.1>
136.05948486,-174.22202962,52.85046673,2.73325741,2.69879837,-28.87713684
-0.23839253,-0.87027674,2.67075378

>  <Name>
ligand

>  <RI>
0

>  <Rbt.Current_Directory>
/home/itssahil/PROJECTS/Mol_Feturizer/New_Systems/rnas/4P95

>  <Rbt.Executable>
rbdock ($Id: //depot/dev/client3/rdock/2013.1/src/exe/rbdock.cxx#4 $)

>  <Rbt.Library>
libRbt.so (2013.1, Build901 2013/11/27)

>  <Rbt.Parameter_File>
/export/apps/rDock/src/rDock_2013.1_src/data/scripts/dock_solv.prm

>  <Rbt.Receptor>
prm/pocket_docking_6.prm

>  <SCORE>
-10.3279

>  <SCORE.INTER>
-8.2939

>  <SCORE.INTER.CONST>
1

>  <SCORE.INTER.POLAR>
0

>  <SCORE.INTER.ROT>
3

>  <SCORE.INTER.SOLV>
11.6827

>  <SCORE.INTER.VDW>
-15.0235

>  <SCORE.INTER.norm>
-0.691159

>  <SCORE.INTRA>
-2.03399

>  <SCORE.INTRA.DIHEDRAL>
1.89034

>  <SCORE.INTRA.DIHEDRAL.0>
0.283163

>  <SCORE.INTRA.POLAR>
0

>  <SCORE.INTRA.POLAR.0>
0

>  <SCORE.INTRA.REPUL>
0

>  <SCORE.INTRA.REPUL.0>
0

>  <SCORE.INTRA.SOLV>
-0.730174

>  <SCORE.INTRA.SOLV.lig_0>
-32.2894

>  <SCORE.INTRA.VDW>
-2.61407

>  <SCORE.INTRA.VDW.0>
2.0241

>  <SCORE.INTRA.norm>
-0.169499

>  <SCORE.RESTR>
0

>  <SCORE.RESTR.CAVITY>
0

>  <SCORE.RESTR.norm>
0

>  <SCORE.SYSTEM>
0

>  <SCORE.SYSTEM.CONST>
0

>  <SCORE.SYSTEM.DIHEDRAL>
0

>  <SCORE.SYSTEM.SOLV>
0

>  <SCORE.SYSTEM.norm>
0

>  <SCORE.heavy>
12

>  <SCORE.norm>
-0.860657

>  <RMSD>
6.555

$$$$
ligand
 OpenBabel11021811513D
libRbt.so/2013.1/901 2013/11/27
 12 12  0  0  0  0  0  0  0  0999 V2000
    3.5084    3.0931  -27.8725 O   0  0  0  0  0  0  0  0  0  0  0  0
   -2.3233   -0.7492  -29.1876 O   0  0  0  0  0  0  0  0  0  0  0  0
    2.4570    3.5573  -27.1119 C   0  0  0  0  0  0  0  0  0  0  0  0
   -3.7879    0.9911  -30.0664 O   0  0  0  0  0  0  0  0  0  0  0  0
    1.2916    2.6559  -27.1029 C   0  0  0  0  0  0  0  0  0  0  0  0
   -3.3658    0.8616  -27.6766 O   0  5  0  0  0  0  0  0  0  0  0  0
    0.8941    2.2642  -28.4618 N   0  3  0  0  0  0  0  0  0  0  0  0
    2.0312    1.7550  -29.1847 C   0  0  0  0  0  0  0  0  0  0  0  0
    3.1760    2.7134  -29.1425 C   0  0  0  0  0  0  0  0  0  0  0  0
   -0.1573    1.2941  -28.4000 C   0  0  0  0  0  0  0  0  0  0  0  0
   -1.3675    1.7882  -29.2323 C   0  0  0  0  0  0  0  0  0  0  0  0
   -2.7663    0.6679  -29.0211 S   0  0  1  0  0  0  0  0  0  0  0  0
  1  3  1  0  0  0  0
  1  9  1  0  0  0  0
  2 12  1  0  0  0  0
  3  5  1  0  0  0  0
  4 12  2  0  0  0  0
  5  7  1  0  0  0  0
  6 12  2  0  0  0  0
  7  8  1  0  0  0  0
  7 10  1  0  0  0  0
  8  9  1  0  0  0  0
 10 11  1  0  0  0  0
 12 11  1  6  0  0  0
M  CHG  2   6  -1   7   1
M  END
>  <CHROM.1>
125.09111464,-173.83790937,-47.64735633,-0.34715662,1.61324682,-28.58979640
0.32061697,0.26827050,1.08103610

>  <Name>
ligand

>  <RI>
0

>  <Rbt.Current_Directory>
/home/itssahil/PROJECTS/Mol_Feturizer/New_Systems/rnas/4P95

>  <Rbt.Executable>
rbdock ($Id: //depot/dev/client3/rdock/2013.1/src/exe/rbdock.cxx#4 $)

>  <Rbt.Library>
libRbt.so (2013.1, Build901 2013/11/27)

>  <Rbt.Parameter_File>
/export/apps/rDock/src/rDock_2013.1_src/data/scripts/dock_solv.prm

>  <Rbt.Receptor>
prm/pocket_docking_8.prm

>  <SCORE>
-7.41361

>  <SCORE.INTER>
-5.93526

>  <SCORE.INTER.CONST>
1

>  <SCORE.INTER.POLAR>
0

>  <SCORE.INTER.ROT>
3

>  <SCORE.INTER.SOLV>
6.23712

>  <SCORE.INTER.VDW>
-11.6359

>  <SCORE.INTER.norm>
-0.494605

>  <SCORE.INTRA>
-1.47835

>  <SCORE.INTRA.DIHEDRAL>
2.5987

>  <SCORE.INTRA.DIHEDRAL.0>
0.283163

>  <SCORE.INTRA.POLAR>
0

>  <SCORE.INTRA.POLAR.0>
0

>  <SCORE.INTRA.REPUL>
0

>  <SCORE.INTRA.REPUL.0>
0

>  <SCORE.INTRA.SOLV>
-0.196422

>  <SCORE.INTRA.SOLV.lig_0>
-32.2894

>  <SCORE.INTRA.VDW>
-2.67949

>  <SCORE.INTRA.VDW.0>
2.0241

>  <SCORE.INTRA.norm>
-0.123196

>  <SCORE.RESTR>
0

>  <SCORE.RESTR.CAVITY>
0

>  <SCORE.RESTR.norm>
0

>  <SCORE.SYSTEM>
0

>  <SCORE.SYSTEM.CONST>
0

>  <SCORE.SYSTEM.DIHEDRAL>
0

>  <SCORE.SYSTEM.SOLV>
0

>  <SCORE.SYSTEM.norm>
0

>  <SCORE.heavy>
12

>  <SCORE.norm>
-0.6178

>  <RMSD>
6.886

$$$$
ligand
 OpenBabel11021811513D
libRbt.so/2013.1/901 2013/11/27
 12 12  0  0  0  0  0  0  0  0999 V2000
    3.3457    3.1839  -27.4631 O   0  0  0  0  0  0  0  0  0  0  0  0
   -2.4755   -0.4863  -27.5313 O   0  0  0  0  0  0  0  0  0  0  0  0
    2.1893    3.4521  -26.7631 C   0  0  0  0  0  0  0  0  0  0  0  0
   -2.6747   -0.0286  -29.9182 O   0  0  0  0  0  0  0  0  0  0  0  0
    1.0974    2.5024  -27.0404 C   0  0  0  0  0  0  0  0  0  0  0  0
   -4.1091    1.1384  -28.3412 O   0  5  0  0  0  0  0  0  0  0  0  0
    0.8747    2.3330  -28.4825 N   0  3  0  0  0  0  0  0  0  0  0  0
    2.1153    2.0186  -29.1433 C   0  0  0  0  0  0  0  0  0  0  0  0
    3.1772    3.0142  -28.8087 C   0  0  0  0  0  0  0  0  0  0  0  0
   -0.1046    1.3126  -28.7064 C   0  0  0  0  0  0  0  0  0  0  0  0
   -1.5195    1.8845  -28.4366 C   0  0  0  0  0  0  0  0  0  0  0  0
   -2.7526    0.5718  -28.5492 S   0  0  1  0  0  0  0  0  0  0  0  0
  1  3  1  0  0  0  0
  1  9  1  0  0  0  0
  2 12  1  0  0  0  0
  3  5  1  0  0  0  0
  4 12  2  0  0  0  0
  5  7  1  0  0  0  0
  6 12  2  0  0  0  0
  7  8  1  0  0  0  0
  7 10  1  0  0  0  0
  8  9  1  0  0  0  0
 10 11  1  0  0  0  0
 12 11  1  1  0  0  0
M  CHG  2   6  -1   7   1
M  END
>  <CHROM.1>
77.72500562,-174.24045374,60.68703038,-0.37612397,1.60065126,-28.29362092
0.26944034,0.34508493,1.16403669

>  <Name>
ligand

>  <RI>
0

>  <Rbt.Current_Directory>
/home/itssahil/PROJECTS/Mol_Feturizer/New_Systems/rnas/4P95

>  <Rbt.Executable>
rbdock ($Id: //depot/dev/client3/rdock/2013.1/src/exe/rbdock.cxx#4 $)

>  <Rbt.Library>
libRbt.so (2013.1, Build901 2013/11/27)

>  <Rbt.Parameter_File>
/export/apps/rDock/src/rDock_2013.1_src/data/scripts/dock_solv.prm

>  <Rbt.Receptor>
prm/pocket_docking_8.prm

>  <SCORE>
-9.67346

>  <SCORE.INTER>
-7.54999

>  <SCORE.INTER.CONST>
1

>  <SCORE.INTER.POLAR>
0

>  <SCORE.INTER.ROT>
3

>  <SCORE.INTER.SOLV>
5.60487

>  <SCORE.INTER.VDW>
-12.5016

>  <SCORE.INTER.norm>
-0.629166

>  <SCORE.INTRA>
-2.12347

>  <SCORE.INTRA.DIHEDRAL>
0.386262

>  <SCORE.INTRA.DIHEDRAL.0>
0.283163

>  <SCORE.INTRA.POLAR>
0

>  <SCORE.INTRA.POLAR.0>
0

>  <SCORE.INTRA.REPUL>
0

>  <SCORE.INTRA.REPUL.0>
0

>  <SCORE.INTRA.SOLV>
-0.704979

>  <SCORE.INTRA.SOLV.lig_0>
-32.2894

>  <SCORE.INTRA.VDW>
-1.96411

>  <SCORE.INTRA.VDW.0>
2.0241

>  <SCORE.INTRA.norm>
-0.176956

>  <SCORE.RESTR>
0

>  <SCORE.RESTR.CAVITY>
0

>  <SCORE.RESTR.norm>
0

>  <SCORE.SYSTEM>
0

>  <SCORE.SYSTEM.CONST>
0

>  <SCORE.SYSTEM.DIHEDRAL>
0

>  <SCORE.SYSTEM.SOLV>
0

>  <SCORE.SYSTEM.norm>
0

>  <SCORE.heavy>
12

>  <SCORE.norm>
-0.806122

>  <RMSD>
6.997

$$$$
ligand
 OpenBabel11021811513D
libRbt.so/2013.1/901 2013/11/27
 12 12  0  0  0  0  0  0  0  0999 V2000
    3.4281    3.1002  -27.6509 O   0  0  0  0  0  0  0  0  0  0  0  0
   -4.3158    2.8183  -26.2681 O   0  0  0  0  0  0  0  0  0  0  0  0
    2.7307    3.2404  -26.4705 C   0  0  0  0  0  0  0  0  0  0  0  0
   -3.0414    0.7410  -26.1835 O   0  0  0  0  0  0  0  0  0  0  0  0
    1.4091    2.5891  -26.4845 C   0  0  0  0  0  0  0  0  0  0  0  0
   -3.5833    1.7383  -28.3324 O   0  5  0  0  0  0  0  0  0  0  0  0
    0.6260    2.9691  -27.6679 N   0  3  0  0  0  0  0  0  0  0  0  0
    1.4011    2.7619  -28.8641 C   0  0  0  0  0  0  0  0  0  0  0  0
    2.7294    3.4392  -28.7754 C   0  0  0  0  0  0  0  0  0  0  0  0
   -0.5936    2.2197  -27.7046 C   0  0  0  0  0  0  0  0  0  0  0  0
   -1.6726    2.9448  -26.8609 C   0  0  0  0  0  0  0  0  0  0  0  0
   -3.2271    2.0303  -26.9209 S   0  0  1  0  0  0  0  0  0  0  0  0
  1  3  1  0  0  0  0
  1  9  1  0  0  0  0
  2 12  1  0  0  0  0
  3  5  1  0  0  0  0
  4 12  2  0  0  0  0
  5  7  1  0  0  0  0
  6 12  2  0  0  0  0
  7  8  1  0  0  0  0
  7 10  1  0  0  0  0
  8  9  1  0  0  0  0
 10 11  1  0  0  0  0
 12 11  1  1  0  0  0
M  CHG  2   6  -1   7   1
M  END
>  <CHROM.1>
86.12736031,178.93732803,-172.23671643,-0.67277026,2.48285168,-27.29915323
-0.14232799,0.18043179,1.61642129

>  <Name>
ligand

>  <RI>
0

>  <Rbt.Current_Directory>
/home/itssahil/PROJECTS/Mol_Feturizer/New_Systems/rnas/4P95

>  <Rbt.Executable>
rbdock ($Id: //depot/dev/client3/rdock/2013.1/src/exe/rbdock.cxx#4 $)

>  <Rbt.Library>
libRbt.so (2013.1, Build901 2013/11/27)

>  <Rbt.Parameter_File>
/export/apps/rDock/src/rDock_2013.1_src/data/scripts/dock_solv.prm

>  <Rbt.Receptor>
prm/pocket_docking_8.prm

>  <SCORE>
-10.4972

>  <SCORE.INTER>
-8.81024

>  <SCORE.INTER.CONST>
1

>  <SCORE.INTER.POLAR>
0

>  <SCORE.INTER.ROT>
3

>  <SCORE.INTER.SOLV>
6.99549

>  <SCORE.INTER.VDW>
-13.8053

>  <SCORE.INTER.norm>
-0.734186

>  <SCORE.INTRA>
-1.68692

>  <SCORE.INTRA.DIHEDRAL>
0.923085

>  <SCORE.INTRA.DIHEDRAL.0>
0.283163

>  <SCORE.INTRA.POLAR>
0

>  <SCORE.INTRA.POLAR.0>
0

>  <SCORE.INTRA.REPUL>
0

>  <SCORE.INTRA.REPUL.0>
0

>  <SCORE.INTRA.SOLV>
0.278813

>  <SCORE.INTRA.SOLV.lig_0>
-32.2894

>  <SCORE.INTRA.VDW>
-2.28787

>  <SCORE.INTRA.VDW.0>
2.0241

>  <SCORE.INTRA.norm>
-0.140576

>  <SCORE.RESTR>
0

>  <SCORE.RESTR.CAVITY>
0

>  <SCORE.RESTR.norm>
0

>  <SCORE.SYSTEM>
0

>  <SCORE.SYSTEM.CONST>
0

>  <SCORE.SYSTEM.DIHEDRAL>
0

>  <SCORE.SYSTEM.SOLV>
0

>  <SCORE.SYSTEM.norm>
0

>  <SCORE.heavy>
12

>  <SCORE.norm>
-0.874763

>  <RMSD>
8.173

$$$$
ligand
 OpenBabel11021811513D
libRbt.so/2013.1/901 2013/11/27
 12 12  0  0  0  0  0  0  0  0999 V2000
    2.6427    1.2879  -18.2167 O   0  0  0  0  0  0  0  0  0  0  0  0
   -1.1443    2.1232  -22.2074 O   0  0  0  0  0  0  0  0  0  0  0  0
    3.4993    0.6050  -19.0529 C   0  0  0  0  0  0  0  0  0  0  0  0
   -1.0440   -0.0318  -21.0705 O   0  0  0  0  0  0  0  0  0  0  0  0
    3.3241    0.9379  -20.4774 C   0  0  0  0  0  0  0  0  0  0  0  0
   -1.8786    0.0931  -23.3496 O   0  5  0  0  0  0  0  0  0  0  0  0
    1.9173    0.8463  -20.8902 N   0  3  0  0  0  0  0  0  0  0  0  0
    1.0864    1.6116  -19.9966 C   0  0  0  0  0  0  0  0  0  0  0  0
    1.3244    1.2302  -18.5723 C   0  0  0  0  0  0  0  0  0  0  0  0
    1.7771    1.2974  -22.2420 C   0  0  0  0  0  0  0  0  0  0  0  0
    0.7789    0.3802  -22.9932 C   0  0  0  0  0  0  0  0  0  0  0  0
   -0.8984    0.6607  -22.3896 S   0  0  1  0  0  0  0  0  0  0  0  0
  1  3  1  0  0  0  0
  1  9  1  0  0  0  0
  2 12  1  0  0  0  0
  3  5  1  0  0  0  0
  4 12  2  0  0  0  0
  5  7  1  0  0  0  0
  6 12  2  0  0  0  0
  7  8  1  0  0  0  0
  7 10  1  0  0  0  0
  8  9  1  0  0  0  0
 10 11  1  0  0  0  0
 12 11  1  6  0  0  0
M  CHG  2   6  -1   7   1
M  END
>  <CHROM.1>
139.73519235,70.80306376,42.29774673,0.72414731,0.89395511,-21.09847847,0.74231250
0.00234901,1.45183114

>  <Name>
ligand

>  <RI>
0

>  <Rbt.Current_Directory>
/home/itssahil/PROJECTS/Mol_Feturizer/New_Systems/rnas/4P95

>  <Rbt.Executable>
rbdock ($Id: //depot/dev/client3/rdock/2013.1/src/exe/rbdock.cxx#4 $)

>  <Rbt.Library>
libRbt.so (2013.1, Build901 2013/11/27)

>  <Rbt.Parameter_File>
/export/apps/rDock/src/rDock_2013.1_src/data/scripts/dock_solv.prm

>  <Rbt.Receptor>
prm/blind_docking_100.prm

>  <SCORE>
-8.74984

>  <SCORE.INTER>
-7.09966

>  <SCORE.INTER.CONST>
1

>  <SCORE.INTER.POLAR>
0

>  <SCORE.INTER.ROT>
3

>  <SCORE.INTER.SOLV>
15.6932

>  <SCORE.INTER.VDW>
-15.5642

>  <SCORE.INTER.norm>
-0.591639

>  <SCORE.INTRA>
-1.65017

>  <SCORE.INTRA.DIHEDRAL>
2.56768

>  <SCORE.INTRA.DIHEDRAL.0>
0.283163

>  <SCORE.INTRA.POLAR>
0

>  <SCORE.INTRA.POLAR.0>
0

>  <SCORE.INTRA.REPUL>
0

>  <SCORE.INTRA.REPUL.0>
0

>  <SCORE.INTRA.SOLV>
0.0105961

>  <SCORE.INTRA.SOLV.lig_0>
-32.2894

>  <SCORE.INTRA.VDW>
-2.93931

>  <SCORE.INTRA.VDW.0>
2.0241

>  <SCORE.INTRA.norm>
-0.137514

>  <SCORE.RESTR>
0

>  <SCORE.RESTR.CAVITY>
0

>  <SCORE.RESTR.norm>
0

>  <SCORE.SYSTEM>
0

>  <SCORE.SYSTEM.CONST>
0

>  <SCORE.SYSTEM.DIHEDRAL>
0

>  <SCORE.SYSTEM.SOLV>
0

>  <SCORE.SYSTEM.norm>
0

>  <SCORE.heavy>
12

>  <SCORE.norm>
-0.729153

>  <RMSD>
11.796

$$$$
ligand
 OpenBabel11021811513D
libRbt.so/2013.1/901 2013/11/27
 12 12  0  0  0  0  0  0  0  0999 V2000
    8.9398    1.2921  -16.8440 O   0  0  0  0  0  0  0  0  0  0  0  0
    6.0092    4.0577  -23.1616 O   0  0  0  0  0  0  0  0  0  0  0  0
    8.4175    0.5685  -17.8942 C   0  0  0  0  0  0  0  0  0  0  0  0
    8.0837    5.2529  -22.6988 O   0  0  0  0  0  0  0  0  0  0  0  0
    8.7609    1.1169  -19.2179 C   0  0  0  0  0  0  0  0  0  0  0  0
    6.4406    4.9578  -20.9327 O   0  5  0  0  0  0  0  0  0  0  0  0
    8.4710    2.5544  -19.3049 N   0  3  0  0  0  0  0  0  0  0  0  0
    9.0771    3.2513  -18.1996 C   0  0  0  0  0  0  0  0  0  0  0  0
    8.6951    2.6357  -16.8934 C   0  0  0  0  0  0  0  0  0  0  0  0
    8.9344    3.0686  -20.5583 C   0  0  0  0  0  0  0  0  0  0  0  0
    7.8752    2.7918  -21.6552 C   0  0  0  0  0  0  0  0  0  0  0  0
    7.0545    4.3275  -22.1287 S   0  0  1  0  0  0  0  0  0  0  0  0
  1  3  1  0  0  0  0
  1  9  1  0  0  0  0
  2 12  1  0  0  0  0
  3  5  1  0  0  0  0
  4 12  2  0  0  0  0
  5  7  1  0  0  0  0
  6 12  2  0  0  0  0
  7  8  1  0  0  0  0
  7 10  1  0  0  0  0
  8  9  1  0  0  0  0
 10 11  1  0  0  0  0
 12 11  1  1  0  0  0
M  CHG  2   6  -1   7   1
M  END
>  <CHROM.1>
82.78025700,107.96751103,-178.59295013,7.94131871,3.15045036,-20.19776345
-0.19795253,-1.24578230,0.32768987

>  <Name>
ligand

>  <RI>
0

>  <Rbt.Current_Directory>
/home/itssahil/PROJECTS/Mol_Feturizer/New_Systems/rnas/4P95

>  <Rbt.Executable>
rbdock ($Id: //depot/dev/client3/rdock/2013.1/src/exe/rbdock.cxx#4 $)

>  <Rbt.Library>
libRbt.so (2013.1, Build901 2013/11/27)

>  <Rbt.Parameter_File>
/export/apps/rDock/src/rDock_2013.1_src/data/scripts/dock_solv.prm

>  <Rbt.Receptor>
prm/blind_docking_100.prm

>  <SCORE>
51.9537

>  <SCORE.INTER>
50.0408

>  <SCORE.INTER.CONST>
1

>  <SCORE.INTER.POLAR>
0

>  <SCORE.INTER.ROT>
3

>  <SCORE.INTER.SOLV>
25.639

>  <SCORE.INTER.VDW>
19.2142

>  <SCORE.INTER.norm>
4.17006

>  <SCORE.INTRA>
1.21546

>  <SCORE.INTRA.DIHEDRAL>
5.54241

>  <SCORE.INTRA.DIHEDRAL.0>
0.283163

>  <SCORE.INTRA.POLAR>
0

>  <SCORE.INTRA.POLAR.0>
0

>  <SCORE.INTRA.REPUL>
0

>  <SCORE.INTRA.REPUL.0>
0

>  <SCORE.INTRA.SOLV>
1.65518

>  <SCORE.INTRA.SOLV.lig_0>
-32.2894

>  <SCORE.INTRA.VDW>
-2.38334

>  <SCORE.INTRA.VDW.0>
2.0241

>  <SCORE.INTRA.norm>
0.101288

>  <SCORE.RESTR>
0.69745

>  <SCORE.RESTR.CAVITY>
0.69745

>  <SCORE.RESTR.norm>
0.0581208

>  <SCORE.SYSTEM>
0

>  <SCORE.SYSTEM.CONST>
0

>  <SCORE.SYSTEM.DIHEDRAL>
0

>  <SCORE.SYSTEM.SOLV>
0

>  <SCORE.SYSTEM.norm>
0

>  <SCORE.heavy>
12

>  <SCORE.norm>
4.32947

>  <RMSD>
13.165

$$$$
ligand
 OpenBabel11021811513D
libRbt.so/2013.1/901 2013/11/27
 12 12  0  0  0  0  0  0  0  0999 V2000
    6.8959    4.7780  -22.5997 O   0  0  0  0  0  0  0  0  0  0  0  0
   10.1424    0.5951  -17.1022 O   0  0  0  0  0  0  0  0  0  0  0  0
    6.9481    5.3160  -21.3320 C   0  0  0  0  0  0  0  0  0  0  0  0
    7.7418    0.1667  -17.1232 O   0  0  0  0  0  0  0  0  0  0  0  0
    8.0023    4.7308  -20.4852 C   0  0  0  0  0  0  0  0  0  0  0  0
    8.5597    2.4460  -16.9179 O   0  5  0  0  0  0  0  0  0  0  0  0
    7.9532    3.2626  -20.4891 N   0  3  0  0  0  0  0  0  0  0  0  0
    7.9389    2.7696  -21.8424 C   0  0  0  0  0  0  0  0  0  0  0  0
    6.8550    3.4127  -22.6439 C   0  0  0  0  0  0  0  0  0  0  0  0
    9.0668    2.7372  -19.7581 C   0  0  0  0  0  0  0  0  0  0  0  0
    8.7676    1.2757  -19.3385 C   0  0  0  0  0  0  0  0  0  0  0  0
    8.8152    1.1227  -17.5411 S   0  0  1  0  0  0  0  0  0  0  0  0
  1  3  1  0  0  0  0
  1  9  1  0  0  0  0
  2 12  1  0  0  0  0
  3  5  1  0  0  0  0
  4 12  2  0  0  0  0
  5  7  1  0  0  0  0
  6 12  2  0  0  0  0
  7  8  1  0  0  0  0
  7 10  1  0  0  0  0
  8  9  1  0  0  0  0
 10 11  1  0  0  0  0
 12 11  1  6  0  0  0
M  CHG  2   6  -1   7   1
M  END
>  <CHROM.1>
160.33437378,-120.18913521,-97.95795058,8.21112551,2.54031536,-19.50395582
3.02554969,-1.28349553,0.50674615

>  <Name>
ligand

>  <RI>
0

>  <Rbt.Current_Directory>
/home/itssahil/PROJECTS/Mol_Feturizer/New_Systems/rnas/4P95

>  <Rbt.Executable>
rbdock ($Id: //depot/dev/client3/rdock/2013.1/src/exe/rbdock.cxx#4 $)

>  <Rbt.Library>
libRbt.so (2013.1, Build901 2013/11/27)

>  <Rbt.Parameter_File>
/export/apps/rDock/src/rDock_2013.1_src/data/scripts/dock_solv.prm

>  <Rbt.Receptor>
prm/blind_docking_60.prm

>  <SCORE>
34.526

>  <SCORE.INTER>
30.6907

>  <SCORE.INTER.CONST>
1

>  <SCORE.INTER.POLAR>
0

>  <SCORE.INTER.ROT>
3

>  <SCORE.INTER.SOLV>
24.112

>  <SCORE.INTER.VDW>
6.82312

>  <SCORE.INTER.norm>
2.55756

>  <SCORE.INTRA>
3.01363

>  <SCORE.INTRA.DIHEDRAL>
8.22911

>  <SCORE.INTRA.DIHEDRAL.0>
0.283163

>  <SCORE.INTRA.POLAR>
0

>  <SCORE.INTRA.POLAR.0>
0

>  <SCORE.INTRA.REPUL>
0

>  <SCORE.INTRA.REPUL.0>
0

>  <SCORE.INTRA.SOLV>
1.46729

>  <SCORE.INTRA.SOLV.lig_0>
-32.2894

>  <SCORE.INTRA.VDW>
-1.83457

>  <SCORE.INTRA.VDW.0>
2.0241

>  <SCORE.INTRA.norm>
0.251136

>  <SCORE.RESTR>
0.821735

>  <SCORE.RESTR.CAVITY>
0.821735

>  <SCORE.RESTR.norm>
0.0684779

>  <SCORE.SYSTEM>
0

>  <SCORE.SYSTEM.CONST>
0

>  <SCORE.SYSTEM.DIHEDRAL>
0

>  <SCORE.SYSTEM.SOLV>
0

>  <SCORE.SYSTEM.norm>
0

>  <SCORE.heavy>
12

>  <SCORE.norm>
2.87717

>  <RMSD>
13.479

$$$$
ligand
 OpenBabel11021811513D
libRbt.so/2013.1/901 2013/11/27
 12 12  0  0  0  0  0  0  0  0999 V2000
    6.9565    4.8061  -22.3483 O   0  0  0  0  0  0  0  0  0  0  0  0
    9.8538    2.1390  -16.8083 O   0  0  0  0  0  0  0  0  0  0  0  0
    6.8698    5.2060  -21.0323 C   0  0  0  0  0  0  0  0  0  0  0  0
   10.7520    0.0783  -17.7535 O   0  0  0  0  0  0  0  0  0  0  0  0
    7.8963    4.6043  -20.1634 C   0  0  0  0  0  0  0  0  0  0  0  0
    8.5983    0.0519  -16.6278 O   0  5  0  0  0  0  0  0  0  0  0  0
    7.9584    3.1452  -20.3218 N   0  3  0  0  0  0  0  0  0  0  0  0
    8.0860    2.8017  -21.7148 C   0  0  0  0  0  0  0  0  0  0  0  0
    7.0220    3.4539  -22.5353 C   0  0  0  0  0  0  0  0  0  0  0  0
    9.0484    2.6192  -19.5566 C   0  0  0  0  0  0  0  0  0  0  0  0
    8.6980    1.1900  -19.0705 C   0  0  0  0  0  0  0  0  0  0  0  0
    9.5010    0.8567  -17.4893 S   0  0  1  0  0  0  0  0  0  0  0  0
  1  3  1  0  0  0  0
  1  9  1  0  0  0  0
  2 12  1  0  0  0  0
  3  5  1  0  0  0  0
  4 12  2  0  0  0  0
  5  7  1  0  0  0  0
  6 12  2  0  0  0  0
  7  8  1  0  0  0  0
  7 10  1  0  0  0  0
  8  9  1  0  0  0  0
 10 11  1  0  0  0  0
 12 11  1  6  0  0  0
M  CHG  2   6  -1   7   1
M  END
>  <CHROM.1>
148.90852493,-149.16892247,21.21896798,8.56010520,2.38643536,-19.37059164
2.99094501,1.17033922,-2.29586092

>  <Name>
ligand

>  <RI>
0

>  <Rbt.Current_Directory>
/home/itssahil/PROJECTS/Mol_Feturizer/New_Systems/rnas/4P95

>  <Rbt.Executable>
rbdock ($Id: //depot/dev/client3/rdock/2013.1/src/exe/rbdock.cxx#4 $)

>  <Rbt.Library>
libRbt.so (2013.1, Build901 2013/11/27)

>  <Rbt.Parameter_File>
/export/apps/rDock/src/rDock_2013.1_src/data/scripts/dock_solv.prm

>  <Rbt.Receptor>
prm/blind_docking_100.prm

>  <SCORE>
33.3602

>  <SCORE.INTER>
31.7361

>  <SCORE.INTER.CONST>
1

>  <SCORE.INTER.POLAR>
0

>  <SCORE.INTER.ROT>
3

>  <SCORE.INTER.SOLV>
21.6905

>  <SCORE.INTER.VDW>
8.32724

>  <SCORE.INTER.norm>
2.64468

>  <SCORE.INTRA>
0.676713

>  <SCORE.INTRA.DIHEDRAL>
6.33505

>  <SCORE.INTRA.DIHEDRAL.0>
0.283163

>  <SCORE.INTRA.POLAR>
0

>  <SCORE.INTRA.POLAR.0>
0

>  <SCORE.INTRA.REPUL>
0

>  <SCORE.INTRA.REPUL.0>
0

>  <SCORE.INTRA.SOLV>
-0.684725

>  <SCORE.INTRA.SOLV.lig_0>
-32.2894

>  <SCORE.INTRA.VDW>
-2.14845

>  <SCORE.INTRA.VDW.0>
2.0241

>  <SCORE.INTRA.norm>
0.0563927

>  <SCORE.RESTR>
0.947409

>  <SCORE.RESTR.CAVITY>
0.947409

>  <SCORE.RESTR.norm>
0.0789507

>  <SCORE.SYSTEM>
0

>  <SCORE.SYSTEM.CONST>
0

>  <SCORE.SYSTEM.DIHEDRAL>
0

>  <SCORE.SYSTEM.SOLV>
0

>  <SCORE.SYSTEM.norm>
0

>  <SCORE.heavy>
12

>  <SCORE.norm>
2.78002

>  <RMSD>
13.642

$$$$
ligand
 OpenBabel11021811513D
libRbt.so/2013.1/901 2013/11/27
 12 12  0  0  0  0  0  0  0  0999 V2000
    6.9869    4.7786  -22.3527 O   0  0  0  0  0  0  0  0  0  0  0  0
   10.7518    0.0393  -17.6974 O   0  0  0  0  0  0  0  0  0  0  0  0
    6.9033    5.1894  -21.0399 C   0  0  0  0  0  0  0  0  0  0  0  0
    8.5802    0.0730  -16.5886 O   0  0  0  0  0  0  0  0  0  0  0  0
    7.9234    4.5843  -20.1657 C   0  0  0  0  0  0  0  0  0  0  0  0
    9.8614    2.1276  -16.7969 O   0  5  0  0  0  0  0  0  0  0  0  0
    7.9712    3.1235  -20.3130 N   0  3  0  0  0  0  0  0  0  0  0  0
    8.0962    2.7681  -21.7032 C   0  0  0  0  0  0  0  0  0  0  0  0
    7.0392    3.4245  -22.5294 C   0  0  0  0  0  0  0  0  0  0  0  0
    9.0556    2.5927  -19.5431 C   0  0  0  0  0  0  0  0  0  0  0  0
    8.6825    1.1791  -19.0290 C   0  0  0  0  0  0  0  0  0  0  0  0
    9.5164    0.8466  -17.4637 S   0  0  1  0  0  0  0  0  0  0  0  0
  1  3  1  0  0  0  0
  1  9  1  0  0  0  0
  2 12  1  0  0  0  0
  3  5  1  0  0  0  0
  4 12  2  0  0  0  0
  5  7  1  0  0  0  0
  6 12  2  0  0  0  0
  7  8  1  0  0  0  0
  7 10  1  0  0  0  0
  8  9  1  0  0  0  0
 10 11  1  0  0  0  0
 12 11  1  6  0  0  0
M  CHG  2   6  -1   7   1
M  END
>  <CHROM.1>
148.08681032,-150.42939284,-98.00835179,8.57093323,2.36861540,-19.35279005
2.99755648,1.17485365,-2.30900222

>  <Name>
ligand

>  <RI>
0

>  <Rbt.Current_Directory>
/home/itssahil/PROJECTS/Mol_Feturizer/New_Systems/rnas/4P95

>  <Rbt.Executable>
rbdock ($Id: //depot/dev/client3/rdock/2013.1/src/exe/rbdock.cxx#4 $)

>  <Rbt.Library>
libRbt.so (2013.1, Build901 2013/11/27)

>  <Rbt.Parameter_File>
/export/apps/rDock/src/rDock_2013.1_src/data/scripts/dock_solv.prm

>  <Rbt.Receptor>
prm/blind_docking_100.prm

>  <SCORE>
34.9546

>  <SCORE.INTER>
32.7314

>  <SCORE.INTER.CONST>
1

>  <SCORE.INTER.POLAR>
0

>  <SCORE.INTER.ROT>
3

>  <SCORE.INTER.SOLV>
23.2807

>  <SCORE.INTER.VDW>
8.46067

>  <SCORE.INTER.norm>
2.72761

>  <SCORE.INTRA>
1.30656

>  <SCORE.INTRA.DIHEDRAL>
6.13753

>  <SCORE.INTRA.DIHEDRAL.0>
0.283163

>  <SCORE.INTRA.POLAR>
0

>  <SCORE.INTRA.POLAR.0>
0

>  <SCORE.INTRA.REPUL>
0

>  <SCORE.INTRA.REPUL.0>
0

>  <SCORE.INTRA.SOLV>
0.793156

>  <SCORE.INTRA.SOLV.lig_0>
-32.2894

>  <SCORE.INTRA.VDW>
-2.15878

>  <SCORE.INTRA.VDW.0>
2.0241

>  <SCORE.INTRA.norm>
0.10888

>  <SCORE.RESTR>
0.916721

>  <SCORE.RESTR.CAVITY>
0.916721

>  <SCORE.RESTR.norm>
0.0763934

>  <SCORE.SYSTEM>
0

>  <SCORE.SYSTEM.CONST>
0

>  <SCORE.SYSTEM.DIHEDRAL>
0

>  <SCORE.SYSTEM.SOLV>
0

>  <SCORE.SYSTEM.norm>
0

>  <SCORE.heavy>
12

>  <SCORE.norm>
2.91289

>  <RMSD>
13.659

$$$$
ligand
 OpenBabel11021811513D
libRbt.so/2013.1/901 2013/11/27
 12 12  0  0  0  0  0  0  0  0999 V2000
    7.4352    3.9831  -22.5080 O   0  0  0  0  0  0  0  0  0  0  0  0
   10.3394    1.7439  -16.4254 O   0  0  0  0  0  0  0  0  0  0  0  0
    7.4116    4.7777  -21.3823 C   0  0  0  0  0  0  0  0  0  0  0  0
   11.0383   -0.0612  -17.9086 O   0  0  0  0  0  0  0  0  0  0  0  0
    8.3160    4.3163  -20.3146 C   0  0  0  0  0  0  0  0  0  0  0  0
    9.2385   -0.4336  -16.3184 O   0  5  0  0  0  0  0  0  0  0  0  0
    8.1288    2.8894  -20.0197 N   0  3  0  0  0  0  0  0  0  0  0  0
    8.2027    2.1173  -21.2334 C   0  0  0  0  0  0  0  0  0  0  0  0
    7.2698    2.6471  -22.2725 C   0  0  0  0  0  0  0  0  0  0  0  0
    9.1092    2.4568  -19.0699 C   0  0  0  0  0  0  0  0  0  0  0  0
    8.6839    1.0918  -18.4719 C   0  0  0  0  0  0  0  0  0  0  0  0
    9.8690    0.5668  -17.2163 S   0  0  1  0  0  0  0  0  0  0  0  0
  1  3  1  0  0  0  0
  1  9  1  0  0  0  0
  2 12  1  0  0  0  0
  3  5  1  0  0  0  0
  4 12  2  0  0  0  0
  5  7  1  0  0  0  0
  6 12  2  0  0  0  0
  7  8  1  0  0  0  0
  7 10  1  0  0  0  0
  8  9  1  0  0  0  0
 10 11  1  0  0  0  0
 12 11  1  6  0  0  0
M  CHG  2   6  -1   7   1
M  END
>  <CHROM.1>
164.55536606,-177.38405852,37.88613977,8.88800335,1.99006239,-19.17672232
2.76921842,-1.14582518,0.21008598

>  <Name>
ligand

>  <RI>
0

>  <Rbt.Current_Directory>
/home/itssahil/PROJECTS/Mol_Feturizer/New_Systems/rnas/4P95

>  <Rbt.Executable>
rbdock ($Id: //depot/dev/client3/rdock/2013.1/src/exe/rbdock.cxx#4 $)

>  <Rbt.Library>
libRbt.so (2013.1, Build901 2013/11/27)

>  <Rbt.Parameter_File>
/export/apps/rDock/src/rDock_2013.1_src/data/scripts/dock_solv.prm

>  <Rbt.Receptor>
prm/blind_docking_80.prm

>  <SCORE>
36.106

>  <SCORE.INTER>
37.2407

>  <SCORE.INTER.CONST>
1

>  <SCORE.INTER.POLAR>
0

>  <SCORE.INTER.ROT>
3

>  <SCORE.INTER.SOLV>
21.1101

>  <SCORE.INTER.VDW>
12.1904

>  <SCORE.INTER.norm>
3.10339

>  <SCORE.INTRA>
-1.46195

>  <SCORE.INTRA.DIHEDRAL>
1.08552

>  <SCORE.INTRA.DIHEDRAL.0>
0.283163

>  <SCORE.INTRA.POLAR>
0

>  <SCORE.INTRA.POLAR.0>
0

>  <SCORE.INTRA.REPUL>
0

>  <SCORE.INTRA.REPUL.0>
0

>  <SCORE.INTRA.SOLV>
-0.731032

>  <SCORE.INTRA.SOLV.lig_0>
-32.2894

>  <SCORE.INTRA.VDW>
-1.63919

>  <SCORE.INTRA.VDW.0>
2.0241

>  <SCORE.INTRA.norm>
-0.121829

>  <SCORE.RESTR>
0.327255

>  <SCORE.RESTR.CAVITY>
0.327255

>  <SCORE.RESTR.norm>
0.0272712

>  <SCORE.SYSTEM>
0

>  <SCORE.SYSTEM.CONST>
0

>  <SCORE.SYSTEM.DIHEDRAL>
0

>  <SCORE.SYSTEM.SOLV>
0

>  <SCORE.SYSTEM.norm>
0

>  <SCORE.heavy>
12

>  <SCORE.norm>
3.00883

>  <RMSD>
13.879

$$$$
ligand
 OpenBabel11021811513D
libRbt.so/2013.1/901 2013/11/27
 12 12  0  0  0  0  0  0  0  0999 V2000
    7.6458    4.4797  -21.9746 O   0  0  0  0  0  0  0  0  0  0  0  0
    9.3832   -0.6429  -16.1900 O   0  0  0  0  0  0  0  0  0  0  0  0
    7.8041    4.8076  -20.6455 C   0  0  0  0  0  0  0  0  0  0  0  0
   10.4607    1.5373  -16.3694 O   0  0  0  0  0  0  0  0  0  0  0  0
    8.6965    3.8918  -19.9136 C   0  0  0  0  0  0  0  0  0  0  0  0
   11.0537   -0.2341  -17.9240 O   0  5  0  0  0  0  0  0  0  0  0  0
    8.3259    2.4857  -20.1225 N   0  3  0  0  0  0  0  0  0  0  0  0
    8.2152    2.2051  -21.5309 C   0  0  0  0  0  0  0  0  0  0  0  0
    7.3061    3.1769  -22.2091 C   0  0  0  0  0  0  0  0  0  0  0  0
    9.2904    1.6310  -19.4983 C   0  0  0  0  0  0  0  0  0  0  0  0
    8.6538    0.9486  -18.2610 C   0  0  0  0  0  0  0  0  0  0  0  0
    9.9427    0.3641  -17.1415 S   0  0  1  0  0  0  0  0  0  0  0  0
  1  3  1  0  0  0  0
  1  9  1  0  0  0  0
  2 12  1  0  0  0  0
  3  5  1  0  0  0  0
  4 12  2  0  0  0  0
  5  7  1  0  0  0  0
  6 12  2  0  0  0  0
  7  8  1  0  0  0  0
  7 10  1  0  0  0  0
  8  9  1  0  0  0  0
 10 11  1  0  0  0  0
 12 11  1  6  0  0  0
M  CHG  2   6  -1   7   1
M  END
>  <CHROM.1>
109.64790538,-159.68531291,-162.44745327,9.02517894,1.86603198,-19.06437222
-2.80873827,1.17594681,-2.82446905

>  <Name>
ligand

>  <RI>
0

>  <Rbt.Current_Directory>
/home/itssahil/PROJECTS/Mol_Feturizer/New_Systems/rnas/4P95

>  <Rbt.Executable>
rbdock ($Id: //depot/dev/client3/rdock/2013.1/src/exe/rbdock.cxx#4 $)

>  <Rbt.Library>
libRbt.so (2013.1, Build901 2013/11/27)

>  <Rbt.Parameter_File>
/export/apps/rDock/src/rDock_2013.1_src/data/scripts/dock_solv.prm

>  <Rbt.Receptor>
prm/blind_docking_100.prm

>  <SCORE>
42.3391

>  <SCORE.INTER>
42.2202

>  <SCORE.INTER.CONST>
1

>  <SCORE.INTER.POLAR>
0

>  <SCORE.INTER.ROT>
3

>  <SCORE.INTER.SOLV>
26.6933

>  <SCORE.INTER.VDW>
13.6491

>  <SCORE.INTER.norm>
3.51835

>  <SCORE.INTRA>
-0.364652

>  <SCORE.INTRA.DIHEDRAL>
4.15793

>  <SCORE.INTRA.DIHEDRAL.0>
0.283163

>  <SCORE.INTRA.POLAR>
0

>  <SCORE.INTRA.POLAR.0>
0

>  <SCORE.INTRA.REPUL>
0

>  <SCORE.INTRA.REPUL.0>
0

>  <SCORE.INTRA.SOLV>
0.346118

>  <SCORE.INTRA.SOLV.lig_0>
-32.2894

>  <SCORE.INTRA.VDW>
-2.61668

>  <SCORE.INTRA.VDW.0>
2.0241

>  <SCORE.INTRA.norm>
-0.0303876

>  <SCORE.RESTR>
0.483479

>  <SCORE.RESTR.CAVITY>
0.483479

>  <SCORE.RESTR.norm>
0.0402899

>  <SCORE.SYSTEM>
0

>  <SCORE.SYSTEM.CONST>
0

>  <SCORE.SYSTEM.DIHEDRAL>
0

>  <SCORE.SYSTEM.SOLV>
0

>  <SCORE.SYSTEM.norm>
0

>  <SCORE.heavy>
12

>  <SCORE.norm>
3.52826

>  <RMSD>
13.952

$$$$
ligand
 OpenBabel11021811513D
libRbt.so/2013.1/901 2013/11/27
 12 12  0  0  0  0  0  0  0  0999 V2000
    1.1322    2.8419  -15.4043 O   0  0  0  0  0  0  0  0  0  0  0  0
    0.5751    2.5503  -20.0000 O   0  0  0  0  0  0  0  0  0  0  0  0
    0.1562    1.9538  -15.8017 C   0  0  0  0  0  0  0  0  0  0  0  0
   -0.3392    0.2976  -20.1894 O   0  0  0  0  0  0  0  0  0  0  0  0
    0.6731    0.8234  -16.5929 C   0  0  0  0  0  0  0  0  0  0  0  0
    0.9230    1.2475  -22.0363 O   0  5  0  0  0  0  0  0  0  0  0  0
    1.5279    1.2766  -17.6983 N   0  3  0  0  0  0  0  0  0  0  0  0
    2.5454    2.1693  -17.2058 C   0  0  0  0  0  0  0  0  0  0  0  0
    1.9516    3.2819  -16.4055 C   0  0  0  0  0  0  0  0  0  0  0  0
    2.1064    0.1464  -18.3601 C   0  0  0  0  0  0  0  0  0  0  0  0
    2.3158    0.4756  -19.8600 C   0  0  0  0  0  0  0  0  0  0  0  0
    0.8097    1.1839  -20.5572 S   0  0  1  0  0  0  0  0  0  0  0  0
  1  3  1  0  0  0  0
  1  9  1  0  0  0  0
  2 12  1  0  0  0  0
  3  5  1  0  0  0  0
  4 12  2  0  0  0  0
  5  7  1  0  0  0  0
  6 12  2  0  0  0  0
  7  8  1  0  0  0  0
  7 10  1  0  0  0  0
  8  9  1  0  0  0  0
 10 11  1  0  0  0  0
 12 11  1  1  0  0  0
M  CHG  2   6  -1   7   1
M  END
>  <CHROM.1>
148.88196027,-48.72639198,69.60224452,1.13658903,1.49812599,-18.59155264
1.20245568,-1.30432109,0.95923913

>  <Name>
ligand

>  <RI>
0

>  <Rbt.Current_Directory>
/home/itssahil/PROJECTS/Mol_Feturizer/New_Systems/rnas/4P95

>  <Rbt.Executable>
rbdock ($Id: //depot/dev/client3/rdock/2013.1/src/exe/rbdock.cxx#4 $)

>  <Rbt.Library>
libRbt.so (2013.1, Build901 2013/11/27)

>  <Rbt.Parameter_File>
/export/apps/rDock/src/rDock_2013.1_src/data/scripts/dock_solv.prm

>  <Rbt.Receptor>
prm/blind_docking_60.prm

>  <SCORE>
1.13457

>  <SCORE.INTER>
3.6201

>  <SCORE.INTER.CONST>
1

>  <SCORE.INTER.POLAR>
0

>  <SCORE.INTER.ROT>
3

>  <SCORE.INTER.SOLV>
13.628

>  <SCORE.INTER.VDW>
-7.72927

>  <SCORE.INTER.norm>
0.301675

>  <SCORE.INTRA>
-2.48553

>  <SCORE.INTRA.DIHEDRAL>
1.6397

>  <SCORE.INTRA.DIHEDRAL.0>
0.283163

>  <SCORE.INTRA.POLAR>
0

>  <SCORE.INTRA.POLAR.0>
0

>  <SCORE.INTRA.REPUL>
0

>  <SCORE.INTRA.REPUL.0>
0

>  <SCORE.INTRA.SOLV>
-0.197365

>  <SCORE.INTRA.SOLV.lig_0>
-32.2894

>  <SCORE.INTRA.VDW>
-3.20669

>  <SCORE.INTRA.VDW.0>
2.0241

>  <SCORE.INTRA.norm>
-0.207127

>  <SCORE.RESTR>
0

>  <SCORE.RESTR.CAVITY>
0

>  <SCORE.RESTR.norm>
0

>  <SCORE.SYSTEM>
0

>  <SCORE.SYSTEM.CONST>
0

>  <SCORE.SYSTEM.DIHEDRAL>
0

>  <SCORE.SYSTEM.SOLV>
0

>  <SCORE.SYSTEM.norm>
0

>  <SCORE.heavy>
12

>  <SCORE.norm>
0.0945475

>  <RMSD>
13.979

$$$$
ligand
 OpenBabel11021811513D
libRbt.so/2013.1/901 2013/11/27
 12 12  0  0  0  0  0  0  0  0999 V2000
    7.6614    4.4628  -21.9644 O   0  0  0  0  0  0  0  0  0  0  0  0
   11.0384   -0.1831  -18.0567 O   0  0  0  0  0  0  0  0  0  0  0  0
    7.8241    4.8026  -20.6387 C   0  0  0  0  0  0  0  0  0  0  0  0
    9.0764   -0.6508  -16.6863 O   0  0  0  0  0  0  0  0  0  0  0  0
    8.7034    3.8821  -19.8968 C   0  0  0  0  0  0  0  0  0  0  0  0
   10.7395    0.9422  -15.9098 O   0  5  0  0  0  0  0  0  0  0  0  0
    8.3130    2.4793  -20.0909 N   0  3  0  0  0  0  0  0  0  0  0  0
    8.1985    2.1852  -21.4962 C   0  0  0  0  0  0  0  0  0  0  0  0
    7.3033    3.1625  -22.1851 C   0  0  0  0  0  0  0  0  0  0  0  0
    9.2651    1.6177  -19.4572 C   0  0  0  0  0  0  0  0  0  0  0  0
    9.1217    1.7303  -17.9182 C   0  0  0  0  0  0  0  0  0  0  0  0
   10.0460    0.4083  -17.1093 S   0  0  1  0  0  0  0  0  0  0  0  0
  1  3  1  0  0  0  0
  1  9  1  0  0  0  0
  2 12  1  0  0  0  0
  3  5  1  0  0  0  0
  4 12  2  0  0  0  0
  5  7  1  0  0  0  0
  6 12  2  0  0  0  0
  7  8  1  0  0  0  0
  7 10  1  0  0  0  0
  8  9  1  0  0  0  0
 10 11  1  0  0  0  0
 12 11  1  6  0  0  0
M  CHG  2   6  -1   7   1
M  END
>  <CHROM.1>
70.94765332,167.73310091,17.69819832,9.07151060,1.87794447,-19.03622227,-2.83298057
1.16305150,-2.80687197

>  <Name>
ligand

>  <RI>
0

>  <Rbt.Current_Directory>
/home/itssahil/PROJECTS/Mol_Feturizer/New_Systems/rnas/4P95

>  <Rbt.Executable>
rbdock ($Id: //depot/dev/client3/rdock/2013.1/src/exe/rbdock.cxx#4 $)

>  <Rbt.Library>
libRbt.so (2013.1, Build901 2013/11/27)

>  <Rbt.Parameter_File>
/export/apps/rDock/src/rDock_2013.1_src/data/scripts/dock_solv.prm

>  <Rbt.Receptor>
prm/blind_docking_40.prm

>  <SCORE>
37.9208

>  <SCORE.INTER>
37.3715

>  <SCORE.INTER.CONST>
1

>  <SCORE.INTER.POLAR>
0

>  <SCORE.INTER.ROT>
3

>  <SCORE.INTER.SOLV>
20.2841

>  <SCORE.INTER.VDW>
12.553

>  <SCORE.INTER.norm>
3.11429

>  <SCORE.INTRA>
0.0697607

>  <SCORE.INTRA.DIHEDRAL>
3.32794

>  <SCORE.INTRA.DIHEDRAL.0>
0.283163

>  <SCORE.INTRA.POLAR>
0

>  <SCORE.INTRA.POLAR.0>
0

>  <SCORE.INTRA.REPUL>
0

>  <SCORE.INTRA.REPUL.0>
0

>  <SCORE.INTRA.SOLV>
-0.686289

>  <SCORE.INTRA.SOLV.lig_0>
-32.2894

>  <SCORE.INTRA.VDW>
-1.25107

>  <SCORE.INTRA.VDW.0>
2.0241

>  <SCORE.INTRA.norm>
0.00581339

>  <SCORE.RESTR>
0.479491

>  <SCORE.RESTR.CAVITY>
0.479491

>  <SCORE.RESTR.norm>
0.0399576

>  <SCORE.SYSTEM>
0

>  <SCORE.SYSTEM.CONST>
0

>  <SCORE.SYSTEM.DIHEDRAL>
0

>  <SCORE.SYSTEM.SOLV>
0

>  <SCORE.SYSTEM.norm>
0

>  <SCORE.heavy>
12

>  <SCORE.norm>
3.16007

>  <RMSD>
14.010

$$$$
ligand
 OpenBabel11021811513D
libRbt.so/2013.1/901 2013/11/27
 12 12  0  0  0  0  0  0  0  0999 V2000
    9.0829   -0.6064  -15.9282 O   0  0  0  0  0  0  0  0  0  0  0  0
    7.9855    3.3436  -22.6938 O   0  0  0  0  0  0  0  0  0  0  0  0
   10.2360   -0.3459  -16.6365 C   0  0  0  0  0  0  0  0  0  0  0  0
    8.1840    4.4783  -20.5445 O   0  0  0  0  0  0  0  0  0  0  0  0
   10.1509    0.8583  -17.4812 C   0  0  0  0  0  0  0  0  0  0  0  0
    6.2038    3.1571  -21.0338 O   0  5  0  0  0  0  0  0  0  0  0  0
    8.9453    0.8519  -18.3205 N   0  3  0  0  0  0  0  0  0  0  0  0
    7.7779    0.6122  -17.5116 C   0  0  0  0  0  0  0  0  0  0  0  0
    7.9386   -0.6149  -16.6753 C   0  0  0  0  0  0  0  0  0  0  0  0
    8.8394    2.0922  -19.0283 C   0  0  0  0  0  0  0  0  0  0  0  0
    8.4829    1.8139  -20.5106 C   0  0  0  0  0  0  0  0  0  0  0  0
    7.6717    3.2534  -21.2358 S   0  0  1  0  0  0  0  0  0  0  0  0
  1  3  1  0  0  0  0
  1  9  1  0  0  0  0
  2 12  1  0  0  0  0
  3  5  1  0  0  0  0
  4 12  2  0  0  0  0
  5  7  1  0  0  0  0
  6 12  2  0  0  0  0
  7  8  1  0  0  0  0
  7 10  1  0  0  0  0
  8  9  1  0  0  0  0
 10 11  1  0  0  0  0
 12 11  1  1  0  0  0
M  CHG  2   6  -1   7   1
M  END
>  <CHROM.1>
134.61044288,155.90874977,149.00097079,8.36101218,1.77182573,-19.22142818
1.31618442,0.11897934,2.25139962

>  <Name>
ligand

>  <RI>
0

>  <Rbt.Current_Directory>
/home/itssahil/PROJECTS/Mol_Feturizer/New_Systems/rnas/4P95

>  <Rbt.Executable>
rbdock ($Id: //depot/dev/client3/rdock/2013.1/src/exe/rbdock.cxx#4 $)

>  <Rbt.Library>
libRbt.so (2013.1, Build901 2013/11/27)

>  <Rbt.Parameter_File>
/export/apps/rDock/src/rDock_2013.1_src/data/scripts/dock_solv.prm

>  <Rbt.Receptor>
prm/blind_docking_40.prm

>  <SCORE>
25.2609

>  <SCORE.INTER>
24.3201

>  <SCORE.INTER.CONST>
1

>  <SCORE.INTER.POLAR>
0

>  <SCORE.INTER.ROT>
3

>  <SCORE.INTER.SOLV>
23.0462

>  <SCORE.INTER.VDW>
2.93134

>  <SCORE.INTER.norm>
2.02668

>  <SCORE.INTRA>
0.339828

>  <SCORE.INTRA.DIHEDRAL>
5.48002

>  <SCORE.INTRA.DIHEDRAL.0>
0.283163

>  <SCORE.INTRA.POLAR>
0

>  <SCORE.INTRA.POLAR.0>
0

>  <SCORE.INTRA.REPUL>
0

>  <SCORE.INTRA.REPUL.0>
0

>  <SCORE.INTRA.SOLV>
0.0692112

>  <SCORE.INTRA.SOLV.lig_0>
-32.2894

>  <SCORE.INTRA.VDW>
-2.43479

>  <SCORE.INTRA.VDW.0>
2.0241

>  <SCORE.INTRA.norm>
0.028319

>  <SCORE.RESTR>
0.600981

>  <SCORE.RESTR.CAVITY>
0.600981

>  <SCORE.RESTR.norm>
0.0500818

>  <SCORE.SYSTEM>
0

>  <SCORE.SYSTEM.CONST>
0

>  <SCORE.SYSTEM.DIHEDRAL>
0

>  <SCORE.SYSTEM.SOLV>
0

>  <SCORE.SYSTEM.norm>
0

>  <SCORE.heavy>
12

>  <SCORE.norm>
2.10508

>  <RMSD>
14.022

$$$$
ligand
 OpenBabel11021811513D
libRbt.so/2013.1/901 2013/11/27
 12 12  0  0  0  0  0  0  0  0999 V2000
    7.5740    3.8990  -22.1332 O   0  0  0  0  0  0  0  0  0  0  0  0
   10.7562    1.2021  -16.0068 O   0  0  0  0  0  0  0  0  0  0  0  0
    7.7096    4.5156  -20.9082 C   0  0  0  0  0  0  0  0  0  0  0  0
   11.0406   -0.3326  -17.8805 O   0  0  0  0  0  0  0  0  0  0  0  0
    8.6658    3.8433  -20.0113 C   0  0  0  0  0  0  0  0  0  0  0  0
    9.4251   -0.8413  -16.1376 O   0  5  0  0  0  0  0  0  0  0  0  0
    8.3964    2.4029  -19.9074 N   0  3  0  0  0  0  0  0  0  0  0  0
    8.3047    1.8186  -21.2207 C   0  0  0  0  0  0  0  0  0  0  0  0
    7.3280    2.5559  -22.0769 C   0  0  0  0  0  0  0  0  0  0  0  0
    9.4199    1.7719  -19.1299 C   0  0  0  0  0  0  0  0  0  0  0  0
    8.7890    1.1234  -17.8717 C   0  0  0  0  0  0  0  0  0  0  0  0
   10.0520    0.2531  -16.9211 S   0  0  1  0  0  0  0  0  0  0  0  0
  1  3  1  0  0  0  0
  1  9  1  0  0  0  0
  2 12  1  0  0  0  0
  3  5  1  0  0  0  0
  4 12  2  0  0  0  0
  5  7  1  0  0  0  0
  6 12  2  0  0  0  0
  7  8  1  0  0  0  0
  7 10  1  0  0  0  0
  8  9  1  0  0  0  0
 10 11  1  0  0  0  0
 12 11  1  6  0  0  0
M  CHG  2   6  -1   7   1
M  END
>  <CHROM.1>
118.93968010,177.21225168,84.77881215,9.08723922,1.66725943,-18.92712755
2.72245724,-1.14052245,0.16219528

>  <Name>
ligand

>  <RI>
0

>  <Rbt.Current_Directory>
/home/itssahil/PROJECTS/Mol_Feturizer/New_Systems/rnas/4P95

>  <Rbt.Executable>
rbdock ($Id: //depot/dev/client3/rdock/2013.1/src/exe/rbdock.cxx#4 $)

>  <Rbt.Library>
libRbt.so (2013.1, Build901 2013/11/27)

>  <Rbt.Parameter_File>
/export/apps/rDock/src/rDock_2013.1_src/data/scripts/dock_solv.prm

>  <Rbt.Receptor>
prm/blind_docking_80.prm

>  <SCORE>
44.5969

>  <SCORE.INTER>
45.4053

>  <SCORE.INTER.CONST>
1

>  <SCORE.INTER.POLAR>
0

>  <SCORE.INTER.ROT>
3

>  <SCORE.INTER.SOLV>
21.5863

>  <SCORE.INTER.VDW>
17.4747

>  <SCORE.INTER.norm>
3.78377

>  <SCORE.INTRA>
-1.04791

>  <SCORE.INTRA.DIHEDRAL>
3.52106

>  <SCORE.INTRA.DIHEDRAL.0>
0.283163

>  <SCORE.INTRA.POLAR>
0

>  <SCORE.INTRA.POLAR.0>
0

>  <SCORE.INTRA.REPUL>
0

>  <SCORE.INTRA.REPUL.0>
0

>  <SCORE.INTRA.SOLV>
-0.613648

>  <SCORE.INTRA.SOLV.lig_0>
-32.2894

>  <SCORE.INTRA.VDW>
-2.50161

>  <SCORE.INTRA.VDW.0>
2.0241

>  <SCORE.INTRA.norm>
-0.0873255

>  <SCORE.RESTR>
0.23949

>  <SCORE.RESTR.CAVITY>
0.23949

>  <SCORE.RESTR.norm>
0.0199575

>  <SCORE.SYSTEM>
0

>  <SCORE.SYSTEM.CONST>
0

>  <SCORE.SYSTEM.DIHEDRAL>
0

>  <SCORE.SYSTEM.SOLV>
0

>  <SCORE.SYSTEM.norm>
0

>  <SCORE.heavy>
12

>  <SCORE.norm>
3.7164

>  <RMSD>
14.117

$$$$
ligand
 OpenBabel11021811513D
libRbt.so/2013.1/901 2013/11/27
 12 12  0  0  0  0  0  0  0  0999 V2000
    7.6138    3.8588  -22.1331 O   0  0  0  0  0  0  0  0  0  0  0  0
   10.8338    1.1688  -15.9293 O   0  0  0  0  0  0  0  0  0  0  0  0
    7.7116    4.4714  -20.9025 C   0  0  0  0  0  0  0  0  0  0  0  0
   10.9952   -0.3347  -17.8424 O   0  0  0  0  0  0  0  0  0  0  0  0
    8.6660    3.8165  -19.9910 C   0  0  0  0  0  0  0  0  0  0  0  0
    9.3706   -0.7799  -16.0906 O   0  5  0  0  0  0  0  0  0  0  0  0
    8.4285    2.3697  -19.8998 N   0  3  0  0  0  0  0  0  0  0  0  0
    8.3756    1.7908  -21.2177 C   0  0  0  0  0  0  0  0  0  0  0  0
    7.3983    2.5100  -22.0886 C   0  0  0  0  0  0  0  0  0  0  0  0
    9.4515    1.7583  -19.1061 C   0  0  0  0  0  0  0  0  0  0  0  0
    8.8437    1.2639  -17.7690 C   0  0  0  0  0  0  0  0  0  0  0  0
   10.0583    0.2903  -16.8563 S   0  0  1  0  0  0  0  0  0  0  0  0
  1  3  1  0  0  0  0
  1  9  1  0  0  0  0
  2 12  1  0  0  0  0
  3  5  1  0  0  0  0
  4 12  2  0  0  0  0
  5  7  1  0  0  0  0
  6 12  2  0  0  0  0
  7  8  1  0  0  0  0
  7 10  1  0  0  0  0
  8  9  1  0  0  0  0
 10 11  1  0  0  0  0
 12 11  1  6  0  0  0
M  CHG  2   6  -1   7   1
M  END
>  <CHROM.1>
110.99910477,172.14344194,91.62383603,9.10861262,1.66855166,-18.89210489
2.80898027,-1.16161810,0.23946414

>  <Name>
ligand

>  <RI>
0

>  <Rbt.Current_Directory>
/home/itssahil/PROJECTS/Mol_Feturizer/New_Systems/rnas/4P95

>  <Rbt.Executable>
rbdock ($Id: //depot/dev/client3/rdock/2013.1/src/exe/rbdock.cxx#4 $)

>  <Rbt.Library>
libRbt.so (2013.1, Build901 2013/11/27)

>  <Rbt.Parameter_File>
/export/apps/rDock/src/rDock_2013.1_src/data/scripts/dock_solv.prm

>  <Rbt.Receptor>
prm/blind_docking_40.prm

>  <SCORE>
45.1375

>  <SCORE.INTER>
45.4756

>  <SCORE.INTER.CONST>
1

>  <SCORE.INTER.POLAR>
0

>  <SCORE.INTER.ROT>
3

>  <SCORE.INTER.SOLV>
21.551

>  <SCORE.INTER.VDW>
17.5334

>  <SCORE.INTER.norm>
3.78963

>  <SCORE.INTRA>
-0.553668

>  <SCORE.INTRA.DIHEDRAL>
4.26163

>  <SCORE.INTRA.DIHEDRAL.0>
0.283163

>  <SCORE.INTRA.POLAR>
0

>  <SCORE.INTRA.POLAR.0>
0

>  <SCORE.INTRA.REPUL>
0

>  <SCORE.INTRA.REPUL.0>
0

>  <SCORE.INTRA.SOLV>
-0.561826

>  <SCORE.INTRA.SOLV.lig_0>
-32.2894

>  <SCORE.INTRA.VDW>
-2.40357

>  <SCORE.INTRA.VDW.0>
2.0241

>  <SCORE.INTRA.norm>
-0.046139

>  <SCORE.RESTR>
0.215522

>  <SCORE.RESTR.CAVITY>
0.215522

>  <SCORE.RESTR.norm>
0.0179602

>  <SCORE.SYSTEM>
0

>  <SCORE.SYSTEM.CONST>
0

>  <SCORE.SYSTEM.DIHEDRAL>
0

>  <SCORE.SYSTEM.SOLV>
0

>  <SCORE.SYSTEM.norm>
0

>  <SCORE.heavy>
12

>  <SCORE.norm>
3.76145

>  <RMSD>
14.161

$$$$
ligand
 OpenBabel11021811513D
libRbt.so/2013.1/901 2013/11/27
 12 12  0  0  0  0  0  0  0  0999 V2000
    7.6442    3.8025  -22.0420 O   0  0  0  0  0  0  0  0  0  0  0  0
   11.2041   -0.4825  -17.8584 O   0  0  0  0  0  0  0  0  0  0  0  0
    7.7800    4.4033  -20.8091 C   0  0  0  0  0  0  0  0  0  0  0  0
    9.5236   -1.0684  -16.1914 O   0  0  0  0  0  0  0  0  0  0  0  0
    8.7467    3.7275  -19.9261 C   0  0  0  0  0  0  0  0  0  0  0  0
   10.8108    0.9778  -15.9407 O   0  5  0  0  0  0  0  0  0  0  0  0
    8.4912    2.2834  -19.8411 N   0  3  0  0  0  0  0  0  0  0  0  0
    8.3986    1.7165  -21.1620 C   0  0  0  0  0  0  0  0  0  0  0  0
    7.4110    2.4565  -22.0032 C   0  0  0  0  0  0  0  0  0  0  0  0
    9.5243    1.6512  -19.0772 C   0  0  0  0  0  0  0  0  0  0  0  0
    8.9009    0.9490  -17.8443 C   0  0  0  0  0  0  0  0  0  0  0  0
   10.1750    0.0636  -16.9229 S   0  0  1  0  0  0  0  0  0  0  0  0
  1  3  1  0  0  0  0
  1  9  1  0  0  0  0
  2 12  1  0  0  0  0
  3  5  1  0  0  0  0
  4 12  2  0  0  0  0
  5  7  1  0  0  0  0
  6 12  2  0  0  0  0
  7  8  1  0  0  0  0
  7 10  1  0  0  0  0
  8  9  1  0  0  0  0
 10 11  1  0  0  0  0
 12 11  1  6  0  0  0
M  CHG  2   6  -1   7   1
M  END
>  <CHROM.1>
120.35854505,176.63261633,-34.17466056,9.18556740,1.51752108,-18.88364944
2.74300715,-1.13800708,0.20573958

>  <Name>
ligand

>  <RI>
0

>  <Rbt.Current_Directory>
/home/itssahil/PROJECTS/Mol_Feturizer/New_Systems/rnas/4P95

>  <Rbt.Executable>
rbdock ($Id: //depot/dev/client3/rdock/2013.1/src/exe/rbdock.cxx#4 $)

>  <Rbt.Library>
libRbt.so (2013.1, Build901 2013/11/27)

>  <Rbt.Parameter_File>
/export/apps/rDock/src/rDock_2013.1_src/data/scripts/dock_solv.prm

>  <Rbt.Receptor>
prm/blind_docking_80.prm

>  <SCORE>
44.7577

>  <SCORE.INTER>
45.5074

>  <SCORE.INTER.CONST>
1

>  <SCORE.INTER.POLAR>
0

>  <SCORE.INTER.ROT>
3

>  <SCORE.INTER.SOLV>
20.3278

>  <SCORE.INTER.VDW>
17.9623

>  <SCORE.INTER.norm>
3.79228

>  <SCORE.INTRA>
-0.913358

>  <SCORE.INTRA.DIHEDRAL>
3.62734

>  <SCORE.INTRA.DIHEDRAL.0>
0.283163

>  <SCORE.INTRA.POLAR>
0

>  <SCORE.INTRA.POLAR.0>
0

>  <SCORE.INTRA.REPUL>
0

>  <SCORE.INTRA.REPUL.0>
0

>  <SCORE.INTRA.SOLV>
-0.330657

>  <SCORE.INTRA.SOLV.lig_0>
-32.2894

>  <SCORE.INTRA.VDW>
-2.5617

>  <SCORE.INTRA.VDW.0>
2.0241

>  <SCORE.INTRA.norm>
-0.0761132

>  <SCORE.RESTR>
0.16363

>  <SCORE.RESTR.CAVITY>
0.16363

>  <SCORE.RESTR.norm>
0.0136358

>  <SCORE.SYSTEM>
0

>  <SCORE.SYSTEM.CONST>
0

>  <SCORE.SYSTEM.DIHEDRAL>
0

>  <SCORE.SYSTEM.SOLV>
0

>  <SCORE.SYSTEM.norm>
0

>  <SCORE.heavy>
12

>  <SCORE.norm>
3.72981

>  <RMSD>
14.168

$$$$
ligand
 OpenBabel11021811513D
libRbt.so/2013.1/901 2013/11/27
 12 12  0  0  0  0  0  0  0  0999 V2000
    7.7217    3.7324  -22.0194 O   0  0  0  0  0  0  0  0  0  0  0  0
   10.8395    1.1516  -15.9738 O   0  0  0  0  0  0  0  0  0  0  0  0
    7.8256    4.3371  -20.7853 C   0  0  0  0  0  0  0  0  0  0  0  0
   11.0690   -0.6178  -17.6360 O   0  0  0  0  0  0  0  0  0  0  0  0
    8.7640    3.6600  -19.8731 C   0  0  0  0  0  0  0  0  0  0  0  0
    9.4699   -0.8647  -15.8227 O   0  5  0  0  0  0  0  0  0  0  0  0
    8.4993    2.2174  -19.7902 N   0  3  0  0  0  0  0  0  0  0  0  0
    8.4412    1.6462  -21.1112 C   0  0  0  0  0  0  0  0  0  0  0  0
    7.4811    2.3877  -21.9825 C   0  0  0  0  0  0  0  0  0  0  0  0
    9.5076    1.5833  -18.9955 C   0  0  0  0  0  0  0  0  0  0  0  0
    8.8445    0.8714  -17.7891 C   0  0  0  0  0  0  0  0  0  0  0  0
   10.1051    0.1065  -16.7489 S   0  0  1  0  0  0  0  0  0  0  0  0
  1  3  1  0  0  0  0
  1  9  1  0  0  0  0
  2 12  1  0  0  0  0
  3  5  1  0  0  0  0
  4 12  2  0  0  0  0
  5  7  1  0  0  0  0
  6 12  2  0  0  0  0
  7  8  1  0  0  0  0
  7 10  1  0  0  0  0
  8  9  1  0  0  0  0
 10 11  1  0  0  0  0
 12 11  1  6  0  0  0
M  CHG  2   6  -1   7   1
M  END
>  <CHROM.1>
121.15705260,-178.35284934,73.71157803,9.17521160,1.50382949,-18.78283337
-2.75658966,1.16288047,-2.95047384

>  <Name>
ligand

>  <RI>
0

>  <Rbt.Current_Directory>
/home/itssahil/PROJECTS/Mol_Feturizer/New_Systems/rnas/4P95

>  <Rbt.Executable>
rbdock ($Id: //depot/dev/client3/rdock/2013.1/src/exe/rbdock.cxx#4 $)

>  <Rbt.Library>
libRbt.so (2013.1, Build901 2013/11/27)

>  <Rbt.Parameter_File>
/export/apps/rDock/src/rDock_2013.1_src/data/scripts/dock_solv.prm

>  <Rbt.Receptor>
prm/blind_docking_40.prm

>  <SCORE>
45.1426

>  <SCORE.INTER>
46.705

>  <SCORE.INTER.CONST>
1

>  <SCORE.INTER.POLAR>
0

>  <SCORE.INTER.ROT>
3

>  <SCORE.INTER.SOLV>
21.1399

>  <SCORE.INTER.VDW>
18.4901

>  <SCORE.INTER.norm>
3.89209

>  <SCORE.INTRA>
-1.67437

>  <SCORE.INTRA.DIHEDRAL>
2.60503

>  <SCORE.INTRA.DIHEDRAL.0>
0.283163

>  <SCORE.INTRA.POLAR>
0

>  <SCORE.INTRA.POLAR.0>
0

>  <SCORE.INTRA.REPUL>
0

>  <SCORE.INTRA.REPUL.0>
0

>  <SCORE.INTRA.SOLV>
-0.669222

>  <SCORE.INTRA.SOLV.lig_0>
-32.2894

>  <SCORE.INTRA.VDW>
-2.64228

>  <SCORE.INTRA.VDW.0>
2.0241

>  <SCORE.INTRA.norm>
-0.139531

>  <SCORE.RESTR>
0.111942

>  <SCORE.RESTR.CAVITY>
0.111942

>  <SCORE.RESTR.norm>
0.00932851

>  <SCORE.SYSTEM>
0

>  <SCORE.SYSTEM.CONST>
0

>  <SCORE.SYSTEM.DIHEDRAL>
0

>  <SCORE.SYSTEM.SOLV>
0

>  <SCORE.SYSTEM.norm>
0

>  <SCORE.heavy>
12

>  <SCORE.norm>
3.76188

>  <RMSD>
14.267

$$$$
ligand
 OpenBabel11021811513D
libRbt.so/2013.1/901 2013/11/27
 12 12  0  0  0  0  0  0  0  0999 V2000
    7.7260    3.7411  -22.0225 O   0  0  0  0  0  0  0  0  0  0  0  0
   10.8491    1.1656  -15.9262 O   0  0  0  0  0  0  0  0  0  0  0  0
    7.8201    4.3471  -20.7884 C   0  0  0  0  0  0  0  0  0  0  0  0
   11.0403   -0.5706  -17.6278 O   0  0  0  0  0  0  0  0  0  0  0  0
    8.7550    3.6741  -19.8698 C   0  0  0  0  0  0  0  0  0  0  0  0
    9.4450   -0.8295  -15.8128 O   0  5  0  0  0  0  0  0  0  0  0  0
    8.4949    2.2307  -19.7873 N   0  3  0  0  0  0  0  0  0  0  0  0
    8.4470    1.6582  -21.1081 C   0  0  0  0  0  0  0  0  0  0  0  0
    7.4898    2.3956  -21.9860 C   0  0  0  0  0  0  0  0  0  0  0  0
    9.5003    1.6007  -18.9857 C   0  0  0  0  0  0  0  0  0  0  0  0
    8.8416    0.9600  -17.7377 C   0  0  0  0  0  0  0  0  0  0  0  0
   10.0931    0.1507  -16.7205 S   0  0  1  0  0  0  0  0  0  0  0  0
  1  3  1  0  0  0  0
  1  9  1  0  0  0  0
  2 12  1  0  0  0  0
  3  5  1  0  0  0  0
  4 12  2  0  0  0  0
  5  7  1  0  0  0  0
  6 12  2  0  0  0  0
  7  8  1  0  0  0  0
  7 10  1  0  0  0  0
  8  9  1  0  0  0  0
 10 11  1  0  0  0  0
 12 11  1  6  0  0  0
M  CHG  2   6  -1   7   1
M  END
>  <CHROM.1>
117.78432675,179.60658402,77.74271745,9.16890209,1.53157251,-18.76836077
-2.78025699,1.16944634,-2.93271939

>  <Name>
ligand

>  <RI>
0

>  <Rbt.Current_Directory>
/home/itssahil/PROJECTS/Mol_Feturizer/New_Systems/rnas/4P95

>  <Rbt.Executable>
rbdock ($Id: //depot/dev/client3/rdock/2013.1/src/exe/rbdock.cxx#4 $)

>  <Rbt.Library>
libRbt.so (2013.1, Build901 2013/11/27)

>  <Rbt.Parameter_File>
/export/apps/rDock/src/rDock_2013.1_src/data/scripts/dock_solv.prm

>  <Rbt.Receptor>
prm/blind_docking_80.prm

>  <SCORE>
45.0608

>  <SCORE.INTER>
46.4091

>  <SCORE.INTER.CONST>
1

>  <SCORE.INTER.POLAR>
0

>  <SCORE.INTER.ROT>
3

>  <SCORE.INTER.SOLV>
21.1624

>  <SCORE.INTER.VDW>
18.2853

>  <SCORE.INTER.norm>
3.86742

>  <SCORE.INTRA>
-1.47314

>  <SCORE.INTRA.DIHEDRAL>
2.88898

>  <SCORE.INTRA.DIHEDRAL.0>
0.283163

>  <SCORE.INTRA.POLAR>
0

>  <SCORE.INTRA.POLAR.0>
0

>  <SCORE.INTRA.REPUL>
0

>  <SCORE.INTRA.REPUL.0>
0

>  <SCORE.INTRA.SOLV>
-0.650687

>  <SCORE.INTRA.SOLV.lig_0>
-32.2894

>  <SCORE.INTRA.VDW>
-2.59228

>  <SCORE.INTRA.VDW.0>
2.0241

>  <SCORE.INTRA.norm>
-0.122762

>  <SCORE.RESTR>
0.124859

>  <SCORE.RESTR.CAVITY>
0.124859

>  <SCORE.RESTR.norm>
0.010405

>  <SCORE.SYSTEM>
0

>  <SCORE.SYSTEM.CONST>
0

>  <SCORE.SYSTEM.DIHEDRAL>
0

>  <SCORE.SYSTEM.SOLV>
0

>  <SCORE.SYSTEM.norm>
0

>  <SCORE.heavy>
12

>  <SCORE.norm>
3.75507

>  <RMSD>
14.282

$$$$
ligand
 OpenBabel11021811513D
libRbt.so/2013.1/901 2013/11/27
 12 12  0  0  0  0  0  0  0  0999 V2000
    8.4402    2.4933  -21.7387 O   0  0  0  0  0  0  0  0  0  0  0  0
    7.2711    0.6406  -15.9400 O   0  0  0  0  0  0  0  0  0  0  0  0
    8.0874    3.5764  -20.9631 C   0  0  0  0  0  0  0  0  0  0  0  0
    8.4079   -1.4198  -16.5793 O   0  0  0  0  0  0  0  0  0  0  0  0
    8.7339    3.5904  -19.6392 C   0  0  0  0  0  0  0  0  0  0  0  0
    7.3014   -0.0754  -18.2747 O   0  5  0  0  0  0  0  0  0  0  0  0
    8.5804    2.3058  -18.9433 N   0  3  0  0  0  0  0  0  0  0  0  0
    9.0017    1.2248  -19.7969 C   0  0  0  0  0  0  0  0  0  0  0  0
    8.3159    1.2798  -21.1226 C   0  0  0  0  0  0  0  0  0  0  0  0
    9.3272    2.3226  -17.7217 C   0  0  0  0  0  0  0  0  0  0  0  0
    9.6210    0.8682  -17.2742 C   0  0  0  0  0  0  0  0  0  0  0  0
    8.0756   -0.0249  -17.0088 S   0  0  1  0  0  0  0  0  0  0  0  0
  1  3  1  0  0  0  0
  1  9  1  0  0  0  0
  2 12  1  0  0  0  0
  3  5  1  0  0  0  0
  4 12  2  0  0  0  0
  5  7  1  0  0  0  0
  6 12  2  0  0  0  0
  7  8  1  0  0  0  0
  7 10  1  0  0  0  0
  8  9  1  0  0  0  0
 10 11  1  0  0  0  0
 12 11  1  6  0  0  0
M  CHG  2   6  -1   7   1
M  END
>  <CHROM.1>
-158.37518111,-60.02300095,-60.57510876,8.37400105,1.22605929,-18.56342140
1.28705622,-1.28163272,-1.22200966

>  <Name>
ligand

>  <RI>
0

>  <Rbt.Current_Directory>
/home/itssahil/PROJECTS/Mol_Feturizer/New_Systems/rnas/4P95

>  <Rbt.Executable>
rbdock ($Id: //depot/dev/client3/rdock/2013.1/src/exe/rbdock.cxx#4 $)

>  <Rbt.Library>
libRbt.so (2013.1, Build901 2013/11/27)

>  <Rbt.Parameter_File>
/export/apps/rDock/src/rDock_2013.1_src/data/scripts/dock_solv.prm

>  <Rbt.Receptor>
prm/blind_docking_80.prm

>  <SCORE>
30.5232

>  <SCORE.INTER>
22.1951

>  <SCORE.INTER.CONST>
1

>  <SCORE.INTER.POLAR>
0

>  <SCORE.INTER.ROT>
3

>  <SCORE.INTER.SOLV>
22.1346

>  <SCORE.INTER.VDW>
1.81855

>  <SCORE.INTER.norm>
1.84959

>  <SCORE.INTRA>
8.29396

>  <SCORE.INTRA.DIHEDRAL>
0.473438

>  <SCORE.INTRA.DIHEDRAL.0>
0.283163

>  <SCORE.INTRA.POLAR>
0

>  <SCORE.INTRA.POLAR.0>
0

>  <SCORE.INTRA.REPUL>
0

>  <SCORE.INTRA.REPUL.0>
0

>  <SCORE.INTRA.SOLV>
5.2501

>  <SCORE.INTRA.SOLV.lig_0>
-32.2894

>  <SCORE.INTRA.VDW>
5.43219

>  <SCORE.INTRA.VDW.0>
2.0241

>  <SCORE.INTRA.norm>
0.691163

>  <SCORE.RESTR>
0.0340939

>  <SCORE.RESTR.CAVITY>
0.0340939

>  <SCORE.RESTR.norm>
0.00284116

>  <SCORE.SYSTEM>
0

>  <SCORE.SYSTEM.CONST>
0

>  <SCORE.SYSTEM.DIHEDRAL>
0

>  <SCORE.SYSTEM.SOLV>
0

>  <SCORE.SYSTEM.norm>
0

>  <SCORE.heavy>
12

>  <SCORE.norm>
2.5436

>  <RMSD>
14.294

$$$$
ligand
 OpenBabel11021811513D
libRbt.so/2013.1/901 2013/11/27
 12 12  0  0  0  0  0  0  0  0999 V2000
    8.2015    3.0704  -21.0348 O   0  0  0  0  0  0  0  0  0  0  0  0
   12.0344   -0.5455  -18.1195 O   0  0  0  0  0  0  0  0  0  0  0  0
    8.4612    1.7425  -21.2966 C   0  0  0  0  0  0  0  0  0  0  0  0
   10.4601   -1.8083  -16.7507 O   0  0  0  0  0  0  0  0  0  0  0  0
    8.3770    0.8785  -20.1061 C   0  0  0  0  0  0  0  0  0  0  0  0
   12.1779   -0.4610  -15.6829 O   0  5  0  0  0  0  0  0  0  0  0  0
    9.1651    1.4126  -18.9874 N   0  3  0  0  0  0  0  0  0  0  0  0
    8.8160    2.7891  -18.7462 C   0  0  0  0  0  0  0  0  0  0  0  0
    8.9127    3.6015  -19.9957 C   0  0  0  0  0  0  0  0  0  0  0  0
    8.9546    0.6123  -17.8188 C   0  0  0  0  0  0  0  0  0  0  0  0
   10.1100    0.8493  -16.8136 C   0  0  0  0  0  0  0  0  0  0  0  0
   11.2562   -0.5441  -16.8440 S   0  0  1  0  0  0  0  0  0  0  0  0
  1  3  1  0  0  0  0
  1  9  1  0  0  0  0
  2 12  1  0  0  0  0
  3  5  1  0  0  0  0
  4 12  2  0  0  0  0
  5  7  1  0  0  0  0
  6 12  2  0  0  0  0
  7  8  1  0  0  0  0
  7 10  1  0  0  0  0
  8  9  1  0  0  0  0
 10 11  1  0  0  0  0
 12 11  1  1  0  0  0
M  CHG  2   6  -1   7   1
M  END
>  <CHROM.1>
160.58872854,-103.68146071,71.13692416,9.92397521,0.78949131,-18.33587897
2.84702750,-1.01625314,0.37457747

>  <Name>
ligand

>  <RI>
0

>  <Rbt.Current_Directory>
/home/itssahil/PROJECTS/Mol_Feturizer/New_Systems/rnas/4P95

>  <Rbt.Executable>
rbdock ($Id: //depot/dev/client3/rdock/2013.1/src/exe/rbdock.cxx#4 $)

>  <Rbt.Library>
libRbt.so (2013.1, Build901 2013/11/27)

>  <Rbt.Parameter_File>
/export/apps/rDock/src/rDock_2013.1_src/data/scripts/dock_solv.prm

>  <Rbt.Receptor>
prm/blind_docking_40.prm

>  <SCORE>
8.07373

>  <SCORE.INTER>
7.89217

>  <SCORE.INTER.CONST>
1

>  <SCORE.INTER.POLAR>
0

>  <SCORE.INTER.ROT>
3

>  <SCORE.INTER.SOLV>
15.6897

>  <SCORE.INTER.VDW>
-5.56844

>  <SCORE.INTER.norm>
0.657681

>  <SCORE.INTRA>
0.18156

>  <SCORE.INTRA.DIHEDRAL>
5.13489

>  <SCORE.INTRA.DIHEDRAL.0>
0.283163

>  <SCORE.INTRA.POLAR>
0

>  <SCORE.INTRA.POLAR.0>
0

>  <SCORE.INTRA.REPUL>
0

>  <SCORE.INTRA.REPUL.0>
0

>  <SCORE.INTRA.SOLV>
-0.531467

>  <SCORE.INTRA.SOLV.lig_0>
-32.2894

>  <SCORE.INTRA.VDW>
-2.12015

>  <SCORE.INTRA.VDW.0>
2.0241

>  <SCORE.INTRA.norm>
0.01513

>  <SCORE.RESTR>
0

>  <SCORE.RESTR.CAVITY>
0

>  <SCORE.RESTR.norm>
0

>  <SCORE.SYSTEM>
0

>  <SCORE.SYSTEM.CONST>
0

>  <SCORE.SYSTEM.DIHEDRAL>
0

>  <SCORE.SYSTEM.SOLV>
0

>  <SCORE.SYSTEM.norm>
0

>  <SCORE.heavy>
12

>  <SCORE.norm>
0.672811

>  <RMSD>
14.810

$$$$
ligand
 OpenBabel11021811513D
libRbt.so/2013.1/901 2013/11/27
 12 12  0  0  0  0  0  0  0  0999 V2000
    8.1871    3.0763  -21.0311 O   0  0  0  0  0  0  0  0  0  0  0  0
   12.0647   -0.5770  -18.0803 O   0  0  0  0  0  0  0  0  0  0  0  0
    8.4464    1.7491  -21.2971 C   0  0  0  0  0  0  0  0  0  0  0  0
   10.4200   -1.8171  -16.7751 O   0  0  0  0  0  0  0  0  0  0  0  0
    8.3710    0.8828  -20.1077 C   0  0  0  0  0  0  0  0  0  0  0  0
   12.1285   -0.5139  -15.6397 O   0  5  0  0  0  0  0  0  0  0  0  0
    9.1659    1.4156  -18.9932 N   0  3  0  0  0  0  0  0  0  0  0  0
    8.8170    2.7913  -18.7471 C   0  0  0  0  0  0  0  0  0  0  0  0
    8.9046    3.6062  -19.9957 C   0  0  0  0  0  0  0  0  0  0  0  0
    8.9639    0.6129  -17.8248 C   0  0  0  0  0  0  0  0  0  0  0  0
   10.1268    0.8476  -16.8277 C   0  0  0  0  0  0  0  0  0  0  0  0
   11.2446   -0.5690  -16.8314 S   0  0  1  0  0  0  0  0  0  0  0  0
  1  3  1  0  0  0  0
  1  9  1  0  0  0  0
  2 12  1  0  0  0  0
  3  5  1  0  0  0  0
  4 12  2  0  0  0  0
  5  7  1  0  0  0  0
  6 12  2  0  0  0  0
  7  8  1  0  0  0  0
  7 10  1  0  0  0  0
  8  9  1  0  0  0  0
 10 11  1  0  0  0  0
 12 11  1  6  0  0  0
M  CHG  2   6  -1   7   1
M  END
>  <CHROM.1>
160.50315255,-105.45961310,73.78706190,9.91589593,0.77958799,-18.33078592
2.83734232,-1.01776025,0.36710919

>  <Name>
ligand

>  <RI>
0

>  <Rbt.Current_Directory>
/home/itssahil/PROJECTS/Mol_Feturizer/New_Systems/rnas/4P95

>  <Rbt.Executable>
rbdock ($Id: //depot/dev/client3/rdock/2013.1/src/exe/rbdock.cxx#4 $)

>  <Rbt.Library>
libRbt.so (2013.1, Build901 2013/11/27)

>  <Rbt.Parameter_File>
/export/apps/rDock/src/rDock_2013.1_src/data/scripts/dock_solv.prm

>  <Rbt.Receptor>
prm/blind_docking_40.prm

>  <SCORE>
8.041

>  <SCORE.INTER>
7.65024

>  <SCORE.INTER.CONST>
1

>  <SCORE.INTER.POLAR>
0

>  <SCORE.INTER.ROT>
3

>  <SCORE.INTER.SOLV>
15.4804

>  <SCORE.INTER.VDW>
-5.65998

>  <SCORE.INTER.norm>
0.63752

>  <SCORE.INTRA>
0.390763

>  <SCORE.INTRA.DIHEDRAL>
5.48345

>  <SCORE.INTRA.DIHEDRAL.0>
0.283163

>  <SCORE.INTRA.POLAR>
0

>  <SCORE.INTRA.POLAR.0>
0

>  <SCORE.INTRA.REPUL>
0

>  <SCORE.INTRA.REPUL.0>
0

>  <SCORE.INTRA.SOLV>
-0.518034

>  <SCORE.INTRA.SOLV.lig_0>
-32.2894

>  <SCORE.INTRA.VDW>
-2.09195

>  <SCORE.INTRA.VDW.0>
2.0241

>  <SCORE.INTRA.norm>
0.0325636

>  <SCORE.RESTR>
0

>  <SCORE.RESTR.CAVITY>
0

>  <SCORE.RESTR.norm>
0

>  <SCORE.SYSTEM>
0

>  <SCORE.SYSTEM.CONST>
0

>  <SCORE.SYSTEM.DIHEDRAL>
0

>  <SCORE.SYSTEM.SOLV>
0

>  <SCORE.SYSTEM.norm>
0

>  <SCORE.heavy>
12

>  <SCORE.norm>
0.670084

>  <RMSD>
14.811

$$$$
ligand
 OpenBabel11021811513D
libRbt.so/2013.1/901 2013/11/27
 12 12  0  0  0  0  0  0  0  0999 V2000
    8.5038    2.7837  -21.4840 O   0  0  0  0  0  0  0  0  0  0  0  0
   11.4938   -0.5456  -17.7178 O   0  0  0  0  0  0  0  0  0  0  0  0
    8.2843    3.7437  -20.5199 C   0  0  0  0  0  0  0  0  0  0  0  0
   10.1436   -1.9061  -16.2102 O   0  0  0  0  0  0  0  0  0  0  0  0
    8.9285    3.4428  -19.2294 C   0  0  0  0  0  0  0  0  0  0  0  0
   11.1200    0.1719  -15.4134 O   0  5  0  0  0  0  0  0  0  0  0  0
    8.6218    2.0813  -18.7707 N   0  3  0  0  0  0  0  0  0  0  0  0
    8.9095    1.1294  -19.8127 C   0  0  0  0  0  0  0  0  0  0  0  0
    8.2346    1.5026  -21.0917 C   0  0  0  0  0  0  0  0  0  0  0  0
    9.3658    1.7896  -17.5826 C   0  0  0  0  0  0  0  0  0  0  0  0
    9.0167    0.3622  -17.0902 C   0  0  0  0  0  0  0  0  0  0  0  0
   10.5166   -0.5065  -16.5882 S   0  0  1  0  0  0  0  0  0  0  0  0
  1  3  1  0  0  0  0
  1  9  1  0  0  0  0
  2 12  1  0  0  0  0
  3  5  1  0  0  0  0
  4 12  2  0  0  0  0
  5  7  1  0  0  0  0
  6 12  2  0  0  0  0
  7  8  1  0  0  0  0
  7 10  1  0  0  0  0
  8  9  1  0  0  0  0
 10 11  1  0  0  0  0
 12 11  1  6  0  0  0
M  CHG  2   6  -1   7   1
M  END
>  <CHROM.1>
178.94121799,136.85967565,-56.77804553,9.56541468,0.97249925,-18.25489905
3.09565362,-1.18983733,0.63815915

>  <Name>
ligand

>  <RI>
0

>  <Rbt.Current_Directory>
/home/itssahil/PROJECTS/Mol_Feturizer/New_Systems/rnas/4P95

>  <Rbt.Executable>
rbdock ($Id: //depot/dev/client3/rdock/2013.1/src/exe/rbdock.cxx#4 $)

>  <Rbt.Library>
libRbt.so (2013.1, Build901 2013/11/27)

>  <Rbt.Parameter_File>
/export/apps/rDock/src/rDock_2013.1_src/data/scripts/dock_solv.prm

>  <Rbt.Receptor>
prm/blind_docking_80.prm

>  <SCORE>
12.5496

>  <SCORE.INTER>
11.0986

>  <SCORE.INTER.CONST>
1

>  <SCORE.INTER.POLAR>
0

>  <SCORE.INTER.ROT>
3

>  <SCORE.INTER.SOLV>
17.1864

>  <SCORE.INTER.VDW>
-3.92974

>  <SCORE.INTER.norm>
0.924882

>  <SCORE.INTRA>
1.45106

>  <SCORE.INTRA.DIHEDRAL>
4.27002

>  <SCORE.INTRA.DIHEDRAL.0>
0.283163

>  <SCORE.INTRA.POLAR>
0

>  <SCORE.INTRA.POLAR.0>
0

>  <SCORE.INTRA.REPUL>
0

>  <SCORE.INTRA.REPUL.0>
0

>  <SCORE.INTRA.SOLV>
-0.121272

>  <SCORE.INTRA.SOLV.lig_0>
-32.2894

>  <SCORE.INTRA.VDW>
-0.623315

>  <SCORE.INTRA.VDW.0>
2.0241

>  <SCORE.INTRA.norm>
0.120922

>  <SCORE.RESTR>
0

>  <SCORE.RESTR.CAVITY>
0

>  <SCORE.RESTR.norm>
0

>  <SCORE.SYSTEM>
0

>  <SCORE.SYSTEM.CONST>
0

>  <SCORE.SYSTEM.DIHEDRAL>
0

>  <SCORE.SYSTEM.SOLV>
0

>  <SCORE.SYSTEM.norm>
0

>  <SCORE.heavy>
12

>  <SCORE.norm>
1.0458

>  <RMSD>
14.829

$$$$
ligand
 OpenBabel11021811513D
libRbt.so/2013.1/901 2013/11/27
 12 12  0  0  0  0  0  0  0  0999 V2000
    8.1777    3.1022  -21.0497 O   0  0  0  0  0  0  0  0  0  0  0  0
   12.0468   -0.5624  -17.9669 O   0  0  0  0  0  0  0  0  0  0  0  0
    8.4124    1.7730  -21.3277 C   0  0  0  0  0  0  0  0  0  0  0  0
   10.3921   -1.7592  -16.6341 O   0  0  0  0  0  0  0  0  0  0  0  0
    8.3337    0.8992  -20.1439 C   0  0  0  0  0  0  0  0  0  0  0  0
   12.0544   -0.3703  -15.5322 O   0  5  0  0  0  0  0  0  0  0  0  0
    9.1478    1.4106  -19.0332 N   0  3  0  0  0  0  0  0  0  0  0  0
    8.8241    2.7900  -18.7739 C   0  0  0  0  0  0  0  0  0  0  0  0
    8.9135    3.6125  -20.0173 C   0  0  0  0  0  0  0  0  0  0  0  0
    8.9433    0.6027  -17.8688 C   0  0  0  0  0  0  0  0  0  0  0  0
   10.0595    0.8939  -16.8338 C   0  0  0  0  0  0  0  0  0  0  0  0
   11.1986   -0.5024  -16.7383 S   0  0  1  0  0  0  0  0  0  0  0  0
  1  3  1  0  0  0  0
  1  9  1  0  0  0  0
  2 12  1  0  0  0  0
  3  5  1  0  0  0  0
  4 12  2  0  0  0  0
  5  7  1  0  0  0  0
  6 12  2  0  0  0  0
  7  8  1  0  0  0  0
  7 10  1  0  0  0  0
  8  9  1  0  0  0  0
 10 11  1  0  0  0  0
 12 11  1  6  0  0  0
M  CHG  2   6  -1   7   1
M  END
>  <CHROM.1>
164.92880791,-108.06208130,72.35736905,9.88601329,0.81606547,-18.30198937
-2.75713279,1.01074752,-2.89426522

>  <Name>
ligand

>  <RI>
0

>  <Rbt.Current_Directory>
/home/itssahil/PROJECTS/Mol_Feturizer/New_Systems/rnas/4P95

>  <Rbt.Executable>
rbdock ($Id: //depot/dev/client3/rdock/2013.1/src/exe/rbdock.cxx#4 $)

>  <Rbt.Library>
libRbt.so (2013.1, Build901 2013/11/27)

>  <Rbt.Parameter_File>
/export/apps/rDock/src/rDock_2013.1_src/data/scripts/dock_solv.prm

>  <Rbt.Receptor>
prm/blind_docking_80.prm

>  <SCORE>
7.93955

>  <SCORE.INTER>
7.33501

>  <SCORE.INTER.CONST>
1

>  <SCORE.INTER.POLAR>
0

>  <SCORE.INTER.ROT>
3

>  <SCORE.INTER.SOLV>
15.6182

>  <SCORE.INTER.VDW>
-5.91605

>  <SCORE.INTER.norm>
0.611251

>  <SCORE.INTRA>
0.604536

>  <SCORE.INTRA.DIHEDRAL>
5.42732

>  <SCORE.INTRA.DIHEDRAL.0>
0.283163

>  <SCORE.INTRA.POLAR>
0

>  <SCORE.INTRA.POLAR.0>
0

>  <SCORE.INTRA.REPUL>
0

>  <SCORE.INTRA.REPUL.0>
0

>  <SCORE.INTRA.SOLV>
-0.534762

>  <SCORE.INTRA.SOLV.lig_0>
-32.2894

>  <SCORE.INTRA.VDW>
-1.84174

>  <SCORE.INTRA.VDW.0>
2.0241

>  <SCORE.INTRA.norm>
0.050378

>  <SCORE.RESTR>
0

>  <SCORE.RESTR.CAVITY>
0

>  <SCORE.RESTR.norm>
0

>  <SCORE.SYSTEM>
0

>  <SCORE.SYSTEM.CONST>
0

>  <SCORE.SYSTEM.DIHEDRAL>
0

>  <SCORE.SYSTEM.SOLV>
0

>  <SCORE.SYSTEM.norm>
0

>  <SCORE.heavy>
12

>  <SCORE.norm>
0.661629

>  <RMSD>
14.832

$$$$
ligand
 OpenBabel11021811513D
libRbt.so/2013.1/901 2013/11/27
 12 12  0  0  0  0  0  0  0  0999 V2000
    0.8732    3.6126  -13.6091 O   0  0  0  0  0  0  0  0  0  0  0  0
    2.5459   -0.3817  -18.9982 O   0  0  0  0  0  0  0  0  0  0  0  0
    0.2352    2.4819  -14.0715 C   0  0  0  0  0  0  0  0  0  0  0  0
    3.5608    1.5100  -20.1549 O   0  0  0  0  0  0  0  0  0  0  0  0
    0.9643    1.7917  -15.1499 C   0  0  0  0  0  0  0  0  0  0  0  0
    1.3952    0.6750  -20.8753 O   0  5  0  0  0  0  0  0  0  0  0  0
    1.3543    2.7158  -16.2232 N   0  3  0  0  0  0  0  0  0  0  0  0
    2.0472    3.8523  -15.6729 C   0  0  0  0  0  0  0  0  0  0  0  0
    1.2567    4.4943  -14.5803 C   0  0  0  0  0  0  0  0  0  0  0  0
    2.1650    2.0302  -17.1840 C   0  0  0  0  0  0  0  0  0  0  0  0
    1.4724    2.0715  -18.5697 C   0  0  0  0  0  0  0  0  0  0  0  0
    2.2683    0.9092  -19.6975 S   0  0  1  0  0  0  0  0  0  0  0  0
  1  3  1  0  0  0  0
  1  9  1  0  0  0  0
  2 12  1  0  0  0  0
  3  5  1  0  0  0  0
  4 12  2  0  0  0  0
  5  7  1  0  0  0  0
  6 12  2  0  0  0  0
  7  8  1  0  0  0  0
  7 10  1  0  0  0  0
  8  9  1  0  0  0  0
 10 11  1  0  0  0  0
 12 11  1  1  0  0  0
M  CHG  2   6  -1   7   1
M  END
>  <CHROM.1>
119.60674940,-167.05401565,43.03867111,1.74992598,1.99970553,-17.36458246
2.00326366,1.03076581,0.75588300

>  <Name>
ligand

>  <RI>
0

>  <Rbt.Current_Directory>
/home/itssahil/PROJECTS/Mol_Feturizer/New_Systems/rnas/4P95

>  <Rbt.Executable>
rbdock ($Id: //depot/dev/client3/rdock/2013.1/src/exe/rbdock.cxx#4 $)

>  <Rbt.Library>
libRbt.so (2013.1, Build901 2013/11/27)

>  <Rbt.Parameter_File>
/export/apps/rDock/src/rDock_2013.1_src/data/scripts/dock_solv.prm

>  <Rbt.Receptor>
prm/blind_docking_80.prm

>  <SCORE>
-9.77312

>  <SCORE.INTER>
-8.43696

>  <SCORE.INTER.CONST>
1

>  <SCORE.INTER.POLAR>
0

>  <SCORE.INTER.ROT>
3

>  <SCORE.INTER.SOLV>
13.18

>  <SCORE.INTER.VDW>
-15.618

>  <SCORE.INTER.norm>
-0.70308

>  <SCORE.INTRA>
-1.33616

>  <SCORE.INTRA.DIHEDRAL>
3.33957

>  <SCORE.INTRA.DIHEDRAL.0>
0.283163

>  <SCORE.INTRA.POLAR>
0

>  <SCORE.INTRA.POLAR.0>
0

>  <SCORE.INTRA.REPUL>
0

>  <SCORE.INTRA.REPUL.0>
0

>  <SCORE.INTRA.SOLV>
-0.736081

>  <SCORE.INTRA.SOLV.lig_0>
-32.2894

>  <SCORE.INTRA.VDW>
-2.6379

>  <SCORE.INTRA.VDW.0>
2.0241

>  <SCORE.INTRA.norm>
-0.111346

>  <SCORE.RESTR>
0

>  <SCORE.RESTR.CAVITY>
0

>  <SCORE.RESTR.norm>
0

>  <SCORE.SYSTEM>
0

>  <SCORE.SYSTEM.CONST>
0

>  <SCORE.SYSTEM.DIHEDRAL>
0

>  <SCORE.SYSTEM.SOLV>
0

>  <SCORE.SYSTEM.norm>
0

>  <SCORE.heavy>
12

>  <SCORE.norm>
-0.814427

>  <RMSD>
15.059

$$$$
ligand
 OpenBabel11021811513D
libRbt.so/2013.1/901 2013/11/27
 12 12  0  0  0  0  0  0  0  0999 V2000
    2.6572    0.6602  -21.5104 O   0  0  0  0  0  0  0  0  0  0  0  0
   -0.7236    2.2143  -15.3322 O   0  0  0  0  0  0  0  0  0  0  0  0
    3.5394    1.0311  -20.5188 C   0  0  0  0  0  0  0  0  0  0  0  0
    1.2593    3.0081  -14.1556 O   0  0  0  0  0  0  0  0  0  0  0  0
    3.0102    0.8427  -19.1567 C   0  0  0  0  0  0  0  0  0  0  0  0
    0.9774    0.6317  -14.5795 O   0  5  0  0  0  0  0  0  0  0  0  0
    1.6786    1.4431  -19.0007 N   0  3  0  0  0  0  0  0  0  0  0  0
    0.8008    0.9836  -20.0461 C   0  0  0  0  0  0  0  0  0  0  0  0
    1.4049    1.1952  -21.3956 C   0  0  0  0  0  0  0  0  0  0  0  0
    1.1523    1.1287  -17.7067 C   0  0  0  0  0  0  0  0  0  0  0  0
    1.6282    2.1897  -16.6822 C   0  0  0  0  0  0  0  0  0  0  0  0
    0.7392    1.9922  -15.1243 S   0  0  1  0  0  0  0  0  0  0  0  0
  1  3  1  0  0  0  0
  1  9  1  0  0  0  0
  2 12  1  0  0  0  0
  3  5  1  0  0  0  0
  4 12  2  0  0  0  0
  5  7  1  0  0  0  0
  6 12  2  0  0  0  0
  7  8  1  0  0  0  0
  7 10  1  0  0  0  0
  8  9  1  0  0  0  0
 10 11  1  0  0  0  0
 12 11  1  6  0  0  0
M  CHG  2   6  -1   7   1
M  END
>  <CHROM.1>
87.29984212,169.56143048,-62.25010333,1.41969565,1.50186254,-17.61054465
-1.29910319,-0.09562127,1.41352380

>  <Name>
ligand

>  <RI>
0

>  <Rbt.Current_Directory>
/home/itssahil/PROJECTS/Mol_Feturizer/New_Systems/rnas/4P95

>  <Rbt.Executable>
rbdock ($Id: //depot/dev/client3/rdock/2013.1/src/exe/rbdock.cxx#4 $)

>  <Rbt.Library>
libRbt.so (2013.1, Build901 2013/11/27)

>  <Rbt.Parameter_File>
/export/apps/rDock/src/rDock_2013.1_src/data/scripts/dock_solv.prm

>  <Rbt.Receptor>
prm/blind_docking_40.prm

>  <SCORE>
-13.1585

>  <SCORE.INTER>
-11.3985

>  <SCORE.INTER.CONST>
1

>  <SCORE.INTER.POLAR>
0

>  <SCORE.INTER.ROT>
3

>  <SCORE.INTER.SOLV>
13.8708

>  <SCORE.INTER.VDW>
-17.8226

>  <SCORE.INTER.norm>
-0.949872

>  <SCORE.INTRA>
-1.75999

>  <SCORE.INTRA.DIHEDRAL>
1.22671

>  <SCORE.INTRA.DIHEDRAL.0>
0.283163

>  <SCORE.INTRA.POLAR>
0

>  <SCORE.INTRA.POLAR.0>
0

>  <SCORE.INTRA.REPUL>
0

>  <SCORE.INTRA.REPUL.0>
0

>  <SCORE.INTRA.SOLV>
-0.0425939

>  <SCORE.INTRA.SOLV.lig_0>
-32.2894

>  <SCORE.INTRA.VDW>
-2.35204

>  <SCORE.INTRA.VDW.0>
2.0241

>  <SCORE.INTRA.norm>
-0.146666

>  <SCORE.RESTR>
0

>  <SCORE.RESTR.CAVITY>
0

>  <SCORE.RESTR.norm>
0

>  <SCORE.SYSTEM>
0

>  <SCORE.SYSTEM.CONST>
0

>  <SCORE.SYSTEM.DIHEDRAL>
0

>  <SCORE.SYSTEM.SOLV>
0

>  <SCORE.SYSTEM.norm>
0

>  <SCORE.heavy>
12

>  <SCORE.norm>
-1.09654

>  <RMSD>
15.102

$$$$
ligand
 OpenBabel11021811513D
libRbt.so/2013.1/901 2013/11/27
 12 12  0  0  0  0  0  0  0  0999 V2000
   17.0762    0.8044  -27.8003 O   0  0  0  0  0  0  0  0  0  0  0  0
   14.6054    5.7480  -23.1113 O   0  0  0  0  0  0  0  0  0  0  0  0
   18.0386    1.4576  -27.0611 C   0  0  0  0  0  0  0  0  0  0  0  0
   16.8064    6.7352  -22.7546 O   0  0  0  0  0  0  0  0  0  0  0  0
   17.4989    2.1805  -25.8962 C   0  0  0  0  0  0  0  0  0  0  0  0
   16.3623    4.4691  -21.9967 O   0  5  0  0  0  0  0  0  0  0  0  0
   16.3683    3.0429  -26.2650 N   0  3  0  0  0  0  0  0  0  0  0  0
   15.3866    2.2878  -27.0004 C   0  0  0  0  0  0  0  0  0  0  0  0
   16.0048    1.5739  -28.1576 C   0  0  0  0  0  0  0  0  0  0  0  0
   15.7980    3.6263  -25.0882 C   0  0  0  0  0  0  0  0  0  0  0  0
   16.6474    4.8468  -24.6515 C   0  0  0  0  0  0  0  0  0  0  0  0
   16.0718    5.4666  -23.0575 S   0  0  1  0  0  0  0  0  0  0  0  0
  1  3  1  0  0  0  0
  1  9  1  0  0  0  0
  2 12  1  0  0  0  0
  3  5  1  0  0  0  0
  4 12  2  0  0  0  0
  5  7  1  0  0  0  0
  6 12  2  0  0  0  0
  7  8  1  0  0  0  0
  7 10  1  0  0  0  0
  8  9  1  0  0  0  0
 10 11  1  0  0  0  0
 12 11  1  6  0  0  0
M  CHG  2   6  -1   7   1
M  END
>  <CHROM.1>
80.67819470,-172.77720062,-53.90699462,16.35213285,3.73806464,-24.98059906
-1.43971005,-0.33954703,0.87918780

>  <Name>
ligand

>  <RI>
0

>  <Rbt.Current_Directory>
/home/itssahil/PROJECTS/Mol_Feturizer/New_Systems/rnas/4P95

>  <Rbt.Executable>
rbdock ($Id: //depot/dev/client3/rdock/2013.1/src/exe/rbdock.cxx#4 $)

>  <Rbt.Library>
libRbt.so (2013.1, Build901 2013/11/27)

>  <Rbt.Parameter_File>
/export/apps/rDock/src/rDock_2013.1_src/data/scripts/dock_solv.prm

>  <Rbt.Receptor>
prm/blind_docking_100.prm

>  <SCORE>
-8.27409

>  <SCORE.INTER>
-6.5464

>  <SCORE.INTER.CONST>
1

>  <SCORE.INTER.POLAR>
0

>  <SCORE.INTER.ROT>
3

>  <SCORE.INTER.SOLV>
16.2197

>  <SCORE.INTER.VDW>
-15.3708

>  <SCORE.INTER.norm>
-0.545533

>  <SCORE.INTRA>
-1.74141

>  <SCORE.INTRA.DIHEDRAL>
0.726062

>  <SCORE.INTRA.DIHEDRAL.0>
0.283163

>  <SCORE.INTRA.POLAR>
0

>  <SCORE.INTRA.POLAR.0>
0

>  <SCORE.INTRA.REPUL>
0

>  <SCORE.INTRA.REPUL.0>
0

>  <SCORE.INTRA.SOLV>
-0.00675509

>  <SCORE.INTRA.SOLV.lig_0>
-32.2894

>  <SCORE.INTRA.VDW>
-2.10106

>  <SCORE.INTRA.VDW.0>
2.0241

>  <SCORE.INTRA.norm>
-0.145118

>  <SCORE.RESTR>
0.0137241

>  <SCORE.RESTR.CAVITY>
0.0137241

>  <SCORE.RESTR.norm>
0.00114368

>  <SCORE.SYSTEM>
0

>  <SCORE.SYSTEM.CONST>
0

>  <SCORE.SYSTEM.DIHEDRAL>
0

>  <SCORE.SYSTEM.SOLV>
0

>  <SCORE.SYSTEM.norm>
0

>  <SCORE.heavy>
12

>  <SCORE.norm>
-0.689507

>  <RMSD>
15.117

$$$$
ligand
 OpenBabel11021811513D
libRbt.so/2013.1/901 2013/11/27
 12 12  0  0  0  0  0  0  0  0999 V2000
   11.7263   -1.6313  -15.7655 O   0  0  0  0  0  0  0  0  0  0  0  0
    9.5156    3.1415  -20.0323 O   0  0  0  0  0  0  0  0  0  0  0  0
   12.0655   -1.4401  -17.0875 C   0  0  0  0  0  0  0  0  0  0  0  0
    7.3732    2.3787  -20.9125 O   0  0  0  0  0  0  0  0  0  0  0  0
   11.4934   -0.2149  -17.6727 C   0  0  0  0  0  0  0  0  0  0  0  0
    9.4030    1.1531  -21.4459 O   0  5  0  0  0  0  0  0  0  0  0  0
   10.0487   -0.1153  -17.4258 N   0  3  0  0  0  0  0  0  0  0  0  0
    9.7715   -0.2871  -16.0228 C   0  0  0  0  0  0  0  0  0  0  0  0
   10.3897   -1.5404  -15.4958 C   0  0  0  0  0  0  0  0  0  0  0  0
    9.5603    1.1444  -17.9000 C   0  0  0  0  0  0  0  0  0  0  0  0
    8.4368    0.9059  -18.9404 C   0  0  0  0  0  0  0  0  0  0  0  0
    8.7072    1.9385  -20.3953 S   0  0  1  0  0  0  0  0  0  0  0  0
  1  3  1  0  0  0  0
  1  9  1  0  0  0  0
  2 12  1  0  0  0  0
  3  5  1  0  0  0  0
  4 12  2  0  0  0  0
  5  7  1  0  0  0  0
  6 12  2  0  0  0  0
  7  8  1  0  0  0  0
  7 10  1  0  0  0  0
  8  9  1  0  0  0  0
 10 11  1  0  0  0  0
 12 11  1  1  0  0  0
M  CHG  2   6  -1   7   1
M  END
>  <CHROM.1>
122.49462435,-133.06889274,-24.97169642,9.75089137,0.62358422,-18.50860054
-1.08760970,0.43806973,-1.14616627

>  <Name>
ligand

>  <RI>
0

>  <Rbt.Current_Directory>
/home/itssahil/PROJECTS/Mol_Feturizer/New_Systems/rnas/4P95

>  <Rbt.Executable>
rbdock ($Id: //depot/dev/client3/rdock/2013.1/src/exe/rbdock.cxx#4 $)

>  <Rbt.Library>
libRbt.so (2013.1, Build901 2013/11/27)

>  <Rbt.Parameter_File>
/export/apps/rDock/src/rDock_2013.1_src/data/scripts/dock_solv.prm

>  <Rbt.Receptor>
prm/blind_docking_100.prm

>  <SCORE>
17.1512

>  <SCORE.INTER>
15.0543

>  <SCORE.INTER.CONST>
1

>  <SCORE.INTER.POLAR>
0

>  <SCORE.INTER.ROT>
3

>  <SCORE.INTER.SOLV>
27.807

>  <SCORE.INTER.VDW>
-4.8328

>  <SCORE.INTER.norm>
1.25453

>  <SCORE.INTRA>
2.09685

>  <SCORE.INTRA.DIHEDRAL>
9.32249

>  <SCORE.INTRA.DIHEDRAL.0>
0.283163

>  <SCORE.INTRA.POLAR>
0

>  <SCORE.INTRA.POLAR.0>
0

>  <SCORE.INTRA.REPUL>
0

>  <SCORE.INTRA.REPUL.0>
0

>  <SCORE.INTRA.SOLV>
0.0774444

>  <SCORE.INTRA.SOLV.lig_0>
-32.2894

>  <SCORE.INTRA.VDW>
-2.60312

>  <SCORE.INTRA.VDW.0>
2.0241

>  <SCORE.INTRA.norm>
0.174737

>  <SCORE.RESTR>
0

>  <SCORE.RESTR.CAVITY>
0

>  <SCORE.RESTR.norm>
0

>  <SCORE.SYSTEM>
0

>  <SCORE.SYSTEM.CONST>
0

>  <SCORE.SYSTEM.DIHEDRAL>
0

>  <SCORE.SYSTEM.SOLV>
0

>  <SCORE.SYSTEM.norm>
0

>  <SCORE.heavy>
12

>  <SCORE.norm>
1.42926

>  <RMSD>
15.119

$$$$
ligand
 OpenBabel11021811513D
libRbt.so/2013.1/901 2013/11/27
 12 12  0  0  0  0  0  0  0  0999 V2000
    8.1007    3.0973  -20.9152 O   0  0  0  0  0  0  0  0  0  0  0  0
   10.0582   -2.2853  -16.4612 O   0  0  0  0  0  0  0  0  0  0  0  0
    8.3648    1.7784  -21.2152 C   0  0  0  0  0  0  0  0  0  0  0  0
    9.3226   -0.4914  -14.9822 O   0  0  0  0  0  0  0  0  0  0  0  0
    8.3753    0.8952  -20.0359 C   0  0  0  0  0  0  0  0  0  0  0  0
   11.6913   -0.9971  -15.1814 O   0  5  0  0  0  0  0  0  0  0  0  0
    9.2276    1.4266  -18.9638 N   0  3  0  0  0  0  0  0  0  0  0  0
    8.8721    2.7927  -18.6775 C   0  0  0  0  0  0  0  0  0  0  0  0
    8.8709    3.6255  -19.9174 C   0  0  0  0  0  0  0  0  0  0  0  0
    9.1095    0.6051  -17.7970 C   0  0  0  0  0  0  0  0  0  0  0  0
   10.5221    0.2650  -17.2579 C   0  0  0  0  0  0  0  0  0  0  0  0
   10.4032   -0.9372  -15.9173 S   0  0  1  0  0  0  0  0  0  0  0  0
  1  3  1  0  0  0  0
  1  9  1  0  0  0  0
  2 12  1  0  0  0  0
  3  5  1  0  0  0  0
  4 12  2  0  0  0  0
  5  7  1  0  0  0  0
  6 12  2  0  0  0  0
  7  8  1  0  0  0  0
  7 10  1  0  0  0  0
  8  9  1  0  0  0  0
 10 11  1  0  0  0  0
 12 11  1  6  0  0  0
M  CHG  2   6  -1   7   1
M  END
>  <CHROM.1>
131.70880167,-172.81424375,72.94849387,9.51767568,0.61189653,-17.85669995
-2.53416655,1.17047669,-3.11799422

>  <Name>
ligand

>  <RI>
0

>  <Rbt.Current_Directory>
/home/itssahil/PROJECTS/Mol_Feturizer/New_Systems/rnas/4P95

>  <Rbt.Executable>
rbdock ($Id: //depot/dev/client3/rdock/2013.1/src/exe/rbdock.cxx#4 $)

>  <Rbt.Library>
libRbt.so (2013.1, Build901 2013/11/27)

>  <Rbt.Parameter_File>
/export/apps/rDock/src/rDock_2013.1_src/data/scripts/dock_solv.prm

>  <Rbt.Receptor>
prm/blind_docking_100.prm

>  <SCORE>
9.52854

>  <SCORE.INTER>
11.2207

>  <SCORE.INTER.CONST>
1

>  <SCORE.INTER.POLAR>
0

>  <SCORE.INTER.ROT>
3

>  <SCORE.INTER.SOLV>
14.185

>  <SCORE.INTER.VDW>
-2.84789

>  <SCORE.INTER.norm>
0.935057

>  <SCORE.INTRA>
-1.69214

>  <SCORE.INTRA.DIHEDRAL>
2.48802

>  <SCORE.INTRA.DIHEDRAL.0>
0.283163

>  <SCORE.INTRA.POLAR>
0

>  <SCORE.INTRA.POLAR.0>
0

>  <SCORE.INTRA.REPUL>
0

>  <SCORE.INTRA.REPUL.0>
0

>  <SCORE.INTRA.SOLV>
-0.671351

>  <SCORE.INTRA.SOLV.lig_0>
-32.2894

>  <SCORE.INTRA.VDW>
-2.60048

>  <SCORE.INTRA.VDW.0>
2.0241

>  <SCORE.INTRA.norm>
-0.141012

>  <SCORE.RESTR>
0

>  <SCORE.RESTR.CAVITY>
0

>  <SCORE.RESTR.norm>
0

>  <SCORE.SYSTEM>
0

>  <SCORE.SYSTEM.CONST>
0

>  <SCORE.SYSTEM.DIHEDRAL>
0

>  <SCORE.SYSTEM.SOLV>
0

>  <SCORE.SYSTEM.norm>
0

>  <SCORE.heavy>
12

>  <SCORE.norm>
0.794045

>  <RMSD>
15.131

$$$$
ligand
 OpenBabel11021811513D
libRbt.so/2013.1/901 2013/11/27
 12 12  0  0  0  0  0  0  0  0999 V2000
    8.0844    3.0959  -20.9023 O   0  0  0  0  0  0  0  0  0  0  0  0
   10.0594   -2.2882  -16.4578 O   0  0  0  0  0  0  0  0  0  0  0  0
    8.3411    1.7771  -21.2090 C   0  0  0  0  0  0  0  0  0  0  0  0
    9.3375   -0.4926  -14.9742 O   0  0  0  0  0  0  0  0  0  0  0  0
    8.3569    0.8896  -20.0330 C   0  0  0  0  0  0  0  0  0  0  0  0
   11.7040   -1.0018  -15.1908 O   0  5  0  0  0  0  0  0  0  0  0  0
    9.2191    1.4138  -18.9653 N   0  3  0  0  0  0  0  0  0  0  0  0
    8.8711    2.7803  -18.6716 C   0  0  0  0  0  0  0  0  0  0  0  0
    8.8640    3.6175  -19.9085 C   0  0  0  0  0  0  0  0  0  0  0  0
    9.1065    0.5887  -17.8005 C   0  0  0  0  0  0  0  0  0  0  0  0
   10.5211    0.2611  -17.2590 C   0  0  0  0  0  0  0  0  0  0  0  0
   10.4105   -0.9403  -15.9172 S   0  0  1  0  0  0  0  0  0  0  0  0
  1  3  1  0  0  0  0
  1  9  1  0  0  0  0
  2 12  1  0  0  0  0
  3  5  1  0  0  0  0
  4 12  2  0  0  0  0
  5  7  1  0  0  0  0
  6 12  2  0  0  0  0
  7  8  1  0  0  0  0
  7 10  1  0  0  0  0
  8  9  1  0  0  0  0
 10 11  1  0  0  0  0
 12 11  1  6  0  0  0
M  CHG  2   6  -1   7   1
M  END
>  <CHROM.1>
132.66710750,-173.03255902,72.18835331,9.51541021,0.60620445,-17.85417107
-2.52549007,1.16299546,-3.12828158

>  <Name>
ligand

>  <RI>
0

>  <Rbt.Current_Directory>
/home/itssahil/PROJECTS/Mol_Feturizer/New_Systems/rnas/4P95

>  <Rbt.Executable>
rbdock ($Id: //depot/dev/client3/rdock/2013.1/src/exe/rbdock.cxx#4 $)

>  <Rbt.Library>
libRbt.so (2013.1, Build901 2013/11/27)

>  <Rbt.Parameter_File>
/export/apps/rDock/src/rDock_2013.1_src/data/scripts/dock_solv.prm

>  <Rbt.Receptor>
prm/blind_docking_60.prm

>  <SCORE>
9.58073

>  <SCORE.INTER>
11.3199

>  <SCORE.INTER.CONST>
1

>  <SCORE.INTER.POLAR>
0

>  <SCORE.INTER.ROT>
3

>  <SCORE.INTER.SOLV>
14.1459

>  <SCORE.INTER.VDW>
-2.76873

>  <SCORE.INTER.norm>
0.943323

>  <SCORE.INTRA>
-1.73915

>  <SCORE.INTRA.DIHEDRAL>
2.39223

>  <SCORE.INTRA.DIHEDRAL.0>
0.283163

>  <SCORE.INTRA.POLAR>
0

>  <SCORE.INTRA.POLAR.0>
0

>  <SCORE.INTRA.REPUL>
0

>  <SCORE.INTRA.REPUL.0>
0

>  <SCORE.INTRA.SOLV>
-0.674392

>  <SCORE.INTRA.SOLV.lig_0>
-32.2894

>  <SCORE.INTRA.VDW>
-2.59807

>  <SCORE.INTRA.VDW.0>
2.0241

>  <SCORE.INTRA.norm>
-0.14493

>  <SCORE.RESTR>
0

>  <SCORE.RESTR.CAVITY>
0

>  <SCORE.RESTR.norm>
0

>  <SCORE.SYSTEM>
0

>  <SCORE.SYSTEM.CONST>
0

>  <SCORE.SYSTEM.DIHEDRAL>
0

>  <SCORE.SYSTEM.SOLV>
0

>  <SCORE.SYSTEM.norm>
0

>  <SCORE.heavy>
12

>  <SCORE.norm>
0.798394

>  <RMSD>
15.131

$$$$
ligand
 OpenBabel11021811513D
libRbt.so/2013.1/901 2013/11/27
 12 12  0  0  0  0  0  0  0  0999 V2000
    8.0885    3.1098  -20.8924 O   0  0  0  0  0  0  0  0  0  0  0  0
   10.0996   -2.2675  -16.4682 O   0  0  0  0  0  0  0  0  0  0  0  0
    8.3618    1.7940  -21.1979 C   0  0  0  0  0  0  0  0  0  0  0  0
    9.3504   -0.4952  -14.9702 O   0  0  0  0  0  0  0  0  0  0  0  0
    8.3812    0.9065  -20.0220 C   0  0  0  0  0  0  0  0  0  0  0  0
   11.7234   -0.9762  -15.1797 O   0  5  0  0  0  0  0  0  0  0  0  0
    9.2314    1.4401  -18.9495 N   0  3  0  0  0  0  0  0  0  0  0  0
    8.8663    2.8025  -18.6574 C   0  0  0  0  0  0  0  0  0  0  0  0
    8.8566    3.6399  -19.8941 C   0  0  0  0  0  0  0  0  0  0  0  0
    9.1216    0.6134  -17.7855 C   0  0  0  0  0  0  0  0  0  0  0  0
   10.5372    0.2947  -17.2412 C   0  0  0  0  0  0  0  0  0  0  0  0
   10.4330   -0.9214  -15.9121 S   0  0  1  0  0  0  0  0  0  0  0  0
  1  3  1  0  0  0  0
  1  9  1  0  0  0  0
  2 12  1  0  0  0  0
  3  5  1  0  0  0  0
  4 12  2  0  0  0  0
  5  7  1  0  0  0  0
  6 12  2  0  0  0  0
  7  8  1  0  0  0  0
  7 10  1  0  0  0  0
  8  9  1  0  0  0  0
 10 11  1  0  0  0  0
 12 11  1  6  0  0  0
M  CHG  2   6  -1   7   1
M  END
>  <CHROM.1>
132.32524379,-172.43469067,72.25583493,9.53092989,0.62581336,-17.84494628
-2.55350841,1.16784357,-3.09741401

>  <Name>
ligand

>  <RI>
0

>  <Rbt.Current_Directory>
/home/itssahil/PROJECTS/Mol_Feturizer/New_Systems/rnas/4P95

>  <Rbt.Executable>
rbdock ($Id: //depot/dev/client3/rdock/2013.1/src/exe/rbdock.cxx#4 $)

>  <Rbt.Library>
libRbt.so (2013.1, Build901 2013/11/27)

>  <Rbt.Parameter_File>
/export/apps/rDock/src/rDock_2013.1_src/data/scripts/dock_solv.prm

>  <Rbt.Receptor>
prm/blind_docking_40.prm

>  <SCORE>
9.53896

>  <SCORE.INTER>
11.2555

>  <SCORE.INTER.CONST>
1

>  <SCORE.INTER.POLAR>
0

>  <SCORE.INTER.ROT>
3

>  <SCORE.INTER.SOLV>
14.1664

>  <SCORE.INTER.VDW>
-2.81849

>  <SCORE.INTER.norm>
0.937957

>  <SCORE.INTRA>
-1.71652

>  <SCORE.INTRA.DIHEDRAL>
2.44232

>  <SCORE.INTRA.DIHEDRAL.0>
0.283163

>  <SCORE.INTRA.POLAR>
0

>  <SCORE.INTRA.POLAR.0>
0

>  <SCORE.INTRA.REPUL>
0

>  <SCORE.INTRA.REPUL.0>
0

>  <SCORE.INTRA.SOLV>
-0.674146

>  <SCORE.INTRA.SOLV.lig_0>
-32.2894

>  <SCORE.INTRA.VDW>
-2.60061

>  <SCORE.INTRA.VDW.0>
2.0241

>  <SCORE.INTRA.norm>
-0.143044

>  <SCORE.RESTR>
0

>  <SCORE.RESTR.CAVITY>
0

>  <SCORE.RESTR.norm>
0

>  <SCORE.SYSTEM>
0

>  <SCORE.SYSTEM.CONST>
0

>  <SCORE.SYSTEM.DIHEDRAL>
0

>  <SCORE.SYSTEM.SOLV>
0

>  <SCORE.SYSTEM.norm>
0

>  <SCORE.heavy>
12

>  <SCORE.norm>
0.794914

>  <RMSD>
15.145

$$$$
ligand
 OpenBabel11021811513D
libRbt.so/2013.1/901 2013/11/27
 12 12  0  0  0  0  0  0  0  0999 V2000
    8.0783    3.0820  -20.8614 O   0  0  0  0  0  0  0  0  0  0  0  0
    9.9604   -2.2771  -16.4719 O   0  0  0  0  0  0  0  0  0  0  0  0
    8.3672    1.7677  -21.1588 C   0  0  0  0  0  0  0  0  0  0  0  0
    9.5638   -0.4643  -14.8898 O   0  0  0  0  0  0  0  0  0  0  0  0
    8.4055    0.8894  -19.9764 C   0  0  0  0  0  0  0  0  0  0  0  0
   11.8373   -1.1890  -15.3504 O   0  5  0  0  0  0  0  0  0  0  0  0
    9.2550    1.4423  -18.9132 N   0  3  0  0  0  0  0  0  0  0  0  0
    8.8736    2.8019  -18.6290 C   0  0  0  0  0  0  0  0  0  0  0  0
    8.8452    3.6298  -19.8718 C   0  0  0  0  0  0  0  0  0  0  0  0
    9.1633    0.6230  -17.7424 C   0  0  0  0  0  0  0  0  0  0  0  0
   10.5872    0.2389  -17.2662 C   0  0  0  0  0  0  0  0  0  0  0  0
   10.4914   -0.9845  -15.9432 S   0  0  1  0  0  0  0  0  0  0  0  0
  1  3  1  0  0  0  0
  1  9  1  0  0  0  0
  2 12  1  0  0  0  0
  3  5  1  0  0  0  0
  4 12  2  0  0  0  0
  5  7  1  0  0  0  0
  6 12  2  0  0  0  0
  7  8  1  0  0  0  0
  7 10  1  0  0  0  0
  8  9  1  0  0  0  0
 10 11  1  0  0  0  0
 12 11  1  6  0  0  0
M  CHG  2   6  -1   7   1
M  END
>  <CHROM.1>
128.09955306,-171.74849808,67.28793892,9.56540525,0.59026336,-17.84158638
2.57633969,-1.16173328,0.08147521

>  <Name>
ligand

>  <RI>
0

>  <Rbt.Current_Directory>
/home/itssahil/PROJECTS/Mol_Feturizer/New_Systems/rnas/4P95

>  <Rbt.Executable>
rbdock ($Id: //depot/dev/client3/rdock/2013.1/src/exe/rbdock.cxx#4 $)

>  <Rbt.Library>
libRbt.so (2013.1, Build901 2013/11/27)

>  <Rbt.Parameter_File>
/export/apps/rDock/src/rDock_2013.1_src/data/scripts/dock_solv.prm

>  <Rbt.Receptor>
prm/blind_docking_100.prm

>  <SCORE>
9.59273

>  <SCORE.INTER>
11.4064

>  <SCORE.INTER.CONST>
1

>  <SCORE.INTER.POLAR>
0

>  <SCORE.INTER.ROT>
3

>  <SCORE.INTER.SOLV>
13.7201

>  <SCORE.INTER.VDW>
-2.56913

>  <SCORE.INTER.norm>
0.950531

>  <SCORE.INTRA>
-1.81364

>  <SCORE.INTRA.DIHEDRAL>
2.38711

>  <SCORE.INTRA.DIHEDRAL.0>
0.283163

>  <SCORE.INTRA.POLAR>
0

>  <SCORE.INTRA.POLAR.0>
0

>  <SCORE.INTRA.REPUL>
0

>  <SCORE.INTRA.REPUL.0>
0

>  <SCORE.INTRA.SOLV>
-0.6937

>  <SCORE.INTRA.SOLV.lig_0>
-32.2894

>  <SCORE.INTRA.VDW>
-2.66034

>  <SCORE.INTRA.VDW.0>
2.0241

>  <SCORE.INTRA.norm>
-0.151137

>  <SCORE.RESTR>
0

>  <SCORE.RESTR.CAVITY>
0

>  <SCORE.RESTR.norm>
0

>  <SCORE.SYSTEM>
0

>  <SCORE.SYSTEM.CONST>
0

>  <SCORE.SYSTEM.DIHEDRAL>
0

>  <SCORE.SYSTEM.SOLV>
0

>  <SCORE.SYSTEM.norm>
0

>  <SCORE.heavy>
12

>  <SCORE.norm>
0.799395

>  <RMSD>
15.155

$$$$
ligand
 OpenBabel11021811513D
libRbt.so/2013.1/901 2013/11/27
 12 12  0  0  0  0  0  0  0  0999 V2000
    8.0925    3.0689  -20.8561 O   0  0  0  0  0  0  0  0  0  0  0  0
    9.7896   -2.2256  -16.4766 O   0  0  0  0  0  0  0  0  0  0  0  0
    8.3533    1.7457  -21.1399 C   0  0  0  0  0  0  0  0  0  0  0  0
    9.6512   -0.4752  -14.7845 O   0  0  0  0  0  0  0  0  0  0  0  0
    8.3770    0.8797  -19.9481 C   0  0  0  0  0  0  0  0  0  0  0  0
   11.8218   -1.3430  -15.4492 O   0  5  0  0  0  0  0  0  0  0  0  0
    9.2409    1.4265  -18.8933 N   0  3  0  0  0  0  0  0  0  0  0  0
    8.8886    2.7967  -18.6230 C   0  0  0  0  0  0  0  0  0  0  0  0
    8.8736    3.6114  -19.8747 C   0  0  0  0  0  0  0  0  0  0  0  0
    9.1358    0.6221  -17.7134 C   0  0  0  0  0  0  0  0  0  0  0  0
   10.5545    0.2749  -17.1951 C   0  0  0  0  0  0  0  0  0  0  0  0
   10.4574   -1.0066  -15.9284 S   0  0  1  0  0  0  0  0  0  0  0  0
  1  3  1  0  0  0  0
  1  9  1  0  0  0  0
  2 12  1  0  0  0  0
  3  5  1  0  0  0  0
  4 12  2  0  0  0  0
  5  7  1  0  0  0  0
  6 12  2  0  0  0  0
  7  8  1  0  0  0  0
  7 10  1  0  0  0  0
  8  9  1  0  0  0  0
 10 11  1  0  0  0  0
 12 11  1  6  0  0  0
M  CHG  2   6  -1   7   1
M  END
>  <CHROM.1>
131.00261852,-168.23462672,57.88948497,9.54752319,0.57359200,-17.82624964
2.52524463,-1.15482167,0.02824328

>  <Name>
ligand

>  <RI>
0

>  <Rbt.Current_Directory>
/home/itssahil/PROJECTS/Mol_Feturizer/New_Systems/rnas/4P95

>  <Rbt.Executable>
rbdock ($Id: //depot/dev/client3/rdock/2013.1/src/exe/rbdock.cxx#4 $)

>  <Rbt.Library>
libRbt.so (2013.1, Build901 2013/11/27)

>  <Rbt.Parameter_File>
/export/apps/rDock/src/rDock_2013.1_src/data/scripts/dock_solv.prm

>  <Rbt.Receptor>
prm/blind_docking_100.prm

>  <SCORE>
9.52145

>  <SCORE.INTER>
11.3518

>  <SCORE.INTER.CONST>
1

>  <SCORE.INTER.POLAR>
0

>  <SCORE.INTER.ROT>
3

>  <SCORE.INTER.SOLV>
13.6762

>  <SCORE.INTER.VDW>
-2.59084

>  <SCORE.INTER.norm>
0.945987

>  <SCORE.INTRA>
-1.8304

>  <SCORE.INTRA.DIHEDRAL>
2.39482

>  <SCORE.INTRA.DIHEDRAL.0>
0.283163

>  <SCORE.INTRA.POLAR>
0

>  <SCORE.INTRA.POLAR.0>
0

>  <SCORE.INTRA.REPUL>
0

>  <SCORE.INTRA.REPUL.0>
0

>  <SCORE.INTRA.SOLV>
-0.720248

>  <SCORE.INTRA.SOLV.lig_0>
-32.2894

>  <SCORE.INTRA.VDW>
-2.66768

>  <SCORE.INTRA.VDW.0>
2.0241

>  <SCORE.INTRA.norm>
-0.152533

>  <SCORE.RESTR>
0

>  <SCORE.RESTR.CAVITY>
0

>  <SCORE.RESTR.norm>
0

>  <SCORE.SYSTEM>
0

>  <SCORE.SYSTEM.CONST>
0

>  <SCORE.SYSTEM.DIHEDRAL>
0

>  <SCORE.SYSTEM.SOLV>
0

>  <SCORE.SYSTEM.norm>
0

>  <SCORE.heavy>
12

>  <SCORE.norm>
0.793454

>  <RMSD>
15.164

$$$$
ligand
 OpenBabel11021811513D
libRbt.so/2013.1/901 2013/11/27
 12 12  0  0  0  0  0  0  0  0999 V2000
    8.0784    3.0833  -20.8617 O   0  0  0  0  0  0  0  0  0  0  0  0
   11.8735   -1.5171  -15.6732 O   0  0  0  0  0  0  0  0  0  0  0  0
    8.3583    1.7671  -21.1592 C   0  0  0  0  0  0  0  0  0  0  0  0
    9.6414   -2.0990  -16.4644 O   0  0  0  0  0  0  0  0  0  0  0  0
    8.3958    0.8893  -19.9764 C   0  0  0  0  0  0  0  0  0  0  0  0
    9.9065   -0.4275  -14.7202 O   0  5  0  0  0  0  0  0  0  0  0  0
    9.2527    1.4379  -18.9168 N   0  3  0  0  0  0  0  0  0  0  0  0
    8.8805    2.7999  -18.6321 C   0  0  0  0  0  0  0  0  0  0  0  0
    8.8524    3.6271  -19.8754 C   0  0  0  0  0  0  0  0  0  0  0  0
    9.1605    0.6199  -17.7451 C   0  0  0  0  0  0  0  0  0  0  0  0
   10.5845    0.2917  -17.2292 C   0  0  0  0  0  0  0  0  0  0  0  0
   10.5060   -0.9868  -15.9581 S   0  0  1  0  0  0  0  0  0  0  0  0
  1  3  1  0  0  0  0
  1  9  1  0  0  0  0
  2 12  1  0  0  0  0
  3  5  1  0  0  0  0
  4 12  2  0  0  0  0
  5  7  1  0  0  0  0
  6 12  2  0  0  0  0
  7  8  1  0  0  0  0
  7 10  1  0  0  0  0
  8  9  1  0  0  0  0
 10 11  1  0  0  0  0
 12 11  1  6  0  0  0
M  CHG  2   6  -1   7   1
M  END
>  <CHROM.1>
131.16815022,-169.06787092,167.65607323,9.57184585,0.58353486,-17.85435511
2.57651802,-1.15758802,0.08502411

>  <Name>
ligand

>  <RI>
0

>  <Rbt.Current_Directory>
/home/itssahil/PROJECTS/Mol_Feturizer/New_Systems/rnas/4P95

>  <Rbt.Executable>
rbdock ($Id: //depot/dev/client3/rdock/2013.1/src/exe/rbdock.cxx#4 $)

>  <Rbt.Library>
libRbt.so (2013.1, Build901 2013/11/27)

>  <Rbt.Parameter_File>
/export/apps/rDock/src/rDock_2013.1_src/data/scripts/dock_solv.prm

>  <Rbt.Receptor>
prm/blind_docking_80.prm

>  <SCORE>
13.4216

>  <SCORE.INTER>
14.6553

>  <SCORE.INTER.CONST>
1

>  <SCORE.INTER.POLAR>
0

>  <SCORE.INTER.ROT>
3

>  <SCORE.INTER.SOLV>
19.9999

>  <SCORE.INTER.VDW>
-2.49645

>  <SCORE.INTER.norm>
1.22127

>  <SCORE.INTRA>
-1.23366

>  <SCORE.INTRA.DIHEDRAL>
2.64102

>  <SCORE.INTRA.DIHEDRAL.0>
0.283163

>  <SCORE.INTRA.POLAR>
0

>  <SCORE.INTRA.POLAR.0>
0

>  <SCORE.INTRA.REPUL>
0

>  <SCORE.INTRA.REPUL.0>
0

>  <SCORE.INTRA.SOLV>
0.0600177

>  <SCORE.INTRA.SOLV.lig_0>
-32.2894

>  <SCORE.INTRA.VDW>
-2.58418

>  <SCORE.INTRA.VDW.0>
2.0241

>  <SCORE.INTRA.norm>
-0.102805

>  <SCORE.RESTR>
0

>  <SCORE.RESTR.CAVITY>
0

>  <SCORE.RESTR.norm>
0

>  <SCORE.SYSTEM>
0

>  <SCORE.SYSTEM.CONST>
0

>  <SCORE.SYSTEM.DIHEDRAL>
0

>  <SCORE.SYSTEM.SOLV>
0

>  <SCORE.SYSTEM.norm>
0

>  <SCORE.heavy>
12

>  <SCORE.norm>
1.11847

>  <RMSD>
15.166

$$$$
ligand
 OpenBabel11021811513D
libRbt.so/2013.1/901 2013/11/27
 12 12  0  0  0  0  0  0  0  0999 V2000
    8.0844    3.0721  -20.8401 O   0  0  0  0  0  0  0  0  0  0  0  0
    9.9060   -2.2756  -16.4492 O   0  0  0  0  0  0  0  0  0  0  0  0
    8.3521    1.7516  -21.1295 C   0  0  0  0  0  0  0  0  0  0  0  0
    9.5662   -0.4729  -14.8426 O   0  0  0  0  0  0  0  0  0  0  0  0
    8.3838    0.8813  -19.9411 C   0  0  0  0  0  0  0  0  0  0  0  0
   11.8188   -1.2365  -15.3419 O   0  5  0  0  0  0  0  0  0  0  0  0
    9.2473    1.4290  -18.8864 N   0  3  0  0  0  0  0  0  0  0  0  0
    8.8877    2.7962  -18.6100 C   0  0  0  0  0  0  0  0  0  0  0  0
    8.8648    3.6155  -19.8586 C   0  0  0  0  0  0  0  0  0  0  0  0
    9.1499    0.6196  -17.7093 C   0  0  0  0  0  0  0  0  0  0  0  0
   10.5713    0.2362  -17.2252 C   0  0  0  0  0  0  0  0  0  0  0  0
   10.4693   -0.9994  -15.9141 S   0  0  1  0  0  0  0  0  0  0  0  0
  1  3  1  0  0  0  0
  1  9  1  0  0  0  0
  2 12  1  0  0  0  0
  3  5  1  0  0  0  0
  4 12  2  0  0  0  0
  5  7  1  0  0  0  0
  6 12  2  0  0  0  0
  7  8  1  0  0  0  0
  7 10  1  0  0  0  0
  8  9  1  0  0  0  0
 10 11  1  0  0  0  0
 12 11  1  6  0  0  0
M  CHG  2   6  -1   7   1
M  END
>  <CHROM.1>
128.98109321,-170.67343867,65.47957196,9.55356501,0.57787026,-17.81429918
2.53846532,-1.15587453,0.04108323

>  <Name>
ligand

>  <RI>
0

>  <Rbt.Current_Directory>
/home/itssahil/PROJECTS/Mol_Feturizer/New_Systems/rnas/4P95

>  <Rbt.Executable>
rbdock ($Id: //depot/dev/client3/rdock/2013.1/src/exe/rbdock.cxx#4 $)

>  <Rbt.Library>
libRbt.so (2013.1, Build901 2013/11/27)

>  <Rbt.Parameter_File>
/export/apps/rDock/src/rDock_2013.1_src/data/scripts/dock_solv.prm

>  <Rbt.Receptor>
prm/blind_docking_40.prm

>  <SCORE>
9.52358

>  <SCORE.INTER>
11.3532

>  <SCORE.INTER.CONST>
1

>  <SCORE.INTER.POLAR>
0

>  <SCORE.INTER.ROT>
3

>  <SCORE.INTER.SOLV>
13.7304

>  <SCORE.INTER.VDW>
-2.60799

>  <SCORE.INTER.norm>
0.9461

>  <SCORE.INTRA>
-1.82962

>  <SCORE.INTRA.DIHEDRAL>
2.3677

>  <SCORE.INTRA.DIHEDRAL.0>
0.283163

>  <SCORE.INTRA.POLAR>
0

>  <SCORE.INTRA.POLAR.0>
0

>  <SCORE.INTRA.REPUL>
0

>  <SCORE.INTRA.REPUL.0>
0

>  <SCORE.INTRA.SOLV>
-0.699639

>  <SCORE.INTRA.SOLV.lig_0>
-32.2894

>  <SCORE.INTRA.VDW>
-2.66365

>  <SCORE.INTRA.VDW.0>
2.0241

>  <SCORE.INTRA.norm>
-0.152468

>  <SCORE.RESTR>
0

>  <SCORE.RESTR.CAVITY>
0

>  <SCORE.RESTR.norm>
0

>  <SCORE.SYSTEM>
0

>  <SCORE.SYSTEM.CONST>
0

>  <SCORE.SYSTEM.DIHEDRAL>
0

>  <SCORE.SYSTEM.SOLV>
0

>  <SCORE.SYSTEM.norm>
0

>  <SCORE.heavy>
12

>  <SCORE.norm>
0.793632

>  <RMSD>
15.176

$$$$
ligand
 OpenBabel11021811513D
libRbt.so/2013.1/901 2013/11/27
 12 12  0  0  0  0  0  0  0  0999 V2000
    8.0825    3.0689  -20.8432 O   0  0  0  0  0  0  0  0  0  0  0  0
    9.9038   -2.2562  -16.4555 O   0  0  0  0  0  0  0  0  0  0  0  0
    8.3529    1.7486  -21.1313 C   0  0  0  0  0  0  0  0  0  0  0  0
    9.6052   -0.4652  -14.8276 O   0  0  0  0  0  0  0  0  0  0  0  0
    8.3880    0.8799  -19.9417 C   0  0  0  0  0  0  0  0  0  0  0  0
   11.8427   -1.2449  -15.3680 O   0  5  0  0  0  0  0  0  0  0  0  0
    9.2516    1.4310  -18.8889 N   0  3  0  0  0  0  0  0  0  0  0  0
    8.8892    2.7976  -18.6138 C   0  0  0  0  0  0  0  0  0  0  0  0
    8.8629    3.6153  -19.8634 C   0  0  0  0  0  0  0  0  0  0  0  0
    9.1574    0.6228  -17.7106 C   0  0  0  0  0  0  0  0  0  0  0  0
   10.5806    0.2565  -17.2187 C   0  0  0  0  0  0  0  0  0  0  0  0
   10.4870   -0.9902  -15.9174 S   0  0  1  0  0  0  0  0  0  0  0  0
  1  3  1  0  0  0  0
  1  9  1  0  0  0  0
  2 12  1  0  0  0  0
  3  5  1  0  0  0  0
  4 12  2  0  0  0  0
  5  7  1  0  0  0  0
  6 12  2  0  0  0  0
  7  8  1  0  0  0  0
  7 10  1  0  0  0  0
  8  9  1  0  0  0  0
 10 11  1  0  0  0  0
 12 11  1  6  0  0  0
M  CHG  2   6  -1   7   1
M  END
>  <CHROM.1>
129.61152721,-170.08735473,63.59536156,9.56316680,0.58228919,-17.81710299
2.54423981,-1.15356524,0.04510764

>  <Name>
ligand

>  <RI>
0

>  <Rbt.Current_Directory>
/home/itssahil/PROJECTS/Mol_Feturizer/New_Systems/rnas/4P95

>  <Rbt.Executable>
rbdock ($Id: //depot/dev/client3/rdock/2013.1/src/exe/rbdock.cxx#4 $)

>  <Rbt.Library>
libRbt.so (2013.1, Build901 2013/11/27)

>  <Rbt.Parameter_File>
/export/apps/rDock/src/rDock_2013.1_src/data/scripts/dock_solv.prm

>  <Rbt.Receptor>
prm/blind_docking_60.prm

>  <SCORE>
9.51772

>  <SCORE.INTER>
11.367

>  <SCORE.INTER.CONST>
1

>  <SCORE.INTER.POLAR>
0

>  <SCORE.INTER.ROT>
3

>  <SCORE.INTER.SOLV>
13.6675

>  <SCORE.INTER.VDW>
-2.57784

>  <SCORE.INTER.norm>
0.94725

>  <SCORE.INTRA>
-1.84929

>  <SCORE.INTRA.DIHEDRAL>
2.34013

>  <SCORE.INTRA.DIHEDRAL.0>
0.283163

>  <SCORE.INTRA.POLAR>
0

>  <SCORE.INTRA.POLAR.0>
0

>  <SCORE.INTRA.REPUL>
0

>  <SCORE.INTRA.REPUL.0>
0

>  <SCORE.INTRA.SOLV>
-0.705498

>  <SCORE.INTRA.SOLV.lig_0>
-32.2894

>  <SCORE.INTRA.VDW>
-2.6666

>  <SCORE.INTRA.VDW.0>
2.0241

>  <SCORE.INTRA.norm>
-0.154107

>  <SCORE.RESTR>
0

>  <SCORE.RESTR.CAVITY>
0

>  <SCORE.RESTR.norm>
0

>  <SCORE.SYSTEM>
0

>  <SCORE.SYSTEM.CONST>
0

>  <SCORE.SYSTEM.DIHEDRAL>
0

>  <SCORE.SYSTEM.SOLV>
0

>  <SCORE.SYSTEM.norm>
0

>  <SCORE.heavy>
12

>  <SCORE.norm>
0.793143

>  <RMSD>
15.176

$$$$
ligand
 OpenBabel11021811513D
libRbt.so/2013.1/901 2013/11/27
 12 12  0  0  0  0  0  0  0  0999 V2000
    8.1140    3.0540  -20.8658 O   0  0  0  0  0  0  0  0  0  0  0  0
    9.7542   -2.1837  -16.4676 O   0  0  0  0  0  0  0  0  0  0  0  0
    8.3665    1.7265  -21.1364 C   0  0  0  0  0  0  0  0  0  0  0  0
    9.6484   -0.4811  -14.7250 O   0  0  0  0  0  0  0  0  0  0  0  0
    8.3750    0.8706  -19.9371 C   0  0  0  0  0  0  0  0  0  0  0  0
   11.8048   -1.3432  -15.4412 O   0  5  0  0  0  0  0  0  0  0  0  0
    9.2358    1.4197  -18.8810 N   0  3  0  0  0  0  0  0  0  0  0  0
    8.8922    2.7949  -18.6248 C   0  0  0  0  0  0  0  0  0  0  0  0
    8.8924    3.5989  -19.8835 C   0  0  0  0  0  0  0  0  0  0  0  0
    9.1161    0.6263  -17.6950 C   0  0  0  0  0  0  0  0  0  0  0  0
   10.5266    0.3314  -17.1246 C   0  0  0  0  0  0  0  0  0  0  0  0
   10.4367   -0.9849  -15.8935 S   0  0  1  0  0  0  0  0  0  0  0  0
  1  3  1  0  0  0  0
  1  9  1  0  0  0  0
  2 12  1  0  0  0  0
  3  5  1  0  0  0  0
  4 12  2  0  0  0  0
  5  7  1  0  0  0  0
  6 12  2  0  0  0  0
  7  8  1  0  0  0  0
  7 10  1  0  0  0  0
  8  9  1  0  0  0  0
 10 11  1  0  0  0  0
 12 11  1  6  0  0  0
M  CHG  2   6  -1   7   1
M  END
>  <CHROM.1>
133.77879511,-165.93019409,53.52014963,9.53994854,0.57970208,-17.80741106
2.51143467,-1.15757836,0.00570015

>  <Name>
ligand

>  <RI>
0

>  <Rbt.Current_Directory>
/home/itssahil/PROJECTS/Mol_Feturizer/New_Systems/rnas/4P95

>  <Rbt.Executable>
rbdock ($Id: //depot/dev/client3/rdock/2013.1/src/exe/rbdock.cxx#4 $)

>  <Rbt.Library>
libRbt.so (2013.1, Build901 2013/11/27)

>  <Rbt.Parameter_File>
/export/apps/rDock/src/rDock_2013.1_src/data/scripts/dock_solv.prm

>  <Rbt.Receptor>
prm/blind_docking_100.prm

>  <SCORE>
9.53541

>  <SCORE.INTER>
11.2402

>  <SCORE.INTER.CONST>
1

>  <SCORE.INTER.POLAR>
0

>  <SCORE.INTER.ROT>
3

>  <SCORE.INTER.SOLV>
13.7536

>  <SCORE.INTER.VDW>
-2.69109

>  <SCORE.INTER.norm>
0.936683

>  <SCORE.INTRA>
-1.70478

>  <SCORE.INTRA.DIHEDRAL>
2.56722

>  <SCORE.INTRA.DIHEDRAL.0>
0.283163

>  <SCORE.INTRA.POLAR>
0

>  <SCORE.INTRA.POLAR.0>
0

>  <SCORE.INTRA.REPUL>
0

>  <SCORE.INTRA.REPUL.0>
0

>  <SCORE.INTRA.SOLV>
-0.728052

>  <SCORE.INTRA.SOLV.lig_0>
-32.2894

>  <SCORE.INTRA.VDW>
-2.62436

>  <SCORE.INTRA.VDW.0>
2.0241

>  <SCORE.INTRA.norm>
-0.142065

>  <SCORE.RESTR>
0

>  <SCORE.RESTR.CAVITY>
0

>  <SCORE.RESTR.norm>
0

>  <SCORE.SYSTEM>
0

>  <SCORE.SYSTEM.CONST>
0

>  <SCORE.SYSTEM.DIHEDRAL>
0

>  <SCORE.SYSTEM.SOLV>
0

>  <SCORE.SYSTEM.norm>
0

>  <SCORE.heavy>
12

>  <SCORE.norm>
0.794618

>  <RMSD>
15.182

$$$$
ligand
 OpenBabel11021811513D
libRbt.so/2013.1/901 2013/11/27
 12 12  0  0  0  0  0  0  0  0999 V2000
    8.0978    3.0494  -20.8705 O   0  0  0  0  0  0  0  0  0  0  0  0
    9.5599   -0.4788  -14.7436 O   0  0  0  0  0  0  0  0  0  0  0  0
    8.3544    1.7204  -21.1297 C   0  0  0  0  0  0  0  0  0  0  0  0
   11.8283   -1.1592  -15.3251 O   0  0  0  0  0  0  0  0  0  0  0  0
    8.3724    0.8761  -19.9223 C   0  0  0  0  0  0  0  0  0  0  0  0
    9.9339   -2.1901  -16.4454 O   0  5  0  0  0  0  0  0  0  0  0  0
    9.2362    1.4388  -18.8758 N   0  3  0  0  0  0  0  0  0  0  0  0
    8.8883    2.8149  -18.6311 C   0  0  0  0  0  0  0  0  0  0  0  0
    8.8789    3.6068  -19.8974 C   0  0  0  0  0  0  0  0  0  0  0  0
    9.1258    0.6562  -17.6817 C   0  0  0  0  0  0  0  0  0  0  0  0
   10.5415    0.3455  -17.1333 C   0  0  0  0  0  0  0  0  0  0  0  0
   10.4486   -0.9275  -15.8577 S   0  0  1  0  0  0  0  0  0  0  0  0
  1  3  1  0  0  0  0
  1  9  1  0  0  0  0
  2 12  1  0  0  0  0
  3  5  1  0  0  0  0
  4 12  2  0  0  0  0
  5  7  1  0  0  0  0
  6 12  2  0  0  0  0
  7  8  1  0  0  0  0
  7 10  1  0  0  0  0
  8  9  1  0  0  0  0
 10 11  1  0  0  0  0
 12 11  1  6  0  0  0
M  CHG  2   6  -1   7   1
M  END
>  <CHROM.1>
132.51220277,-167.50093068,-58.60315103,9.54952471,0.61015346,-17.79120601
2.53458779,-1.15750260,0.01818379

>  <Name>
ligand

>  <RI>
0

>  <Rbt.Current_Directory>
/home/itssahil/PROJECTS/Mol_Feturizer/New_Systems/rnas/4P95

>  <Rbt.Executable>
rbdock ($Id: //depot/dev/client3/rdock/2013.1/src/exe/rbdock.cxx#4 $)

>  <Rbt.Library>
libRbt.so (2013.1, Build901 2013/11/27)

>  <Rbt.Parameter_File>
/export/apps/rDock/src/rDock_2013.1_src/data/scripts/dock_solv.prm

>  <Rbt.Receptor>
prm/blind_docking_40.prm

>  <SCORE>
13.3384

>  <SCORE.INTER>
14.7925

>  <SCORE.INTER.CONST>
1

>  <SCORE.INTER.POLAR>
0

>  <SCORE.INTER.ROT>
3

>  <SCORE.INTER.SOLV>
21.2063

>  <SCORE.INTER.VDW>
-2.80712

>  <SCORE.INTER.norm>
1.23271

>  <SCORE.INTRA>
-1.45409

>  <SCORE.INTRA.DIHEDRAL>
2.40435

>  <SCORE.INTRA.DIHEDRAL.0>
0.283163

>  <SCORE.INTRA.POLAR>
0

>  <SCORE.INTRA.POLAR.0>
0

>  <SCORE.INTRA.REPUL>
0

>  <SCORE.INTRA.REPUL.0>
0

>  <SCORE.INTRA.SOLV>
-0.0114466

>  <SCORE.INTRA.SOLV.lig_0>
-32.2894

>  <SCORE.INTRA.VDW>
-2.65054

>  <SCORE.INTRA.VDW.0>
2.0241

>  <SCORE.INTRA.norm>
-0.121174

>  <SCORE.RESTR>
0

>  <SCORE.RESTR.CAVITY>
0

>  <SCORE.RESTR.norm>
0

>  <SCORE.SYSTEM>
0

>  <SCORE.SYSTEM.CONST>
0

>  <SCORE.SYSTEM.DIHEDRAL>
0

>  <SCORE.SYSTEM.SOLV>
0

>  <SCORE.SYSTEM.norm>
0

>  <SCORE.heavy>
12

>  <SCORE.norm>
1.11153

>  <RMSD>
15.207

$$$$
ligand
 OpenBabel11021811513D
libRbt.so/2013.1/901 2013/11/27
 12 12  0  0  0  0  0  0  0  0999 V2000
    2.3784    0.8650  -21.4009 O   0  0  0  0  0  0  0  0  0  0  0  0
    1.3998    0.3626  -14.1731 O   0  0  0  0  0  0  0  0  0  0  0  0
    3.3796    1.1397  -20.4945 C   0  0  0  0  0  0  0  0  0  0  0  0
   -0.7890    0.3945  -15.2476 O   0  0  0  0  0  0  0  0  0  0  0  0
    3.0594    0.7254  -19.1173 C   0  0  0  0  0  0  0  0  0  0  0  0
   -0.0134    2.3492  -14.0294 O   0  5  0  0  0  0  0  0  0  0  0  0
    1.7424    1.2178  -18.6916 N   0  3  0  0  0  0  0  0  0  0  0  0
    0.7412    0.8636  -19.6646 C   0  0  0  0  0  0  0  0  0  0  0  0
    1.1364    1.3034  -21.0362 C   0  0  0  0  0  0  0  0  0  0  0  0
    1.4200    0.6891  -17.4005 C   0  0  0  0  0  0  0  0  0  0  0  0
    1.1293    1.8546  -16.4214 C   0  0  0  0  0  0  0  0  0  0  0  0
    0.4096    1.2185  -14.8937 S   0  0  1  0  0  0  0  0  0  0  0  0
  1  3  1  0  0  0  0
  1  9  1  0  0  0  0
  2 12  1  0  0  0  0
  3  5  1  0  0  0  0
  4 12  2  0  0  0  0
  5  7  1  0  0  0  0
  6 12  2  0  0  0  0
  7  8  1  0  0  0  0
  7 10  1  0  0  0  0
  8  9  1  0  0  0  0
 10 11  1  0  0  0  0
 12 11  1  6  0  0  0
M  CHG  2   6  -1   7   1
M  END
>  <CHROM.1>
123.54665364,168.85905045,65.18818304,1.22313752,1.09097497,-17.39125121
1.25751504,0.09033420,-1.57579053

>  <Name>
ligand

>  <RI>
0

>  <Rbt.Current_Directory>
/home/itssahil/PROJECTS/Mol_Feturizer/New_Systems/rnas/4P95

>  <Rbt.Executable>
rbdock ($Id: //depot/dev/client3/rdock/2013.1/src/exe/rbdock.cxx#4 $)

>  <Rbt.Library>
libRbt.so (2013.1, Build901 2013/11/27)

>  <Rbt.Parameter_File>
/export/apps/rDock/src/rDock_2013.1_src/data/scripts/dock_solv.prm

>  <Rbt.Receptor>
prm/blind_docking_40.prm

>  <SCORE>
-11.8412

>  <SCORE.INTER>
-10.1428

>  <SCORE.INTER.CONST>
1

>  <SCORE.INTER.POLAR>
0

>  <SCORE.INTER.ROT>
3

>  <SCORE.INTER.SOLV>
9.67148

>  <SCORE.INTER.VDW>
-15.5857

>  <SCORE.INTER.norm>
-0.845234

>  <SCORE.INTRA>
-1.6988

>  <SCORE.INTRA.DIHEDRAL>
2.62106

>  <SCORE.INTRA.DIHEDRAL.0>
0.283163

>  <SCORE.INTRA.POLAR>
0

>  <SCORE.INTRA.POLAR.0>
0

>  <SCORE.INTRA.REPUL>
0

>  <SCORE.INTRA.REPUL.0>
0

>  <SCORE.INTRA.SOLV>
-0.697355

>  <SCORE.INTRA.SOLV.lig_0>
-32.2894

>  <SCORE.INTRA.VDW>
-2.66066

>  <SCORE.INTRA.VDW.0>
2.0241

>  <SCORE.INTRA.norm>
-0.141567

>  <SCORE.RESTR>
0.000384092

>  <SCORE.RESTR.CAVITY>
0.000384092

>  <SCORE.RESTR.norm>
3.20077e-05

>  <SCORE.SYSTEM>
0

>  <SCORE.SYSTEM.CONST>
0

>  <SCORE.SYSTEM.DIHEDRAL>
0

>  <SCORE.SYSTEM.SOLV>
0

>  <SCORE.SYSTEM.norm>
0

>  <SCORE.heavy>
12

>  <SCORE.norm>
-0.986769

>  <RMSD>
15.281

$$$$
ligand
 OpenBabel11021811513D
libRbt.so/2013.1/901 2013/11/27
 12 12  0  0  0  0  0  0  0  0999 V2000
   11.3900   -1.0924  -14.8167 O   0  0  0  0  0  0  0  0  0  0  0  0
    9.4717    1.1869  -21.4637 O   0  0  0  0  0  0  0  0  0  0  0  0
   11.8392    0.0917  -15.3601 C   0  0  0  0  0  0  0  0  0  0  0  0
    7.8676    2.7542  -20.5063 O   0  0  0  0  0  0  0  0  0  0  0  0
   10.8029    0.8321  -16.1010 C   0  0  0  0  0  0  0  0  0  0  0  0
    7.6052    0.3696  -20.1173 O   0  5  0  0  0  0  0  0  0  0  0  0
   10.1098   -0.0244  -17.0727 N   0  3  0  0  0  0  0  0  0  0  0  0
    9.6359   -1.2229  -16.4294 C   0  0  0  0  0  0  0  0  0  0  0  0
   10.7344   -1.9139  -15.6901 C   0  0  0  0  0  0  0  0  0  0  0  0
    9.0326    0.6997  -17.6772 C   0  0  0  0  0  0  0  0  0  0  0  0
    9.5895    1.6236  -18.7899 C   0  0  0  0  0  0  0  0  0  0  0  0
    8.5942    1.4640  -20.2866 S   0  0  1  0  0  0  0  0  0  0  0  0
  1  3  1  0  0  0  0
  1  9  1  0  0  0  0
  2 12  1  0  0  0  0
  3  5  1  0  0  0  0
  4 12  2  0  0  0  0
  5  7  1  0  0  0  0
  6 12  2  0  0  0  0
  7  8  1  0  0  0  0
  7 10  1  0  0  0  0
  8  9  1  0  0  0  0
 10 11  1  0  0  0  0
 12 11  1  1  0  0  0
M  CHG  2   6  -1   7   1
M  END
>  <CHROM.1>
79.88652835,133.16650710,-128.38399222,9.59198007,0.51298110,-18.14023582
-0.86884452,-0.86635189,-0.56029557

>  <Name>
ligand

>  <RI>
0

>  <Rbt.Current_Directory>
/home/itssahil/PROJECTS/Mol_Feturizer/New_Systems/rnas/4P95

>  <Rbt.Executable>
rbdock ($Id: //depot/dev/client3/rdock/2013.1/src/exe/rbdock.cxx#4 $)

>  <Rbt.Library>
libRbt.so (2013.1, Build901 2013/11/27)

>  <Rbt.Parameter_File>
/export/apps/rDock/src/rDock_2013.1_src/data/scripts/dock_solv.prm

>  <Rbt.Receptor>
prm/blind_docking_80.prm

>  <SCORE>
29.1771

>  <SCORE.INTER>
25.9432

>  <SCORE.INTER.CONST>
1

>  <SCORE.INTER.POLAR>
0

>  <SCORE.INTER.ROT>
3

>  <SCORE.INTER.SOLV>
20.2423

>  <SCORE.INTER.VDW>
4.94806

>  <SCORE.INTER.norm>
2.16194

>  <SCORE.INTRA>
3.20349

>  <SCORE.INTRA.DIHEDRAL>
8.71786

>  <SCORE.INTRA.DIHEDRAL.0>
0.283163

>  <SCORE.INTRA.POLAR>
0

>  <SCORE.INTRA.POLAR.0>
0

>  <SCORE.INTRA.REPUL>
0

>  <SCORE.INTRA.REPUL.0>
0

>  <SCORE.INTRA.SOLV>
1.14004

>  <SCORE.INTRA.SOLV.lig_0>
-32.2894

>  <SCORE.INTRA.VDW>
-1.72546

>  <SCORE.INTRA.VDW.0>
2.0241

>  <SCORE.INTRA.norm>
0.266957

>  <SCORE.RESTR>
0.0303926

>  <SCORE.RESTR.CAVITY>
0.0303926

>  <SCORE.RESTR.norm>
0.00253271

>  <SCORE.SYSTEM>
0

>  <SCORE.SYSTEM.CONST>
0

>  <SCORE.SYSTEM.DIHEDRAL>
0

>  <SCORE.SYSTEM.SOLV>
0

>  <SCORE.SYSTEM.norm>
0

>  <SCORE.heavy>
12

>  <SCORE.norm>
2.43143

>  <RMSD>
15.348

$$$$
ligand
 OpenBabel11021811513D
libRbt.so/2013.1/901 2013/11/27
 12 12  0  0  0  0  0  0  0  0999 V2000
    8.0633    3.0067  -20.9009 O   0  0  0  0  0  0  0  0  0  0  0  0
   11.3731   -1.8086  -15.6038 O   0  0  0  0  0  0  0  0  0  0  0  0
    8.3830    1.6750  -21.0544 C   0  0  0  0  0  0  0  0  0  0  0  0
    9.3342   -0.5870  -15.0590 O   0  0  0  0  0  0  0  0  0  0  0  0
    8.4590    0.9355  -19.7822 C   0  0  0  0  0  0  0  0  0  0  0  0
   11.4846    0.5392  -14.9405 O   0  5  0  0  0  0  0  0  0  0  0  0
    9.3069    1.6246  -18.8003 N   0  3  0  0  0  0  0  0  0  0  0  0
    8.8935    2.9976  -18.6636 C   0  0  0  0  0  0  0  0  0  0  0  0
    8.8279    3.6804  -19.9903 C   0  0  0  0  0  0  0  0  0  0  0  0
    9.2514    0.9393  -17.5443 C   0  0  0  0  0  0  0  0  0  0  0  0
   10.4956    0.0272  -17.3964 C   0  0  0  0  0  0  0  0  0  0  0  0
   10.6938   -0.4798  -15.6760 S   0  0  1  0  0  0  0  0  0  0  0  0
  1  3  1  0  0  0  0
  1  9  1  0  0  0  0
  2 12  1  0  0  0  0
  3  5  1  0  0  0  0
  4 12  2  0  0  0  0
  5  7  1  0  0  0  0
  6 12  2  0  0  0  0
  7  8  1  0  0  0  0
  7 10  1  0  0  0  0
  8  9  1  0  0  0  0
 10 11  1  0  0  0  0
 12 11  1  6  0  0  0
M  CHG  2   6  -1   7   1
M  END
>  <CHROM.1>
98.93369197,164.20048456,151.46472763,9.67466313,0.87331785,-17.68583821
2.69075239,-1.14713142,0.09876378

>  <Name>
ligand

>  <RI>
0

>  <Rbt.Current_Directory>
/home/itssahil/PROJECTS/Mol_Feturizer/New_Systems/rnas/4P95

>  <Rbt.Executable>
rbdock ($Id: //depot/dev/client3/rdock/2013.1/src/exe/rbdock.cxx#4 $)

>  <Rbt.Library>
libRbt.so (2013.1, Build901 2013/11/27)

>  <Rbt.Parameter_File>
/export/apps/rDock/src/rDock_2013.1_src/data/scripts/dock_solv.prm

>  <Rbt.Receptor>
prm/blind_docking_100.prm

>  <SCORE>
13.1318

>  <SCORE.INTER>
13.5476

>  <SCORE.INTER.CONST>
1

>  <SCORE.INTER.POLAR>
0

>  <SCORE.INTER.ROT>
3

>  <SCORE.INTER.SOLV>
17.9647

>  <SCORE.INTER.VDW>
-2.55652

>  <SCORE.INTER.norm>
1.12896

>  <SCORE.INTRA>
-0.415761

>  <SCORE.INTRA.DIHEDRAL>
4.00804

>  <SCORE.INTRA.DIHEDRAL.0>
0.283163

>  <SCORE.INTRA.POLAR>
0

>  <SCORE.INTRA.POLAR.0>
0

>  <SCORE.INTRA.REPUL>
0

>  <SCORE.INTRA.REPUL.0>
0

>  <SCORE.INTRA.SOLV>
-0.0790078

>  <SCORE.INTRA.SOLV.lig_0>
-32.2894

>  <SCORE.INTRA.VDW>
-2.38028

>  <SCORE.INTRA.VDW.0>
2.0241

>  <SCORE.INTRA.norm>
-0.0346467

>  <SCORE.RESTR>
0

>  <SCORE.RESTR.CAVITY>
0

>  <SCORE.RESTR.norm>
0

>  <SCORE.SYSTEM>
0

>  <SCORE.SYSTEM.CONST>
0

>  <SCORE.SYSTEM.DIHEDRAL>
0

>  <SCORE.SYSTEM.SOLV>
0

>  <SCORE.SYSTEM.norm>
0

>  <SCORE.heavy>
12

>  <SCORE.norm>
1.09432

>  <RMSD>
15.360

$$$$
ligand
 OpenBabel11021811513D
libRbt.so/2013.1/901 2013/11/27
 12 12  0  0  0  0  0  0  0  0999 V2000
    3.8253   16.2322  -28.5779 O   0  0  0  0  0  0  0  0  0  0  0  0
    7.0903   11.1836  -24.5986 O   0  0  0  0  0  0  0  0  0  0  0  0
    4.5427   16.7749  -27.5338 C   0  0  0  0  0  0  0  0  0  0  0  0
    7.2493   12.5035  -22.5543 O   0  0  0  0  0  0  0  0  0  0  0  0
    5.5270   15.8477  -26.9487 C   0  0  0  0  0  0  0  0  0  0  0  0
    8.6421   13.0648  -24.4651 O   0  5  0  0  0  0  0  0  0  0  0  0
    4.9256   14.5475  -26.6234 N   0  3  0  0  0  0  0  0  0  0  0  0
    4.2257   14.0234  -27.7681 C   0  0  0  0  0  0  0  0  0  0  0  0
    3.2551   15.0185  -28.3144 C   0  0  0  0  0  0  0  0  0  0  0  0
    5.9401   13.6410  -26.1768 C   0  0  0  0  0  0  0  0  0  0  0  0
    6.0207   13.6754  -24.6295 C   0  0  0  0  0  0  0  0  0  0  0  0
    7.3110   12.5554  -24.0490 S   0  0  1  0  0  0  0  0  0  0  0  0
  1  3  1  0  0  0  0
  1  9  1  0  0  0  0
  2 12  1  0  0  0  0
  3  5  1  0  0  0  0
  4 12  2  0  0  0  0
  5  7  1  0  0  0  0
  6 12  2  0  0  0  0
  7  8  1  0  0  0  0
  7 10  1  0  0  0  0
  8  9  1  0  0  0  0
 10 11  1  0  0  0  0
 12 11  1  6  0  0  0
M  CHG  2   6  -1   7   1
M  END
>  <CHROM.1>
94.31408158,-179.20452819,-54.25928869,5.90152453,13.91230235,-25.79747291
-2.42691173,0.77654478,2.92514473

>  <Name>
ligand

>  <RI>
0

>  <Rbt.Current_Directory>
/home/itssahil/PROJECTS/Mol_Feturizer/New_Systems/rnas/4P95

>  <Rbt.Executable>
rbdock ($Id: //depot/dev/client3/rdock/2013.1/src/exe/rbdock.cxx#4 $)

>  <Rbt.Library>
libRbt.so (2013.1, Build901 2013/11/27)

>  <Rbt.Parameter_File>
/export/apps/rDock/src/rDock_2013.1_src/data/scripts/dock_solv.prm

>  <Rbt.Receptor>
prm/blind_docking_100.prm

>  <SCORE>
-8.42727

>  <SCORE.INTER>
-6.52266

>  <SCORE.INTER.CONST>
1

>  <SCORE.INTER.POLAR>
0

>  <SCORE.INTER.ROT>
3

>  <SCORE.INTER.SOLV>
4.67424

>  <SCORE.INTER.VDW>
-11.5065

>  <SCORE.INTER.norm>
-0.543555

>  <SCORE.INTRA>
-1.90461

>  <SCORE.INTRA.DIHEDRAL>
1.35722

>  <SCORE.INTRA.DIHEDRAL.0>
0.283163

>  <SCORE.INTRA.POLAR>
0

>  <SCORE.INTRA.POLAR.0>
0

>  <SCORE.INTRA.REPUL>
0

>  <SCORE.INTRA.REPUL.0>
0

>  <SCORE.INTRA.SOLV>
-0.124747

>  <SCORE.INTRA.SOLV.lig_0>
-32.2894

>  <SCORE.INTRA.VDW>
-2.52085

>  <SCORE.INTRA.VDW.0>
2.0241

>  <SCORE.INTRA.norm>
-0.158717

>  <SCORE.RESTR>
0

>  <SCORE.RESTR.CAVITY>
0

>  <SCORE.RESTR.norm>
0

>  <SCORE.SYSTEM>
0

>  <SCORE.SYSTEM.CONST>
0

>  <SCORE.SYSTEM.DIHEDRAL>
0

>  <SCORE.SYSTEM.SOLV>
0

>  <SCORE.SYSTEM.norm>
0

>  <SCORE.heavy>
12

>  <SCORE.norm>
-0.702273

>  <RMSD>
15.396

$$$$
ligand
 OpenBabel11021811513D
libRbt.so/2013.1/901 2013/11/27
 12 12  0  0  0  0  0  0  0  0999 V2000
    8.0638    2.9575  -20.8830 O   0  0  0  0  0  0  0  0  0  0  0  0
    9.7114   -0.6212  -14.8207 O   0  0  0  0  0  0  0  0  0  0  0  0
    8.3843    1.6223  -21.0010 C   0  0  0  0  0  0  0  0  0  0  0  0
   11.4215    1.0955  -15.0941 O   0  0  0  0  0  0  0  0  0  0  0  0
    8.4677    0.9186  -19.7092 C   0  0  0  0  0  0  0  0  0  0  0  0
   11.9771   -1.2365  -15.4935 O   0  5  0  0  0  0  0  0  0  0  0  0
    9.3198    1.6356  -18.7512 N   0  3  0  0  0  0  0  0  0  0  0  0
    8.9054    3.0115  -18.6506 C   0  0  0  0  0  0  0  0  0  0  0  0
    8.8323    3.6571  -19.9954 C   0  0  0  0  0  0  0  0  0  0  0  0
    9.2715    0.9854  -17.4764 C   0  0  0  0  0  0  0  0  0  0  0  0
   10.4651    0.0052  -17.3493 C   0  0  0  0  0  0  0  0  0  0  0  0
   10.9095   -0.2116  -15.6138 S   0  0  1  0  0  0  0  0  0  0  0  0
  1  3  1  0  0  0  0
  1  9  1  0  0  0  0
  2 12  1  0  0  0  0
  3  5  1  0  0  0  0
  4 12  2  0  0  0  0
  5  7  1  0  0  0  0
  6 12  2  0  0  0  0
  7  8  1  0  0  0  0
  7 10  1  0  0  0  0
  8  9  1  0  0  0  0
 10 11  1  0  0  0  0
 12 11  1  6  0  0  0
M  CHG  2   6  -1   7   1
M  END
>  <CHROM.1>
95.05277369,152.85359913,53.82492378,9.78802341,1.00051715,-17.63648050,-2.73354093
1.10614223,-3.05922789

>  <Name>
ligand

>  <RI>
0

>  <Rbt.Current_Directory>
/home/itssahil/PROJECTS/Mol_Feturizer/New_Systems/rnas/4P95

>  <Rbt.Executable>
rbdock ($Id: //depot/dev/client3/rdock/2013.1/src/exe/rbdock.cxx#4 $)

>  <Rbt.Library>
libRbt.so (2013.1, Build901 2013/11/27)

>  <Rbt.Parameter_File>
/export/apps/rDock/src/rDock_2013.1_src/data/scripts/dock_solv.prm

>  <Rbt.Receptor>
prm/blind_docking_40.prm

>  <SCORE>
9.7927

>  <SCORE.INTER>
10.8064

>  <SCORE.INTER.CONST>
1

>  <SCORE.INTER.POLAR>
0

>  <SCORE.INTER.ROT>
3

>  <SCORE.INTER.SOLV>
14.0452

>  <SCORE.INTER.VDW>
-3.07746

>  <SCORE.INTER.norm>
0.900533

>  <SCORE.INTRA>
-1.01369

>  <SCORE.INTRA.DIHEDRAL>
3.72099

>  <SCORE.INTRA.DIHEDRAL.0>
0.283163

>  <SCORE.INTRA.POLAR>
0

>  <SCORE.INTRA.POLAR.0>
0

>  <SCORE.INTRA.REPUL>
0

>  <SCORE.INTRA.REPUL.0>
0

>  <SCORE.INTRA.SOLV>
-0.706716

>  <SCORE.INTRA.SOLV.lig_0>
-32.2894

>  <SCORE.INTRA.VDW>
-2.52083

>  <SCORE.INTRA.VDW.0>
2.0241

>  <SCORE.INTRA.norm>
-0.0844741

>  <SCORE.RESTR>
0

>  <SCORE.RESTR.CAVITY>
0

>  <SCORE.RESTR.norm>
0

>  <SCORE.SYSTEM>
0

>  <SCORE.SYSTEM.CONST>
0

>  <SCORE.SYSTEM.DIHEDRAL>
0

>  <SCORE.SYSTEM.SOLV>
0

>  <SCORE.SYSTEM.norm>
0

>  <SCORE.heavy>
12

>  <SCORE.norm>
0.816059

>  <RMSD>
15.445

$$$$
ligand
 OpenBabel11021811513D
libRbt.so/2013.1/901 2013/11/27
 12 12  0  0  0  0  0  0  0  0999 V2000
    8.0573    2.9123  -20.8349 O   0  0  0  0  0  0  0  0  0  0  0  0
   11.8211   -1.4402  -15.4394 O   0  0  0  0  0  0  0  0  0  0  0  0
    8.3902    1.5773  -20.9127 C   0  0  0  0  0  0  0  0  0  0  0  0
    9.6229   -0.5949  -14.8069 O   0  0  0  0  0  0  0  0  0  0  0  0
    8.4973    0.9178  -19.5995 C   0  0  0  0  0  0  0  0  0  0  0  0
   11.5035    0.9357  -14.9713 O   0  5  0  0  0  0  0  0  0  0  0  0
    9.3538    1.6749  -18.6769 N   0  3  0  0  0  0  0  0  0  0  0  0
    8.9264    3.0491  -18.6166 C   0  0  0  0  0  0  0  0  0  0  0  0
    8.8295    3.6488  -19.9811 C   0  0  0  0  0  0  0  0  0  0  0  0
    9.3284    1.0671  -17.3807 C   0  0  0  0  0  0  0  0  0  0  0  0
   10.4602    0.0132  -17.2805 C   0  0  0  0  0  0  0  0  0  0  0  0
   10.8834   -0.2823  -15.5514 S   0  0  1  0  0  0  0  0  0  0  0  0
  1  3  1  0  0  0  0
  1  9  1  0  0  0  0
  2 12  1  0  0  0  0
  3  5  1  0  0  0  0
  4 12  2  0  0  0  0
  5  7  1  0  0  0  0
  6 12  2  0  0  0  0
  7  8  1  0  0  0  0
  7 10  1  0  0  0  0
  8  9  1  0  0  0  0
 10 11  1  0  0  0  0
 12 11  1  6  0  0  0
M  CHG  2   6  -1   7   1
M  END
>  <CHROM.1>
90.16032954,157.53397179,171.43242700,9.77986147,0.96545572,-17.57150397
2.72538234,-1.11550221,0.08849910

>  <Name>
ligand

>  <RI>
0

>  <Rbt.Current_Directory>
/home/itssahil/PROJECTS/Mol_Feturizer/New_Systems/rnas/4P95

>  <Rbt.Executable>
rbdock ($Id: //depot/dev/client3/rdock/2013.1/src/exe/rbdock.cxx#4 $)

>  <Rbt.Library>
libRbt.so (2013.1, Build901 2013/11/27)

>  <Rbt.Parameter_File>
/export/apps/rDock/src/rDock_2013.1_src/data/scripts/dock_solv.prm

>  <Rbt.Receptor>
prm/blind_docking_80.prm

>  <SCORE>
12.8014

>  <SCORE.INTER>
13.6354

>  <SCORE.INTER.CONST>
1

>  <SCORE.INTER.POLAR>
0

>  <SCORE.INTER.ROT>
3

>  <SCORE.INTER.SOLV>
18.9726

>  <SCORE.INTER.VDW>
-2.83395

>  <SCORE.INTER.norm>
1.13628

>  <SCORE.INTRA>
-0.833963

>  <SCORE.INTRA.DIHEDRAL>
2.84808

>  <SCORE.INTRA.DIHEDRAL.0>
0.283163

>  <SCORE.INTRA.POLAR>
0

>  <SCORE.INTRA.POLAR.0>
0

>  <SCORE.INTRA.REPUL>
0

>  <SCORE.INTRA.REPUL.0>
0

>  <SCORE.INTRA.SOLV>
0.24043

>  <SCORE.INTRA.SOLV.lig_0>
-32.2894

>  <SCORE.INTRA.VDW>
-2.37822

>  <SCORE.INTRA.VDW.0>
2.0241

>  <SCORE.INTRA.norm>
-0.0694969

>  <SCORE.RESTR>
0

>  <SCORE.RESTR.CAVITY>
0

>  <SCORE.RESTR.norm>
0

>  <SCORE.SYSTEM>
0

>  <SCORE.SYSTEM.CONST>
0

>  <SCORE.SYSTEM.DIHEDRAL>
0

>  <SCORE.SYSTEM.SOLV>
0

>  <SCORE.SYSTEM.norm>
0

>  <SCORE.heavy>
12

>  <SCORE.norm>
1.06678

>  <RMSD>
15.509

$$$$
ligand
 OpenBabel11021811513D
libRbt.so/2013.1/901 2013/11/27
 12 12  0  0  0  0  0  0  0  0999 V2000
    8.0807    2.9144  -20.8389 O   0  0  0  0  0  0  0  0  0  0  0  0
    9.7440   -0.6044  -14.7077 O   0  0  0  0  0  0  0  0  0  0  0  0
    8.3983    1.5760  -20.9224 C   0  0  0  0  0  0  0  0  0  0  0  0
   11.4393    1.1148  -15.0497 O   0  0  0  0  0  0  0  0  0  0  0  0
    8.4818    0.9060  -19.6128 C   0  0  0  0  0  0  0  0  0  0  0  0
   11.9943   -1.2205  -15.4296 O   0  5  0  0  0  0  0  0  0  0  0  0
    9.3364    1.6460  -18.6747 N   0  3  0  0  0  0  0  0  0  0  0  0
    8.9249    3.0248  -18.6095 C   0  0  0  0  0  0  0  0  0  0  0  0
    8.8515    3.6353  -19.9707 C   0  0  0  0  0  0  0  0  0  0  0  0
    9.2882    1.0293  -17.3833 C   0  0  0  0  0  0  0  0  0  0  0  0
   10.4299   -0.0118  -17.2636 C   0  0  0  0  0  0  0  0  0  0  0  0
   10.9197   -0.2016  -15.5372 S   0  0  1  0  0  0  0  0  0  0  0  0
  1  3  1  0  0  0  0
  1  9  1  0  0  0  0
  2 12  1  0  0  0  0
  3  5  1  0  0  0  0
  4 12  2  0  0  0  0
  5  7  1  0  0  0  0
  6 12  2  0  0  0  0
  7  8  1  0  0  0  0
  7 10  1  0  0  0  0
  8  9  1  0  0  0  0
 10 11  1  0  0  0  0
 12 11  1  6  0  0  0
M  CHG  2   6  -1   7   1
M  END
>  <CHROM.1>
91.68421415,152.36559556,57.37395910,9.80135765,1.00072882,-17.56616773,-2.72535834
1.10564224,-3.07477930

>  <Name>
ligand

>  <RI>
0

>  <Rbt.Current_Directory>
/home/itssahil/PROJECTS/Mol_Feturizer/New_Systems/rnas/4P95

>  <Rbt.Executable>
rbdock ($Id: //depot/dev/client3/rdock/2013.1/src/exe/rbdock.cxx#4 $)

>  <Rbt.Library>
libRbt.so (2013.1, Build901 2013/11/27)

>  <Rbt.Parameter_File>
/export/apps/rDock/src/rDock_2013.1_src/data/scripts/dock_solv.prm

>  <Rbt.Receptor>
prm/blind_docking_80.prm

>  <SCORE>
9.69211

>  <SCORE.INTER>
10.7327

>  <SCORE.INTER.CONST>
1

>  <SCORE.INTER.POLAR>
0

>  <SCORE.INTER.ROT>
3

>  <SCORE.INTER.SOLV>
13.9644

>  <SCORE.INTER.VDW>
-3.09967

>  <SCORE.INTER.norm>
0.894393

>  <SCORE.INTRA>
-1.04061

>  <SCORE.INTRA.DIHEDRAL>
3.52114

>  <SCORE.INTRA.DIHEDRAL.0>
0.283163

>  <SCORE.INTRA.POLAR>
0

>  <SCORE.INTRA.POLAR.0>
0

>  <SCORE.INTRA.REPUL>
0

>  <SCORE.INTRA.REPUL.0>
0

>  <SCORE.INTRA.SOLV>
-0.692267

>  <SCORE.INTRA.SOLV.lig_0>
-32.2894

>  <SCORE.INTRA.VDW>
-2.45504

>  <SCORE.INTRA.VDW.0>
2.0241

>  <SCORE.INTRA.norm>
-0.0867174

>  <SCORE.RESTR>
0

>  <SCORE.RESTR.CAVITY>
0

>  <SCORE.RESTR.norm>
0

>  <SCORE.SYSTEM>
0

>  <SCORE.SYSTEM.CONST>
0

>  <SCORE.SYSTEM.DIHEDRAL>
0

>  <SCORE.SYSTEM.SOLV>
0

>  <SCORE.SYSTEM.norm>
0

>  <SCORE.heavy>
12

>  <SCORE.norm>
0.807676

>  <RMSD>
15.514

$$$$
ligand
 OpenBabel11021811513D
libRbt.so/2013.1/901 2013/11/27
 12 12  0  0  0  0  0  0  0  0999 V2000
    8.0701    2.9156  -20.8361 O   0  0  0  0  0  0  0  0  0  0  0  0
    9.6956   -0.5781  -14.7185 O   0  0  0  0  0  0  0  0  0  0  0  0
    8.3908    1.5776  -20.9159 C   0  0  0  0  0  0  0  0  0  0  0  0
   11.4393    1.1033  -14.9992 O   0  0  0  0  0  0  0  0  0  0  0  0
    8.4812    0.9128  -19.6042 C   0  0  0  0  0  0  0  0  0  0  0  0
   11.9470   -1.2403  -15.3944 O   0  5  0  0  0  0  0  0  0  0  0  0
    9.3376    1.6585  -18.6723 N   0  3  0  0  0  0  0  0  0  0  0  0
    8.9228    3.0365  -18.6106 C   0  0  0  0  0  0  0  0  0  0  0  0
    8.8425    3.6417  -19.9737 C   0  0  0  0  0  0  0  0  0  0  0  0
    9.2961    1.0465  -17.3784 C   0  0  0  0  0  0  0  0  0  0  0  0
   10.4564    0.0273  -17.2500 C   0  0  0  0  0  0  0  0  0  0  0  0
   10.9000   -0.1944  -15.5150 S   0  0  1  0  0  0  0  0  0  0  0  0
  1  3  1  0  0  0  0
  1  9  1  0  0  0  0
  2 12  1  0  0  0  0
  3  5  1  0  0  0  0
  4 12  2  0  0  0  0
  5  7  1  0  0  0  0
  6 12  2  0  0  0  0
  7  8  1  0  0  0  0
  7 10  1  0  0  0  0
  8  9  1  0  0  0  0
 10 11  1  0  0  0  0
 12 11  1  6  0  0  0
M  CHG  2   6  -1   7   1
M  END
>  <CHROM.1>
92.70168170,154.56824950,54.63956766,9.79052956,1.00846894,-17.55378066,-2.72393541
1.10906224,-3.07757228

>  <Name>
ligand

>  <RI>
0

>  <Rbt.Current_Directory>
/home/itssahil/PROJECTS/Mol_Feturizer/New_Systems/rnas/4P95

>  <Rbt.Executable>
rbdock ($Id: //depot/dev/client3/rdock/2013.1/src/exe/rbdock.cxx#4 $)

>  <Rbt.Library>
libRbt.so (2013.1, Build901 2013/11/27)

>  <Rbt.Parameter_File>
/export/apps/rDock/src/rDock_2013.1_src/data/scripts/dock_solv.prm

>  <Rbt.Receptor>
prm/blind_docking_40.prm

>  <SCORE>
9.65866

>  <SCORE.INTER>
10.8277

>  <SCORE.INTER.CONST>
1

>  <SCORE.INTER.POLAR>
0

>  <SCORE.INTER.ROT>
3

>  <SCORE.INTER.SOLV>
13.9684

>  <SCORE.INTER.VDW>
-3.03764

>  <SCORE.INTER.norm>
0.902312

>  <SCORE.INTRA>
-1.16908

>  <SCORE.INTRA.DIHEDRAL>
3.31541

>  <SCORE.INTRA.DIHEDRAL.0>
0.283163

>  <SCORE.INTRA.POLAR>
0

>  <SCORE.INTRA.POLAR.0>
0

>  <SCORE.INTRA.REPUL>
0

>  <SCORE.INTRA.REPUL.0>
0

>  <SCORE.INTRA.SOLV>
-0.710547

>  <SCORE.INTRA.SOLV.lig_0>
-32.2894

>  <SCORE.INTRA.VDW>
-2.47151

>  <SCORE.INTRA.VDW.0>
2.0241

>  <SCORE.INTRA.norm>
-0.0974233

>  <SCORE.RESTR>
0

>  <SCORE.RESTR.CAVITY>
0

>  <SCORE.RESTR.norm>
0

>  <SCORE.SYSTEM>
0

>  <SCORE.SYSTEM.CONST>
0

>  <SCORE.SYSTEM.DIHEDRAL>
0

>  <SCORE.SYSTEM.SOLV>
0

>  <SCORE.SYSTEM.norm>
0

>  <SCORE.heavy>
12

>  <SCORE.norm>
0.804888

>  <RMSD>
15.524

$$$$
ligand
 OpenBabel11021811513D
libRbt.so/2013.1/901 2013/11/27
 12 12  0  0  0  0  0  0  0  0999 V2000
    8.0676    2.9098  -20.8344 O   0  0  0  0  0  0  0  0  0  0  0  0
   11.4774    1.0967  -15.0239 O   0  0  0  0  0  0  0  0  0  0  0  0
    8.4043    1.5756  -20.9110 C   0  0  0  0  0  0  0  0  0  0  0  0
   12.0646   -1.2173  -15.5208 O   0  0  0  0  0  0  0  0  0  0  0  0
    8.5062    0.9159  -19.5975 C   0  0  0  0  0  0  0  0  0  0  0  0
    9.8262   -0.6804  -14.7413 O   0  5  0  0  0  0  0  0  0  0  0  0
    9.3560    1.6748  -18.6701 N   0  3  0  0  0  0  0  0  0  0  0  0
    8.9247    3.0479  -18.6115 C   0  0  0  0  0  0  0  0  0  0  0  0
    8.8334    3.6479  -19.9762 C   0  0  0  0  0  0  0  0  0  0  0  0
    9.3253    1.0664  -17.3743 C   0  0  0  0  0  0  0  0  0  0  0  0
   10.4436   -0.0022  -17.2772 C   0  0  0  0  0  0  0  0  0  0  0  0
   10.9669   -0.2004  -15.5617 S   0  0  1  0  0  0  0  0  0  0  0  0
  1  3  1  0  0  0  0
  1  9  1  0  0  0  0
  2 12  1  0  0  0  0
  3  5  1  0  0  0  0
  4 12  2  0  0  0  0
  5  7  1  0  0  0  0
  6 12  2  0  0  0  0
  7  8  1  0  0  0  0
  7 10  1  0  0  0  0
  8  9  1  0  0  0  0
 10 11  1  0  0  0  0
 12 11  1  6  0  0  0
M  CHG  2   6  -1   7   1
M  END
>  <CHROM.1>
89.18067350,152.62108581,-59.37606483,9.82971014,1.00178336,-17.57660702
2.75006604,-1.10044431,0.09960447

>  <Name>
ligand

>  <RI>
0

>  <Rbt.Current_Directory>
/home/itssahil/PROJECTS/Mol_Feturizer/New_Systems/rnas/4P95

>  <Rbt.Executable>
rbdock ($Id: //depot/dev/client3/rdock/2013.1/src/exe/rbdock.cxx#4 $)

>  <Rbt.Library>
libRbt.so (2013.1, Build901 2013/11/27)

>  <Rbt.Parameter_File>
/export/apps/rDock/src/rDock_2013.1_src/data/scripts/dock_solv.prm

>  <Rbt.Receptor>
prm/blind_docking_100.prm

>  <SCORE>
12.3381

>  <SCORE.INTER>
13.112

>  <SCORE.INTER.CONST>
1

>  <SCORE.INTER.POLAR>
0

>  <SCORE.INTER.ROT>
3

>  <SCORE.INTER.SOLV>
18.8232

>  <SCORE.INTER.VDW>
-3.13305

>  <SCORE.INTER.norm>
1.09267

>  <SCORE.INTRA>
-0.773905

>  <SCORE.INTRA.DIHEDRAL>
3.32311

>  <SCORE.INTRA.DIHEDRAL.0>
0.283163

>  <SCORE.INTRA.POLAR>
0

>  <SCORE.INTRA.POLAR.0>
0

>  <SCORE.INTRA.REPUL>
0

>  <SCORE.INTRA.REPUL.0>
0

>  <SCORE.INTRA.SOLV>
-0.0617732

>  <SCORE.INTRA.SOLV.lig_0>
-32.2894

>  <SCORE.INTRA.VDW>
-2.40457

>  <SCORE.INTRA.VDW.0>
2.0241

>  <SCORE.INTRA.norm>
-0.064492

>  <SCORE.RESTR>
0

>  <SCORE.RESTR.CAVITY>
0

>  <SCORE.RESTR.norm>
0

>  <SCORE.SYSTEM>
0

>  <SCORE.SYSTEM.CONST>
0

>  <SCORE.SYSTEM.DIHEDRAL>
0

>  <SCORE.SYSTEM.SOLV>
0

>  <SCORE.SYSTEM.norm>
0

>  <SCORE.heavy>
12

>  <SCORE.norm>
1.02818

>  <RMSD>
15.532

$$$$
ligand
 OpenBabel11021811513D
libRbt.so/2013.1/901 2013/11/27
 12 12  0  0  0  0  0  0  0  0999 V2000
    8.0640    2.9122  -20.8307 O   0  0  0  0  0  0  0  0  0  0  0  0
   11.4371    1.1328  -15.0106 O   0  0  0  0  0  0  0  0  0  0  0  0
    8.3839    1.5743  -20.9153 C   0  0  0  0  0  0  0  0  0  0  0  0
   12.0813   -1.1700  -15.4890 O   0  0  0  0  0  0  0  0  0  0  0  0
    8.4798    0.9061  -19.6057 C   0  0  0  0  0  0  0  0  0  0  0  0
    9.8228   -0.6795  -14.7373 O   0  5  0  0  0  0  0  0  0  0  0  0
    9.3407    1.6492  -18.6757 N   0  3  0  0  0  0  0  0  0  0  0  0
    8.9268    3.0272  -18.6087 C   0  0  0  0  0  0  0  0  0  0  0  0
    8.8406    3.6358  -19.9699 C   0  0  0  0  0  0  0  0  0  0  0  0
    9.3047    1.0340  -17.3832 C   0  0  0  0  0  0  0  0  0  0  0  0
   10.4534   -0.0001  -17.2696 C   0  0  0  0  0  0  0  0  0  0  0  0
   10.9617   -0.1781  -15.5473 S   0  0  1  0  0  0  0  0  0  0  0  0
  1  3  1  0  0  0  0
  1  9  1  0  0  0  0
  2 12  1  0  0  0  0
  3  5  1  0  0  0  0
  4 12  2  0  0  0  0
  5  7  1  0  0  0  0
  6 12  2  0  0  0  0
  7  8  1  0  0  0  0
  7 10  1  0  0  0  0
  8  9  1  0  0  0  0
 10 11  1  0  0  0  0
 12 11  1  6  0  0  0
M  CHG  2   6  -1   7   1
M  END
>  <CHROM.1>
91.92653077,152.06163952,-59.84384138,9.82174008,1.00537840,-17.57062905
-2.73028008,1.09521670,-3.07180349

>  <Name>
ligand

>  <RI>
0

>  <Rbt.Current_Directory>
/home/itssahil/PROJECTS/Mol_Feturizer/New_Systems/rnas/4P95

>  <Rbt.Executable>
rbdock ($Id: //depot/dev/client3/rdock/2013.1/src/exe/rbdock.cxx#4 $)

>  <Rbt.Library>
libRbt.so (2013.1, Build901 2013/11/27)

>  <Rbt.Parameter_File>
/export/apps/rDock/src/rDock_2013.1_src/data/scripts/dock_solv.prm

>  <Rbt.Receptor>
prm/blind_docking_40.prm

>  <SCORE>
12.3282

>  <SCORE.INTER>
13.0445

>  <SCORE.INTER.CONST>
1

>  <SCORE.INTER.POLAR>
0

>  <SCORE.INTER.ROT>
3

>  <SCORE.INTER.SOLV>
18.8581

>  <SCORE.INTER.VDW>
-3.18971

>  <SCORE.INTER.norm>
1.08704

>  <SCORE.INTRA>
-0.716314

>  <SCORE.INTRA.DIHEDRAL>
3.57229

>  <SCORE.INTRA.DIHEDRAL.0>
0.283163

>  <SCORE.INTRA.POLAR>
0

>  <SCORE.INTRA.POLAR.0>
0

>  <SCORE.INTRA.REPUL>
0

>  <SCORE.INTRA.REPUL.0>
0

>  <SCORE.INTRA.SOLV>
-0.0564783

>  <SCORE.INTRA.SOLV.lig_0>
-32.2894

>  <SCORE.INTRA.VDW>
-2.47422

>  <SCORE.INTRA.VDW.0>
2.0241

>  <SCORE.INTRA.norm>
-0.0596928

>  <SCORE.RESTR>
0

>  <SCORE.RESTR.CAVITY>
0

>  <SCORE.RESTR.norm>
0

>  <SCORE.SYSTEM>
0

>  <SCORE.SYSTEM.CONST>
0

>  <SCORE.SYSTEM.DIHEDRAL>
0

>  <SCORE.SYSTEM.SOLV>
0

>  <SCORE.SYSTEM.norm>
0

>  <SCORE.heavy>
12

>  <SCORE.norm>
1.02735

>  <RMSD>
15.535

$$$$
ligand
 OpenBabel11021811513D
libRbt.so/2013.1/901 2013/11/27
 12 12  0  0  0  0  0  0  0  0999 V2000
    8.0622    2.9129  -20.8346 O   0  0  0  0  0  0  0  0  0  0  0  0
   11.4226    1.2477  -15.0474 O   0  0  0  0  0  0  0  0  0  0  0  0
    8.3943    1.5777  -20.9129 C   0  0  0  0  0  0  0  0  0  0  0  0
   12.2159   -1.0089  -15.5213 O   0  0  0  0  0  0  0  0  0  0  0  0
    8.4953    0.9162  -19.6002 C   0  0  0  0  0  0  0  0  0  0  0  0
    9.9496   -0.6712  -14.7114 O   0  5  0  0  0  0  0  0  0  0  0  0
    9.3486    1.6713  -18.6730 N   0  3  0  0  0  0  0  0  0  0  0  0
    8.9220    3.0457  -18.6125 C   0  0  0  0  0  0  0  0  0  0  0  0
    8.8314    3.6475  -19.9765 C   0  0  0  0  0  0  0  0  0  0  0  0
    9.3172    1.0616  -17.3777 C   0  0  0  0  0  0  0  0  0  0  0  0
   10.4609    0.0217  -17.2669 C   0  0  0  0  0  0  0  0  0  0  0  0
   11.0273   -0.0997  -15.5579 S   0  0  1  0  0  0  0  0  0  0  0  0
  1  3  1  0  0  0  0
  1  9  1  0  0  0  0
  2 12  1  0  0  0  0
  3  5  1  0  0  0  0
  4 12  2  0  0  0  0
  5  7  1  0  0  0  0
  6 12  2  0  0  0  0
  7  8  1  0  0  0  0
  7 10  1  0  0  0  0
  8  9  1  0  0  0  0
 10 11  1  0  0  0  0
 12 11  1  6  0  0  0
M  CHG  2   6  -1   7   1
M  END
>  <CHROM.1>
91.00088688,149.61901741,-55.04277862,9.85564654,1.05011327,-17.57563802
-2.75700336,1.08623851,-3.05576247

>  <Name>
ligand

>  <RI>
0

>  <Rbt.Current_Directory>
/home/itssahil/PROJECTS/Mol_Feturizer/New_Systems/rnas/4P95

>  <Rbt.Executable>
rbdock ($Id: //depot/dev/client3/rdock/2013.1/src/exe/rbdock.cxx#4 $)

>  <Rbt.Library>
libRbt.so (2013.1, Build901 2013/11/27)

>  <Rbt.Parameter_File>
/export/apps/rDock/src/rDock_2013.1_src/data/scripts/dock_solv.prm

>  <Rbt.Receptor>
prm/blind_docking_80.prm

>  <SCORE>
12.4778

>  <SCORE.INTER>
12.9929

>  <SCORE.INTER.CONST>
1

>  <SCORE.INTER.POLAR>
0

>  <SCORE.INTER.ROT>
3

>  <SCORE.INTER.SOLV>
18.7551

>  <SCORE.INTER.VDW>
-3.18976

>  <SCORE.INTER.norm>
1.08274

>  <SCORE.INTRA>
-0.515156

>  <SCORE.INTRA.DIHEDRAL>
3.94343

>  <SCORE.INTRA.DIHEDRAL.0>
0.283163

>  <SCORE.INTRA.POLAR>
0

>  <SCORE.INTRA.POLAR.0>
0

>  <SCORE.INTRA.REPUL>
0

>  <SCORE.INTRA.REPUL.0>
0

>  <SCORE.INTRA.SOLV>
-0.1003

>  <SCORE.INTRA.SOLV.lig_0>
-32.2894

>  <SCORE.INTRA.VDW>
-2.43672

>  <SCORE.INTRA.VDW.0>
2.0241

>  <SCORE.INTRA.norm>
-0.0429297

>  <SCORE.RESTR>
0

>  <SCORE.RESTR.CAVITY>
0

>  <SCORE.RESTR.norm>
0

>  <SCORE.SYSTEM>
0

>  <SCORE.SYSTEM.CONST>
0

>  <SCORE.SYSTEM.DIHEDRAL>
0

>  <SCORE.SYSTEM.SOLV>
0

>  <SCORE.SYSTEM.norm>
0

>  <SCORE.heavy>
12

>  <SCORE.norm>
1.03981

>  <RMSD>
15.544

$$$$
ligand
 OpenBabel11021811513D
libRbt.so/2013.1/901 2013/11/27
 12 12  0  0  0  0  0  0  0  0999 V2000
    8.5818    3.3105  -19.3008 O   0  0  0  0  0  0  0  0  0  0  0  0
   11.5670   -0.3306  -17.8878 O   0  0  0  0  0  0  0  0  0  0  0  0
    8.9006    2.1317  -19.9397 C   0  0  0  0  0  0  0  0  0  0  0  0
   11.1687   -2.4652  -16.7782 O   0  0  0  0  0  0  0  0  0  0  0  0
    8.5955    0.9285  -19.1458 C   0  0  0  0  0  0  0  0  0  0  0  0
   12.4060   -0.7186  -15.6272 O   0  5  0  0  0  0  0  0  0  0  0  0
    9.1462    1.0173  -17.7869 N   0  3  0  0  0  0  0  0  0  0  0  0
    8.7433    2.2537  -17.1673 C   0  0  0  0  0  0  0  0  0  0  0  0
    9.0725    3.4271  -18.0307 C   0  0  0  0  0  0  0  0  0  0  0  0
    8.7208   -0.1115  -17.0154 C   0  0  0  0  0  0  0  0  0  0  0  0
    9.7430   -0.3789  -15.8816 C   0  0  0  0  0  0  0  0  0  0  0  0
   11.2942   -0.9876  -16.5739 S   0  0  1  0  0  0  0  0  0  0  0  0
  1  3  1  0  0  0  0
  1  9  1  0  0  0  0
  2 12  1  0  0  0  0
  3  5  1  0  0  0  0
  4 12  2  0  0  0  0
  5  7  1  0  0  0  0
  6 12  2  0  0  0  0
  7  8  1  0  0  0  0
  7 10  1  0  0  0  0
  8  9  1  0  0  0  0
 10 11  1  0  0  0  0
 12 11  1  1  0  0  0
M  CHG  2   6  -1   7   1
M  END
>  <CHROM.1>
154.49827905,-69.40218234,35.39898759,10.00927912,0.48940370,-17.49184955
-3.01985349,-1.02511607,1.15033797

>  <Name>
ligand

>  <RI>
0

>  <Rbt.Current_Directory>
/home/itssahil/PROJECTS/Mol_Feturizer/New_Systems/rnas/4P95

>  <Rbt.Executable>
rbdock ($Id: //depot/dev/client3/rdock/2013.1/src/exe/rbdock.cxx#4 $)

>  <Rbt.Library>
libRbt.so (2013.1, Build901 2013/11/27)

>  <Rbt.Parameter_File>
/export/apps/rDock/src/rDock_2013.1_src/data/scripts/dock_solv.prm

>  <Rbt.Receptor>
prm/blind_docking_80.prm

>  <SCORE>
13.6094

>  <SCORE.INTER>
15.5149

>  <SCORE.INTER.CONST>
1

>  <SCORE.INTER.POLAR>
0

>  <SCORE.INTER.ROT>
3

>  <SCORE.INTER.SOLV>
14.2116

>  <SCORE.INTER.VDW>
0.00609712

>  <SCORE.INTER.norm>
1.29291

>  <SCORE.INTRA>
-1.90556

>  <SCORE.INTRA.DIHEDRAL>
2.1337

>  <SCORE.INTRA.DIHEDRAL.0>
0.283163

>  <SCORE.INTRA.POLAR>
0

>  <SCORE.INTRA.POLAR.0>
0

>  <SCORE.INTRA.REPUL>
0

>  <SCORE.INTRA.REPUL.0>
0

>  <SCORE.INTRA.SOLV>
-0.454998

>  <SCORE.INTRA.SOLV.lig_0>
-32.2894

>  <SCORE.INTRA.VDW>
-2.74491

>  <SCORE.INTRA.VDW.0>
2.0241

>  <SCORE.INTRA.norm>
-0.158796

>  <SCORE.RESTR>
0

>  <SCORE.RESTR.CAVITY>
0

>  <SCORE.RESTR.norm>
0

>  <SCORE.SYSTEM>
0

>  <SCORE.SYSTEM.CONST>
0

>  <SCORE.SYSTEM.DIHEDRAL>
0

>  <SCORE.SYSTEM.SOLV>
0

>  <SCORE.SYSTEM.norm>
0

>  <SCORE.heavy>
12

>  <SCORE.norm>
1.13411

>  <RMSD>
15.552

$$$$
ligand
 OpenBabel11021811513D
libRbt.so/2013.1/901 2013/11/27
 12 12  0  0  0  0  0  0  0  0999 V2000
    8.0661    2.8795  -20.8178 O   0  0  0  0  0  0  0  0  0  0  0  0
    9.7628   -0.5833  -14.6586 O   0  0  0  0  0  0  0  0  0  0  0  0
    8.4005    1.5434  -20.8640 C   0  0  0  0  0  0  0  0  0  0  0  0
   11.4855    1.1064  -15.0096 O   0  0  0  0  0  0  0  0  0  0  0  0
    8.5082    0.9154  -19.5355 C   0  0  0  0  0  0  0  0  0  0  0  0
   11.9911   -1.2357  -15.4161 O   0  5  0  0  0  0  0  0  0  0  0  0
    9.3638    1.6950  -18.6310 N   0  3  0  0  0  0  0  0  0  0  0  0
    8.9348    3.0698  -18.6033 C   0  0  0  0  0  0  0  0  0  0  0  0
    8.8374    3.6369  -19.9816 C   0  0  0  0  0  0  0  0  0  0  0  0
    9.3389    1.1181  -17.3208 C   0  0  0  0  0  0  0  0  0  0  0  0
   10.4253    0.0176  -17.2187 C   0  0  0  0  0  0  0  0  0  0  0  0
   10.9346   -0.1959  -15.5007 S   0  0  1  0  0  0  0  0  0  0  0  0
  1  3  1  0  0  0  0
  1  9  1  0  0  0  0
  2 12  1  0  0  0  0
  3  5  1  0  0  0  0
  4 12  2  0  0  0  0
  5  7  1  0  0  0  0
  6 12  2  0  0  0  0
  7  8  1  0  0  0  0
  7 10  1  0  0  0  0
  8  9  1  0  0  0  0
 10 11  1  0  0  0  0
 12 11  1  6  0  0  0
M  CHG  2   6  -1   7   1
M  END
>  <CHROM.1>
87.32000183,154.52769783,59.44782326,9.81474532,1.01233965,-17.52958114,2.73541231
-1.10576355,0.07714760

>  <Name>
ligand

>  <RI>
0

>  <Rbt.Current_Directory>
/home/itssahil/PROJECTS/Mol_Feturizer/New_Systems/rnas/4P95

>  <Rbt.Executable>
rbdock ($Id: //depot/dev/client3/rdock/2013.1/src/exe/rbdock.cxx#4 $)

>  <Rbt.Library>
libRbt.so (2013.1, Build901 2013/11/27)

>  <Rbt.Parameter_File>
/export/apps/rDock/src/rDock_2013.1_src/data/scripts/dock_solv.prm

>  <Rbt.Receptor>
prm/blind_docking_40.prm

>  <SCORE>
9.53546

>  <SCORE.INTER>
10.7496

>  <SCORE.INTER.CONST>
1

>  <SCORE.INTER.POLAR>
0

>  <SCORE.INTER.ROT>
3

>  <SCORE.INTER.SOLV>
13.9279

>  <SCORE.INTER.VDW>
-3.07623

>  <SCORE.INTER.norm>
0.895801

>  <SCORE.INTRA>
-1.21416

>  <SCORE.INTRA.DIHEDRAL>
2.93171

>  <SCORE.INTRA.DIHEDRAL.0>
0.283163

>  <SCORE.INTRA.POLAR>
0

>  <SCORE.INTRA.POLAR.0>
0

>  <SCORE.INTRA.REPUL>
0

>  <SCORE.INTRA.REPUL.0>
0

>  <SCORE.INTRA.SOLV>
-0.691698

>  <SCORE.INTRA.SOLV.lig_0>
-32.2894

>  <SCORE.INTRA.VDW>
-2.33416

>  <SCORE.INTRA.VDW.0>
2.0241

>  <SCORE.INTRA.norm>
-0.10118

>  <SCORE.RESTR>
0

>  <SCORE.RESTR.CAVITY>
0

>  <SCORE.RESTR.norm>
0

>  <SCORE.SYSTEM>
0

>  <SCORE.SYSTEM.CONST>
0

>  <SCORE.SYSTEM.DIHEDRAL>
0

>  <SCORE.SYSTEM.SOLV>
0

>  <SCORE.SYSTEM.norm>
0

>  <SCORE.heavy>
12

>  <SCORE.norm>
0.794622

>  <RMSD>
15.554

$$$$
ligand
 OpenBabel11021811513D
libRbt.so/2013.1/901 2013/11/27
 12 12  0  0  0  0  0  0  0  0999 V2000
    8.0631    2.8796  -20.8142 O   0  0  0  0  0  0  0  0  0  0  0  0
    9.7427   -0.5841  -14.6622 O   0  0  0  0  0  0  0  0  0  0  0  0
    8.3995    1.5439  -20.8598 C   0  0  0  0  0  0  0  0  0  0  0  0
   11.4870    1.0868  -14.9967 O   0  0  0  0  0  0  0  0  0  0  0  0
    8.5089    0.9168  -19.5310 C   0  0  0  0  0  0  0  0  0  0  0  0
   11.9671   -1.2593  -15.4110 O   0  5  0  0  0  0  0  0  0  0  0  0
    9.3637    1.6983  -18.6274 N   0  3  0  0  0  0  0  0  0  0  0  0
    8.9325    3.0724  -18.6002 C   0  0  0  0  0  0  0  0  0  0  0  0
    8.8336    3.6385  -19.9788 C   0  0  0  0  0  0  0  0  0  0  0  0
    9.3403    1.1219  -17.3168 C   0  0  0  0  0  0  0  0  0  0  0  0
   10.4257    0.0203  -17.2161 C   0  0  0  0  0  0  0  0  0  0  0  0
   10.9234   -0.2068  -15.4965 S   0  0  1  0  0  0  0  0  0  0  0  0
  1  3  1  0  0  0  0
  1  9  1  0  0  0  0
  2 12  1  0  0  0  0
  3  5  1  0  0  0  0
  4 12  2  0  0  0  0
  5  7  1  0  0  0  0
  6 12  2  0  0  0  0
  7  8  1  0  0  0  0
  7 10  1  0  0  0  0
  8  9  1  0  0  0  0
 10 11  1  0  0  0  0
 12 11  1  6  0  0  0
M  CHG  2   6  -1   7   1
M  END
>  <CHROM.1>
87.14851031,155.20122804,58.76377446,9.80881491,1.00808291,-17.52560211,2.73566934
-1.10802225,0.08001180

>  <Name>
ligand

>  <RI>
0

>  <Rbt.Current_Directory>
/home/itssahil/PROJECTS/Mol_Feturizer/New_Systems/rnas/4P95

>  <Rbt.Executable>
rbdock ($Id: //depot/dev/client3/rdock/2013.1/src/exe/rbdock.cxx#4 $)

>  <Rbt.Library>
libRbt.so (2013.1, Build901 2013/11/27)

>  <Rbt.Parameter_File>
/export/apps/rDock/src/rDock_2013.1_src/data/scripts/dock_solv.prm

>  <Rbt.Receptor>
prm/blind_docking_80.prm

>  <SCORE>
9.53238

>  <SCORE.INTER>
10.7952

>  <SCORE.INTER.CONST>
1

>  <SCORE.INTER.POLAR>
0

>  <SCORE.INTER.ROT>
3

>  <SCORE.INTER.SOLV>
13.9007

>  <SCORE.INTER.VDW>
-3.03674

>  <SCORE.INTER.norm>
0.899601

>  <SCORE.INTRA>
-1.26283

>  <SCORE.INTRA.DIHEDRAL>
2.8275

>  <SCORE.INTRA.DIHEDRAL.0>
0.283163

>  <SCORE.INTRA.POLAR>
0

>  <SCORE.INTRA.POLAR.0>
0

>  <SCORE.INTRA.REPUL>
0

>  <SCORE.INTRA.REPUL.0>
0

>  <SCORE.INTRA.SOLV>
-0.696704

>  <SCORE.INTRA.SOLV.lig_0>
-32.2894

>  <SCORE.INTRA.VDW>
-2.32823

>  <SCORE.INTRA.VDW.0>
2.0241

>  <SCORE.INTRA.norm>
-0.105236

>  <SCORE.RESTR>
0

>  <SCORE.RESTR.CAVITY>
0

>  <SCORE.RESTR.norm>
0

>  <SCORE.SYSTEM>
0

>  <SCORE.SYSTEM.CONST>
0

>  <SCORE.SYSTEM.DIHEDRAL>
0

>  <SCORE.SYSTEM.SOLV>
0

>  <SCORE.SYSTEM.norm>
0

>  <SCORE.heavy>
12

>  <SCORE.norm>
0.794365

>  <RMSD>
15.556

$$$$
ligand
 OpenBabel11021811513D
libRbt.so/2013.1/901 2013/11/27
 12 12  0  0  0  0  0  0  0  0999 V2000
    8.0639    2.8591  -20.8113 O   0  0  0  0  0  0  0  0  0  0  0  0
    9.7269   -0.5787  -14.6424 O   0  0  0  0  0  0  0  0  0  0  0  0
    8.3979    1.5225  -20.8427 C   0  0  0  0  0  0  0  0  0  0  0  0
   11.4959    1.0644  -14.9847 O   0  0  0  0  0  0  0  0  0  0  0  0
    8.5107    0.9104  -19.5072 C   0  0  0  0  0  0  0  0  0  0  0  0
   11.9377   -1.2892  -15.3988 O   0  5  0  0  0  0  0  0  0  0  0  0
    9.3699    1.7007  -18.6155 N   0  3  0  0  0  0  0  0  0  0  0  0
    8.9412    3.0757  -18.6026 C   0  0  0  0  0  0  0  0  0  0  0  0
    8.8385    3.6263  -19.9872 C   0  0  0  0  0  0  0  0  0  0  0  0
    9.3500    1.1394  -17.2984 C   0  0  0  0  0  0  0  0  0  0  0  0
   10.4097    0.0130  -17.1993 C   0  0  0  0  0  0  0  0  0  0  0  0
   10.9102   -0.2205  -15.4814 S   0  0  1  0  0  0  0  0  0  0  0  0
  1  3  1  0  0  0  0
  1  9  1  0  0  0  0
  2 12  1  0  0  0  0
  3  5  1  0  0  0  0
  4 12  2  0  0  0  0
  5  7  1  0  0  0  0
  6 12  2  0  0  0  0
  7  8  1  0  0  0  0
  7 10  1  0  0  0  0
  8  9  1  0  0  0  0
 10 11  1  0  0  0  0
 12 11  1  6  0  0  0
M  CHG  2   6  -1   7   1
M  END
>  <CHROM.1>
85.74874685,155.86762616,59.23035551,9.80471198,0.99852629,-17.51368011,2.72472869
-1.10923261,0.06845401

>  <Name>
ligand

>  <RI>
0

>  <Rbt.Current_Directory>
/home/itssahil/PROJECTS/Mol_Feturizer/New_Systems/rnas/4P95

>  <Rbt.Executable>
rbdock ($Id: //depot/dev/client3/rdock/2013.1/src/exe/rbdock.cxx#4 $)

>  <Rbt.Library>
libRbt.so (2013.1, Build901 2013/11/27)

>  <Rbt.Parameter_File>
/export/apps/rDock/src/rDock_2013.1_src/data/scripts/dock_solv.prm

>  <Rbt.Receptor>
prm/blind_docking_80.prm

>  <SCORE>
9.55343

>  <SCORE.INTER>
10.8602

>  <SCORE.INTER.CONST>
1

>  <SCORE.INTER.POLAR>
0

>  <SCORE.INTER.ROT>
3

>  <SCORE.INTER.SOLV>
13.8532

>  <SCORE.INTER.VDW>
-2.97758

>  <SCORE.INTER.norm>
0.905021

>  <SCORE.INTRA>
-1.30682

>  <SCORE.INTRA.DIHEDRAL>
2.64742

>  <SCORE.INTRA.DIHEDRAL.0>
0.283163

>  <SCORE.INTRA.POLAR>
0

>  <SCORE.INTRA.POLAR.0>
0

>  <SCORE.INTRA.REPUL>
0

>  <SCORE.INTRA.REPUL.0>
0

>  <SCORE.INTRA.SOLV>
-0.696864

>  <SCORE.INTRA.SOLV.lig_0>
-32.2894

>  <SCORE.INTRA.VDW>
-2.2821

>  <SCORE.INTRA.VDW.0>
2.0241

>  <SCORE.INTRA.norm>
-0.108901

>  <SCORE.RESTR>
0

>  <SCORE.RESTR.CAVITY>
0

>  <SCORE.RESTR.norm>
0

>  <SCORE.SYSTEM>
0

>  <SCORE.SYSTEM.CONST>
0

>  <SCORE.SYSTEM.DIHEDRAL>
0

>  <SCORE.SYSTEM.SOLV>
0

>  <SCORE.SYSTEM.norm>
0

>  <SCORE.heavy>
12

>  <SCORE.norm>
0.796119

>  <RMSD>
15.566

$$$$
ligand
 OpenBabel11021811513D
libRbt.so/2013.1/901 2013/11/27
 12 12  0  0  0  0  0  0  0  0999 V2000
    8.0601    2.8612  -20.8071 O   0  0  0  0  0  0  0  0  0  0  0  0
    9.7292   -0.5849  -14.6484 O   0  0  0  0  0  0  0  0  0  0  0  0
    8.3984    1.5256  -20.8423 C   0  0  0  0  0  0  0  0  0  0  0  0
   11.4964    1.0624  -14.9800 O   0  0  0  0  0  0  0  0  0  0  0  0
    8.5130    0.9101  -19.5086 C   0  0  0  0  0  0  0  0  0  0  0  0
   11.9435   -1.2892  -15.4003 O   0  5  0  0  0  0  0  0  0  0  0  0
    9.3696    1.7006  -18.6145 N   0  3  0  0  0  0  0  0  0  0  0  0
    8.9366    3.0742  -18.5977 C   0  0  0  0  0  0  0  0  0  0  0  0
    8.8322    3.6284  -19.9807 C   0  0  0  0  0  0  0  0  0  0  0  0
    9.3515    1.1355  -17.2990 C   0  0  0  0  0  0  0  0  0  0  0  0
   10.4189    0.0162  -17.2013 C   0  0  0  0  0  0  0  0  0  0  0  0
   10.9145   -0.2220  -15.4826 S   0  0  1  0  0  0  0  0  0  0  0  0
  1  3  1  0  0  0  0
  1  9  1  0  0  0  0
  2 12  1  0  0  0  0
  3  5  1  0  0  0  0
  4 12  2  0  0  0  0
  5  7  1  0  0  0  0
  6 12  2  0  0  0  0
  7  8  1  0  0  0  0
  7 10  1  0  0  0  0
  8  9  1  0  0  0  0
 10 11  1  0  0  0  0
 12 11  1  6  0  0  0
M  CHG  2   6  -1   7   1
M  END
>  <CHROM.1>
85.98718540,156.03240506,58.89929456,9.80598368,0.99796672,-17.51311660,2.73181707
-1.10940315,0.07693226

>  <Name>
ligand

>  <RI>
0

>  <Rbt.Current_Directory>
/home/itssahil/PROJECTS/Mol_Feturizer/New_Systems/rnas/4P95

>  <Rbt.Executable>
rbdock ($Id: //depot/dev/client3/rdock/2013.1/src/exe/rbdock.cxx#4 $)

>  <Rbt.Library>
libRbt.so (2013.1, Build901 2013/11/27)

>  <Rbt.Parameter_File>
/export/apps/rDock/src/rDock_2013.1_src/data/scripts/dock_solv.prm

>  <Rbt.Receptor>
prm/blind_docking_60.prm

>  <SCORE>
9.54333

>  <SCORE.INTER>
10.8627

>  <SCORE.INTER.CONST>
1

>  <SCORE.INTER.POLAR>
0

>  <SCORE.INTER.ROT>
3

>  <SCORE.INTER.SOLV>
13.8515

>  <SCORE.INTER.VDW>
-2.97535

>  <SCORE.INTER.norm>
0.905226

>  <SCORE.INTRA>
-1.31938

>  <SCORE.INTRA.DIHEDRAL>
2.63993

>  <SCORE.INTRA.DIHEDRAL.0>
0.283163

>  <SCORE.INTRA.POLAR>
0

>  <SCORE.INTRA.POLAR.0>
0

>  <SCORE.INTRA.REPUL>
0

>  <SCORE.INTRA.REPUL.0>
0

>  <SCORE.INTRA.SOLV>
-0.698783

>  <SCORE.INTRA.SOLV.lig_0>
-32.2894

>  <SCORE.INTRA.VDW>
-2.28995

>  <SCORE.INTRA.VDW.0>
2.0241

>  <SCORE.INTRA.norm>
-0.109948

>  <SCORE.RESTR>
0

>  <SCORE.RESTR.CAVITY>
0

>  <SCORE.RESTR.norm>
0

>  <SCORE.SYSTEM>
0

>  <SCORE.SYSTEM.CONST>
0

>  <SCORE.SYSTEM.DIHEDRAL>
0

>  <SCORE.SYSTEM.SOLV>
0

>  <SCORE.SYSTEM.norm>
0

>  <SCORE.heavy>
12

>  <SCORE.norm>
0.795277

>  <RMSD>
15.567

$$$$
ligand
 OpenBabel11021811513D
libRbt.so/2013.1/901 2013/11/27
 12 12  0  0  0  0  0  0  0  0999 V2000
    2.8290   14.5595  -19.7743 O   0  0  0  0  0  0  0  0  0  0  0  0
    6.5791   12.6803  -26.4892 O   0  0  0  0  0  0  0  0  0  0  0  0
    2.4712   13.3323  -20.2894 C   0  0  0  0  0  0  0  0  0  0  0  0
    6.8907   11.1613  -24.6072 O   0  0  0  0  0  0  0  0  0  0  0  0
    3.5461   12.6771  -21.0550 C   0  0  0  0  0  0  0  0  0  0  0  0
    7.8641   13.3870  -24.5362 O   0  5  0  0  0  0  0  0  0  0  0  0
    4.1287   13.5781  -22.0583 N   0  3  0  0  0  0  0  0  0  0  0  0
    4.5130   14.8232  -21.4445 C   0  0  0  0  0  0  0  0  0  0  0  0
    3.3805   15.4238  -20.6779 C   0  0  0  0  0  0  0  0  0  0  0  0
    5.2472   12.9447  -22.6892 C   0  0  0  0  0  0  0  0  0  0  0  0
    5.1929   13.1996  -24.2169 C   0  0  0  0  0  0  0  0  0  0  0  0
    6.6997   12.5924  -25.0025 S   0  0  1  0  0  0  0  0  0  0  0  0
  1  3  1  0  0  0  0
  1  9  1  0  0  0  0
  2 12  1  0  0  0  0
  3  5  1  0  0  0  0
  4 12  2  0  0  0  0
  5  7  1  0  0  0  0
  6 12  2  0  0  0  0
  7  8  1  0  0  0  0
  7 10  1  0  0  0  0
  8  9  1  0  0  0  0
 10 11  1  0  0  0  0
 12 11  1  1  0  0  0
M  CHG  2   6  -1   7   1
M  END
>  <CHROM.1>
136.85196340,172.78221383,172.94720544,5.15267952,13.27475712,-22.99246773
-2.65234460,-0.83272507,-2.86503903

>  <Name>
ligand

>  <RI>
0

>  <Rbt.Current_Directory>
/home/itssahil/PROJECTS/Mol_Feturizer/New_Systems/rnas/4P95

>  <Rbt.Executable>
rbdock ($Id: //depot/dev/client3/rdock/2013.1/src/exe/rbdock.cxx#4 $)

>  <Rbt.Library>
libRbt.so (2013.1, Build901 2013/11/27)

>  <Rbt.Parameter_File>
/export/apps/rDock/src/rDock_2013.1_src/data/scripts/dock_solv.prm

>  <Rbt.Receptor>
prm/blind_docking_80.prm

>  <SCORE>
-12.0091

>  <SCORE.INTER>
-10.4412

>  <SCORE.INTER.CONST>
1

>  <SCORE.INTER.POLAR>
0

>  <SCORE.INTER.ROT>
3

>  <SCORE.INTER.SOLV>
7.94819

>  <SCORE.INTER.VDW>
-15.2102

>  <SCORE.INTER.norm>
-0.870101

>  <SCORE.INTRA>
-1.56787

>  <SCORE.INTRA.DIHEDRAL>
1.91721

>  <SCORE.INTRA.DIHEDRAL.0>
0.283163

>  <SCORE.INTRA.POLAR>
0

>  <SCORE.INTRA.POLAR.0>
0

>  <SCORE.INTRA.REPUL>
0

>  <SCORE.INTRA.REPUL.0>
0

>  <SCORE.INTRA.SOLV>
0.136216

>  <SCORE.INTRA.SOLV.lig_0>
-32.2894

>  <SCORE.INTRA.VDW>
-2.59458

>  <SCORE.INTRA.VDW.0>
2.0241

>  <SCORE.INTRA.norm>
-0.130656

>  <SCORE.RESTR>
0

>  <SCORE.RESTR.CAVITY>
0

>  <SCORE.RESTR.norm>
0

>  <SCORE.SYSTEM>
0

>  <SCORE.SYSTEM.CONST>
0

>  <SCORE.SYSTEM.DIHEDRAL>
0

>  <SCORE.SYSTEM.SOLV>
0

>  <SCORE.SYSTEM.norm>
0

>  <SCORE.heavy>
12

>  <SCORE.norm>
-1.00076

>  <RMSD>
15.893

$$$$
ligand
 OpenBabel11021811513D
libRbt.so/2013.1/901 2013/11/27
 12 12  0  0  0  0  0  0  0  0999 V2000
    8.3826    3.2922  -19.4735 O   0  0  0  0  0  0  0  0  0  0  0  0
   10.1913   -2.9477  -15.9541 O   0  0  0  0  0  0  0  0  0  0  0  0
    8.8082    2.1462  -20.1097 C   0  0  0  0  0  0  0  0  0  0  0  0
   10.1315   -1.0620  -14.4092 O   0  0  0  0  0  0  0  0  0  0  0  0
    8.8518    0.9644  -19.2308 C   0  0  0  0  0  0  0  0  0  0  0  0
   12.2694   -1.9752  -15.1174 O   0  5  0  0  0  0  0  0  0  0  0  0
    9.5789    1.2381  -17.9840 N   0  3  0  0  0  0  0  0  0  0  0  0
    9.0582    2.4249  -17.3554 C   0  0  0  0  0  0  0  0  0  0  0  0
    9.0327    3.5770  -18.3056 C   0  0  0  0  0  0  0  0  0  0  0  0
    9.4888    0.1071  -17.1105 C   0  0  0  0  0  0  0  0  0  0  0  0
   10.8959   -0.5137  -16.9200 C   0  0  0  0  0  0  0  0  0  0  0  0
   10.8782   -1.6848  -15.5473 S   0  0  1  0  0  0  0  0  0  0  0  0
  1  3  1  0  0  0  0
  1  9  1  0  0  0  0
  2 12  1  0  0  0  0
  3  5  1  0  0  0  0
  4 12  2  0  0  0  0
  5  7  1  0  0  0  0
  6 12  2  0  0  0  0
  7  8  1  0  0  0  0
  7 10  1  0  0  0  0
  8  9  1  0  0  0  0
 10 11  1  0  0  0  0
 12 11  1  6  0  0  0
M  CHG  2   6  -1   7   1
M  END
>  <CHROM.1>
114.35818657,167.01220685,74.76179005,9.91582696,0.21811632,-17.08810804
-2.89775996,1.20216199,-2.51250368

>  <Name>
ligand

>  <RI>
0

>  <Rbt.Current_Directory>
/home/itssahil/PROJECTS/Mol_Feturizer/New_Systems/rnas/4P95

>  <Rbt.Executable>
rbdock ($Id: //depot/dev/client3/rdock/2013.1/src/exe/rbdock.cxx#4 $)

>  <Rbt.Library>
libRbt.so (2013.1, Build901 2013/11/27)

>  <Rbt.Parameter_File>
/export/apps/rDock/src/rDock_2013.1_src/data/scripts/dock_solv.prm

>  <Rbt.Receptor>
prm/blind_docking_40.prm

>  <SCORE>
20.2952

>  <SCORE.INTER>
21.6033

>  <SCORE.INTER.CONST>
1

>  <SCORE.INTER.POLAR>
0

>  <SCORE.INTER.ROT>
3

>  <SCORE.INTER.SOLV>
13.0489

>  <SCORE.INTER.VDW>
4.45254

>  <SCORE.INTER.norm>
1.80027

>  <SCORE.INTRA>
-1.30806

>  <SCORE.INTRA.DIHEDRAL>
3.25344

>  <SCORE.INTRA.DIHEDRAL.0>
0.283163

>  <SCORE.INTRA.POLAR>
0

>  <SCORE.INTRA.POLAR.0>
0

>  <SCORE.INTRA.REPUL>
0

>  <SCORE.INTRA.REPUL.0>
0

>  <SCORE.INTRA.SOLV>
-0.657392

>  <SCORE.INTRA.SOLV.lig_0>
-32.2894

>  <SCORE.INTRA.VDW>
-2.60608

>  <SCORE.INTRA.VDW.0>
2.0241

>  <SCORE.INTRA.norm>
-0.109005

>  <SCORE.RESTR>
0

>  <SCORE.RESTR.CAVITY>
0

>  <SCORE.RESTR.norm>
0

>  <SCORE.SYSTEM>
0

>  <SCORE.SYSTEM.CONST>
0

>  <SCORE.SYSTEM.DIHEDRAL>
0

>  <SCORE.SYSTEM.SOLV>
0

>  <SCORE.SYSTEM.norm>
0

>  <SCORE.heavy>
12

>  <SCORE.norm>
1.69127

>  <RMSD>
15.911

$$$$
ligand
 OpenBabel11021811513D
libRbt.so/2013.1/901 2013/11/27
 12 12  0  0  0  0  0  0  0  0999 V2000
    4.0054   13.8323  -20.0984 O   0  0  0  0  0  0  0  0  0  0  0  0
    2.9004   13.6295  -27.8942 O   0  0  0  0  0  0  0  0  0  0  0  0
    3.5756   12.7964  -20.8992 C   0  0  0  0  0  0  0  0  0  0  0  0
    5.1730   13.3012  -27.0731 O   0  0  0  0  0  0  0  0  0  0  0  0
    4.0270   12.9044  -22.2975 C   0  0  0  0  0  0  0  0  0  0  0  0
    4.1962   15.5266  -27.0656 O   0  5  0  0  0  0  0  0  0  0  0  0
    3.7406   14.2298  -22.8626 N   0  3  0  0  0  0  0  0  0  0  0  0
    4.2493   15.2605  -21.9946 C   0  0  0  0  0  0  0  0  0  0  0  0
    3.7612   15.0821  -20.5943 C   0  0  0  0  0  0  0  0  0  0  0  0
    4.3058   14.3314  -24.1743 C   0  0  0  0  0  0  0  0  0  0  0  0
    3.2992   13.7811  -25.2161 C   0  0  0  0  0  0  0  0  0  0  0  0
    3.9085   14.0808  -26.8880 S   0  0  1  0  0  0  0  0  0  0  0  0
  1  3  1  0  0  0  0
  1  9  1  0  0  0  0
  2 12  1  0  0  0  0
  3  5  1  0  0  0  0
  4 12  2  0  0  0  0
  5  7  1  0  0  0  0
  6 12  2  0  0  0  0
  7  8  1  0  0  0  0
  7 10  1  0  0  0  0
  8  9  1  0  0  0  0
 10 11  1  0  0  0  0
 12 11  1  1  0  0  0
M  CHG  2   6  -1   7   1
M  END
>  <CHROM.1>
86.85822629,173.23955090,-176.41237769,3.93238262,14.06504203,-24.26248799
1.62029998,1.44713205,1.53418799

>  <Name>
ligand

>  <RI>
0

>  <Rbt.Current_Directory>
/home/itssahil/PROJECTS/Mol_Feturizer/New_Systems/rnas/4P95

>  <Rbt.Executable>
rbdock ($Id: //depot/dev/client3/rdock/2013.1/src/exe/rbdock.cxx#4 $)

>  <Rbt.Library>
libRbt.so (2013.1, Build901 2013/11/27)

>  <Rbt.Parameter_File>
/export/apps/rDock/src/rDock_2013.1_src/data/scripts/dock_solv.prm

>  <Rbt.Receptor>
prm/blind_docking_40.prm

>  <SCORE>
-13.1017

>  <SCORE.INTER>
-11.4182

>  <SCORE.INTER.CONST>
1

>  <SCORE.INTER.POLAR>
0

>  <SCORE.INTER.ROT>
3

>  <SCORE.INTER.SOLV>
8.79339

>  <SCORE.INTER.VDW>
-16.1433

>  <SCORE.INTER.norm>
-0.951517

>  <SCORE.INTRA>
-1.68352

>  <SCORE.INTRA.DIHEDRAL>
1.00703

>  <SCORE.INTRA.DIHEDRAL.0>
0.283163

>  <SCORE.INTRA.POLAR>
0

>  <SCORE.INTRA.POLAR.0>
0

>  <SCORE.INTRA.REPUL>
0

>  <SCORE.INTRA.REPUL.0>
0

>  <SCORE.INTRA.SOLV>
0.261437

>  <SCORE.INTRA.SOLV.lig_0>
-32.2894

>  <SCORE.INTRA.VDW>
-2.31776

>  <SCORE.INTRA.VDW.0>
2.0241

>  <SCORE.INTRA.norm>
-0.140294

>  <SCORE.RESTR>
0

>  <SCORE.RESTR.CAVITY>
0

>  <SCORE.RESTR.norm>
0

>  <SCORE.SYSTEM>
0

>  <SCORE.SYSTEM.CONST>
0

>  <SCORE.SYSTEM.DIHEDRAL>
0

>  <SCORE.SYSTEM.SOLV>
0

>  <SCORE.SYSTEM.norm>
0

>  <SCORE.heavy>
12

>  <SCORE.norm>
-1.09181

>  <RMSD>
15.936

$$$$
ligand
 OpenBabel11021811513D
libRbt.so/2013.1/901 2013/11/27
 12 12  0  0  0  0  0  0  0  0999 V2000
    4.2210   14.0951  -20.1426 O   0  0  0  0  0  0  0  0  0  0  0  0
    2.7327   13.7423  -27.1557 O   0  0  0  0  0  0  0  0  0  0  0  0
    4.7777   15.1649  -20.8097 C   0  0  0  0  0  0  0  0  0  0  0  0
    5.0089   13.4416  -27.9775 O   0  0  0  0  0  0  0  0  0  0  0  0
    4.2901   15.3176  -22.1917 C   0  0  0  0  0  0  0  0  0  0  0  0
    4.3095   15.6071  -27.1242 O   0  5  0  0  0  0  0  0  0  0  0  0
    4.3769   14.0583  -22.9432 N   0  3  0  0  0  0  0  0  0  0  0  0
    3.7440   12.9951  -22.2059 C   0  0  0  0  0  0  0  0  0  0  0  0
    4.2779   12.9060  -20.8139 C   0  0  0  0  0  0  0  0  0  0  0  0
    3.7791   14.2207  -24.2342 C   0  0  0  0  0  0  0  0  0  0  0  0
    4.7257   13.6474  -25.3191 C   0  0  0  0  0  0  0  0  0  0  0  0
    4.1600   14.1389  -26.9606 S   0  0  1  0  0  0  0  0  0  0  0  0
  1  3  1  0  0  0  0
  1  9  1  0  0  0  0
  2 12  1  0  0  0  0
  3  5  1  0  0  0  0
  4 12  2  0  0  0  0
  5  7  1  0  0  0  0
  6 12  2  0  0  0  0
  7  8  1  0  0  0  0
  7 10  1  0  0  0  0
  8  9  1  0  0  0  0
 10 11  1  0  0  0  0
 12 11  1  1  0  0  0
M  CHG  2   6  -1   7   1
M  END
>  <CHROM.1>
132.40902928,-168.41951240,-54.37563373,4.19116228,14.11829507,-24.33122009
-1.45395029,-1.35277888,-1.44707614

>  <Name>
ligand

>  <RI>
0

>  <Rbt.Current_Directory>
/home/itssahil/PROJECTS/Mol_Feturizer/New_Systems/rnas/4P95

>  <Rbt.Executable>
rbdock ($Id: //depot/dev/client3/rdock/2013.1/src/exe/rbdock.cxx#4 $)

>  <Rbt.Library>
libRbt.so (2013.1, Build901 2013/11/27)

>  <Rbt.Parameter_File>
/export/apps/rDock/src/rDock_2013.1_src/data/scripts/dock_solv.prm

>  <Rbt.Receptor>
prm/blind_docking_60.prm

>  <SCORE>
-10.4007

>  <SCORE.INTER>
-8.90232

>  <SCORE.INTER.CONST>
1

>  <SCORE.INTER.POLAR>
0

>  <SCORE.INTER.ROT>
3

>  <SCORE.INTER.SOLV>
9.10624

>  <SCORE.INTER.VDW>
-14.5703

>  <SCORE.INTER.norm>
-0.74186

>  <SCORE.INTRA>
-1.49841

>  <SCORE.INTRA.DIHEDRAL>
2.41699

>  <SCORE.INTRA.DIHEDRAL.0>
0.283163

>  <SCORE.INTRA.POLAR>
0

>  <SCORE.INTRA.POLAR.0>
0

>  <SCORE.INTRA.REPUL>
0

>  <SCORE.INTRA.REPUL.0>
0

>  <SCORE.INTRA.SOLV>
-0.0882975

>  <SCORE.INTRA.SOLV.lig_0>
-32.2894

>  <SCORE.INTRA.VDW>
-2.66276

>  <SCORE.INTRA.VDW.0>
2.0241

>  <SCORE.INTRA.norm>
-0.124868

>  <SCORE.RESTR>
0

>  <SCORE.RESTR.CAVITY>
0

>  <SCORE.RESTR.norm>
0

>  <SCORE.SYSTEM>
0

>  <SCORE.SYSTEM.CONST>
0

>  <SCORE.SYSTEM.DIHEDRAL>
0

>  <SCORE.SYSTEM.SOLV>
0

>  <SCORE.SYSTEM.norm>
0

>  <SCORE.heavy>
12

>  <SCORE.norm>
-0.866728

>  <RMSD>
15.937

$$$$
ligand
 OpenBabel11021811513D
libRbt.so/2013.1/901 2013/11/27
 12 12  0  0  0  0  0  0  0  0999 V2000
    3.9815   13.8003  -20.0665 O   0  0  0  0  0  0  0  0  0  0  0  0
    2.9076   13.6717  -27.8711 O   0  0  0  0  0  0  0  0  0  0  0  0
    3.5555   12.7663  -20.8718 C   0  0  0  0  0  0  0  0  0  0  0  0
    5.1723   13.2826  -27.0548 O   0  0  0  0  0  0  0  0  0  0  0  0
    4.0174   12.8752  -22.2666 C   0  0  0  0  0  0  0  0  0  0  0  0
    4.2418   15.5273  -27.0101 O   0  5  0  0  0  0  0  0  0  0  0  0
    3.7378   14.2019  -22.8320 N   0  3  0  0  0  0  0  0  0  0  0  0
    4.2423   15.2305  -21.9589 C   0  0  0  0  0  0  0  0  0  0  0  0
    3.7435   15.0512  -20.5625 C   0  0  0  0  0  0  0  0  0  0  0  0
    4.3129   14.3041  -24.1394 C   0  0  0  0  0  0  0  0  0  0  0  0
    3.3075   13.7698  -25.1907 C   0  0  0  0  0  0  0  0  0  0  0  0
    3.9241   14.0850  -26.8571 S   0  0  1  0  0  0  0  0  0  0  0  0
  1  3  1  0  0  0  0
  1  9  1  0  0  0  0
  2 12  1  0  0  0  0
  3  5  1  0  0  0  0
  4 12  2  0  0  0  0
  5  7  1  0  0  0  0
  6 12  2  0  0  0  0
  7  8  1  0  0  0  0
  7 10  1  0  0  0  0
  8  9  1  0  0  0  0
 10 11  1  0  0  0  0
 12 11  1  1  0  0  0
M  CHG  2   6  -1   7   1
M  END
>  <CHROM.1>
87.39840420,172.72313444,-175.41030711,3.93425156,14.05160212,-24.23113726
1.66348378,1.44530743,1.49757813

>  <Name>
ligand

>  <RI>
0

>  <Rbt.Current_Directory>
/home/itssahil/PROJECTS/Mol_Feturizer/New_Systems/rnas/4P95

>  <Rbt.Executable>
rbdock ($Id: //depot/dev/client3/rdock/2013.1/src/exe/rbdock.cxx#4 $)

>  <Rbt.Library>
libRbt.so (2013.1, Build901 2013/11/27)

>  <Rbt.Parameter_File>
/export/apps/rDock/src/rDock_2013.1_src/data/scripts/dock_solv.prm

>  <Rbt.Receptor>
prm/blind_docking_40.prm

>  <SCORE>
-13.0915

>  <SCORE.INTER>
-11.4434

>  <SCORE.INTER.CONST>
1

>  <SCORE.INTER.POLAR>
0

>  <SCORE.INTER.ROT>
3

>  <SCORE.INTER.SOLV>
8.78201

>  <SCORE.INTER.VDW>
-16.1563

>  <SCORE.INTER.norm>
-0.95362

>  <SCORE.INTRA>
-1.64806

>  <SCORE.INTRA.DIHEDRAL>
1.09094

>  <SCORE.INTRA.DIHEDRAL.0>
0.283163

>  <SCORE.INTRA.POLAR>
0

>  <SCORE.INTRA.POLAR.0>
0

>  <SCORE.INTRA.REPUL>
0

>  <SCORE.INTRA.REPUL.0>
0

>  <SCORE.INTRA.SOLV>
0.277627

>  <SCORE.INTRA.SOLV.lig_0>
-32.2894

>  <SCORE.INTRA.VDW>
-2.33235

>  <SCORE.INTRA.VDW.0>
2.0241

>  <SCORE.INTRA.norm>
-0.137339

>  <SCORE.RESTR>
0

>  <SCORE.RESTR.CAVITY>
0

>  <SCORE.RESTR.norm>
0

>  <SCORE.SYSTEM>
0

>  <SCORE.SYSTEM.CONST>
0

>  <SCORE.SYSTEM.DIHEDRAL>
0

>  <SCORE.SYSTEM.SOLV>
0

>  <SCORE.SYSTEM.norm>
0

>  <SCORE.heavy>
12

>  <SCORE.norm>
-1.09096

>  <RMSD>
15.940

$$$$
ligand
 OpenBabel11021811513D
libRbt.so/2013.1/901 2013/11/27
 12 12  0  0  0  0  0  0  0  0999 V2000
    3.3302   14.1798  -20.0131 O   0  0  0  0  0  0  0  0  0  0  0  0
    6.6646   11.3085  -24.6240 O   0  0  0  0  0  0  0  0  0  0  0  0
    3.9737   15.2048  -20.6723 C   0  0  0  0  0  0  0  0  0  0  0  0
    7.1006   12.6103  -22.6086 O   0  0  0  0  0  0  0  0  0  0  0  0
    4.0210   15.0289  -22.1343 C   0  0  0  0  0  0  0  0  0  0  0  0
    8.3629   13.0636  -24.6354 O   0  5  0  0  0  0  0  0  0  0  0  0
    4.5186   13.6982  -22.5080 N   0  3  0  0  0  0  0  0  0  0  0  0
    3.7781   12.6773  -21.8122 C   0  0  0  0  0  0  0  0  0  0  0  0
    3.7627   12.9252  -20.3394 C   0  0  0  0  0  0  0  0  0  0  0  0
    4.4294   13.5268  -23.9268 C   0  0  0  0  0  0  0  0  0  0  0  0
    5.7921   13.8757  -24.5774 C   0  0  0  0  0  0  0  0  0  0  0  0
    7.0371   12.6585  -24.1034 S   0  0  1  0  0  0  0  0  0  0  0  0
  1  3  1  0  0  0  0
  1  9  1  0  0  0  0
  2 12  1  0  0  0  0
  3  5  1  0  0  0  0
  4 12  2  0  0  0  0
  5  7  1  0  0  0  0
  6 12  2  0  0  0  0
  7  8  1  0  0  0  0
  7 10  1  0  0  0  0
  8  9  1  0  0  0  0
 10 11  1  0  0  0  0
 12 11  1  6  0  0  0
M  CHG  2   6  -1   7   1
M  END
>  <CHROM.1>
95.64953178,67.56714607,63.31011415,5.44475674,13.30329858,-22.80916232,-2.93866998
0.80216588,-0.69361041

>  <Name>
ligand

>  <RI>
0

>  <Rbt.Current_Directory>
/home/itssahil/PROJECTS/Mol_Feturizer/New_Systems/rnas/4P95

>  <Rbt.Executable>
rbdock ($Id: //depot/dev/client3/rdock/2013.1/src/exe/rbdock.cxx#4 $)

>  <Rbt.Library>
libRbt.so (2013.1, Build901 2013/11/27)

>  <Rbt.Parameter_File>
/export/apps/rDock/src/rDock_2013.1_src/data/scripts/dock_solv.prm

>  <Rbt.Receptor>
prm/blind_docking_60.prm

>  <SCORE>
-12.5822

>  <SCORE.INTER>
-10.2376

>  <SCORE.INTER.CONST>
1

>  <SCORE.INTER.POLAR>
0

>  <SCORE.INTER.ROT>
3

>  <SCORE.INTER.SOLV>
6.47813

>  <SCORE.INTER.VDW>
-14.5844

>  <SCORE.INTER.norm>
-0.853129

>  <SCORE.INTRA>
-2.34468

>  <SCORE.INTRA.DIHEDRAL>
1.58648

>  <SCORE.INTRA.DIHEDRAL.0>
0.283163

>  <SCORE.INTRA.POLAR>
0

>  <SCORE.INTRA.POLAR.0>
0

>  <SCORE.INTRA.REPUL>
0

>  <SCORE.INTRA.REPUL.0>
0

>  <SCORE.INTRA.SOLV>
0.15291

>  <SCORE.INTRA.SOLV.lig_0>
-32.2894

>  <SCORE.INTRA.VDW>
-3.21438

>  <SCORE.INTRA.VDW.0>
2.0241

>  <SCORE.INTRA.norm>
-0.19539

>  <SCORE.RESTR>
0

>  <SCORE.RESTR.CAVITY>
0

>  <SCORE.RESTR.norm>
0

>  <SCORE.SYSTEM>
0

>  <SCORE.SYSTEM.CONST>
0

>  <SCORE.SYSTEM.DIHEDRAL>
0

>  <SCORE.SYSTEM.SOLV>
0

>  <SCORE.SYSTEM.norm>
0

>  <SCORE.heavy>
12

>  <SCORE.norm>
-1.04852

>  <RMSD>
15.988

$$$$
ligand
 OpenBabel11021811513D
libRbt.so/2013.1/901 2013/11/27
 12 12  0  0  0  0  0  0  0  0999 V2000
    3.3856   13.6169  -19.9245 O   0  0  0  0  0  0  0  0  0  0  0  0
    5.2427   15.5059  -26.7048 O   0  0  0  0  0  0  0  0  0  0  0  0
    3.1973   12.6226  -20.8601 C   0  0  0  0  0  0  0  0  0  0  0  0
    4.1904   13.5448  -27.7013 O   0  0  0  0  0  0  0  0  0  0  0  0
    3.9433   12.8407  -22.1118 C   0  0  0  0  0  0  0  0  0  0  0  0
    6.1705   13.2803  -26.3171 O   0  5  0  0  0  0  0  0  0  0  0  0
    3.7245   14.1901  -22.6495 N   0  3  0  0  0  0  0  0  0  0  0  0
    3.9748   15.1774  -21.6311 C   0  0  0  0  0  0  0  0  0  0  0  0
    3.1962   14.8878  -20.3899 C   0  0  0  0  0  0  0  0  0  0  0  0
    4.5623   14.3999  -23.7916 C   0  0  0  0  0  0  0  0  0  0  0  0
    3.8558   13.8560  -25.0592 C   0  0  0  0  0  0  0  0  0  0  0  0
    4.9211   14.0611  -26.5011 S   0  0  1  0  0  0  0  0  0  0  0  0
  1  3  1  0  0  0  0
  1  9  1  0  0  0  0
  2 12  1  0  0  0  0
  3  5  1  0  0  0  0
  4 12  2  0  0  0  0
  5  7  1  0  0  0  0
  6 12  2  0  0  0  0
  7  8  1  0  0  0  0
  7 10  1  0  0  0  0
  8  9  1  0  0  0  0
 10 11  1  0  0  0  0
 12 11  1  1  0  0  0
M  CHG  2   6  -1   7   1
M  END
>  <CHROM.1>
85.56856280,-178.08493649,-59.63703535,4.28668151,14.00393319,-23.96481843
2.83881882,1.30660084,0.34756282

>  <Name>
ligand

>  <RI>
0

>  <Rbt.Current_Directory>
/home/itssahil/PROJECTS/Mol_Feturizer/New_Systems/rnas/4P95

>  <Rbt.Executable>
rbdock ($Id: //depot/dev/client3/rdock/2013.1/src/exe/rbdock.cxx#4 $)

>  <Rbt.Library>
libRbt.so (2013.1, Build901 2013/11/27)

>  <Rbt.Parameter_File>
/export/apps/rDock/src/rDock_2013.1_src/data/scripts/dock_solv.prm

>  <Rbt.Receptor>
prm/blind_docking_40.prm

>  <SCORE>
-11.3879

>  <SCORE.INTER>
-9.43796

>  <SCORE.INTER.CONST>
1

>  <SCORE.INTER.POLAR>
0

>  <SCORE.INTER.ROT>
3

>  <SCORE.INTER.SOLV>
10.5233

>  <SCORE.INTER.VDW>
-15.3997

>  <SCORE.INTER.norm>
-0.786496

>  <SCORE.INTRA>
-1.94994

>  <SCORE.INTRA.DIHEDRAL>
0.727522

>  <SCORE.INTRA.DIHEDRAL.0>
0.283163

>  <SCORE.INTRA.POLAR>
0

>  <SCORE.INTRA.POLAR.0>
0

>  <SCORE.INTRA.REPUL>
0

>  <SCORE.INTRA.REPUL.0>
0

>  <SCORE.INTRA.SOLV>
-0.049987

>  <SCORE.INTRA.SOLV.lig_0>
-32.2894

>  <SCORE.INTRA.VDW>
-2.2887

>  <SCORE.INTRA.VDW.0>
2.0241

>  <SCORE.INTRA.norm>
-0.162495

>  <SCORE.RESTR>
0

>  <SCORE.RESTR.CAVITY>
0

>  <SCORE.RESTR.norm>
0

>  <SCORE.SYSTEM>
0

>  <SCORE.SYSTEM.CONST>
0

>  <SCORE.SYSTEM.DIHEDRAL>
0

>  <SCORE.SYSTEM.SOLV>
0

>  <SCORE.SYSTEM.norm>
0

>  <SCORE.heavy>
12

>  <SCORE.norm>
-0.948991

>  <RMSD>
16.010

$$$$
ligand
 OpenBabel11021811513D
libRbt.so/2013.1/901 2013/11/27
 12 12  0  0  0  0  0  0  0  0999 V2000
    2.7730   14.3240  -19.9484 O   0  0  0  0  0  0  0  0  0  0  0  0
    7.3030   11.6947  -25.8230 O   0  0  0  0  0  0  0  0  0  0  0  0
    2.7132   13.1479  -20.6642 C   0  0  0  0  0  0  0  0  0  0  0  0
    8.2498   11.7496  -23.5765 O   0  0  0  0  0  0  0  0  0  0  0  0
    3.9994   12.7581  -21.2682 C   0  0  0  0  0  0  0  0  0  0  0  0
    8.0497   13.8080  -24.8530 O   0  5  0  0  0  0  0  0  0  0  0  0
    4.6059   13.8638  -22.0215 N   0  3  0  0  0  0  0  0  0  0  0  0
    4.6705   15.0467  -21.2022 C   0  0  0  0  0  0  0  0  0  0  0  0
    3.3369   15.3752  -20.6153 C   0  0  0  0  0  0  0  0  0  0  0  0
    5.9063   13.4816  -22.4831 C   0  0  0  0  0  0  0  0  0  0  0  0
    5.7794   12.7565  -23.8469 C   0  0  0  0  0  0  0  0  0  0  0  0
    7.4133   12.4972  -24.5676 S   0  0  1  0  0  0  0  0  0  0  0  0
  1  3  1  0  0  0  0
  1  9  1  0  0  0  0
  2 12  1  0  0  0  0
  3  5  1  0  0  0  0
  4 12  2  0  0  0  0
  5  7  1  0  0  0  0
  6 12  2  0  0  0  0
  7  8  1  0  0  0  0
  7 10  1  0  0  0  0
  8  9  1  0  0  0  0
 10 11  1  0  0  0  0
 12 11  1  1  0  0  0
M  CHG  2   6  -1   7   1
M  END
>  <CHROM.1>
86.89151866,171.16572211,175.09946404,5.63556088,13.27414978,-22.79751741
2.64560410,0.66966335,0.30197401

>  <Name>
ligand

>  <RI>
0

>  <Rbt.Current_Directory>
/home/itssahil/PROJECTS/Mol_Feturizer/New_Systems/rnas/4P95

>  <Rbt.Executable>
rbdock ($Id: //depot/dev/client3/rdock/2013.1/src/exe/rbdock.cxx#4 $)

>  <Rbt.Library>
libRbt.so (2013.1, Build901 2013/11/27)

>  <Rbt.Parameter_File>
/export/apps/rDock/src/rDock_2013.1_src/data/scripts/dock_solv.prm

>  <Rbt.Receptor>
prm/blind_docking_80.prm

>  <SCORE>
-11.7432

>  <SCORE.INTER>
-10.0758

>  <SCORE.INTER.CONST>
1

>  <SCORE.INTER.POLAR>
0

>  <SCORE.INTER.ROT>
3

>  <SCORE.INTER.SOLV>
7.22286

>  <SCORE.INTER.VDW>
-14.7249

>  <SCORE.INTER.norm>
-0.839654

>  <SCORE.INTRA>
-1.66739

>  <SCORE.INTRA.DIHEDRAL>
1.12674

>  <SCORE.INTRA.DIHEDRAL.0>
0.283163

>  <SCORE.INTRA.POLAR>
0

>  <SCORE.INTRA.POLAR.0>
0

>  <SCORE.INTRA.REPUL>
0

>  <SCORE.INTRA.REPUL.0>
0

>  <SCORE.INTRA.SOLV>
0.163091

>  <SCORE.INTRA.SOLV.lig_0>
-32.2894

>  <SCORE.INTRA.VDW>
-2.31231

>  <SCORE.INTRA.VDW.0>
2.0241

>  <SCORE.INTRA.norm>
-0.138949

>  <SCORE.RESTR>
0

>  <SCORE.RESTR.CAVITY>
0

>  <SCORE.RESTR.norm>
0

>  <SCORE.SYSTEM>
0

>  <SCORE.SYSTEM.CONST>
0

>  <SCORE.SYSTEM.DIHEDRAL>
0

>  <SCORE.SYSTEM.SOLV>
0

>  <SCORE.SYSTEM.norm>
0

>  <SCORE.heavy>
12

>  <SCORE.norm>
-0.978603

>  <RMSD>
16.023

$$$$
ligand
 OpenBabel11021811513D
libRbt.so/2013.1/901 2013/11/27
 12 12  0  0  0  0  0  0  0  0999 V2000
    3.9531   16.1790  -28.9018 O   0  0  0  0  0  0  0  0  0  0  0  0
    5.9290   12.5370  -23.0949 O   0  0  0  0  0  0  0  0  0  0  0  0
    3.6679   16.8931  -27.7581 C   0  0  0  0  0  0  0  0  0  0  0  0
    3.7288   12.0910  -22.1428 O   0  0  0  0  0  0  0  0  0  0  0  0
    4.2834   16.3320  -26.5427 C   0  0  0  0  0  0  0  0  0  0  0  0
    4.6804   14.3220  -21.9906 O   0  5  0  0  0  0  0  0  0  0  0  0
    4.0147   14.8940  -26.4090 N   0  3  0  0  0  0  0  0  0  0  0  0
    4.3700   14.2070  -27.6242 C   0  0  0  0  0  0  0  0  0  0  0  0
    3.7208   14.8351  -28.8136 C   0  0  0  0  0  0  0  0  0  0  0  0
    4.7327   14.3677  -25.2875 C   0  0  0  0  0  0  0  0  0  0  0  0
    3.7723   13.5319  -24.4037 C   0  0  0  0  0  0  0  0  0  0  0  0
    4.5727   13.1105  -22.8422 S   0  0  1  0  0  0  0  0  0  0  0  0
  1  3  1  0  0  0  0
  1  9  1  0  0  0  0
  2 12  1  0  0  0  0
  3  5  1  0  0  0  0
  4 12  2  0  0  0  0
  5  7  1  0  0  0  0
  6 12  2  0  0  0  0
  7  8  1  0  0  0  0
  7 10  1  0  0  0  0
  8  9  1  0  0  0  0
 10 11  1  0  0  0  0
 12 11  1  6  0  0  0
M  CHG  2   6  -1   7   1
M  END
>  <CHROM.1>
130.83614458,-169.80817460,-49.57577380,4.32386777,14.29125709,-25.17988870
2.93356194,1.46046766,-2.46358064

>  <Name>
ligand

>  <RI>
0

>  <Rbt.Current_Directory>
/home/itssahil/PROJECTS/Mol_Feturizer/New_Systems/rnas/4P95

>  <Rbt.Executable>
rbdock ($Id: //depot/dev/client3/rdock/2013.1/src/exe/rbdock.cxx#4 $)

>  <Rbt.Library>
libRbt.so (2013.1, Build901 2013/11/27)

>  <Rbt.Parameter_File>
/export/apps/rDock/src/rDock_2013.1_src/data/scripts/dock_solv.prm

>  <Rbt.Receptor>
prm/blind_docking_40.prm

>  <SCORE>
-11.092

>  <SCORE.INTER>
-9.63004

>  <SCORE.INTER.CONST>
1

>  <SCORE.INTER.POLAR>
0

>  <SCORE.INTER.ROT>
3

>  <SCORE.INTER.SOLV>
6.80071

>  <SCORE.INTER.VDW>
-14.2869

>  <SCORE.INTER.norm>
-0.802503

>  <SCORE.INTRA>
-1.46197

>  <SCORE.INTRA.DIHEDRAL>
2.56838

>  <SCORE.INTRA.DIHEDRAL.0>
0.283163

>  <SCORE.INTRA.POLAR>
0

>  <SCORE.INTRA.POLAR.0>
0

>  <SCORE.INTRA.REPUL>
0

>  <SCORE.INTRA.REPUL.0>
0

>  <SCORE.INTRA.SOLV>
-0.175731

>  <SCORE.INTRA.SOLV.lig_0>
-32.2894

>  <SCORE.INTRA.VDW>
-2.65829

>  <SCORE.INTRA.VDW.0>
2.0241

>  <SCORE.INTRA.norm>
-0.12183

>  <SCORE.RESTR>
0

>  <SCORE.RESTR.CAVITY>
0

>  <SCORE.RESTR.norm>
0

>  <SCORE.SYSTEM>
0

>  <SCORE.SYSTEM.CONST>
0

>  <SCORE.SYSTEM.DIHEDRAL>
0

>  <SCORE.SYSTEM.SOLV>
0

>  <SCORE.SYSTEM.norm>
0

>  <SCORE.heavy>
12

>  <SCORE.norm>
-0.924334

>  <RMSD>
16.064

$$$$
ligand
 OpenBabel11021811513D
libRbt.so/2013.1/901 2013/11/27
 12 12  0  0  0  0  0  0  0  0999 V2000
    3.2810   14.7849  -20.0544 O   0  0  0  0  0  0  0  0  0  0  0  0
    6.7822   11.2779  -24.5308 O   0  0  0  0  0  0  0  0  0  0  0  0
    4.1331   15.5194  -20.8505 C   0  0  0  0  0  0  0  0  0  0  0  0
    6.9667   12.6419  -22.5179 O   0  0  0  0  0  0  0  0  0  0  0  0
    4.1516   15.0814  -22.2572 C   0  0  0  0  0  0  0  0  0  0  0  0
    8.1787   13.2815  -24.5249 O   0  5  0  0  0  0  0  0  0  0  0  0
    4.3559   13.6314  -22.3746 N   0  3  0  0  0  0  0  0  0  0  0  0
    3.4097   12.9277  -21.5475 C   0  0  0  0  0  0  0  0  0  0  0  0
    3.4376   13.4300  -20.1412 C   0  0  0  0  0  0  0  0  0  0  0  0
    4.2418   13.2340  -23.7455 C   0  0  0  0  0  0  0  0  0  0  0  0
    5.5107   13.6731  -24.5194 C   0  0  0  0  0  0  0  0  0  0  0  0
    6.9247   12.6725  -24.0139 S   0  0  1  0  0  0  0  0  0  0  0  0
  1  3  1  0  0  0  0
  1  9  1  0  0  0  0
  2 12  1  0  0  0  0
  3  5  1  0  0  0  0
  4 12  2  0  0  0  0
  5  7  1  0  0  0  0
  6 12  2  0  0  0  0
  7  8  1  0  0  0  0
  7 10  1  0  0  0  0
  8  9  1  0  0  0  0
 10 11  1  0  0  0  0
 12 11  1  6  0  0  0
M  CHG  2   6  -1   7   1
M  END
>  <CHROM.1>
74.34003137,70.73716553,70.84648470,5.33088444,13.41394457,-22.73494149,-2.61306823
-0.67766686,-2.88290600

>  <Name>
ligand

>  <RI>
0

>  <Rbt.Current_Directory>
/home/itssahil/PROJECTS/Mol_Feturizer/New_Systems/rnas/4P95

>  <Rbt.Executable>
rbdock ($Id: //depot/dev/client3/rdock/2013.1/src/exe/rbdock.cxx#4 $)

>  <Rbt.Library>
libRbt.so (2013.1, Build901 2013/11/27)

>  <Rbt.Parameter_File>
/export/apps/rDock/src/rDock_2013.1_src/data/scripts/dock_solv.prm

>  <Rbt.Receptor>
prm/blind_docking_40.prm

>  <SCORE>
-12.3535

>  <SCORE.INTER>
-10.5022

>  <SCORE.INTER.CONST>
1

>  <SCORE.INTER.POLAR>
0

>  <SCORE.INTER.ROT>
3

>  <SCORE.INTER.SOLV>
6.427

>  <SCORE.INTER.VDW>
-14.7438

>  <SCORE.INTER.norm>
-0.875186

>  <SCORE.INTRA>
-1.85125

>  <SCORE.INTRA.DIHEDRAL>
0.83425

>  <SCORE.INTRA.DIHEDRAL.0>
0.283163

>  <SCORE.INTRA.POLAR>
0

>  <SCORE.INTRA.POLAR.0>
0

>  <SCORE.INTRA.REPUL>
0

>  <SCORE.INTRA.REPUL.0>
0

>  <SCORE.INTRA.SOLV>
0.213438

>  <SCORE.INTRA.SOLV.lig_0>
-32.2894

>  <SCORE.INTRA.VDW>
-2.3751

>  <SCORE.INTRA.VDW.0>
2.0241

>  <SCORE.INTRA.norm>
-0.154271

>  <SCORE.RESTR>
0

>  <SCORE.RESTR.CAVITY>
0

>  <SCORE.RESTR.norm>
0

>  <SCORE.SYSTEM>
0

>  <SCORE.SYSTEM.CONST>
0

>  <SCORE.SYSTEM.DIHEDRAL>
0

>  <SCORE.SYSTEM.SOLV>
0

>  <SCORE.SYSTEM.norm>
0

>  <SCORE.heavy>
12

>  <SCORE.norm>
-1.02946

>  <RMSD>
16.104

$$$$
ligand
 OpenBabel11021811513D
libRbt.so/2013.1/901 2013/11/27
 12 12  0  0  0  0  0  0  0  0999 V2000
    2.5287   14.5913  -20.3020 O   0  0  0  0  0  0  0  0  0  0  0  0
    7.5573   13.5406  -25.3195 O   0  0  0  0  0  0  0  0  0  0  0  0
    3.5033   15.5023  -20.6480 C   0  0  0  0  0  0  0  0  0  0  0  0
    7.1006   11.2548  -24.6034 O   0  0  0  0  0  0  0  0  0  0  0  0
    4.2799   15.1127  -21.8380 C   0  0  0  0  0  0  0  0  0  0  0  0
    9.1832   12.3287  -23.9585 O   0  5  0  0  0  0  0  0  0  0  0  0
    4.7845   13.7370  -21.7340 N   0  3  0  0  0  0  0  0  0  0  0  0
    3.7086   12.8365  -21.4079 C   0  0  0  0  0  0  0  0  0  0  0  0
    2.9598   13.2984  -20.2010 C   0  0  0  0  0  0  0  0  0  0  0  0
    5.4228   13.3596  -22.9589 C   0  0  0  0  0  0  0  0  0  0  0  0
    6.9373   13.1456  -22.7093 C   0  0  0  0  0  0  0  0  0  0  0  0
    7.7376   12.5521  -24.2137 S   0  0  1  0  0  0  0  0  0  0  0  0
  1  3  1  0  0  0  0
  1  9  1  0  0  0  0
  2 12  1  0  0  0  0
  3  5  1  0  0  0  0
  4 12  2  0  0  0  0
  5  7  1  0  0  0  0
  6 12  2  0  0  0  0
  7  8  1  0  0  0  0
  7 10  1  0  0  0  0
  8  9  1  0  0  0  0
 10 11  1  0  0  0  0
 12 11  1  1  0  0  0
M  CHG  2   6  -1   7   1
M  END
>  <CHROM.1>
114.16675005,175.86006430,59.44804157,5.73080159,13.33528962,-22.69404047
2.83999071,0.66594621,-0.00511798

>  <Name>
ligand

>  <RI>
0

>  <Rbt.Current_Directory>
/home/itssahil/PROJECTS/Mol_Feturizer/New_Systems/rnas/4P95

>  <Rbt.Executable>
rbdock ($Id: //depot/dev/client3/rdock/2013.1/src/exe/rbdock.cxx#4 $)

>  <Rbt.Library>
libRbt.so (2013.1, Build901 2013/11/27)

>  <Rbt.Parameter_File>
/export/apps/rDock/src/rDock_2013.1_src/data/scripts/dock_solv.prm

>  <Rbt.Receptor>
prm/blind_docking_60.prm

>  <SCORE>
-11.5808

>  <SCORE.INTER>
-9.59149

>  <SCORE.INTER.CONST>
1

>  <SCORE.INTER.POLAR>
0

>  <SCORE.INTER.ROT>
3

>  <SCORE.INTER.SOLV>
9.10073

>  <SCORE.INTER.VDW>
-15.0279

>  <SCORE.INTER.norm>
-0.799291

>  <SCORE.INTRA>
-1.98929

>  <SCORE.INTRA.DIHEDRAL>
2.14401

>  <SCORE.INTRA.DIHEDRAL.0>
0.283163

>  <SCORE.INTRA.POLAR>
0

>  <SCORE.INTRA.POLAR.0>
0

>  <SCORE.INTRA.REPUL>
0

>  <SCORE.INTRA.REPUL.0>
0

>  <SCORE.INTRA.SOLV>
-0.718334

>  <SCORE.INTRA.SOLV.lig_0>
-32.2894

>  <SCORE.INTRA.VDW>
-2.70213

>  <SCORE.INTRA.VDW.0>
2.0241

>  <SCORE.INTRA.norm>
-0.165774

>  <SCORE.RESTR>
0

>  <SCORE.RESTR.CAVITY>
0

>  <SCORE.RESTR.norm>
0

>  <SCORE.SYSTEM>
0

>  <SCORE.SYSTEM.CONST>
0

>  <SCORE.SYSTEM.DIHEDRAL>
0

>  <SCORE.SYSTEM.SOLV>
0

>  <SCORE.SYSTEM.norm>
0

>  <SCORE.heavy>
12

>  <SCORE.norm>
-0.965065

>  <RMSD>
16.134

$$$$
ligand
 OpenBabel11021811513D
libRbt.so/2013.1/901 2013/11/27
 12 12  0  0  0  0  0  0  0  0999 V2000
    2.5516   14.5614  -20.2832 O   0  0  0  0  0  0  0  0  0  0  0  0
    7.6101   13.5738  -25.2745 O   0  0  0  0  0  0  0  0  0  0  0  0
    3.5011   15.4874  -20.6575 C   0  0  0  0  0  0  0  0  0  0  0  0
    7.1238   11.2723  -24.6317 O   0  0  0  0  0  0  0  0  0  0  0  0
    4.2771   15.0904  -21.8455 C   0  0  0  0  0  0  0  0  0  0  0  0
    9.2115   12.3044  -23.9369 O   0  5  0  0  0  0  0  0  0  0  0  0
    4.8154   13.7297  -21.7159 N   0  3  0  0  0  0  0  0  0  0  0  0
    3.7642   12.8113  -21.3609 C   0  0  0  0  0  0  0  0  0  0  0  0
    3.0144   13.2816  -20.1579 C   0  0  0  0  0  0  0  0  0  0  0  0
    5.4525   13.3408  -22.9379 C   0  0  0  0  0  0  0  0  0  0  0  0
    6.9630   13.1068  -22.6827 C   0  0  0  0  0  0  0  0  0  0  0  0
    7.7706   12.5506  -24.1976 S   0  0  1  0  0  0  0  0  0  0  0  0
  1  3  1  0  0  0  0
  1  9  1  0  0  0  0
  2 12  1  0  0  0  0
  3  5  1  0  0  0  0
  4 12  2  0  0  0  0
  5  7  1  0  0  0  0
  6 12  2  0  0  0  0
  7  8  1  0  0  0  0
  7 10  1  0  0  0  0
  8  9  1  0  0  0  0
 10 11  1  0  0  0  0
 12 11  1  1  0  0  0
M  CHG  2   6  -1   7   1
M  END
>  <CHROM.1>
116.68460622,177.70657300,59.58298031,5.76055245,13.32433838,-22.67665979
2.87054637,0.67543852,-0.04863020

>  <Name>
ligand

>  <RI>
0

>  <Rbt.Current_Directory>
/home/itssahil/PROJECTS/Mol_Feturizer/New_Systems/rnas/4P95

>  <Rbt.Executable>
rbdock ($Id: //depot/dev/client3/rdock/2013.1/src/exe/rbdock.cxx#4 $)

>  <Rbt.Library>
libRbt.so (2013.1, Build901 2013/11/27)

>  <Rbt.Parameter_File>
/export/apps/rDock/src/rDock_2013.1_src/data/scripts/dock_solv.prm

>  <Rbt.Receptor>
prm/blind_docking_40.prm

>  <SCORE>
-11.5877

>  <SCORE.INTER>
-9.58618

>  <SCORE.INTER.CONST>
1

>  <SCORE.INTER.POLAR>
0

>  <SCORE.INTER.ROT>
3

>  <SCORE.INTER.SOLV>
9.24916

>  <SCORE.INTER.VDW>
-15.0738

>  <SCORE.INTER.norm>
-0.798848

>  <SCORE.INTRA>
-2.00154

>  <SCORE.INTRA.DIHEDRAL>
2.12784

>  <SCORE.INTRA.DIHEDRAL.0>
0.283163

>  <SCORE.INTRA.POLAR>
0

>  <SCORE.INTRA.POLAR.0>
0

>  <SCORE.INTRA.REPUL>
0

>  <SCORE.INTRA.REPUL.0>
0

>  <SCORE.INTRA.SOLV>
-0.718186

>  <SCORE.INTRA.SOLV.lig_0>
-32.2894

>  <SCORE.INTRA.VDW>
-2.70637

>  <SCORE.INTRA.VDW.0>
2.0241

>  <SCORE.INTRA.norm>
-0.166795

>  <SCORE.RESTR>
0

>  <SCORE.RESTR.CAVITY>
0

>  <SCORE.RESTR.norm>
0

>  <SCORE.SYSTEM>
0

>  <SCORE.SYSTEM.CONST>
0

>  <SCORE.SYSTEM.DIHEDRAL>
0

>  <SCORE.SYSTEM.SOLV>
0

>  <SCORE.SYSTEM.norm>
0

>  <SCORE.heavy>
12

>  <SCORE.norm>
-0.965643

>  <RMSD>
16.137

$$$$
ligand
 OpenBabel11021811513D
libRbt.so/2013.1/901 2013/11/27
 12 12  0  0  0  0  0  0  0  0999 V2000
    3.9222   13.9055  -20.0176 O   0  0  0  0  0  0  0  0  0  0  0  0
    2.4684   13.9337  -26.8161 O   0  0  0  0  0  0  0  0  0  0  0  0
    4.5462   15.0674  -20.4174 C   0  0  0  0  0  0  0  0  0  0  0  0
    4.6543   13.4124  -27.7629 O   0  0  0  0  0  0  0  0  0  0  0  0
    4.2175   15.4699  -21.7961 C   0  0  0  0  0  0  0  0  0  0  0  0
    4.1612   15.6797  -27.0402 O   0  5  0  0  0  0  0  0  0  0  0  0
    4.3941   14.3623  -22.7448 N   0  3  0  0  0  0  0  0  0  0  0  0
    3.6864   13.1956  -22.2837 C   0  0  0  0  0  0  0  0  0  0  0  0
    4.0597   12.8532  -20.8786 C   0  0  0  0  0  0  0  0  0  0  0  0
    3.9455   14.7600  -24.0452 C   0  0  0  0  0  0  0  0  0  0  0  0
    4.5793   13.8368  -25.1165 C   0  0  0  0  0  0  0  0  0  0  0  0
    3.9288   14.2422  -26.7501 S   0  0  1  0  0  0  0  0  0  0  0  0
  1  3  1  0  0  0  0
  1  9  1  0  0  0  0
  2 12  1  0  0  0  0
  3  5  1  0  0  0  0
  4 12  2  0  0  0  0
  5  7  1  0  0  0  0
  6 12  2  0  0  0  0
  7  8  1  0  0  0  0
  7 10  1  0  0  0  0
  8  9  1  0  0  0  0
 10 11  1  0  0  0  0
 12 11  1  1  0  0  0
M  CHG  2   6  -1   7   1
M  END
>  <CHROM.1>
159.67177725,175.72139285,-65.49625935,4.02598782,14.22826961,-24.14439891
1.38847849,1.37047139,1.76892848

>  <Name>
ligand

>  <RI>
0

>  <Rbt.Current_Directory>
/home/itssahil/PROJECTS/Mol_Feturizer/New_Systems/rnas/4P95

>  <Rbt.Executable>
rbdock ($Id: //depot/dev/client3/rdock/2013.1/src/exe/rbdock.cxx#4 $)

>  <Rbt.Library>
libRbt.so (2013.1, Build901 2013/11/27)

>  <Rbt.Parameter_File>
/export/apps/rDock/src/rDock_2013.1_src/data/scripts/dock_solv.prm

>  <Rbt.Receptor>
prm/blind_docking_100.prm

>  <SCORE>
-11.254

>  <SCORE.INTER>
-9.46127

>  <SCORE.INTER.CONST>
1

>  <SCORE.INTER.POLAR>
0

>  <SCORE.INTER.ROT>
3

>  <SCORE.INTER.SOLV>
8.63727

>  <SCORE.INTER.VDW>
-14.7866

>  <SCORE.INTER.norm>
-0.788439

>  <SCORE.INTRA>
-1.79276

>  <SCORE.INTRA.DIHEDRAL>
0.402133

>  <SCORE.INTRA.DIHEDRAL.0>
0.283163

>  <SCORE.INTRA.POLAR>
0

>  <SCORE.INTRA.POLAR.0>
0

>  <SCORE.INTRA.REPUL>
0

>  <SCORE.INTRA.REPUL.0>
0

>  <SCORE.INTRA.SOLV>
-0.00568482

>  <SCORE.INTRA.SOLV.lig_0>
-32.2894

>  <SCORE.INTRA.VDW>
-1.99098

>  <SCORE.INTRA.VDW.0>
2.0241

>  <SCORE.INTRA.norm>
-0.149397

>  <SCORE.RESTR>
0

>  <SCORE.RESTR.CAVITY>
0

>  <SCORE.RESTR.norm>
0

>  <SCORE.SYSTEM>
0

>  <SCORE.SYSTEM.CONST>
0

>  <SCORE.SYSTEM.DIHEDRAL>
0

>  <SCORE.SYSTEM.SOLV>
0

>  <SCORE.SYSTEM.norm>
0

>  <SCORE.heavy>
12

>  <SCORE.norm>
-0.937836

>  <RMSD>
16.139

$$$$
ligand
 OpenBabel11021811513D
libRbt.so/2013.1/901 2013/11/27
 12 12  0  0  0  0  0  0  0  0999 V2000
    2.7189   15.2059  -20.3579 O   0  0  0  0  0  0  0  0  0  0  0  0
    6.7363   11.1899  -24.6492 O   0  0  0  0  0  0  0  0  0  0  0  0
    3.9355   15.7885  -20.6406 C   0  0  0  0  0  0  0  0  0  0  0  0
    8.9292   11.7853  -23.7642 O   0  0  0  0  0  0  0  0  0  0  0  0
    4.6385   15.1663  -21.7761 C   0  0  0  0  0  0  0  0  0  0  0  0
    7.7140   13.3718  -25.1472 O   0  5  0  0  0  0  0  0  0  0  0  0
    4.7149   13.7059  -21.6367 N   0  3  0  0  0  0  0  0  0  0  0  0
    3.4058   13.1622  -21.3807 C   0  0  0  0  0  0  0  0  0  0  0  0
    2.7492   13.8460  -20.2265 C   0  0  0  0  0  0  0  0  0  0  0  0
    5.2915   13.1346  -22.8163 C   0  0  0  0  0  0  0  0  0  0  0  0
    6.8238   12.9974  -22.6294 C   0  0  0  0  0  0  0  0  0  0  0  0
    7.5728   12.3091  -24.1199 S   0  0  1  0  0  0  0  0  0  0  0  0
  1  3  1  0  0  0  0
  1  9  1  0  0  0  0
  2 12  1  0  0  0  0
  3  5  1  0  0  0  0
  4 12  2  0  0  0  0
  5  7  1  0  0  0  0
  6 12  2  0  0  0  0
  7  8  1  0  0  0  0
  7 10  1  0  0  0  0
  8  9  1  0  0  0  0
 10 11  1  0  0  0  0
 12 11  1  1  0  0  0
M  CHG  2   6  -1   7   1
M  END
>  <CHROM.1>
92.41982150,-178.87029929,-42.52917103,5.67859422,13.34022135,-22.62852605
-2.58408195,-0.57217707,-2.89560016

>  <Name>
ligand

>  <RI>
0

>  <Rbt.Current_Directory>
/home/itssahil/PROJECTS/Mol_Feturizer/New_Systems/rnas/4P95

>  <Rbt.Executable>
rbdock ($Id: //depot/dev/client3/rdock/2013.1/src/exe/rbdock.cxx#4 $)

>  <Rbt.Library>
libRbt.so (2013.1, Build901 2013/11/27)

>  <Rbt.Parameter_File>
/export/apps/rDock/src/rDock_2013.1_src/data/scripts/dock_solv.prm

>  <Rbt.Receptor>
prm/blind_docking_80.prm

>  <SCORE>
-12.9526

>  <SCORE.INTER>
-11.3674

>  <SCORE.INTER.CONST>
1

>  <SCORE.INTER.POLAR>
0

>  <SCORE.INTER.ROT>
3

>  <SCORE.INTER.SOLV>
7.44489

>  <SCORE.INTER.VDW>
-15.6599

>  <SCORE.INTER.norm>
-0.947284

>  <SCORE.INTRA>
-1.58515

>  <SCORE.INTRA.DIHEDRAL>
1.89691

>  <SCORE.INTRA.DIHEDRAL.0>
0.283163

>  <SCORE.INTRA.POLAR>
0

>  <SCORE.INTRA.POLAR.0>
0

>  <SCORE.INTRA.REPUL>
0

>  <SCORE.INTRA.REPUL.0>
0

>  <SCORE.INTRA.SOLV>
-0.243542

>  <SCORE.INTRA.SOLV.lig_0>
-32.2894

>  <SCORE.INTRA.VDW>
-2.41184

>  <SCORE.INTRA.VDW.0>
2.0241

>  <SCORE.INTRA.norm>
-0.132096

>  <SCORE.RESTR>
0

>  <SCORE.RESTR.CAVITY>
0

>  <SCORE.RESTR.norm>
0

>  <SCORE.SYSTEM>
0

>  <SCORE.SYSTEM.CONST>
0

>  <SCORE.SYSTEM.DIHEDRAL>
0

>  <SCORE.SYSTEM.SOLV>
0

>  <SCORE.SYSTEM.norm>
0

>  <SCORE.heavy>
12

>  <SCORE.norm>
-1.07938

>  <RMSD>
16.146

$$$$
ligand
 OpenBabel11021811513D
libRbt.so/2013.1/901 2013/11/27
 12 12  0  0  0  0  0  0  0  0999 V2000
    3.1511   13.3173  -19.9641 O   0  0  0  0  0  0  0  0  0  0  0  0
    2.9137   13.1220  -24.6951 O   0  0  0  0  0  0  0  0  0  0  0  0
    3.3668   12.4836  -21.0400 C   0  0  0  0  0  0  0  0  0  0  0  0
    5.1518   12.8687  -25.6294 O   0  0  0  0  0  0  0  0  0  0  0  0
    4.3616   12.9995  -21.9967 C   0  0  0  0  0  0  0  0  0  0  0  0
    3.4871   14.1783  -26.8211 O   0  5  0  0  0  0  0  0  0  0  0  0
    4.0748   14.3862  -22.3876 N   0  3  0  0  0  0  0  0  0  0  0  0
    3.8985   15.2061  -21.2166 C   0  0  0  0  0  0  0  0  0  0  0  0
    2.8866   14.6183  -20.2885 C   0  0  0  0  0  0  0  0  0  0  0  0
    5.1307   14.8859  -23.2157 C   0  0  0  0  0  0  0  0  0  0  0  0
    4.5607   15.2744  -24.6035 C   0  0  0  0  0  0  0  0  0  0  0  0
    3.9910   13.8013  -25.4763 S   0  0  1  0  0  0  0  0  0  0  0  0
  1  3  1  0  0  0  0
  1  9  1  0  0  0  0
  2 12  1  0  0  0  0
  3  5  1  0  0  0  0
  4 12  2  0  0  0  0
  5  7  1  0  0  0  0
  6 12  2  0  0  0  0
  7  8  1  0  0  0  0
  7 10  1  0  0  0  0
  8  9  1  0  0  0  0
 10 11  1  0  0  0  0
 12 11  1  1  0  0  0
M  CHG  2   6  -1   7   1
M  END
>  <CHROM.1>
119.25801967,-66.47703988,60.31590062,3.91191900,13.89399123,-23.37824967
1.93706357,1.22473481,1.22145517

>  <Name>
ligand

>  <RI>
0

>  <Rbt.Current_Directory>
/home/itssahil/PROJECTS/Mol_Feturizer/New_Systems/rnas/4P95

>  <Rbt.Executable>
rbdock ($Id: //depot/dev/client3/rdock/2013.1/src/exe/rbdock.cxx#4 $)

>  <Rbt.Library>
libRbt.so (2013.1, Build901 2013/11/27)

>  <Rbt.Parameter_File>
/export/apps/rDock/src/rDock_2013.1_src/data/scripts/dock_solv.prm

>  <Rbt.Receptor>
prm/blind_docking_80.prm

>  <SCORE>
-12.2305

>  <SCORE.INTER>
-9.68304

>  <SCORE.INTER.CONST>
1

>  <SCORE.INTER.POLAR>
0

>  <SCORE.INTER.ROT>
3

>  <SCORE.INTER.SOLV>
9.43913

>  <SCORE.INTER.VDW>
-15.2017

>  <SCORE.INTER.norm>
-0.80692

>  <SCORE.INTRA>
-2.54743

>  <SCORE.INTRA.DIHEDRAL>
2.27516

>  <SCORE.INTRA.DIHEDRAL.0>
0.283163

>  <SCORE.INTRA.POLAR>
0

>  <SCORE.INTRA.POLAR.0>
0

>  <SCORE.INTRA.REPUL>
0

>  <SCORE.INTRA.REPUL.0>
0

>  <SCORE.INTRA.SOLV>
-0.450832

>  <SCORE.INTRA.SOLV.lig_0>
-32.2894

>  <SCORE.INTRA.VDW>
-3.45959

>  <SCORE.INTRA.VDW.0>
2.0241

>  <SCORE.INTRA.norm>
-0.212285

>  <SCORE.RESTR>
0

>  <SCORE.RESTR.CAVITY>
0

>  <SCORE.RESTR.norm>
0

>  <SCORE.SYSTEM>
0

>  <SCORE.SYSTEM.CONST>
0

>  <SCORE.SYSTEM.DIHEDRAL>
0

>  <SCORE.SYSTEM.SOLV>
0

>  <SCORE.SYSTEM.norm>
0

>  <SCORE.heavy>
12

>  <SCORE.norm>
-1.01921

>  <RMSD>
16.222

$$$$
ligand
 OpenBabel11021811513D
libRbt.so/2013.1/901 2013/11/27
 12 12  0  0  0  0  0  0  0  0999 V2000
    9.0001    3.5363  -18.8311 O   0  0  0  0  0  0  0  0  0  0  0  0
   10.6429   -3.1040  -16.0443 O   0  0  0  0  0  0  0  0  0  0  0  0
    8.9006    3.3469  -17.4697 C   0  0  0  0  0  0  0  0  0  0  0  0
   10.7050   -2.0426  -13.8497 O   0  0  0  0  0  0  0  0  0  0  0  0
    9.6693    2.1908  -16.9765 C   0  0  0  0  0  0  0  0  0  0  0  0
   12.3611   -1.4475  -15.5259 O   0  5  0  0  0  0  0  0  0  0  0  0
    9.3855    0.9758  -17.7520 N   0  3  0  0  0  0  0  0  0  0  0  0
    9.5450    1.2363  -19.1596 C   0  0  0  0  0  0  0  0  0  0  0  0
    8.7483    2.4255  -19.5862 C   0  0  0  0  0  0  0  0  0  0  0  0
   10.2431   -0.0870  -17.3214 C   0  0  0  0  0  0  0  0  0  0  0  0
    9.8565   -0.5137  -15.8826 C   0  0  0  0  0  0  0  0  0  0  0  0
   10.9440   -1.8363  -15.3130 S   0  0  1  0  0  0  0  0  0  0  0  0
  1  3  1  0  0  0  0
  1  9  1  0  0  0  0
  2 12  1  0  0  0  0
  3  5  1  0  0  0  0
  4 12  2  0  0  0  0
  5  7  1  0  0  0  0
  6 12  2  0  0  0  0
  7  8  1  0  0  0  0
  7 10  1  0  0  0  0
  8  9  1  0  0  0  0
 10 11  1  0  0  0  0
 12 11  1  6  0  0  0
M  CHG  2   6  -1   7   1
M  END
>  <CHROM.1>
68.31483832,-179.13505609,-70.79924411,10.11532866,0.13637177,-16.78441135
3.06684358,1.24421990,-2.11612209

>  <Name>
ligand

>  <RI>
0

>  <Rbt.Current_Directory>
/home/itssahil/PROJECTS/Mol_Feturizer/New_Systems/rnas/4P95

>  <Rbt.Executable>
rbdock ($Id: //depot/dev/client3/rdock/2013.1/src/exe/rbdock.cxx#4 $)

>  <Rbt.Library>
libRbt.so (2013.1, Build901 2013/11/27)

>  <Rbt.Parameter_File>
/export/apps/rDock/src/rDock_2013.1_src/data/scripts/dock_solv.prm

>  <Rbt.Receptor>
prm/blind_docking_100.prm

>  <SCORE>
22.8177

>  <SCORE.INTER>
23.9831

>  <SCORE.INTER.CONST>
1

>  <SCORE.INTER.POLAR>
0

>  <SCORE.INTER.ROT>
3

>  <SCORE.INTER.SOLV>
12.749

>  <SCORE.INTER.VDW>
6.13905

>  <SCORE.INTER.norm>
1.99859

>  <SCORE.INTRA>
-1.16538

>  <SCORE.INTRA.DIHEDRAL>
0.112113

>  <SCORE.INTRA.DIHEDRAL.0>
0.283163

>  <SCORE.INTRA.POLAR>
0

>  <SCORE.INTRA.POLAR.0>
0

>  <SCORE.INTRA.REPUL>
0

>  <SCORE.INTRA.REPUL.0>
0

>  <SCORE.INTRA.SOLV>
0.145203

>  <SCORE.INTRA.SOLV.lig_0>
-32.2894

>  <SCORE.INTRA.VDW>
-1.29404

>  <SCORE.INTRA.VDW.0>
2.0241

>  <SCORE.INTRA.norm>
-0.0971153

>  <SCORE.RESTR>
0

>  <SCORE.RESTR.CAVITY>
0

>  <SCORE.RESTR.norm>
0

>  <SCORE.SYSTEM>
0

>  <SCORE.SYSTEM.CONST>
0

>  <SCORE.SYSTEM.DIHEDRAL>
0

>  <SCORE.SYSTEM.SOLV>
0

>  <SCORE.SYSTEM.norm>
0

>  <SCORE.heavy>
12

>  <SCORE.norm>
1.90147

>  <RMSD>
16.254

$$$$
ligand
 OpenBabel11021811513D
libRbt.so/2013.1/901 2013/11/27
 12 12  0  0  0  0  0  0  0  0999 V2000
    3.7714   16.2453  -29.0968 O   0  0  0  0  0  0  0  0  0  0  0  0
    3.7968   12.2539  -22.2595 O   0  0  0  0  0  0  0  0  0  0  0  0
    3.3278   16.9677  -28.0102 C   0  0  0  0  0  0  0  0  0  0  0  0
    3.6923   14.6874  -22.1424 O   0  0  0  0  0  0  0  0  0  0  0  0
    3.9299   16.5442  -26.7339 C   0  0  0  0  0  0  0  0  0  0  0  0
    5.7578   13.5988  -22.8170 O   0  5  0  0  0  0  0  0  0  0  0  0
    3.8340   15.0911  -26.5408 N   0  3  0  0  0  0  0  0  0  0  0  0
    4.3482   14.4014  -27.6960 C   0  0  0  0  0  0  0  0  0  0  0  0
    3.7027   14.8881  -28.9519 C   0  0  0  0  0  0  0  0  0  0  0  0
    4.5391   14.7110  -25.3540 C   0  0  0  0  0  0  0  0  0  0  0  0
    3.7362   13.6197  -24.6016 C   0  0  0  0  0  0  0  0  0  0  0  0
    4.2763   13.5246  -22.8824 S   0  0  1  0  0  0  0  0  0  0  0  0
  1  3  1  0  0  0  0
  1  9  1  0  0  0  0
  2 12  1  0  0  0  0
  3  5  1  0  0  0  0
  4 12  2  0  0  0  0
  5  7  1  0  0  0  0
  6 12  2  0  0  0  0
  7  8  1  0  0  0  0
  7 10  1  0  0  0  0
  8  9  1  0  0  0  0
 10 11  1  0  0  0  0
 12 11  1  6  0  0  0
M  CHG  2   6  -1   7   1
M  END
>  <CHROM.1>
140.16686094,-160.86011606,-164.39046251,4.08747376,14.57998818,-25.27758711
2.08650580,1.39136489,-1.67053300

>  <Name>
ligand

>  <RI>
0

>  <Rbt.Current_Directory>
/home/itssahil/PROJECTS/Mol_Feturizer/New_Systems/rnas/4P95

>  <Rbt.Executable>
rbdock ($Id: //depot/dev/client3/rdock/2013.1/src/exe/rbdock.cxx#4 $)

>  <Rbt.Library>
libRbt.so (2013.1, Build901 2013/11/27)

>  <Rbt.Parameter_File>
/export/apps/rDock/src/rDock_2013.1_src/data/scripts/dock_solv.prm

>  <Rbt.Receptor>
prm/blind_docking_60.prm

>  <SCORE>
-10.1012

>  <SCORE.INTER>
-9.43764

>  <SCORE.INTER.CONST>
1

>  <SCORE.INTER.POLAR>
0

>  <SCORE.INTER.ROT>
3

>  <SCORE.INTER.SOLV>
7.25345

>  <SCORE.INTER.VDW>
-14.3096

>  <SCORE.INTER.norm>
-0.78647

>  <SCORE.INTRA>
-0.663576

>  <SCORE.INTRA.DIHEDRAL>
3.33566

>  <SCORE.INTRA.DIHEDRAL.0>
0.283163

>  <SCORE.INTRA.POLAR>
0

>  <SCORE.INTRA.POLAR.0>
0

>  <SCORE.INTRA.REPUL>
0

>  <SCORE.INTRA.REPUL.0>
0

>  <SCORE.INTRA.SOLV>
0.315536

>  <SCORE.INTRA.SOLV.lig_0>
-32.2894

>  <SCORE.INTRA.VDW>
-2.48917

>  <SCORE.INTRA.VDW.0>
2.0241

>  <SCORE.INTRA.norm>
-0.055298

>  <SCORE.RESTR>
0

>  <SCORE.RESTR.CAVITY>
0

>  <SCORE.RESTR.norm>
0

>  <SCORE.SYSTEM>
0

>  <SCORE.SYSTEM.CONST>
0

>  <SCORE.SYSTEM.DIHEDRAL>
0

>  <SCORE.SYSTEM.SOLV>
0

>  <SCORE.SYSTEM.norm>
0

>  <SCORE.heavy>
12

>  <SCORE.norm>
-0.841768

>  <RMSD>
16.260

$$$$
ligand
 OpenBabel11021811513D
libRbt.so/2013.1/901 2013/11/27
 12 12  0  0  0  0  0  0  0  0999 V2000
    2.8068   14.4377  -19.9216 O   0  0  0  0  0  0  0  0  0  0  0  0
    3.4752   14.1793  -24.5114 O   0  0  0  0  0  0  0  0  0  0  0  0
    2.6909   13.2445  -20.6014 C   0  0  0  0  0  0  0  0  0  0  0  0
    4.5854   12.9712  -26.3155 O   0  0  0  0  0  0  0  0  0  0  0  0
    3.9461   12.7999  -21.2321 C   0  0  0  0  0  0  0  0  0  0  0  0
    5.6382   14.9390  -25.3535 O   0  5  0  0  0  0  0  0  0  0  0  0
    4.5609   13.8657  -22.0346 N   0  3  0  0  0  0  0  0  0  0  0  0
    4.6850   15.0683  -21.2517 C   0  0  0  0  0  0  0  0  0  0  0  0
    3.3802   15.4526  -20.6348 C   0  0  0  0  0  0  0  0  0  0  0  0
    5.8350   13.4322  -22.5237 C   0  0  0  0  0  0  0  0  0  0  0  0
    5.6469   12.6873  -23.8696 C   0  0  0  0  0  0  0  0  0  0  0  0
    4.7991   13.7508  -25.0556 S   0  0  1  0  0  0  0  0  0  0  0  0
  1  3  1  0  0  0  0
  1  9  1  0  0  0  0
  2 12  1  0  0  0  0
  3  5  1  0  0  0  0
  4 12  2  0  0  0  0
  5  7  1  0  0  0  0
  6 12  2  0  0  0  0
  7  8  1  0  0  0  0
  7 10  1  0  0  0  0
  8  9  1  0  0  0  0
 10 11  1  0  0  0  0
 12 11  1  1  0  0  0
M  CHG  2   6  -1   7   1
M  END
>  <CHROM.1>
87.51114553,56.59893902,-58.07272658,4.37173596,13.89761214,-23.03802615
2.88163592,-1.25080825,2.75693832

>  <Name>
ligand

>  <RI>
0

>  <Rbt.Current_Directory>
/home/itssahil/PROJECTS/Mol_Feturizer/New_Systems/rnas/4P95

>  <Rbt.Executable>
rbdock ($Id: //depot/dev/client3/rdock/2013.1/src/exe/rbdock.cxx#4 $)

>  <Rbt.Library>
libRbt.so (2013.1, Build901 2013/11/27)

>  <Rbt.Parameter_File>
/export/apps/rDock/src/rDock_2013.1_src/data/scripts/dock_solv.prm

>  <Rbt.Receptor>
prm/blind_docking_60.prm

>  <SCORE>
-11.7535

>  <SCORE.INTER>
-9.69198

>  <SCORE.INTER.CONST>
1

>  <SCORE.INTER.POLAR>
0

>  <SCORE.INTER.ROT>
3

>  <SCORE.INTER.SOLV>
6.36748

>  <SCORE.INTER.VDW>
-14.1838

>  <SCORE.INTER.norm>
-0.807665

>  <SCORE.INTRA>
-2.06151

>  <SCORE.INTRA.DIHEDRAL>
0.8923

>  <SCORE.INTRA.DIHEDRAL.0>
0.283163

>  <SCORE.INTRA.POLAR>
0

>  <SCORE.INTRA.POLAR.0>
0

>  <SCORE.INTRA.REPUL>
0

>  <SCORE.INTRA.REPUL.0>
0

>  <SCORE.INTRA.SOLV>
1.18044

>  <SCORE.INTRA.SOLV.lig_0>
-32.2894

>  <SCORE.INTRA.VDW>
-3.09788

>  <SCORE.INTRA.VDW.0>
2.0241

>  <SCORE.INTRA.norm>
-0.171792

>  <SCORE.RESTR>
0

>  <SCORE.RESTR.CAVITY>
0

>  <SCORE.RESTR.norm>
0

>  <SCORE.SYSTEM>
0

>  <SCORE.SYSTEM.CONST>
0

>  <SCORE.SYSTEM.DIHEDRAL>
0

>  <SCORE.SYSTEM.SOLV>
0

>  <SCORE.SYSTEM.norm>
0

>  <SCORE.heavy>
12

>  <SCORE.norm>
-0.979457

>  <RMSD>
16.343

$$$$
ligand
 OpenBabel11021811513D
libRbt.so/2013.1/901 2013/11/27
 12 12  0  0  0  0  0  0  0  0999 V2000
    1.0564    0.2562  -20.3607 O   0  0  0  0  0  0  0  0  0  0  0  0
    1.5940    2.3003  -13.3507 O   0  0  0  0  0  0  0  0  0  0  0  0
    1.7188    1.4213  -20.0400 C   0  0  0  0  0  0  0  0  0  0  0  0
    1.1743   -0.0936  -13.5504 O   0  0  0  0  0  0  0  0  0  0  0  0
    2.0730    1.5257  -18.6136 C   0  0  0  0  0  0  0  0  0  0  0  0
   -0.6200    1.3933  -12.8604 O   0  5  0  0  0  0  0  0  0  0  0  0
    0.9198    1.2575  -17.7439 N   0  3  0  0  0  0  0  0  0  0  0  0
    0.3005    0.0099  -18.1107 C   0  0  0  0  0  0  0  0  0  0  0  0
   -0.0200   -0.0301  -19.5689 C   0  0  0  0  0  0  0  0  0  0  0  0
    1.3365    1.2461  -16.3740 C   0  0  0  0  0  0  0  0  0  0  0  0
    0.1061    1.4605  -15.4566 C   0  0  0  0  0  0  0  0  0  0  0  0
    0.5800    1.2691  -13.7260 S   0  0  1  0  0  0  0  0  0  0  0  0
  1  3  1  0  0  0  0
  1  9  1  0  0  0  0
  2 12  1  0  0  0  0
  3  5  1  0  0  0  0
  4 12  2  0  0  0  0
  5  7  1  0  0  0  0
  6 12  2  0  0  0  0
  7  8  1  0  0  0  0
  7 10  1  0  0  0  0
  8  9  1  0  0  0  0
 10 11  1  0  0  0  0
 12 11  1  6  0  0  0
M  CHG  2   6  -1   7   1
M  END
>  <CHROM.1>
160.37235872,173.81088303,61.97341477,0.82435037,1.02466061,-16.30941203
1.46767707,-0.70492134,-1.73814339

>  <Name>
ligand

>  <RI>
0

>  <Rbt.Current_Directory>
/home/itssahil/PROJECTS/Mol_Feturizer/New_Systems/rnas/4P95

>  <Rbt.Executable>
rbdock ($Id: //depot/dev/client3/rdock/2013.1/src/exe/rbdock.cxx#4 $)

>  <Rbt.Library>
libRbt.so (2013.1, Build901 2013/11/27)

>  <Rbt.Parameter_File>
/export/apps/rDock/src/rDock_2013.1_src/data/scripts/dock_solv.prm

>  <Rbt.Receptor>
prm/blind_docking_40.prm

>  <SCORE>
-11.6571

>  <SCORE.INTER>
-9.55835

>  <SCORE.INTER.CONST>
1

>  <SCORE.INTER.POLAR>
0

>  <SCORE.INTER.ROT>
3

>  <SCORE.INTER.SOLV>
7.25508

>  <SCORE.INTER.VDW>
-14.3906

>  <SCORE.INTER.norm>
-0.796529

>  <SCORE.INTRA>
-2.09874

>  <SCORE.INTRA.DIHEDRAL>
0.400853

>  <SCORE.INTRA.DIHEDRAL.0>
0.283163

>  <SCORE.INTRA.POLAR>
0

>  <SCORE.INTRA.POLAR.0>
0

>  <SCORE.INTRA.REPUL>
0

>  <SCORE.INTRA.REPUL.0>
0

>  <SCORE.INTRA.SOLV>
-0.701664

>  <SCORE.INTRA.SOLV.lig_0>
-32.2894

>  <SCORE.INTRA.VDW>
-1.94834

>  <SCORE.INTRA.VDW.0>
2.0241

>  <SCORE.INTRA.norm>
-0.174895

>  <SCORE.RESTR>
0

>  <SCORE.RESTR.CAVITY>
0

>  <SCORE.RESTR.norm>
0

>  <SCORE.SYSTEM>
0

>  <SCORE.SYSTEM.CONST>
0

>  <SCORE.SYSTEM.DIHEDRAL>
0

>  <SCORE.SYSTEM.SOLV>
0

>  <SCORE.SYSTEM.norm>
0

>  <SCORE.heavy>
12

>  <SCORE.norm>
-0.971425

>  <RMSD>
16.350

$$$$
ligand
 OpenBabel11021811513D
libRbt.so/2013.1/901 2013/11/27
 12 12  0  0  0  0  0  0  0  0999 V2000
    3.8457   15.5344  -28.9896 O   0  0  0  0  0  0  0  0  0  0  0  0
    6.0710   13.9350  -22.3546 O   0  0  0  0  0  0  0  0  0  0  0  0
    4.2599   16.5050  -28.1032 C   0  0  0  0  0  0  0  0  0  0  0  0
    4.0832   12.5370  -22.5562 O   0  0  0  0  0  0  0  0  0  0  0  0
    4.8424   15.9626  -26.8633 C   0  0  0  0  0  0  0  0  0  0  0  0
    4.0302   14.5148  -21.1448 O   0  5  0  0  0  0  0  0  0  0  0  0
    3.9724   14.9510  -26.2487 N   0  3  0  0  0  0  0  0  0  0  0  0
    3.6102   13.9509  -27.2200 C   0  0  0  0  0  0  0  0  0  0  0  0
    3.0384   14.5716  -28.4523 C   0  0  0  0  0  0  0  0  0  0  0  0
    4.6313   14.3636  -25.1213 C   0  0  0  0  0  0  0  0  0  0  0  0
    4.0003   14.9041  -23.8131 C   0  0  0  0  0  0  0  0  0  0  0  0
    4.5776   13.9413  -22.4003 S   0  0  1  0  0  0  0  0  0  0  0  0
  1  3  1  0  0  0  0
  1  9  1  0  0  0  0
  2 12  1  0  0  0  0
  3  5  1  0  0  0  0
  4 12  2  0  0  0  0
  5  7  1  0  0  0  0
  6 12  2  0  0  0  0
  7  8  1  0  0  0  0
  7 10  1  0  0  0  0
  8  9  1  0  0  0  0
 10 11  1  0  0  0  0
 12 11  1  6  0  0  0
M  CHG  2   6  -1   7   1
M  END
>  <CHROM.1>
105.75299566,168.62228741,55.26702455,4.28822413,14.55375808,-24.94415015
1.80150270,-1.00944676,-1.12659362

>  <Name>
ligand

>  <RI>
0

>  <Rbt.Current_Directory>
/home/itssahil/PROJECTS/Mol_Feturizer/New_Systems/rnas/4P95

>  <Rbt.Executable>
rbdock ($Id: //depot/dev/client3/rdock/2013.1/src/exe/rbdock.cxx#4 $)

>  <Rbt.Library>
libRbt.so (2013.1, Build901 2013/11/27)

>  <Rbt.Parameter_File>
/export/apps/rDock/src/rDock_2013.1_src/data/scripts/dock_solv.prm

>  <Rbt.Receptor>
prm/blind_docking_60.prm

>  <SCORE>
-8.84958

>  <SCORE.INTER>
-7.00587

>  <SCORE.INTER.CONST>
1

>  <SCORE.INTER.POLAR>
0

>  <SCORE.INTER.ROT>
3

>  <SCORE.INTER.SOLV>
8.46478

>  <SCORE.INTER.VDW>
-13.0922

>  <SCORE.INTER.norm>
-0.583823

>  <SCORE.INTRA>
-1.84371

>  <SCORE.INTRA.DIHEDRAL>
2.35926

>  <SCORE.INTRA.DIHEDRAL.0>
0.283163

>  <SCORE.INTRA.POLAR>
0

>  <SCORE.INTRA.POLAR.0>
0

>  <SCORE.INTRA.REPUL>
0

>  <SCORE.INTRA.REPUL.0>
0

>  <SCORE.INTRA.SOLV>
-0.725871

>  <SCORE.INTRA.SOLV.lig_0>
-32.2894

>  <SCORE.INTRA.VDW>
-2.66041

>  <SCORE.INTRA.VDW.0>
2.0241

>  <SCORE.INTRA.norm>
-0.153643

>  <SCORE.RESTR>
0

>  <SCORE.RESTR.CAVITY>
0

>  <SCORE.RESTR.norm>
0

>  <SCORE.SYSTEM>
0

>  <SCORE.SYSTEM.CONST>
0

>  <SCORE.SYSTEM.DIHEDRAL>
0

>  <SCORE.SYSTEM.SOLV>
0

>  <SCORE.SYSTEM.norm>
0

>  <SCORE.heavy>
12

>  <SCORE.norm>
-0.737465

>  <RMSD>
16.377

$$$$
ligand
 OpenBabel11021811513D
libRbt.so/2013.1/901 2013/11/27
 12 12  0  0  0  0  0  0  0  0999 V2000
    3.3950   13.2778  -20.0711 O   0  0  0  0  0  0  0  0  0  0  0  0
    2.9815   13.2951  -24.7563 O   0  0  0  0  0  0  0  0  0  0  0  0
    3.6238   12.5897  -21.2431 C   0  0  0  0  0  0  0  0  0  0  0  0
    5.2776   13.3698  -25.5741 O   0  0  0  0  0  0  0  0  0  0  0  0
    4.4777   13.3175  -22.1981 C   0  0  0  0  0  0  0  0  0  0  0  0
    3.4992   14.3973  -26.8733 O   0  5  0  0  0  0  0  0  0  0  0  0
    4.0045   14.6909  -22.4165 N   0  3  0  0  0  0  0  0  0  0  0  0
    3.8235   15.3607  -21.1542 C   0  0  0  0  0  0  0  0  0  0  0  0
    2.9588   14.5626  -20.2343 C   0  0  0  0  0  0  0  0  0  0  0  0
    4.9305   15.3972  -23.2496 C   0  0  0  0  0  0  0  0  0  0  0  0
    4.2803   15.6723  -24.6292 C   0  0  0  0  0  0  0  0  0  0  0  0
    3.9837   14.1187  -25.4978 S   0  0  1  0  0  0  0  0  0  0  0  0
  1  3  1  0  0  0  0
  1  9  1  0  0  0  0
  2 12  1  0  0  0  0
  3  5  1  0  0  0  0
  4 12  2  0  0  0  0
  5  7  1  0  0  0  0
  6 12  2  0  0  0  0
  7  8  1  0  0  0  0
  7 10  1  0  0  0  0
  8  9  1  0  0  0  0
 10 11  1  0  0  0  0
 12 11  1  1  0  0  0
M  CHG  2   6  -1   7   1
M  END
>  <CHROM.1>
111.16053654,-65.55997695,64.63024736,3.93473237,14.14210103,-23.42259774
2.03483893,1.35315291,1.16050505

>  <Name>
ligand

>  <RI>
0

>  <Rbt.Current_Directory>
/home/itssahil/PROJECTS/Mol_Feturizer/New_Systems/rnas/4P95

>  <Rbt.Executable>
rbdock ($Id: //depot/dev/client3/rdock/2013.1/src/exe/rbdock.cxx#4 $)

>  <Rbt.Library>
libRbt.so (2013.1, Build901 2013/11/27)

>  <Rbt.Parameter_File>
/export/apps/rDock/src/rDock_2013.1_src/data/scripts/dock_solv.prm

>  <Rbt.Receptor>
prm/blind_docking_100.prm

>  <SCORE>
-12.2359

>  <SCORE.INTER>
-9.75837

>  <SCORE.INTER.CONST>
1

>  <SCORE.INTER.POLAR>
0

>  <SCORE.INTER.ROT>
3

>  <SCORE.INTER.SOLV>
9.31066

>  <SCORE.INTER.VDW>
-15.2091

>  <SCORE.INTER.norm>
-0.813198

>  <SCORE.INTRA>
-2.47753

>  <SCORE.INTRA.DIHEDRAL>
2.20454

>  <SCORE.INTRA.DIHEDRAL.0>
0.283163

>  <SCORE.INTRA.POLAR>
0

>  <SCORE.INTRA.POLAR.0>
0

>  <SCORE.INTRA.REPUL>
0

>  <SCORE.INTRA.REPUL.0>
0

>  <SCORE.INTRA.SOLV>
-0.412089

>  <SCORE.INTRA.SOLV.lig_0>
-32.2894

>  <SCORE.INTRA.VDW>
-3.37375

>  <SCORE.INTRA.VDW.0>
2.0241

>  <SCORE.INTRA.norm>
-0.206461

>  <SCORE.RESTR>
0

>  <SCORE.RESTR.CAVITY>
0

>  <SCORE.RESTR.norm>
0

>  <SCORE.SYSTEM>
0

>  <SCORE.SYSTEM.CONST>
0

>  <SCORE.SYSTEM.DIHEDRAL>
0

>  <SCORE.SYSTEM.SOLV>
0

>  <SCORE.SYSTEM.norm>
0

>  <SCORE.heavy>
12

>  <SCORE.norm>
-1.01966

>  <RMSD>
16.416

$$$$
ligand
 OpenBabel11021811513D
libRbt.so/2013.1/901 2013/11/27
 12 12  0  0  0  0  0  0  0  0999 V2000
    2.8576   14.7917  -20.9024 O   0  0  0  0  0  0  0  0  0  0  0  0
    9.4345   11.3742  -23.3514 O   0  0  0  0  0  0  0  0  0  0  0  0
    3.9356   15.3939  -20.2904 C   0  0  0  0  0  0  0  0  0  0  0  0
    9.5676   13.2371  -21.7836 O   0  0  0  0  0  0  0  0  0  0  0  0
    5.1598   15.3869  -21.1103 C   0  0  0  0  0  0  0  0  0  0  0  0
    9.2207   13.6725  -24.1493 O   0  5  0  0  0  0  0  0  0  0  0  0
    5.4628   14.0457  -21.6272 N   0  3  0  0  0  0  0  0  0  0  0  0
    4.3063   13.4938  -22.2849 C   0  0  0  0  0  0  0  0  0  0  0  0
    3.1030   13.5434  -21.4015 C   0  0  0  0  0  0  0  0  0  0  0  0
    6.5834   14.1093  -22.5164 C   0  0  0  0  0  0  0  0  0  0  0  0
    7.1330   12.6809  -22.7599 C   0  0  0  0  0  0  0  0  0  0  0  0
    8.9154   12.7392  -23.0356 S   0  0  1  0  0  0  0  0  0  0  0  0
  1  3  1  0  0  0  0
  1  9  1  0  0  0  0
  2 12  1  0  0  0  0
  3  5  1  0  0  0  0
  4 12  2  0  0  0  0
  5  7  1  0  0  0  0
  6 12  2  0  0  0  0
  7  8  1  0  0  0  0
  7 10  1  0  0  0  0
  8  9  1  0  0  0  0
 10 11  1  0  0  0  0
 12 11  1  1  0  0  0
M  CHG  2   6  -1   7   1
M  END
>  <CHROM.1>
165.05155948,-148.46720249,-176.62230723,6.60840655,13.59818081,-22.20598751
2.68661920,0.13225710,0.55217511

>  <Name>
ligand

>  <RI>
0

>  <Rbt.Current_Directory>
/home/itssahil/PROJECTS/Mol_Feturizer/New_Systems/rnas/4P95

>  <Rbt.Executable>
rbdock ($Id: //depot/dev/client3/rdock/2013.1/src/exe/rbdock.cxx#4 $)

>  <Rbt.Library>
libRbt.so (2013.1, Build901 2013/11/27)

>  <Rbt.Parameter_File>
/export/apps/rDock/src/rDock_2013.1_src/data/scripts/dock_solv.prm

>  <Rbt.Receptor>
prm/blind_docking_60.prm

>  <SCORE>
-8.62478

>  <SCORE.INTER>
-8.57308

>  <SCORE.INTER.CONST>
1

>  <SCORE.INTER.POLAR>
0

>  <SCORE.INTER.ROT>
3

>  <SCORE.INTER.SOLV>
6.52064

>  <SCORE.INTER.VDW>
-13.4889

>  <SCORE.INTER.norm>
-0.714423

>  <SCORE.INTRA>
-0.0517073

>  <SCORE.INTRA.DIHEDRAL>
3.04233

>  <SCORE.INTRA.DIHEDRAL.0>
0.283163

>  <SCORE.INTRA.POLAR>
0

>  <SCORE.INTRA.POLAR.0>
0

>  <SCORE.INTRA.REPUL>
0

>  <SCORE.INTRA.REPUL.0>
0

>  <SCORE.INTRA.SOLV>
0.230159

>  <SCORE.INTRA.SOLV.lig_0>
-32.2894

>  <SCORE.INTRA.VDW>
-1.68795

>  <SCORE.INTRA.VDW.0>
2.0241

>  <SCORE.INTRA.norm>
-0.00430894

>  <SCORE.RESTR>
0

>  <SCORE.RESTR.CAVITY>
0

>  <SCORE.RESTR.norm>
0

>  <SCORE.SYSTEM>
0

>  <SCORE.SYSTEM.CONST>
0

>  <SCORE.SYSTEM.DIHEDRAL>
0

>  <SCORE.SYSTEM.SOLV>
0

>  <SCORE.SYSTEM.norm>
0

>  <SCORE.heavy>
12

>  <SCORE.norm>
-0.718732

>  <RMSD>
16.702

$$$$
ligand
 OpenBabel11021811513D
libRbt.so/2013.1/901 2013/11/27
 12 12  0  0  0  0  0  0  0  0999 V2000
    7.6638    0.8448  -17.0209 O   0  0  0  0  0  0  0  0  0  0  0  0
   10.5084   -3.3695  -16.0578 O   0  0  0  0  0  0  0  0  0  0  0  0
    7.8815   -0.4603  -16.6352 C   0  0  0  0  0  0  0  0  0  0  0  0
   12.3132   -2.7182  -14.5528 O   0  0  0  0  0  0  0  0  0  0  0  0
    9.2307   -0.6985  -16.0930 C   0  0  0  0  0  0  0  0  0  0  0  0
   12.7890   -4.1438  -16.4627 O   0  5  0  0  0  0  0  0  0  0  0  0
   10.2764   -0.1759  -16.9826 N   0  3  0  0  0  0  0  0  0  0  0  0
   10.0054    1.1995  -17.3137 C   0  0  0  0  0  0  0  0  0  0  0  0
    8.6199    1.3679  -17.8454 C   0  0  0  0  0  0  0  0  0  0  0  0
   11.5584   -0.3162  -16.3605 C   0  0  0  0  0  0  0  0  0  0  0  0
   12.2947   -1.5402  -16.9615 C   0  0  0  0  0  0  0  0  0  0  0  0
   11.9573   -3.0140  -15.9764 S   0  0  1  0  0  0  0  0  0  0  0  0
  1  3  1  0  0  0  0
  1  9  1  0  0  0  0
  2 12  1  0  0  0  0
  3  5  1  0  0  0  0
  4 12  2  0  0  0  0
  5  7  1  0  0  0  0
  6 12  2  0  0  0  0
  7  8  1  0  0  0  0
  7 10  1  0  0  0  0
  8  9  1  0  0  0  0
 10 11  1  0  0  0  0
 12 11  1  6  0  0  0
M  CHG  2   6  -1   7   1
M  END
>  <CHROM.1>
101.62537898,-92.24201053,65.09873560,10.58319781,-1.31578498,-16.45093454
2.28932554,0.06073351,-0.36154252

>  <Name>
ligand

>  <RI>
0

>  <Rbt.Current_Directory>
/home/itssahil/PROJECTS/Mol_Feturizer/New_Systems/rnas/4P95

>  <Rbt.Executable>
rbdock ($Id: //depot/dev/client3/rdock/2013.1/src/exe/rbdock.cxx#4 $)

>  <Rbt.Library>
libRbt.so (2013.1, Build901 2013/11/27)

>  <Rbt.Parameter_File>
/export/apps/rDock/src/rDock_2013.1_src/data/scripts/dock_solv.prm

>  <Rbt.Receptor>
prm/blind_docking_100.prm

>  <SCORE>
-8.6433

>  <SCORE.INTER>
-7.74482

>  <SCORE.INTER.CONST>
1

>  <SCORE.INTER.POLAR>
0

>  <SCORE.INTER.ROT>
3

>  <SCORE.INTER.SOLV>
14.2917

>  <SCORE.INTER.VDW>
-15.5271

>  <SCORE.INTER.norm>
-0.645402

>  <SCORE.INTRA>
-0.898484

>  <SCORE.INTRA.DIHEDRAL>
4.82425

>  <SCORE.INTRA.DIHEDRAL.0>
0.283163

>  <SCORE.INTRA.POLAR>
0

>  <SCORE.INTRA.POLAR.0>
0

>  <SCORE.INTRA.REPUL>
0

>  <SCORE.INTRA.REPUL.0>
0

>  <SCORE.INTRA.SOLV>
-0.605932

>  <SCORE.INTRA.SOLV.lig_0>
-32.2894

>  <SCORE.INTRA.VDW>
-3.00764

>  <SCORE.INTRA.VDW.0>
2.0241

>  <SCORE.INTRA.norm>
-0.0748736

>  <SCORE.RESTR>
0

>  <SCORE.RESTR.CAVITY>
0

>  <SCORE.RESTR.norm>
0

>  <SCORE.SYSTEM>
0

>  <SCORE.SYSTEM.CONST>
0

>  <SCORE.SYSTEM.DIHEDRAL>
0

>  <SCORE.SYSTEM.SOLV>
0

>  <SCORE.SYSTEM.norm>
0

>  <SCORE.heavy>
12

>  <SCORE.norm>
-0.720275

>  <RMSD>
16.730

$$$$
ligand
 OpenBabel11021811513D
libRbt.so/2013.1/901 2013/11/27
 12 12  0  0  0  0  0  0  0  0999 V2000
    7.6596    0.8326  -17.0463 O   0  0  0  0  0  0  0  0  0  0  0  0
   10.5013   -3.3525  -16.0928 O   0  0  0  0  0  0  0  0  0  0  0  0
    7.8816   -0.4716  -16.6603 C   0  0  0  0  0  0  0  0  0  0  0  0
   12.2660   -2.7292  -14.5295 O   0  0  0  0  0  0  0  0  0  0  0  0
    9.2231   -0.7000  -16.0952 C   0  0  0  0  0  0  0  0  0  0  0  0
   12.7914   -4.1217  -16.4508 O   0  5  0  0  0  0  0  0  0  0  0  0
   10.2797   -0.1662  -16.9649 N   0  3  0  0  0  0  0  0  0  0  0  0
   10.0029    1.2078  -17.2969 C   0  0  0  0  0  0  0  0  0  0  0  0
    8.6256    1.3661  -17.8524 C   0  0  0  0  0  0  0  0  0  0  0  0
   11.5518   -0.2974  -16.3207 C   0  0  0  0  0  0  0  0  0  0  0  0
   12.3117   -1.5093  -16.9169 C   0  0  0  0  0  0  0  0  0  0  0  0
   11.9477   -2.9998  -15.9670 S   0  0  1  0  0  0  0  0  0  0  0  0
  1  3  1  0  0  0  0
  1  9  1  0  0  0  0
  2 12  1  0  0  0  0
  3  5  1  0  0  0  0
  4 12  2  0  0  0  0
  5  7  1  0  0  0  0
  6 12  2  0  0  0  0
  7  8  1  0  0  0  0
  7 10  1  0  0  0  0
  8  9  1  0  0  0  0
 10 11  1  0  0  0  0
 12 11  1  6  0  0  0
M  CHG  2   6  -1   7   1
M  END
>  <CHROM.1>
101.89948975,-91.17436775,64.66567146,10.57766886,-1.30828564,-16.44534090
2.28850031,0.04184859,-0.35100896

>  <Name>
ligand

>  <RI>
0

>  <Rbt.Current_Directory>
/home/itssahil/PROJECTS/Mol_Feturizer/New_Systems/rnas/4P95

>  <Rbt.Executable>
rbdock ($Id: //depot/dev/client3/rdock/2013.1/src/exe/rbdock.cxx#4 $)

>  <Rbt.Library>
libRbt.so (2013.1, Build901 2013/11/27)

>  <Rbt.Parameter_File>
/export/apps/rDock/src/rDock_2013.1_src/data/scripts/dock_solv.prm

>  <Rbt.Receptor>
prm/blind_docking_100.prm

>  <SCORE>
-8.64992

>  <SCORE.INTER>
-7.68823

>  <SCORE.INTER.CONST>
1

>  <SCORE.INTER.POLAR>
0

>  <SCORE.INTER.ROT>
3

>  <SCORE.INTER.SOLV>
14.165

>  <SCORE.INTER.VDW>
-15.4471

>  <SCORE.INTER.norm>
-0.640686

>  <SCORE.INTRA>
-0.961692

>  <SCORE.INTRA.DIHEDRAL>
4.6723

>  <SCORE.INTRA.DIHEDRAL.0>
0.283163

>  <SCORE.INTRA.POLAR>
0

>  <SCORE.INTRA.POLAR.0>
0

>  <SCORE.INTRA.REPUL>
0

>  <SCORE.INTRA.REPUL.0>
0

>  <SCORE.INTRA.SOLV>
-0.603238

>  <SCORE.INTRA.SOLV.lig_0>
-32.2894

>  <SCORE.INTRA.VDW>
-2.99622

>  <SCORE.INTRA.VDW.0>
2.0241

>  <SCORE.INTRA.norm>
-0.080141

>  <SCORE.RESTR>
0

>  <SCORE.RESTR.CAVITY>
0

>  <SCORE.RESTR.norm>
0

>  <SCORE.SYSTEM>
0

>  <SCORE.SYSTEM.CONST>
0

>  <SCORE.SYSTEM.DIHEDRAL>
0

>  <SCORE.SYSTEM.SOLV>
0

>  <SCORE.SYSTEM.norm>
0

>  <SCORE.heavy>
12

>  <SCORE.norm>
-0.720827

>  <RMSD>
16.734

$$$$
ligand
 OpenBabel11021811513D
libRbt.so/2013.1/901 2013/11/27
 12 12  0  0  0  0  0  0  0  0999 V2000
    3.5425   15.1029  -19.5719 O   0  0  0  0  0  0  0  0  0  0  0  0
    3.8146   15.7868  -24.2938 O   0  0  0  0  0  0  0  0  0  0  0  0
    2.6209   14.1692  -19.9939 C   0  0  0  0  0  0  0  0  0  0  0  0
    3.4238   14.7434  -26.4629 O   0  0  0  0  0  0  0  0  0  0  0  0
    3.1493   13.2301  -20.9987 C   0  0  0  0  0  0  0  0  0  0  0  0
    5.6402   14.6685  -25.4689 O   0  5  0  0  0  0  0  0  0  0  0  0
    3.8109   13.9318  -22.1068 N   0  3  0  0  0  0  0  0  0  0  0  0
    4.7847   14.8617  -21.5952 C   0  0  0  0  0  0  0  0  0  0  0  0
    4.1834   15.7729  -20.5759 C   0  0  0  0  0  0  0  0  0  0  0  0
    4.4161   12.9821  -22.9912 C   0  0  0  0  0  0  0  0  0  0  0  0
    3.7506   13.0774  -24.3875 C   0  0  0  0  0  0  0  0  0  0  0  0
    4.1845   14.6405  -25.1778 S   0  0  1  0  0  0  0  0  0  0  0  0
  1  3  1  0  0  0  0
  1  9  1  0  0  0  0
  2 12  1  0  0  0  0
  3  5  1  0  0  0  0
  4 12  2  0  0  0  0
  5  7  1  0  0  0  0
  6 12  2  0  0  0  0
  7  8  1  0  0  0  0
  7 10  1  0  0  0  0
  8  9  1  0  0  0  0
 10 11  1  0  0  0  0
 12 11  1  1  0  0  0
M  CHG  2   6  -1   7   1
M  END
>  <CHROM.1>
116.97520277,68.96697905,-55.50739557,3.97243078,14.46188432,-23.06931242
-2.02515426,-1.25153815,-1.99830907

>  <Name>
ligand

>  <RI>
0

>  <Rbt.Current_Directory>
/home/itssahil/PROJECTS/Mol_Feturizer/New_Systems/rnas/4P95

>  <Rbt.Executable>
rbdock ($Id: //depot/dev/client3/rdock/2013.1/src/exe/rbdock.cxx#4 $)

>  <Rbt.Library>
libRbt.so (2013.1, Build901 2013/11/27)

>  <Rbt.Parameter_File>
/export/apps/rDock/src/rDock_2013.1_src/data/scripts/dock_solv.prm

>  <Rbt.Receptor>
prm/blind_docking_60.prm

>  <SCORE>
-12.4794

>  <SCORE.INTER>
-10.9545

>  <SCORE.INTER.CONST>
1

>  <SCORE.INTER.POLAR>
0

>  <SCORE.INTER.ROT>
3

>  <SCORE.INTER.SOLV>
6.49001

>  <SCORE.INTER.VDW>
-15.0663

>  <SCORE.INTER.norm>
-0.912876

>  <SCORE.INTRA>
-1.52492

>  <SCORE.INTRA.DIHEDRAL>
2.47417

>  <SCORE.INTRA.DIHEDRAL.0>
0.283163

>  <SCORE.INTRA.POLAR>
0

>  <SCORE.INTRA.POLAR.0>
0

>  <SCORE.INTRA.REPUL>
0

>  <SCORE.INTRA.REPUL.0>
0

>  <SCORE.INTRA.SOLV>
1.12265

>  <SCORE.INTRA.SOLV.lig_0>
-32.2894

>  <SCORE.INTRA.VDW>
-3.32333

>  <SCORE.INTRA.VDW.0>
2.0241

>  <SCORE.INTRA.norm>
-0.127077

>  <SCORE.RESTR>
0

>  <SCORE.RESTR.CAVITY>
0

>  <SCORE.RESTR.norm>
0

>  <SCORE.SYSTEM>
0

>  <SCORE.SYSTEM.CONST>
0

>  <SCORE.SYSTEM.DIHEDRAL>
0

>  <SCORE.SYSTEM.SOLV>
0

>  <SCORE.SYSTEM.norm>
0

>  <SCORE.heavy>
12

>  <SCORE.norm>
-1.03995

>  <RMSD>
16.775

$$$$
ligand
 OpenBabel11021811513D
libRbt.so/2013.1/901 2013/11/27
 12 12  0  0  0  0  0  0  0  0999 V2000
    3.3272   13.5352  -19.8725 O   0  0  0  0  0  0  0  0  0  0  0  0
    4.7963   16.7860  -26.8622 O   0  0  0  0  0  0  0  0  0  0  0  0
    3.1470   12.5599  -20.8294 C   0  0  0  0  0  0  0  0  0  0  0  0
    5.4333   14.4360  -26.7265 O   0  0  0  0  0  0  0  0  0  0  0  0
    3.9612   12.7633  -22.0404 C   0  0  0  0  0  0  0  0  0  0  0  0
    6.6643   16.0964  -25.4481 O   0  5  0  0  0  0  0  0  0  0  0  0
    3.8207   14.1264  -22.5699 N   0  3  0  0  0  0  0  0  0  0  0  0
    4.0586   15.0913  -21.5273 C   0  0  0  0  0  0  0  0  0  0  0  0
    3.2096   14.8178  -20.3293 C   0  0  0  0  0  0  0  0  0  0  0  0
    4.7209   14.3167  -23.6671 C   0  0  0  0  0  0  0  0  0  0  0  0
    4.1939   15.4544  -24.5780 C   0  0  0  0  0  0  0  0  0  0  0  0
    5.3232   15.7175  -25.9606 S   0  0  1  0  0  0  0  0  0  0  0  0
  1  3  1  0  0  0  0
  1  9  1  0  0  0  0
  2 12  1  0  0  0  0
  3  5  1  0  0  0  0
  4 12  2  0  0  0  0
  5  7  1  0  0  0  0
  6 12  2  0  0  0  0
  7  8  1  0  0  0  0
  7 10  1  0  0  0  0
  8  9  1  0  0  0  0
 10 11  1  0  0  0  0
 12 11  1  1  0  0  0
M  CHG  2   6  -1   7   1
M  END
>  <CHROM.1>
156.34824367,179.56137173,178.31335210,4.50201743,14.76489559,-23.66366837
3.00559196,-1.24181749,-2.90901621

>  <Name>
ligand

>  <RI>
0

>  <Rbt.Current_Directory>
/home/itssahil/PROJECTS/Mol_Feturizer/New_Systems/rnas/4P95

>  <Rbt.Executable>
rbdock ($Id: //depot/dev/client3/rdock/2013.1/src/exe/rbdock.cxx#4 $)

>  <Rbt.Library>
libRbt.so (2013.1, Build901 2013/11/27)

>  <Rbt.Parameter_File>
/export/apps/rDock/src/rDock_2013.1_src/data/scripts/dock_solv.prm

>  <Rbt.Receptor>
prm/blind_docking_60.prm

>  <SCORE>
-10.7075

>  <SCORE.INTER>
-8.89727

>  <SCORE.INTER.CONST>
1

>  <SCORE.INTER.POLAR>
0

>  <SCORE.INTER.ROT>
3

>  <SCORE.INTER.SOLV>
5.5169

>  <SCORE.INTER.VDW>
-13.3705

>  <SCORE.INTER.norm>
-0.741439

>  <SCORE.INTRA>
-1.81021

>  <SCORE.INTRA.DIHEDRAL>
0.464501

>  <SCORE.INTRA.DIHEDRAL.0>
0.283163

>  <SCORE.INTRA.POLAR>
0

>  <SCORE.INTRA.POLAR.0>
0

>  <SCORE.INTRA.REPUL>
0

>  <SCORE.INTRA.REPUL.0>
0

>  <SCORE.INTRA.SOLV>
0.151685

>  <SCORE.INTRA.SOLV.lig_0>
-32.2894

>  <SCORE.INTRA.VDW>
-2.1183

>  <SCORE.INTRA.VDW.0>
2.0241

>  <SCORE.INTRA.norm>
-0.150851

>  <SCORE.RESTR>
0

>  <SCORE.RESTR.CAVITY>
0

>  <SCORE.RESTR.norm>
0

>  <SCORE.SYSTEM>
0

>  <SCORE.SYSTEM.CONST>
0

>  <SCORE.SYSTEM.DIHEDRAL>
0

>  <SCORE.SYSTEM.SOLV>
0

>  <SCORE.SYSTEM.norm>
0

>  <SCORE.heavy>
12

>  <SCORE.norm>
-0.89229

>  <RMSD>
16.778

$$$$
ligand
 OpenBabel11021811513D
libRbt.so/2013.1/901 2013/11/27
 12 12  0  0  0  0  0  0  0  0999 V2000
    7.6762    0.8046  -17.0586 O   0  0  0  0  0  0  0  0  0  0  0  0
   10.5032   -3.4156  -16.0225 O   0  0  0  0  0  0  0  0  0  0  0  0
    7.8934   -0.4761  -16.5982 C   0  0  0  0  0  0  0  0  0  0  0  0
   12.1419   -2.6164  -14.4031 O   0  0  0  0  0  0  0  0  0  0  0  0
    9.2430   -0.6837  -16.0447 C   0  0  0  0  0  0  0  0  0  0  0  0
   12.8344   -4.1275  -16.1761 O   0  5  0  0  0  0  0  0  0  0  0  0
   10.2881   -0.2144  -16.9643 N   0  3  0  0  0  0  0  0  0  0  0  0
   10.0177    1.1398  -17.3742 C   0  0  0  0  0  0  0  0  0  0  0  0
    8.6317    1.2783  -17.9131 C   0  0  0  0  0  0  0  0  0  0  0  0
   11.5707   -0.3194  -16.3366 C   0  0  0  0  0  0  0  0  0  0  0  0
   12.3064   -1.5753  -16.8686 C   0  0  0  0  0  0  0  0  0  0  0  0
   11.9269   -3.0035  -15.8330 S   0  0  1  0  0  0  0  0  0  0  0  0
  1  3  1  0  0  0  0
  1  9  1  0  0  0  0
  2 12  1  0  0  0  0
  3  5  1  0  0  0  0
  4 12  2  0  0  0  0
  5  7  1  0  0  0  0
  6 12  2  0  0  0  0
  7  8  1  0  0  0  0
  7 10  1  0  0  0  0
  8  9  1  0  0  0  0
 10 11  1  0  0  0  0
 12 11  1  6  0  0  0
M  CHG  2   6  -1   7   1
M  END
>  <CHROM.1>
101.73196987,-90.39111649,69.77540959,10.57444732,-1.32782635,-16.38486474
2.28244426,0.06150431,-0.40841744

>  <Name>
ligand

>  <RI>
0

>  <Rbt.Current_Directory>
/home/itssahil/PROJECTS/Mol_Feturizer/New_Systems/rnas/4P95

>  <Rbt.Executable>
rbdock ($Id: //depot/dev/client3/rdock/2013.1/src/exe/rbdock.cxx#4 $)

>  <Rbt.Library>
libRbt.so (2013.1, Build901 2013/11/27)

>  <Rbt.Parameter_File>
/export/apps/rDock/src/rDock_2013.1_src/data/scripts/dock_solv.prm

>  <Rbt.Receptor>
prm/blind_docking_100.prm

>  <SCORE>
-8.54065

>  <SCORE.INTER>
-7.57593

>  <SCORE.INTER.CONST>
1

>  <SCORE.INTER.POLAR>
0

>  <SCORE.INTER.ROT>
3

>  <SCORE.INTER.SOLV>
13.7906

>  <SCORE.INTER.VDW>
-15.2475

>  <SCORE.INTER.norm>
-0.631327

>  <SCORE.INTRA>
-0.964726

>  <SCORE.INTRA.DIHEDRAL>
4.7441

>  <SCORE.INTRA.DIHEDRAL.0>
0.283163

>  <SCORE.INTRA.POLAR>
0

>  <SCORE.INTRA.POLAR.0>
0

>  <SCORE.INTRA.REPUL>
0

>  <SCORE.INTRA.REPUL.0>
0

>  <SCORE.INTRA.SOLV>
-0.541038

>  <SCORE.INTRA.SOLV.lig_0>
-32.2894

>  <SCORE.INTRA.VDW>
-3.06626

>  <SCORE.INTRA.VDW.0>
2.0241

>  <SCORE.INTRA.norm>
-0.0803938

>  <SCORE.RESTR>
0

>  <SCORE.RESTR.CAVITY>
0

>  <SCORE.RESTR.norm>
0

>  <SCORE.SYSTEM>
0

>  <SCORE.SYSTEM.CONST>
0

>  <SCORE.SYSTEM.DIHEDRAL>
0

>  <SCORE.SYSTEM.SOLV>
0

>  <SCORE.SYSTEM.norm>
0

>  <SCORE.heavy>
12

>  <SCORE.norm>
-0.711721

>  <RMSD>
16.790

$$$$
ligand
 OpenBabel11021811513D
libRbt.so/2013.1/901 2013/11/27
 12 12  0  0  0  0  0  0  0  0999 V2000
    3.6307   15.0961  -19.7721 O   0  0  0  0  0  0  0  0  0  0  0  0
    5.9306   14.7986  -25.2497 O   0  0  0  0  0  0  0  0  0  0  0  0
    2.6814   14.1678  -20.1416 C   0  0  0  0  0  0  0  0  0  0  0  0
    3.9651   16.0308  -24.4982 O   0  0  0  0  0  0  0  0  0  0  0  0
    3.1333   13.2518  -21.2035 C   0  0  0  0  0  0  0  0  0  0  0  0
    4.0228   15.1031  -26.7437 O   0  5  0  0  0  0  0  0  0  0  0  0
    3.7063   13.9789  -22.3441 N   0  3  0  0  0  0  0  0  0  0  0  0
    4.7144   14.9016  -21.8893 C   0  0  0  0  0  0  0  0  0  0  0  0
    4.1911   15.7892  -20.8080 C   0  0  0  0  0  0  0  0  0  0  0  0
    4.2439   13.0500  -23.2920 C   0  0  0  0  0  0  0  0  0  0  0  0
    3.6903   13.3715  -24.7034 C   0  0  0  0  0  0  0  0  0  0  0  0
    4.4415   14.8854  -25.3359 S   0  0  1  0  0  0  0  0  0  0  0  0
  1  3  1  0  0  0  0
  1  9  1  0  0  0  0
  2 12  1  0  0  0  0
  3  5  1  0  0  0  0
  4 12  2  0  0  0  0
  5  7  1  0  0  0  0
  6 12  2  0  0  0  0
  7  8  1  0  0  0  0
  7 10  1  0  0  0  0
  8  9  1  0  0  0  0
 10 11  1  0  0  0  0
 12 11  1  1  0  0  0
M  CHG  2   6  -1   7   1
M  END
>  <CHROM.1>
128.92195536,72.16556279,52.20302486,4.08213701,14.59726951,-23.25892541
-2.10472299,-1.18207452,-2.00604496

>  <Name>
ligand

>  <RI>
0

>  <Rbt.Current_Directory>
/home/itssahil/PROJECTS/Mol_Feturizer/New_Systems/rnas/4P95

>  <Rbt.Executable>
rbdock ($Id: //depot/dev/client3/rdock/2013.1/src/exe/rbdock.cxx#4 $)

>  <Rbt.Library>
libRbt.so (2013.1, Build901 2013/11/27)

>  <Rbt.Parameter_File>
/export/apps/rDock/src/rDock_2013.1_src/data/scripts/dock_solv.prm

>  <Rbt.Receptor>
prm/blind_docking_40.prm

>  <SCORE>
-11.5414

>  <SCORE.INTER>
-9.60796

>  <SCORE.INTER.CONST>
1

>  <SCORE.INTER.POLAR>
0

>  <SCORE.INTER.ROT>
3

>  <SCORE.INTER.SOLV>
8.60206

>  <SCORE.INTER.VDW>
-14.8727

>  <SCORE.INTER.norm>
-0.800663

>  <SCORE.INTRA>
-1.93342

>  <SCORE.INTRA.DIHEDRAL>
2.61845

>  <SCORE.INTRA.DIHEDRAL.0>
0.283163

>  <SCORE.INTRA.POLAR>
0

>  <SCORE.INTRA.POLAR.0>
0

>  <SCORE.INTRA.REPUL>
0

>  <SCORE.INTRA.REPUL.0>
0

>  <SCORE.INTRA.SOLV>
0.0104529

>  <SCORE.INTRA.SOLV.lig_0>
-32.2894

>  <SCORE.INTRA.VDW>
-3.24787

>  <SCORE.INTRA.VDW.0>
2.0241

>  <SCORE.INTRA.norm>
-0.161118

>  <SCORE.RESTR>
0

>  <SCORE.RESTR.CAVITY>
0

>  <SCORE.RESTR.norm>
0

>  <SCORE.SYSTEM>
0

>  <SCORE.SYSTEM.CONST>
0

>  <SCORE.SYSTEM.DIHEDRAL>
0

>  <SCORE.SYSTEM.SOLV>
0

>  <SCORE.SYSTEM.norm>
0

>  <SCORE.heavy>
12

>  <SCORE.norm>
-0.961781

>  <RMSD>
16.790

$$$$
ligand
 OpenBabel11021811513D
libRbt.so/2013.1/901 2013/11/27
 12 12  0  0  0  0  0  0  0  0999 V2000
    7.6571    0.7927  -17.0980 O   0  0  0  0  0  0  0  0  0  0  0  0
   10.3812   -3.3491  -16.0727 O   0  0  0  0  0  0  0  0  0  0  0  0
    7.8885   -0.4709  -16.5989 C   0  0  0  0  0  0  0  0  0  0  0  0
   11.7185   -2.4677  -14.2338 O   0  0  0  0  0  0  0  0  0  0  0  0
    9.2281   -0.6364  -16.0082 C   0  0  0  0  0  0  0  0  0  0  0  0
   12.7070   -4.0422  -15.7991 O   0  5  0  0  0  0  0  0  0  0  0  0
   10.2856   -0.1697  -16.9147 N   0  3  0  0  0  0  0  0  0  0  0  0
    9.9985    1.1675  -17.3664 C   0  0  0  0  0  0  0  0  0  0  0  0
    8.6235    1.2637  -17.9417 C   0  0  0  0  0  0  0  0  0  0  0  0
   11.5545   -0.2322  -16.2541 C   0  0  0  0  0  0  0  0  0  0  0  0
   12.2956   -1.5259  -16.6771 C   0  0  0  0  0  0  0  0  0  0  0  0
   11.7506   -2.9148  -15.6621 S   0  0  1  0  0  0  0  0  0  0  0  0
  1  3  1  0  0  0  0
  1  9  1  0  0  0  0
  2 12  1  0  0  0  0
  3  5  1  0  0  0  0
  4 12  2  0  0  0  0
  5  7  1  0  0  0  0
  6 12  2  0  0  0  0
  7  8  1  0  0  0  0
  7 10  1  0  0  0  0
  8  9  1  0  0  0  0
 10 11  1  0  0  0  0
 12 11  1  6  0  0  0
M  CHG  2   6  -1   7   1
M  END
>  <CHROM.1>
98.69861053,-84.18237098,74.20240125,10.48281529,-1.27157598,-16.29457701
2.25432712,0.02173174,-0.42630347

>  <Name>
ligand

>  <RI>
0

>  <Rbt.Current_Directory>
/home/itssahil/PROJECTS/Mol_Feturizer/New_Systems/rnas/4P95

>  <Rbt.Executable>
rbdock ($Id: //depot/dev/client3/rdock/2013.1/src/exe/rbdock.cxx#4 $)

>  <Rbt.Library>
libRbt.so (2013.1, Build901 2013/11/27)

>  <Rbt.Parameter_File>
/export/apps/rDock/src/rDock_2013.1_src/data/scripts/dock_solv.prm

>  <Rbt.Receptor>
prm/blind_docking_60.prm

>  <SCORE>
-8.59568

>  <SCORE.INTER>
-7.34012

>  <SCORE.INTER.CONST>
1

>  <SCORE.INTER.POLAR>
0

>  <SCORE.INTER.ROT>
3

>  <SCORE.INTER.SOLV>
13.7187

>  <SCORE.INTER.VDW>
-15.0663

>  <SCORE.INTER.norm>
-0.611677

>  <SCORE.INTRA>
-1.25555

>  <SCORE.INTRA.DIHEDRAL>
3.95856

>  <SCORE.INTRA.DIHEDRAL.0>
0.283163

>  <SCORE.INTRA.POLAR>
0

>  <SCORE.INTRA.POLAR.0>
0

>  <SCORE.INTRA.REPUL>
0

>  <SCORE.INTRA.REPUL.0>
0

>  <SCORE.INTRA.SOLV>
-0.445782

>  <SCORE.INTRA.SOLV.lig_0>
-32.2894

>  <SCORE.INTRA.VDW>
-3.01194

>  <SCORE.INTRA.VDW.0>
2.0241

>  <SCORE.INTRA.norm>
-0.10463

>  <SCORE.RESTR>
0

>  <SCORE.RESTR.CAVITY>
0

>  <SCORE.RESTR.norm>
0

>  <SCORE.SYSTEM>
0

>  <SCORE.SYSTEM.CONST>
0

>  <SCORE.SYSTEM.DIHEDRAL>
0

>  <SCORE.SYSTEM.SOLV>
0

>  <SCORE.SYSTEM.norm>
0

>  <SCORE.heavy>
12

>  <SCORE.norm>
-0.716307

>  <RMSD>
16.841

$$$$
ligand
 OpenBabel11021811513D
libRbt.so/2013.1/901 2013/11/27
 12 12  0  0  0  0  0  0  0  0999 V2000
    8.0647    1.5376  -17.2774 O   0  0  0  0  0  0  0  0  0  0  0  0
   11.6269   -4.3636  -15.8777 O   0  0  0  0  0  0  0  0  0  0  0  0
    7.6648    0.2203  -17.2129 C   0  0  0  0  0  0  0  0  0  0  0  0
   12.9712   -2.8880  -14.4769 O   0  0  0  0  0  0  0  0  0  0  0  0
    8.5629   -0.6310  -16.4131 C   0  0  0  0  0  0  0  0  0  0  0  0
   13.8848   -3.7344  -16.5638 O   0  5  0  0  0  0  0  0  0  0  0  0
    9.9669   -0.4716  -16.8147 N   0  3  0  0  0  0  0  0  0  0  0  0
   10.3257    0.9234  -16.8240 C   0  0  0  0  0  0  0  0  0  0  0  0
    9.3681    1.7257  -17.6427 C   0  0  0  0  0  0  0  0  0  0  0  0
   10.8124   -1.2181  -15.9326 C   0  0  0  0  0  0  0  0  0  0  0  0
   11.9963   -1.8170  -16.7334 C   0  0  0  0  0  0  0  0  0  0  0  0
   12.6469   -3.2718  -15.8870 S   0  0  1  0  0  0  0  0  0  0  0  0
  1  3  1  0  0  0  0
  1  9  1  0  0  0  0
  2 12  1  0  0  0  0
  3  5  1  0  0  0  0
  4 12  2  0  0  0  0
  5  7  1  0  0  0  0
  6 12  2  0  0  0  0
  7  8  1  0  0  0  0
  7 10  1  0  0  0  0
  8  9  1  0  0  0  0
 10 11  1  0  0  0  0
 12 11  1  6  0  0  0
M  CHG  2   6  -1   7   1
M  END
>  <CHROM.1>
143.87345721,-155.80021899,65.76458694,10.88219480,-1.40992782,-16.39990199
2.31140143,-0.00820388,-0.29261583

>  <Name>
ligand

>  <RI>
0

>  <Rbt.Current_Directory>
/home/itssahil/PROJECTS/Mol_Feturizer/New_Systems/rnas/4P95

>  <Rbt.Executable>
rbdock ($Id: //depot/dev/client3/rdock/2013.1/src/exe/rbdock.cxx#4 $)

>  <Rbt.Library>
libRbt.so (2013.1, Build901 2013/11/27)

>  <Rbt.Parameter_File>
/export/apps/rDock/src/rDock_2013.1_src/data/scripts/dock_solv.prm

>  <Rbt.Receptor>
prm/blind_docking_80.prm

>  <SCORE>
-8.16027

>  <SCORE.INTER>
-6.97075

>  <SCORE.INTER.CONST>
1

>  <SCORE.INTER.POLAR>
0

>  <SCORE.INTER.ROT>
3

>  <SCORE.INTER.SOLV>
10.622

>  <SCORE.INTER.VDW>
-13.7878

>  <SCORE.INTER.norm>
-0.580896

>  <SCORE.INTRA>
-1.18951

>  <SCORE.INTRA.DIHEDRAL>
3.26467

>  <SCORE.INTRA.DIHEDRAL.0>
0.283163

>  <SCORE.INTRA.POLAR>
0

>  <SCORE.INTRA.POLAR.0>
0

>  <SCORE.INTRA.REPUL>
0

>  <SCORE.INTRA.REPUL.0>
0

>  <SCORE.INTRA.SOLV>
-0.690449

>  <SCORE.INTRA.SOLV.lig_0>
-32.2894

>  <SCORE.INTRA.VDW>
-2.47662

>  <SCORE.INTRA.VDW.0>
2.0241

>  <SCORE.INTRA.norm>
-0.0991261

>  <SCORE.RESTR>
0

>  <SCORE.RESTR.CAVITY>
0

>  <SCORE.RESTR.norm>
0

>  <SCORE.SYSTEM>
0

>  <SCORE.SYSTEM.CONST>
0

>  <SCORE.SYSTEM.DIHEDRAL>
0

>  <SCORE.SYSTEM.SOLV>
0

>  <SCORE.SYSTEM.norm>
0

>  <SCORE.heavy>
12

>  <SCORE.norm>
-0.680022

>  <RMSD>
16.864

$$$$
ligand
 OpenBabel11021811513D
libRbt.so/2013.1/901 2013/11/27
 12 12  0  0  0  0  0  0  0  0999 V2000
    3.8572   15.0558  -19.7982 O   0  0  0  0  0  0  0  0  0  0  0  0
    6.1789   14.5975  -26.4392 O   0  0  0  0  0  0  0  0  0  0  0  0
    2.9839   14.2272  -20.4690 C   0  0  0  0  0  0  0  0  0  0  0  0
    4.9713   16.5006  -27.3699 O   0  0  0  0  0  0  0  0  0  0  0  0
    3.4369   13.8638  -21.8231 C   0  0  0  0  0  0  0  0  0  0  0  0
    3.8229   14.3834  -27.0458 O   0  5  0  0  0  0  0  0  0  0  0  0
    3.8279   15.0456  -22.6032 N   0  3  0  0  0  0  0  0  0  0  0  0
    4.7675   15.8439  -21.8585 C   0  0  0  0  0  0  0  0  0  0  0  0
    4.2484   16.1643  -20.4952 C   0  0  0  0  0  0  0  0  0  0  0  0
    4.3771   14.6377  -23.8611 C   0  0  0  0  0  0  0  0  0  0  0  0
    4.3718   15.8374  -24.8421 C   0  0  0  0  0  0  0  0  0  0  0  0
    4.8577   15.2932  -26.4925 S   0  0  1  0  0  0  0  0  0  0  0  0
  1  3  1  0  0  0  0
  1  9  1  0  0  0  0
  2 12  1  0  0  0  0
  3  5  1  0  0  0  0
  4 12  2  0  0  0  0
  5  7  1  0  0  0  0
  6 12  2  0  0  0  0
  7  8  1  0  0  0  0
  7 10  1  0  0  0  0
  8  9  1  0  0  0  0
 10 11  1  0  0  0  0
 12 11  1  1  0  0  0
M  CHG  2   6  -1   7   1
M  END
>  <CHROM.1>
162.29684342,-172.65420590,-54.99838592,4.37572618,15.13740301,-23.92478812
-1.92262636,-1.00606163,-1.82355248

>  <Name>
ligand

>  <RI>
0

>  <Rbt.Current_Directory>
/home/itssahil/PROJECTS/Mol_Feturizer/New_Systems/rnas/4P95

>  <Rbt.Executable>
rbdock ($Id: //depot/dev/client3/rdock/2013.1/src/exe/rbdock.cxx#4 $)

>  <Rbt.Library>
libRbt.so (2013.1, Build901 2013/11/27)

>  <Rbt.Parameter_File>
/export/apps/rDock/src/rDock_2013.1_src/data/scripts/dock_solv.prm

>  <Rbt.Receptor>
prm/blind_docking_100.prm

>  <SCORE>
-9.74384

>  <SCORE.INTER>
-8.04242

>  <SCORE.INTER.CONST>
1

>  <SCORE.INTER.POLAR>
0

>  <SCORE.INTER.ROT>
3

>  <SCORE.INTER.SOLV>
8.87173

>  <SCORE.INTER.VDW>
-13.9189

>  <SCORE.INTER.norm>
-0.670202

>  <SCORE.INTRA>
-1.70142

>  <SCORE.INTRA.DIHEDRAL>
0.42473

>  <SCORE.INTRA.DIHEDRAL.0>
0.283163

>  <SCORE.INTRA.POLAR>
0

>  <SCORE.INTRA.POLAR.0>
0

>  <SCORE.INTRA.REPUL>
0

>  <SCORE.INTRA.REPUL.0>
0

>  <SCORE.INTRA.SOLV>
-0.106338

>  <SCORE.INTRA.SOLV.lig_0>
-32.2894

>  <SCORE.INTRA.VDW>
-1.86061

>  <SCORE.INTRA.VDW.0>
2.0241

>  <SCORE.INTRA.norm>
-0.141785

>  <SCORE.RESTR>
0

>  <SCORE.RESTR.CAVITY>
0

>  <SCORE.RESTR.norm>
0

>  <SCORE.SYSTEM>
0

>  <SCORE.SYSTEM.CONST>
0

>  <SCORE.SYSTEM.DIHEDRAL>
0

>  <SCORE.SYSTEM.SOLV>
0

>  <SCORE.SYSTEM.norm>
0

>  <SCORE.heavy>
12

>  <SCORE.norm>
-0.811987

>  <RMSD>
16.982

$$$$
ligand
 OpenBabel11021811513D
libRbt.so/2013.1/901 2013/11/27
 12 12  0  0  0  0  0  0  0  0999 V2000
    8.2407    1.3735  -17.6800 O   0  0  0  0  0  0  0  0  0  0  0  0
   13.4832   -2.5209  -17.1709 O   0  0  0  0  0  0  0  0  0  0  0  0
    9.5720    1.6343  -17.4374 C   0  0  0  0  0  0  0  0  0  0  0  0
   12.4658   -4.0336  -15.5513 O   0  0  0  0  0  0  0  0  0  0  0  0
   10.3818    0.4222  -17.2230 C   0  0  0  0  0  0  0  0  0  0  0  0
   14.2407   -2.5292  -14.8491 O   0  5  0  0  0  0  0  0  0  0  0  0
    9.7757   -0.4694  -16.2252 N   0  3  0  0  0  0  0  0  0  0  0  0
    8.3992   -0.7284  -16.5612 C   0  0  0  0  0  0  0  0  0  0  0  0
    7.6434    0.5420  -16.7748 C   0  0  0  0  0  0  0  0  0  0  0  0
   10.5261   -1.6860  -16.1410 C   0  0  0  0  0  0  0  0  0  0  0  0
   11.8188   -1.4416  -15.3219 C   0  0  0  0  0  0  0  0  0  0  0  0
   13.0655   -2.6758  -15.7447 S   0  0  1  0  0  0  0  0  0  0  0  0
  1  3  1  0  0  0  0
  1  9  1  0  0  0  0
  2 12  1  0  0  0  0
  3  5  1  0  0  0  0
  4 12  2  0  0  0  0
  5  7  1  0  0  0  0
  6 12  2  0  0  0  0
  7  8  1  0  0  0  0
  7 10  1  0  0  0  0
  8  9  1  0  0  0  0
 10 11  1  0  0  0  0
 12 11  1  1  0  0  0
M  CHG  2   6  -1   7   1
M  END
>  <CHROM.1>
77.34393704,-156.96635669,64.85780366,11.06450103,-1.20147686,-16.32700476
-2.44776568,-0.06960080,2.67584794

>  <Name>
ligand

>  <RI>
0

>  <Rbt.Current_Directory>
/home/itssahil/PROJECTS/Mol_Feturizer/New_Systems/rnas/4P95

>  <Rbt.Executable>
rbdock ($Id: //depot/dev/client3/rdock/2013.1/src/exe/rbdock.cxx#4 $)

>  <Rbt.Library>
libRbt.so (2013.1, Build901 2013/11/27)

>  <Rbt.Parameter_File>
/export/apps/rDock/src/rDock_2013.1_src/data/scripts/dock_solv.prm

>  <Rbt.Receptor>
prm/blind_docking_40.prm

>  <SCORE>
-7.52183

>  <SCORE.INTER>
-6.22961

>  <SCORE.INTER.CONST>
1

>  <SCORE.INTER.POLAR>
0

>  <SCORE.INTER.ROT>
3

>  <SCORE.INTER.SOLV>
8.59191

>  <SCORE.INTER.VDW>
-12.617

>  <SCORE.INTER.norm>
-0.519134

>  <SCORE.INTRA>
-1.29222

>  <SCORE.INTRA.DIHEDRAL>
2.08799

>  <SCORE.INTRA.DIHEDRAL.0>
0.283163

>  <SCORE.INTRA.POLAR>
0

>  <SCORE.INTRA.POLAR.0>
0

>  <SCORE.INTRA.REPUL>
0

>  <SCORE.INTRA.REPUL.0>
0

>  <SCORE.INTRA.SOLV>
-0.712167

>  <SCORE.INTRA.SOLV.lig_0>
-32.2894

>  <SCORE.INTRA.VDW>
-1.98014

>  <SCORE.INTRA.VDW.0>
2.0241

>  <SCORE.INTRA.norm>
-0.107685

>  <SCORE.RESTR>
0

>  <SCORE.RESTR.CAVITY>
0

>  <SCORE.RESTR.norm>
0

>  <SCORE.SYSTEM>
0

>  <SCORE.SYSTEM.CONST>
0

>  <SCORE.SYSTEM.DIHEDRAL>
0

>  <SCORE.SYSTEM.SOLV>
0

>  <SCORE.SYSTEM.norm>
0

>  <SCORE.heavy>
12

>  <SCORE.norm>
-0.626819

>  <RMSD>
16.993

$$$$
ligand
 OpenBabel11021811513D
libRbt.so/2013.1/901 2013/11/27
 12 12  0  0  0  0  0  0  0  0999 V2000
    8.1693   -6.3507  -20.1723 O   0  0  0  0  0  0  0  0  0  0  0  0
    5.5099  -11.5866  -16.0122 O   0  0  0  0  0  0  0  0  0  0  0  0
    6.8258   -6.5348  -20.4180 C   0  0  0  0  0  0  0  0  0  0  0  0
    4.9722  -13.1682  -17.7887 O   0  0  0  0  0  0  0  0  0  0  0  0
    6.1541   -7.3857  -19.4201 C   0  0  0  0  0  0  0  0  0  0  0  0
    3.6347  -11.1573  -17.5170 O   0  5  0  0  0  0  0  0  0  0  0  0
    6.8796   -8.6437  -19.1988 N   0  3  0  0  0  0  0  0  0  0  0  0
    8.2651   -8.3744  -18.9113 C   0  0  0  0  0  0  0  0  0  0  0  0
    8.8771   -7.4995  -19.9557 C   0  0  0  0  0  0  0  0  0  0  0  0
    6.2635   -9.3795  -18.1362 C   0  0  0  0  0  0  0  0  0  0  0  0
    6.1053  -10.8627  -18.5569 C   0  0  0  0  0  0  0  0  0  0  0  0
    5.0048  -11.7198  -17.4121 S   0  0  1  0  0  0  0  0  0  0  0  0
  1  3  1  0  0  0  0
  1  9  1  0  0  0  0
  2 12  1  0  0  0  0
  3  5  1  0  0  0  0
  4 12  2  0  0  0  0
  5  7  1  0  0  0  0
  6 12  2  0  0  0  0
  7  8  1  0  0  0  0
  7 10  1  0  0  0  0
  8  9  1  0  0  0  0
 10 11  1  0  0  0  0
 12 11  1  6  0  0  0
M  CHG  2   6  -1   7   1
M  END
>  <CHROM.1>
133.91021764,-167.01797369,-55.93206016,6.22674388,-9.65290811,-18.48171015
1.08857242,0.02096359,-0.48213597

>  <Name>
ligand

>  <RI>
0

>  <Rbt.Current_Directory>
/home/itssahil/PROJECTS/Mol_Feturizer/New_Systems/rnas/4P95

>  <Rbt.Executable>
rbdock ($Id: //depot/dev/client3/rdock/2013.1/src/exe/rbdock.cxx#4 $)

>  <Rbt.Library>
libRbt.so (2013.1, Build901 2013/11/27)

>  <Rbt.Parameter_File>
/export/apps/rDock/src/rDock_2013.1_src/data/scripts/dock_solv.prm

>  <Rbt.Receptor>
prm/blind_docking_80.prm

>  <SCORE>
-8.57973

>  <SCORE.INTER>
-7.11764

>  <SCORE.INTER.CONST>
1

>  <SCORE.INTER.POLAR>
0

>  <SCORE.INTER.ROT>
3

>  <SCORE.INTER.SOLV>
6.18943

>  <SCORE.INTER.VDW>
-12.4082

>  <SCORE.INTER.norm>
-0.593137

>  <SCORE.INTRA>
-1.46209

>  <SCORE.INTRA.DIHEDRAL>
2.43253

>  <SCORE.INTRA.DIHEDRAL.0>
0.283163

>  <SCORE.INTRA.POLAR>
0

>  <SCORE.INTRA.POLAR.0>
0

>  <SCORE.INTRA.REPUL>
0

>  <SCORE.INTRA.REPUL.0>
0

>  <SCORE.INTRA.SOLV>
-0.0502495

>  <SCORE.INTRA.SOLV.lig_0>
-32.2894

>  <SCORE.INTRA.VDW>
-2.65323

>  <SCORE.INTRA.VDW.0>
2.0241

>  <SCORE.INTRA.norm>
-0.121841

>  <SCORE.RESTR>
0

>  <SCORE.RESTR.CAVITY>
0

>  <SCORE.RESTR.norm>
0

>  <SCORE.SYSTEM>
0

>  <SCORE.SYSTEM.CONST>
0

>  <SCORE.SYSTEM.DIHEDRAL>
0

>  <SCORE.SYSTEM.SOLV>
0

>  <SCORE.SYSTEM.norm>
0

>  <SCORE.heavy>
12

>  <SCORE.norm>
-0.714977

>  <RMSD>
16.995

$$$$
ligand
 OpenBabel11021811513D
libRbt.so/2013.1/901 2013/11/27
 12 12  0  0  0  0  0  0  0  0999 V2000
    3.8815   14.1356  -20.1337 O   0  0  0  0  0  0  0  0  0  0  0  0
    6.3684   15.8913  -26.5156 O   0  0  0  0  0  0  0  0  0  0  0  0
    3.2464   13.3248  -21.0494 C   0  0  0  0  0  0  0  0  0  0  0  0
    4.7332   17.6188  -27.0528 O   0  0  0  0  0  0  0  0  0  0  0  0
    3.8025   13.4225  -22.4103 C   0  0  0  0  0  0  0  0  0  0  0  0
    4.1388   15.2752  -27.2993 O   0  5  0  0  0  0  0  0  0  0  0  0
    3.9165   14.8181  -22.8543 N   0  3  0  0  0  0  0  0  0  0  0  0
    4.6216   15.5970  -21.8690 C   0  0  0  0  0  0  0  0  0  0  0  0
    4.0115   15.4416  -20.5146 C   0  0  0  0  0  0  0  0  0  0  0  0
    4.5746   14.8716  -24.1249 C   0  0  0  0  0  0  0  0  0  0  0  0
    4.3074   16.2461  -24.7891 C   0  0  0  0  0  0  0  0  0  0  0  0
    4.9169   16.2449  -26.4876 S   0  0  1  0  0  0  0  0  0  0  0  0
  1  3  1  0  0  0  0
  1  9  1  0  0  0  0
  2 12  1  0  0  0  0
  3  5  1  0  0  0  0
  4 12  2  0  0  0  0
  5  7  1  0  0  0  0
  6 12  2  0  0  0  0
  7  8  1  0  0  0  0
  7 10  1  0  0  0  0
  8  9  1  0  0  0  0
 10 11  1  0  0  0  0
 12 11  1  1  0  0  0
M  CHG  2   6  -1   7   1
M  END
>  <CHROM.1>
162.46211914,-171.58158861,-56.31752781,4.44322588,15.35380691,-24.07247774
-2.15252387,-1.22790250,-1.78397502

>  <Name>
ligand

>  <RI>
0

>  <Rbt.Current_Directory>
/home/itssahil/PROJECTS/Mol_Feturizer/New_Systems/rnas/4P95

>  <Rbt.Executable>
rbdock ($Id: //depot/dev/client3/rdock/2013.1/src/exe/rbdock.cxx#4 $)

>  <Rbt.Library>
libRbt.so (2013.1, Build901 2013/11/27)

>  <Rbt.Parameter_File>
/export/apps/rDock/src/rDock_2013.1_src/data/scripts/dock_solv.prm

>  <Rbt.Receptor>
prm/blind_docking_80.prm

>  <SCORE>
-9.40088

>  <SCORE.INTER>
-7.73322

>  <SCORE.INTER.CONST>
1

>  <SCORE.INTER.POLAR>
0

>  <SCORE.INTER.ROT>
3

>  <SCORE.INTER.SOLV>
7.93423

>  <SCORE.INTER.VDW>
-13.4002

>  <SCORE.INTER.norm>
-0.644435

>  <SCORE.INTRA>
-1.66766

>  <SCORE.INTRA.DIHEDRAL>
0.446669

>  <SCORE.INTRA.DIHEDRAL.0>
0.283163

>  <SCORE.INTRA.POLAR>
0

>  <SCORE.INTRA.POLAR.0>
0

>  <SCORE.INTRA.REPUL>
0

>  <SCORE.INTRA.REPUL.0>
0

>  <SCORE.INTRA.SOLV>
-0.0762249

>  <SCORE.INTRA.SOLV.lig_0>
-32.2894

>  <SCORE.INTRA.VDW>
-1.85288

>  <SCORE.INTRA.VDW.0>
2.0241

>  <SCORE.INTRA.norm>
-0.138972

>  <SCORE.RESTR>
0

>  <SCORE.RESTR.CAVITY>
0

>  <SCORE.RESTR.norm>
0

>  <SCORE.SYSTEM>
0

>  <SCORE.SYSTEM.CONST>
0

>  <SCORE.SYSTEM.DIHEDRAL>
0

>  <SCORE.SYSTEM.SOLV>
0

>  <SCORE.SYSTEM.norm>
0

>  <SCORE.heavy>
12

>  <SCORE.norm>
-0.783407

>  <RMSD>
17.100

$$$$
ligand
 OpenBabel11021811513D
libRbt.so/2013.1/901 2013/11/27
 12 12  0  0  0  0  0  0  0  0999 V2000
   13.1694   16.0945  -25.8321 O   0  0  0  0  0  0  0  0  0  0  0  0
    9.4286   14.4401  -23.3167 O   0  0  0  0  0  0  0  0  0  0  0  0
   13.1976   14.9531  -25.0602 C   0  0  0  0  0  0  0  0  0  0  0  0
    8.7821   12.1098  -23.6308 O   0  0  0  0  0  0  0  0  0  0  0  0
   12.2512   13.9155  -25.5057 C   0  0  0  0  0  0  0  0  0  0  0  0
    7.0740   13.8369  -23.5546 O   0  5  0  0  0  0  0  0  0  0  0  0
   10.8976   14.4550  -25.6916 N   0  3  0  0  0  0  0  0  0  0  0  0
   10.9391   15.6208  -26.5365 C   0  0  0  0  0  0  0  0  0  0  0  0
   11.9251   16.6230  -26.0322 C   0  0  0  0  0  0  0  0  0  0  0  0
   10.0437   13.4461  -26.2425 C   0  0  0  0  0  0  0  0  0  0  0  0
    8.5846   13.6955  -25.7840 C   0  0  0  0  0  0  0  0  0  0  0  0
    8.4585   13.5261  -23.9919 S   0  0  1  0  0  0  0  0  0  0  0  0
  1  3  1  0  0  0  0
  1  9  1  0  0  0  0
  2 12  1  0  0  0  0
  3  5  1  0  0  0  0
  4 12  2  0  0  0  0
  5  7  1  0  0  0  0
  6 12  2  0  0  0  0
  7  8  1  0  0  0  0
  7 10  1  0  0  0  0
  8  9  1  0  0  0  0
 10 11  1  0  0  0  0
 12 11  1  6  0  0  0
M  CHG  2   6  -1   7   1
M  END
>  <CHROM.1>
151.05848298,-63.88770660,55.53771802,10.18424386,14.30144964,-24.95422682
-0.59565935,0.07983176,2.30464176

>  <Name>
ligand

>  <RI>
0

>  <Rbt.Current_Directory>
/home/itssahil/PROJECTS/Mol_Feturizer/New_Systems/rnas/4P95

>  <Rbt.Executable>
rbdock ($Id: //depot/dev/client3/rdock/2013.1/src/exe/rbdock.cxx#4 $)

>  <Rbt.Library>
libRbt.so (2013.1, Build901 2013/11/27)

>  <Rbt.Parameter_File>
/export/apps/rDock/src/rDock_2013.1_src/data/scripts/dock_solv.prm

>  <Rbt.Receptor>
prm/blind_docking_40.prm

>  <SCORE>
-5.15376

>  <SCORE.INTER>
-2.31575

>  <SCORE.INTER.CONST>
1

>  <SCORE.INTER.POLAR>
0

>  <SCORE.INTER.ROT>
3

>  <SCORE.INTER.SOLV>
4.06664

>  <SCORE.INTER.VDW>
-8.49938

>  <SCORE.INTER.norm>
-0.192979

>  <SCORE.INTRA>
-2.83801

>  <SCORE.INTRA.DIHEDRAL>
0.873579

>  <SCORE.INTRA.DIHEDRAL.0>
0.283163

>  <SCORE.INTRA.POLAR>
0

>  <SCORE.INTRA.POLAR.0>
0

>  <SCORE.INTRA.REPUL>
0

>  <SCORE.INTRA.REPUL.0>
0

>  <SCORE.INTRA.SOLV>
-0.468499

>  <SCORE.INTRA.SOLV.lig_0>
-32.2894

>  <SCORE.INTRA.VDW>
-3.04055

>  <SCORE.INTRA.VDW.0>
2.0241

>  <SCORE.INTRA.norm>
-0.236501

>  <SCORE.RESTR>
0

>  <SCORE.RESTR.CAVITY>
0

>  <SCORE.RESTR.norm>
0

>  <SCORE.SYSTEM>
0

>  <SCORE.SYSTEM.CONST>
0

>  <SCORE.SYSTEM.DIHEDRAL>
0

>  <SCORE.SYSTEM.SOLV>
0

>  <SCORE.SYSTEM.norm>
0

>  <SCORE.heavy>
12

>  <SCORE.norm>
-0.42948

>  <RMSD>
17.221

$$$$
ligand
 OpenBabel11021811513D
libRbt.so/2013.1/901 2013/11/27
 12 12  0  0  0  0  0  0  0  0999 V2000
    8.2413    1.3470  -17.6878 O   0  0  0  0  0  0  0  0  0  0  0  0
   13.7468   -2.1618  -16.3944 O   0  0  0  0  0  0  0  0  0  0  0  0
    9.5629    1.6297  -17.4182 C   0  0  0  0  0  0  0  0  0  0  0  0
   12.4619   -4.0154  -15.4673 O   0  0  0  0  0  0  0  0  0  0  0  0
   10.3880    0.4310  -17.1871 C   0  0  0  0  0  0  0  0  0  0  0  0
   13.8339   -2.6453  -14.0021 O   0  5  0  0  0  0  0  0  0  0  0  0
    9.7765   -0.4706  -16.2017 N   0  3  0  0  0  0  0  0  0  0  0  0
    8.4116   -0.7522  -16.5656 C   0  0  0  0  0  0  0  0  0  0  0  0
    7.6394    0.5056  -16.7948 C   0  0  0  0  0  0  0  0  0  0  0  0
   10.5451   -1.6747  -16.1020 C   0  0  0  0  0  0  0  0  0  0  0  0
   11.5488   -1.5528  -14.9275 C   0  0  0  0  0  0  0  0  0  0  0  0
   12.9684   -2.6308  -15.2084 S   0  0  1  0  0  0  0  0  0  0  0  0
  1  3  1  0  0  0  0
  1  9  1  0  0  0  0
  2 12  1  0  0  0  0
  3  5  1  0  0  0  0
  4 12  2  0  0  0  0
  5  7  1  0  0  0  0
  6 12  2  0  0  0  0
  7  8  1  0  0  0  0
  7 10  1  0  0  0  0
  8  9  1  0  0  0  0
 10 11  1  0  0  0  0
 12 11  1  1  0  0  0
M  CHG  2   6  -1   7   1
M  END
>  <CHROM.1>
94.98721093,-154.49928715,65.97235778,11.01874915,-1.18606878,-16.06324594
-2.40841905,0.01916701,2.64382369

>  <Name>
ligand

>  <RI>
0

>  <Rbt.Current_Directory>
/home/itssahil/PROJECTS/Mol_Feturizer/New_Systems/rnas/4P95

>  <Rbt.Executable>
rbdock ($Id: //depot/dev/client3/rdock/2013.1/src/exe/rbdock.cxx#4 $)

>  <Rbt.Library>
libRbt.so (2013.1, Build901 2013/11/27)

>  <Rbt.Parameter_File>
/export/apps/rDock/src/rDock_2013.1_src/data/scripts/dock_solv.prm

>  <Rbt.Receptor>
prm/blind_docking_60.prm

>  <SCORE>
-6.77691

>  <SCORE.INTER>
-5.64062

>  <SCORE.INTER.CONST>
1

>  <SCORE.INTER.POLAR>
0

>  <SCORE.INTER.ROT>
3

>  <SCORE.INTER.SOLV>
9.38263

>  <SCORE.INTER.VDW>
-12.488

>  <SCORE.INTER.norm>
-0.470051

>  <SCORE.INTRA>
-1.1363

>  <SCORE.INTRA.DIHEDRAL>
3.51826

>  <SCORE.INTRA.DIHEDRAL.0>
0.283163

>  <SCORE.INTRA.POLAR>
0

>  <SCORE.INTRA.POLAR.0>
0

>  <SCORE.INTRA.REPUL>
0

>  <SCORE.INTRA.REPUL.0>
0

>  <SCORE.INTRA.SOLV>
-0.706435

>  <SCORE.INTRA.SOLV.lig_0>
-32.2894

>  <SCORE.INTRA.VDW>
-2.54221

>  <SCORE.INTRA.VDW.0>
2.0241

>  <SCORE.INTRA.norm>
-0.0946915

>  <SCORE.RESTR>
0

>  <SCORE.RESTR.CAVITY>
0

>  <SCORE.RESTR.norm>
0

>  <SCORE.SYSTEM>
0

>  <SCORE.SYSTEM.CONST>
0

>  <SCORE.SYSTEM.DIHEDRAL>
0

>  <SCORE.SYSTEM.SOLV>
0

>  <SCORE.SYSTEM.norm>
0

>  <SCORE.heavy>
12

>  <SCORE.norm>
-0.564743

>  <RMSD>
17.221

$$$$
ligand
 OpenBabel11021811513D
libRbt.so/2013.1/901 2013/11/27
 12 12  0  0  0  0  0  0  0  0999 V2000
    8.2103    1.3416  -17.6639 O   0  0  0  0  0  0  0  0  0  0  0  0
   12.1846   -4.1790  -15.6631 O   0  0  0  0  0  0  0  0  0  0  0  0
    9.5408    1.6251  -17.4429 C   0  0  0  0  0  0  0  0  0  0  0  0
   13.2886   -3.2196  -13.7119 O   0  0  0  0  0  0  0  0  0  0  0  0
   10.3769    0.4263  -17.2560 C   0  0  0  0  0  0  0  0  0  0  0  0
   13.8920   -2.4545  -15.9384 O   0  5  0  0  0  0  0  0  0  0  0  0
    9.8061   -0.4868  -16.2568 N   0  3  0  0  0  0  0  0  0  0  0  0
    8.4287   -0.7683  -16.5704 C   0  0  0  0  0  0  0  0  0  0  0  0
    7.6454    0.4897  -16.7568 C   0  0  0  0  0  0  0  0  0  0  0  0
   10.5806   -1.6897  -16.1992 C   0  0  0  0  0  0  0  0  0  0  0  0
   11.5117   -1.6475  -14.9611 C   0  0  0  0  0  0  0  0  0  0  0  0
   12.7728   -2.9320  -15.0874 S   0  0  1  0  0  0  0  0  0  0  0  0
  1  3  1  0  0  0  0
  1  9  1  0  0  0  0
  2 12  1  0  0  0  0
  3  5  1  0  0  0  0
  4 12  2  0  0  0  0
  5  7  1  0  0  0  0
  6 12  2  0  0  0  0
  7  8  1  0  0  0  0
  7 10  1  0  0  0  0
  8  9  1  0  0  0  0
 10 11  1  0  0  0  0
 12 11  1  1  0  0  0
M  CHG  2   6  -1   7   1
M  END
>  <CHROM.1>
101.68511096,-165.88529231,-38.81192342,10.92939041,-1.33319083,-16.01378025
-2.34151162,0.01379866,2.64220194

>  <Name>
ligand

>  <RI>
0

>  <Rbt.Current_Directory>
/home/itssahil/PROJECTS/Mol_Feturizer/New_Systems/rnas/4P95

>  <Rbt.Executable>
rbdock ($Id: //depot/dev/client3/rdock/2013.1/src/exe/rbdock.cxx#4 $)

>  <Rbt.Library>
libRbt.so (2013.1, Build901 2013/11/27)

>  <Rbt.Parameter_File>
/export/apps/rDock/src/rDock_2013.1_src/data/scripts/dock_solv.prm

>  <Rbt.Receptor>
prm/blind_docking_80.prm

>  <SCORE>
-7.47357

>  <SCORE.INTER>
-6.53938

>  <SCORE.INTER.CONST>
1

>  <SCORE.INTER.POLAR>
0

>  <SCORE.INTER.ROT>
3

>  <SCORE.INTER.SOLV>
8.53538

>  <SCORE.INTER.VDW>
-12.8047

>  <SCORE.INTER.norm>
-0.544948

>  <SCORE.INTRA>
-0.934194

>  <SCORE.INTRA.DIHEDRAL>
3.43868

>  <SCORE.INTRA.DIHEDRAL.0>
0.283163

>  <SCORE.INTRA.POLAR>
0

>  <SCORE.INTRA.POLAR.0>
0

>  <SCORE.INTRA.REPUL>
0

>  <SCORE.INTRA.REPUL.0>
0

>  <SCORE.INTRA.SOLV>
-0.218944

>  <SCORE.INTRA.SOLV.lig_0>
-32.2894

>  <SCORE.INTRA.VDW>
-2.54406

>  <SCORE.INTRA.VDW.0>
2.0241

>  <SCORE.INTRA.norm>
-0.0778495

>  <SCORE.RESTR>
0

>  <SCORE.RESTR.CAVITY>
0

>  <SCORE.RESTR.norm>
0

>  <SCORE.SYSTEM>
0

>  <SCORE.SYSTEM.CONST>
0

>  <SCORE.SYSTEM.DIHEDRAL>
0

>  <SCORE.SYSTEM.SOLV>
0

>  <SCORE.SYSTEM.norm>
0

>  <SCORE.heavy>
12

>  <SCORE.norm>
-0.622797

>  <RMSD>
17.228

$$$$
ligand
 OpenBabel11021811513D
libRbt.so/2013.1/901 2013/11/27
 12 12  0  0  0  0  0  0  0  0999 V2000
   12.8348   -3.2562  -14.5458 O   0  0  0  0  0  0  0  0  0  0  0  0
    7.6309    0.3187  -17.4056 O   0  0  0  0  0  0  0  0  0  0  0  0
   12.4977   -2.1970  -13.7311 C   0  0  0  0  0  0  0  0  0  0  0  0
    8.8308    1.3060  -19.2850 O   0  0  0  0  0  0  0  0  0  0  0  0
   11.2935   -1.4721  -14.1729 C   0  0  0  0  0  0  0  0  0  0  0  0
    8.7926    2.4506  -17.1414 O   0  5  0  0  0  0  0  0  0  0  0  0
   11.3662   -1.1085  -15.5944 N   0  3  0  0  0  0  0  0  0  0  0  0
   11.6844   -2.2676  -16.3881 C   0  0  0  0  0  0  0  0  0  0  0  0
   12.9067   -2.9574  -15.8774 C   0  0  0  0  0  0  0  0  0  0  0  0
   10.1284   -0.5202  -16.0094 C   0  0  0  0  0  0  0  0  0  0  0  0
   10.3410    0.2514  -17.3365 C   0  0  0  0  0  0  0  0  0  0  0  0
    8.8287    1.1202  -17.7996 S   0  0  1  0  0  0  0  0  0  0  0  0
  1  3  1  0  0  0  0
  1  9  1  0  0  0  0
  2 12  1  0  0  0  0
  3  5  1  0  0  0  0
  4 12  2  0  0  0  0
  5  7  1  0  0  0  0
  6 12  2  0  0  0  0
  7  8  1  0  0  0  0
  7 10  1  0  0  0  0
  8  9  1  0  0  0  0
 10 11  1  0  0  0  0
 12 11  1  1  0  0  0
M  CHG  2   6  -1   7   1
M  END
>  <CHROM.1>
162.42652274,-175.02525060,-34.94053621,10.38702607,-0.48928065,-16.44901003
-0.45745275,0.83296900,-1.67227302

>  <Name>
ligand

>  <RI>
0

>  <Rbt.Current_Directory>
/home/itssahil/PROJECTS/Mol_Feturizer/New_Systems/rnas/4P95

>  <Rbt.Executable>
rbdock ($Id: //depot/dev/client3/rdock/2013.1/src/exe/rbdock.cxx#4 $)

>  <Rbt.Library>
libRbt.so (2013.1, Build901 2013/11/27)

>  <Rbt.Parameter_File>
/export/apps/rDock/src/rDock_2013.1_src/data/scripts/dock_solv.prm

>  <Rbt.Receptor>
prm/blind_docking_100.prm

>  <SCORE>
-13.2657

>  <SCORE.INTER>
-12.2008

>  <SCORE.INTER.CONST>
1

>  <SCORE.INTER.POLAR>
0

>  <SCORE.INTER.ROT>
3

>  <SCORE.INTER.SOLV>
17.2369

>  <SCORE.INTER.VDW>
-19.4795

>  <SCORE.INTER.norm>
-1.01673

>  <SCORE.INTRA>
-1.06494

>  <SCORE.INTRA.DIHEDRAL>
1.63251

>  <SCORE.INTRA.DIHEDRAL.0>
0.283163

>  <SCORE.INTRA.POLAR>
0

>  <SCORE.INTRA.POLAR.0>
0

>  <SCORE.INTRA.REPUL>
0

>  <SCORE.INTRA.REPUL.0>
0

>  <SCORE.INTRA.SOLV>
-0.315854

>  <SCORE.INTRA.SOLV.lig_0>
-32.2894

>  <SCORE.INTRA.VDW>
-1.72327

>  <SCORE.INTRA.VDW.0>
2.0241

>  <SCORE.INTRA.norm>
-0.0887448

>  <SCORE.RESTR>
0

>  <SCORE.RESTR.CAVITY>
0

>  <SCORE.RESTR.norm>
0

>  <SCORE.SYSTEM>
0

>  <SCORE.SYSTEM.CONST>
0

>  <SCORE.SYSTEM.DIHEDRAL>
0

>  <SCORE.SYSTEM.SOLV>
0

>  <SCORE.SYSTEM.norm>
0

>  <SCORE.heavy>
12

>  <SCORE.norm>
-1.10548

>  <RMSD>
17.329

$$$$
ligand
 OpenBabel11021811513D
libRbt.so/2013.1/901 2013/11/27
 12 12  0  0  0  0  0  0  0  0999 V2000
   12.4083   -2.6375  -13.8124 O   0  0  0  0  0  0  0  0  0  0  0  0
    7.6823    0.7282  -17.2213 O   0  0  0  0  0  0  0  0  0  0  0  0
   12.5751   -2.7022  -15.1789 C   0  0  0  0  0  0  0  0  0  0  0  0
    8.6914    1.3184  -19.3613 O   0  0  0  0  0  0  0  0  0  0  0  0
   12.2782   -1.4356  -15.8707 C   0  0  0  0  0  0  0  0  0  0  0  0
    9.1726    2.6557  -17.3899 O   0  5  0  0  0  0  0  0  0  0  0  0
   10.9743   -0.8888  -15.4722 N   0  3  0  0  0  0  0  0  0  0  0  0
   10.8843   -0.8148  -14.0365 C   0  0  0  0  0  0  0  0  0  0  0  0
   11.2081   -2.1281  -13.4030 C   0  0  0  0  0  0  0  0  0  0  0  0
   10.7838    0.3982  -16.0702 C   0  0  0  0  0  0  0  0  0  0  0  0
   10.3275    0.2235  -17.5409 C   0  0  0  0  0  0  0  0  0  0  0  0
    8.9045    1.2800  -17.8802 S   0  0  1  0  0  0  0  0  0  0  0  0
  1  3  1  0  0  0  0
  1  9  1  0  0  0  0
  2 12  1  0  0  0  0
  3  5  1  0  0  0  0
  4 12  2  0  0  0  0
  5  7  1  0  0  0  0
  6 12  2  0  0  0  0
  7  8  1  0  0  0  0
  7 10  1  0  0  0  0
  8  9  1  0  0  0  0
 10 11  1  0  0  0  0
 12 11  1  1  0  0  0
M  CHG  2   6  -1   7   1
M  END
>  <CHROM.1>
80.16118924,132.21921933,-73.15797592,10.30281821,-0.14919002,-16.30243912
-0.84386760,0.65177500,-1.30270203

>  <Name>
ligand

>  <RI>
0

>  <Rbt.Current_Directory>
/home/itssahil/PROJECTS/Mol_Feturizer/New_Systems/rnas/4P95

>  <Rbt.Executable>
rbdock ($Id: //depot/dev/client3/rdock/2013.1/src/exe/rbdock.cxx#4 $)

>  <Rbt.Library>
libRbt.so (2013.1, Build901 2013/11/27)

>  <Rbt.Parameter_File>
/export/apps/rDock/src/rDock_2013.1_src/data/scripts/dock_solv.prm

>  <Rbt.Receptor>
prm/blind_docking_100.prm

>  <SCORE>
-8.50852

>  <SCORE.INTER>
-9.36554

>  <SCORE.INTER.CONST>
1

>  <SCORE.INTER.POLAR>
0

>  <SCORE.INTER.ROT>
3

>  <SCORE.INTER.SOLV>
18.5183

>  <SCORE.INTER.VDW>
-18.0165

>  <SCORE.INTER.norm>
-0.780461

>  <SCORE.INTRA>
0.857016

>  <SCORE.INTRA.DIHEDRAL>
5.73373

>  <SCORE.INTRA.DIHEDRAL.0>
0.283163

>  <SCORE.INTRA.POLAR>
0

>  <SCORE.INTRA.POLAR.0>
0

>  <SCORE.INTRA.REPUL>
0

>  <SCORE.INTRA.REPUL.0>
0

>  <SCORE.INTRA.SOLV>
0.187889

>  <SCORE.INTRA.SOLV.lig_0>
-32.2894

>  <SCORE.INTRA.VDW>
-2.10379

>  <SCORE.INTRA.VDW.0>
2.0241

>  <SCORE.INTRA.norm>
0.071418

>  <SCORE.RESTR>
0

>  <SCORE.RESTR.CAVITY>
0

>  <SCORE.RESTR.norm>
0

>  <SCORE.SYSTEM>
0

>  <SCORE.SYSTEM.CONST>
0

>  <SCORE.SYSTEM.DIHEDRAL>
0

>  <SCORE.SYSTEM.SOLV>
0

>  <SCORE.SYSTEM.norm>
0

>  <SCORE.heavy>
12

>  <SCORE.norm>
-0.709043

>  <RMSD>
17.355

$$$$
ligand
 OpenBabel11021811513D
libRbt.so/2013.1/901 2013/11/27
 12 12  0  0  0  0  0  0  0  0999 V2000
    3.4445   13.1601  -20.0695 O   0  0  0  0  0  0  0  0  0  0  0  0
    4.6502   17.9837  -25.3105 O   0  0  0  0  0  0  0  0  0  0  0  0
    3.5980   12.5663  -21.3036 C   0  0  0  0  0  0  0  0  0  0  0  0
    4.5689   16.3684  -27.1355 O   0  0  0  0  0  0  0  0  0  0  0  0
    4.3409   13.3948  -22.2694 C   0  0  0  0  0  0  0  0  0  0  0  0
    6.4793   16.3979  -25.6336 O   0  5  0  0  0  0  0  0  0  0  0  0
    3.8013   14.7589  -22.3467 N   0  3  0  0  0  0  0  0  0  0  0  0
    3.7036   15.3301  -21.0281 C   0  0  0  0  0  0  0  0  0  0  0  0
    2.9496   14.4336  -20.1016 C   0  0  0  0  0  0  0  0  0  0  0  0
    4.6270   15.5605  -23.1988 C   0  0  0  0  0  0  0  0  0  0  0  0
    4.1700   15.3927  -24.6700 C   0  0  0  0  0  0  0  0  0  0  0  0
    5.0102   16.5934  -25.7229 S   0  0  1  0  0  0  0  0  0  0  0  0
  1  3  1  0  0  0  0
  1  9  1  0  0  0  0
  2 12  1  0  0  0  0
  3  5  1  0  0  0  0
  4 12  2  0  0  0  0
  5  7  1  0  0  0  0
  6 12  2  0  0  0  0
  7  8  1  0  0  0  0
  7 10  1  0  0  0  0
  8  9  1  0  0  0  0
 10 11  1  0  0  0  0
 12 11  1  1  0  0  0
M  CHG  2   6  -1   7   1
M  END
>  <CHROM.1>
86.40106365,170.65386292,-62.18889382,4.36718189,15.32781169,-23.51684098
-2.43782573,1.23188727,-0.20177065

>  <Name>
ligand

>  <RI>
0

>  <Rbt.Current_Directory>
/home/itssahil/PROJECTS/Mol_Feturizer/New_Systems/rnas/4P95

>  <Rbt.Executable>
rbdock ($Id: //depot/dev/client3/rdock/2013.1/src/exe/rbdock.cxx#4 $)

>  <Rbt.Library>
libRbt.so (2013.1, Build901 2013/11/27)

>  <Rbt.Parameter_File>
/export/apps/rDock/src/rDock_2013.1_src/data/scripts/dock_solv.prm

>  <Rbt.Receptor>
prm/blind_docking_80.prm

>  <SCORE>
-11.3476

>  <SCORE.INTER>
-9.54768

>  <SCORE.INTER.CONST>
1

>  <SCORE.INTER.POLAR>
0

>  <SCORE.INTER.ROT>
3

>  <SCORE.INTER.SOLV>
6.68273

>  <SCORE.INTER.VDW>
-14.1927

>  <SCORE.INTER.norm>
-0.79564

>  <SCORE.INTRA>
-1.79991

>  <SCORE.INTRA.DIHEDRAL>
1.09204

>  <SCORE.INTRA.DIHEDRAL.0>
0.283163

>  <SCORE.INTRA.POLAR>
0

>  <SCORE.INTRA.POLAR.0>
0

>  <SCORE.INTRA.REPUL>
0

>  <SCORE.INTRA.REPUL.0>
0

>  <SCORE.INTRA.SOLV>
-0.043129

>  <SCORE.INTRA.SOLV.lig_0>
-32.2894

>  <SCORE.INTRA.VDW>
-2.32436

>  <SCORE.INTRA.VDW.0>
2.0241

>  <SCORE.INTRA.norm>
-0.149992

>  <SCORE.RESTR>
0

>  <SCORE.RESTR.CAVITY>
0

>  <SCORE.RESTR.norm>
0

>  <SCORE.SYSTEM>
0

>  <SCORE.SYSTEM.CONST>
0

>  <SCORE.SYSTEM.DIHEDRAL>
0

>  <SCORE.SYSTEM.SOLV>
0

>  <SCORE.SYSTEM.norm>
0

>  <SCORE.heavy>
12

>  <SCORE.norm>
-0.945633

>  <RMSD>
17.360

$$$$
ligand
 OpenBabel11021811513D
libRbt.so/2013.1/901 2013/11/27
 12 12  0  0  0  0  0  0  0  0999 V2000
   12.8112   -3.2750  -14.5753 O   0  0  0  0  0  0  0  0  0  0  0  0
    9.0094    2.6341  -17.0827 O   0  0  0  0  0  0  0  0  0  0  0  0
   12.4985   -2.2157  -13.7510 C   0  0  0  0  0  0  0  0  0  0  0  0
    7.6886    0.5850  -17.1383 O   0  0  0  0  0  0  0  0  0  0  0  0
   11.3019   -1.4691  -14.1771 C   0  0  0  0  0  0  0  0  0  0  0  0
    8.7349    1.4026  -19.1738 O   0  5  0  0  0  0  0  0  0  0  0  0
   11.3671   -1.0978  -15.5969 N   0  3  0  0  0  0  0  0  0  0  0  0
   11.6595   -2.2568  -16.4006 C   0  0  0  0  0  0  0  0  0  0  0  0
   12.8755   -2.9690  -15.9056 C   0  0  0  0  0  0  0  0  0  0  0  0
   10.1351   -0.4875  -15.9968 C   0  0  0  0  0  0  0  0  0  0  0  0
   10.3470    0.2873  -17.3221 C   0  0  0  0  0  0  0  0  0  0  0  0
    8.8887    1.2798  -17.7021 S   0  0  1  0  0  0  0  0  0  0  0  0
  1  3  1  0  0  0  0
  1  9  1  0  0  0  0
  2 12  1  0  0  0  0
  3  5  1  0  0  0  0
  4 12  2  0  0  0  0
  5  7  1  0  0  0  0
  6 12  2  0  0  0  0
  7  8  1  0  0  0  0
  7 10  1  0  0  0  0
  8  9  1  0  0  0  0
 10 11  1  0  0  0  0
 12 11  1  1  0  0  0
M  CHG  2   6  -1   7   1
M  END
>  <CHROM.1>
162.50705851,-170.82323557,89.38142058,10.40730459,-0.41495841,-16.40222361
-0.42414501,0.86368200,-1.67821185

>  <Name>
ligand

>  <RI>
0

>  <Rbt.Current_Directory>
/home/itssahil/PROJECTS/Mol_Feturizer/New_Systems/rnas/4P95

>  <Rbt.Executable>
rbdock ($Id: //depot/dev/client3/rdock/2013.1/src/exe/rbdock.cxx#4 $)

>  <Rbt.Library>
libRbt.so (2013.1, Build901 2013/11/27)

>  <Rbt.Parameter_File>
/export/apps/rDock/src/rDock_2013.1_src/data/scripts/dock_solv.prm

>  <Rbt.Receptor>
prm/blind_docking_80.prm

>  <SCORE>
-13.5452

>  <SCORE.INTER>
-12.7702

>  <SCORE.INTER.CONST>
1

>  <SCORE.INTER.POLAR>
0

>  <SCORE.INTER.ROT>
3

>  <SCORE.INTER.SOLV>
17.0459

>  <SCORE.INTER.VDW>
-19.7954

>  <SCORE.INTER.norm>
-1.06418

>  <SCORE.INTRA>
-0.775042

>  <SCORE.INTRA.DIHEDRAL>
2.25193

>  <SCORE.INTRA.DIHEDRAL.0>
0.283163

>  <SCORE.INTRA.POLAR>
0

>  <SCORE.INTRA.POLAR.0>
0

>  <SCORE.INTRA.REPUL>
0

>  <SCORE.INTRA.REPUL.0>
0

>  <SCORE.INTRA.SOLV>
-0.578676

>  <SCORE.INTRA.SOLV.lig_0>
-32.2894

>  <SCORE.INTRA.VDW>
-1.61167

>  <SCORE.INTRA.VDW.0>
2.0241

>  <SCORE.INTRA.norm>
-0.0645869

>  <SCORE.RESTR>
0

>  <SCORE.RESTR.CAVITY>
0

>  <SCORE.RESTR.norm>
0

>  <SCORE.SYSTEM>
0

>  <SCORE.SYSTEM.CONST>
0

>  <SCORE.SYSTEM.DIHEDRAL>
0

>  <SCORE.SYSTEM.SOLV>
0

>  <SCORE.SYSTEM.norm>
0

>  <SCORE.heavy>
12

>  <SCORE.norm>
-1.12877

>  <RMSD>
17.401

$$$$
ligand
 OpenBabel11021811513D
libRbt.so/2013.1/901 2013/11/27
 12 12  0  0  0  0  0  0  0  0999 V2000
   16.3991    3.5070  -23.1644 O   0  0  0  0  0  0  0  0  0  0  0  0
   19.9748    9.5875  -23.9792 O   0  0  0  0  0  0  0  0  0  0  0  0
   15.7973    4.2089  -24.1864 C   0  0  0  0  0  0  0  0  0  0  0  0
   18.1174   11.1402  -24.2720 O   0  0  0  0  0  0  0  0  0  0  0  0
   16.6308    5.2974  -24.7260 C   0  0  0  0  0  0  0  0  0  0  0  0
   18.7751    9.6853  -26.1043 O   0  5  0  0  0  0  0  0  0  0  0  0
   17.1556    6.1623  -23.6607 N   0  3  0  0  0  0  0  0  0  0  0  0
   17.8021    5.3672  -22.6485 C   0  0  0  0  0  0  0  0  0  0  0  0
   16.9051    4.2790  -22.1566 C   0  0  0  0  0  0  0  0  0  0  0  0
   18.0570    7.1258  -24.2169 C   0  0  0  0  0  0  0  0  0  0  0  0
   17.4705    8.5488  -24.0359 C   0  0  0  0  0  0  0  0  0  0  0  0
   18.6438    9.7850  -24.6286 S   0  0  1  0  0  0  0  0  0  0  0  0
  1  3  1  0  0  0  0
  1  9  1  0  0  0  0
  2 12  1  0  0  0  0
  3  5  1  0  0  0  0
  4 12  2  0  0  0  0
  5  7  1  0  0  0  0
  6 12  2  0  0  0  0
  7  8  1  0  0  0  0
  7 10  1  0  0  0  0
  8  9  1  0  0  0  0
 10 11  1  0  0  0  0
 12 11  1  1  0  0  0
M  CHG  2   6  -1   7   1
M  END
>  <CHROM.1>
115.14102121,176.12544290,-53.25523587,17.76425024,7.36894700,-24.05791462
-2.18228663,-0.92899557,-0.74981637

>  <Name>
ligand

>  <RI>
0

>  <Rbt.Current_Directory>
/home/itssahil/PROJECTS/Mol_Feturizer/New_Systems/rnas/4P95

>  <Rbt.Executable>
rbdock ($Id: //depot/dev/client3/rdock/2013.1/src/exe/rbdock.cxx#4 $)

>  <Rbt.Library>
libRbt.so (2013.1, Build901 2013/11/27)

>  <Rbt.Parameter_File>
/export/apps/rDock/src/rDock_2013.1_src/data/scripts/dock_solv.prm

>  <Rbt.Receptor>
prm/blind_docking_100.prm

>  <SCORE>
-7.53252

>  <SCORE.INTER>
-5.89515

>  <SCORE.INTER.CONST>
1

>  <SCORE.INTER.POLAR>
0

>  <SCORE.INTER.ROT>
3

>  <SCORE.INTER.SOLV>
4.90796

>  <SCORE.INTER.VDW>
-11.1661

>  <SCORE.INTER.norm>
-0.491262

>  <SCORE.INTRA>
-1.63737

>  <SCORE.INTRA.DIHEDRAL>
2.28391

>  <SCORE.INTRA.DIHEDRAL.0>
0.283163

>  <SCORE.INTRA.POLAR>
0

>  <SCORE.INTRA.POLAR.0>
0

>  <SCORE.INTRA.REPUL>
0

>  <SCORE.INTRA.REPUL.0>
0

>  <SCORE.INTRA.SOLV>
-0.1395

>  <SCORE.INTRA.SOLV.lig_0>
-32.2894

>  <SCORE.INTRA.VDW>
-2.70958

>  <SCORE.INTRA.VDW.0>
2.0241

>  <SCORE.INTRA.norm>
-0.136448

>  <SCORE.RESTR>
0

>  <SCORE.RESTR.CAVITY>
0

>  <SCORE.RESTR.norm>
0

>  <SCORE.SYSTEM>
0

>  <SCORE.SYSTEM.CONST>
0

>  <SCORE.SYSTEM.DIHEDRAL>
0

>  <SCORE.SYSTEM.SOLV>
0

>  <SCORE.SYSTEM.norm>
0

>  <SCORE.heavy>
12

>  <SCORE.norm>
-0.62771

>  <RMSD>
17.412

$$$$
ligand
 OpenBabel11021811513D
libRbt.so/2013.1/901 2013/11/27
 12 12  0  0  0  0  0  0  0  0999 V2000
   12.9110   -2.9527  -14.1748 O   0  0  0  0  0  0  0  0  0  0  0  0
    8.7595    1.0633  -19.0720 O   0  0  0  0  0  0  0  0  0  0  0  0
   12.8886   -1.5798  -14.0566 C   0  0  0  0  0  0  0  0  0  0  0  0
    8.7434    2.6714  -17.2389 O   0  0  0  0  0  0  0  0  0  0  0  0
   11.6762   -0.9585  -14.6178 C   0  0  0  0  0  0  0  0  0  0  0  0
    7.6670    0.5106  -16.9588 O   0  5  0  0  0  0  0  0  0  0  0  0
   11.4056   -1.4262  -15.9838 N   0  3  0  0  0  0  0  0  0  0  0  0
   11.4069   -2.8660  -16.0254 C   0  0  0  0  0  0  0  0  0  0  0  0
   12.6576   -3.4260  -15.4315 C   0  0  0  0  0  0  0  0  0  0  0  0
   10.1565   -0.8958  -16.4407 C   0  0  0  0  0  0  0  0  0  0  0  0
   10.3632    0.5549  -16.9451 C   0  0  0  0  0  0  0  0  0  0  0  0
    8.8120    1.2171  -17.5867 S   0  0  1  0  0  0  0  0  0  0  0  0
  1  3  1  0  0  0  0
  1  9  1  0  0  0  0
  2 12  1  0  0  0  0
  3  5  1  0  0  0  0
  4 12  2  0  0  0  0
  5  7  1  0  0  0  0
  6 12  2  0  0  0  0
  7  8  1  0  0  0  0
  7 10  1  0  0  0  0
  8  9  1  0  0  0  0
 10 11  1  0  0  0  0
 12 11  1  1  0  0  0
M  CHG  2   6  -1   7   1
M  END
>  <CHROM.1>
81.34763583,177.72771372,-96.73768556,10.40791742,-0.45779371,-16.36518116
-0.35756353,-0.84997371,0.46909705

>  <Name>
ligand

>  <RI>
0

>  <Rbt.Current_Directory>
/home/itssahil/PROJECTS/Mol_Feturizer/New_Systems/rnas/4P95

>  <Rbt.Executable>
rbdock ($Id: //depot/dev/client3/rdock/2013.1/src/exe/rbdock.cxx#4 $)

>  <Rbt.Library>
libRbt.so (2013.1, Build901 2013/11/27)

>  <Rbt.Parameter_File>
/export/apps/rDock/src/rDock_2013.1_src/data/scripts/dock_solv.prm

>  <Rbt.Receptor>
prm/blind_docking_40.prm

>  <SCORE>
-12.3147

>  <SCORE.INTER>
-12.0606

>  <SCORE.INTER.CONST>
1

>  <SCORE.INTER.POLAR>
0

>  <SCORE.INTER.ROT>
3

>  <SCORE.INTER.SOLV>
16.5816

>  <SCORE.INTER.VDW>
-19.1676

>  <SCORE.INTER.norm>
-1.00505

>  <SCORE.INTRA>
-0.254121

>  <SCORE.INTRA.DIHEDRAL>
2.83633

>  <SCORE.INTRA.DIHEDRAL.0>
0.283163

>  <SCORE.INTRA.POLAR>
0

>  <SCORE.INTRA.POLAR.0>
0

>  <SCORE.INTRA.REPUL>
0

>  <SCORE.INTRA.REPUL.0>
0

>  <SCORE.INTRA.SOLV>
0.421566

>  <SCORE.INTRA.SOLV.lig_0>
-32.2894

>  <SCORE.INTRA.VDW>
-1.88307

>  <SCORE.INTRA.VDW.0>
2.0241

>  <SCORE.INTRA.norm>
-0.0211767

>  <SCORE.RESTR>
0

>  <SCORE.RESTR.CAVITY>
0

>  <SCORE.RESTR.norm>
0

>  <SCORE.SYSTEM>
0

>  <SCORE.SYSTEM.CONST>
0

>  <SCORE.SYSTEM.DIHEDRAL>
0

>  <SCORE.SYSTEM.SOLV>
0

>  <SCORE.SYSTEM.norm>
0

>  <SCORE.heavy>
12

>  <SCORE.norm>
-1.02623

>  <RMSD>
17.414

$$$$
ligand
 OpenBabel11021811513D
libRbt.so/2013.1/901 2013/11/27
 12 12  0  0  0  0  0  0  0  0999 V2000
   12.7681   -3.2355  -14.5246 O   0  0  0  0  0  0  0  0  0  0  0  0
    9.0401    2.6564  -17.0159 O   0  0  0  0  0  0  0  0  0  0  0  0
   12.5573   -2.1128  -13.7536 C   0  0  0  0  0  0  0  0  0  0  0  0
    7.6607    0.6503  -17.1549 O   0  0  0  0  0  0  0  0  0  0  0  0
   11.3724   -1.3345  -14.1553 C   0  0  0  0  0  0  0  0  0  0  0  0
    8.7411    1.5135  -19.1534 O   0  5  0  0  0  0  0  0  0  0  0  0
   11.3660   -1.0556  -15.5975 N   0  3  0  0  0  0  0  0  0  0  0  0
   11.5533   -2.2753  -16.3404 C   0  0  0  0  0  0  0  0  0  0  0  0
   12.7633   -3.0160  -15.8735 C   0  0  0  0  0  0  0  0  0  0  0  0
   10.1412   -0.4097  -15.9622 C   0  0  0  0  0  0  0  0  0  0  0  0
   10.3103    0.2823  -17.3385 C   0  0  0  0  0  0  0  0  0  0  0  0
    8.8834    1.3306  -17.6868 S   0  0  1  0  0  0  0  0  0  0  0  0
  1  3  1  0  0  0  0
  1  9  1  0  0  0  0
  2 12  1  0  0  0  0
  3  5  1  0  0  0  0
  4 12  2  0  0  0  0
  5  7  1  0  0  0  0
  6 12  2  0  0  0  0
  7  8  1  0  0  0  0
  7 10  1  0  0  0  0
  8  9  1  0  0  0  0
 10 11  1  0  0  0  0
 12 11  1  1  0  0  0
M  CHG  2   6  -1   7   1
M  END
>  <CHROM.1>
161.92877578,-170.40683422,82.80392791,10.39488802,-0.36624495,-16.38036796
-0.31405060,0.90321101,-1.82295290

>  <Name>
ligand

>  <RI>
0

>  <Rbt.Current_Directory>
/home/itssahil/PROJECTS/Mol_Feturizer/New_Systems/rnas/4P95

>  <Rbt.Executable>
rbdock ($Id: //depot/dev/client3/rdock/2013.1/src/exe/rbdock.cxx#4 $)

>  <Rbt.Library>
libRbt.so (2013.1, Build901 2013/11/27)

>  <Rbt.Parameter_File>
/export/apps/rDock/src/rDock_2013.1_src/data/scripts/dock_solv.prm

>  <Rbt.Receptor>
prm/blind_docking_80.prm

>  <SCORE>
-13.5128

>  <SCORE.INTER>
-12.3523

>  <SCORE.INTER.CONST>
1

>  <SCORE.INTER.POLAR>
0

>  <SCORE.INTER.ROT>
3

>  <SCORE.INTER.SOLV>
17.248

>  <SCORE.INTER.VDW>
-19.5842

>  <SCORE.INTER.norm>
-1.02936

>  <SCORE.INTRA>
-1.1605

>  <SCORE.INTRA.DIHEDRAL>
1.70031

>  <SCORE.INTRA.DIHEDRAL.0>
0.283163

>  <SCORE.INTRA.POLAR>
0

>  <SCORE.INTRA.POLAR.0>
0

>  <SCORE.INTRA.REPUL>
0

>  <SCORE.INTRA.REPUL.0>
0

>  <SCORE.INTRA.SOLV>
-0.61667

>  <SCORE.INTRA.SOLV.lig_0>
-32.2894

>  <SCORE.INTRA.VDW>
-1.70232

>  <SCORE.INTRA.VDW.0>
2.0241

>  <SCORE.INTRA.norm>
-0.0967083

>  <SCORE.RESTR>
0

>  <SCORE.RESTR.CAVITY>
0

>  <SCORE.RESTR.norm>
0

>  <SCORE.SYSTEM>
0

>  <SCORE.SYSTEM.CONST>
0

>  <SCORE.SYSTEM.DIHEDRAL>
0

>  <SCORE.SYSTEM.SOLV>
0

>  <SCORE.SYSTEM.norm>
0

>  <SCORE.heavy>
12

>  <SCORE.norm>
-1.12607

>  <RMSD>
17.415

$$$$
ligand
 OpenBabel11021811513D
libRbt.so/2013.1/901 2013/11/27
 12 12  0  0  0  0  0  0  0  0999 V2000
   12.8712   -3.3214  -14.4697 O   0  0  0  0  0  0  0  0  0  0  0  0
    7.7087    0.4017  -17.1864 O   0  0  0  0  0  0  0  0  0  0  0  0
   12.8173   -2.1238  -13.7900 C   0  0  0  0  0  0  0  0  0  0  0  0
    8.8051    1.2334  -19.1995 O   0  0  0  0  0  0  0  0  0  0  0  0
   11.6538   -1.2936  -14.1476 C   0  0  0  0  0  0  0  0  0  0  0  0
    9.0155    2.4637  -17.1142 O   0  5  0  0  0  0  0  0  0  0  0  0
   11.5195   -1.1399  -15.6024 N   0  3  0  0  0  0  0  0  0  0  0  0
   11.5462   -2.4297  -16.2429 C   0  0  0  0  0  0  0  0  0  0  0  0
   12.7440   -3.2189  -15.8266 C   0  0  0  0  0  0  0  0  0  0  0  0
   10.3110   -0.4350  -15.9071 C   0  0  0  0  0  0  0  0  0  0  0  0
   10.4061    0.1636  -17.3334 C   0  0  0  0  0  0  0  0  0  0  0  0
    8.9158    1.1082  -17.7119 S   0  0  1  0  0  0  0  0  0  0  0  0
  1  3  1  0  0  0  0
  1  9  1  0  0  0  0
  2 12  1  0  0  0  0
  3  5  1  0  0  0  0
  4 12  2  0  0  0  0
  5  7  1  0  0  0  0
  6 12  2  0  0  0  0
  7  8  1  0  0  0  0
  7 10  1  0  0  0  0
  8  9  1  0  0  0  0
 10 11  1  0  0  0  0
 12 11  1  1  0  0  0
M  CHG  2   6  -1   7   1
M  END
>  <CHROM.1>
159.94542226,-177.89791277,-39.95846543,10.48337968,-0.50960036,-16.38214862
-0.14202150,0.91398077,-2.06715970

>  <Name>
ligand

>  <RI>
0

>  <Rbt.Current_Directory>
/home/itssahil/PROJECTS/Mol_Feturizer/New_Systems/rnas/4P95

>  <Rbt.Executable>
rbdock ($Id: //depot/dev/client3/rdock/2013.1/src/exe/rbdock.cxx#4 $)

>  <Rbt.Library>
libRbt.so (2013.1, Build901 2013/11/27)

>  <Rbt.Parameter_File>
/export/apps/rDock/src/rDock_2013.1_src/data/scripts/dock_solv.prm

>  <Rbt.Receptor>
prm/blind_docking_60.prm

>  <SCORE>
-13.0877

>  <SCORE.INTER>
-11.6926

>  <SCORE.INTER.CONST>
1

>  <SCORE.INTER.POLAR>
0

>  <SCORE.INTER.ROT>
3

>  <SCORE.INTER.SOLV>
17.4417

>  <SCORE.INTER.VDW>
-19.209

>  <SCORE.INTER.norm>
-0.974387

>  <SCORE.INTRA>
-1.39504

>  <SCORE.INTRA.DIHEDRAL>
1.23837

>  <SCORE.INTRA.DIHEDRAL.0>
0.283163

>  <SCORE.INTRA.POLAR>
0

>  <SCORE.INTRA.POLAR.0>
0

>  <SCORE.INTRA.REPUL>
0

>  <SCORE.INTRA.REPUL.0>
0

>  <SCORE.INTRA.SOLV>
-0.266868

>  <SCORE.INTRA.SOLV.lig_0>
-32.2894

>  <SCORE.INTRA.VDW>
-1.88079

>  <SCORE.INTRA.VDW.0>
2.0241

>  <SCORE.INTRA.norm>
-0.116253

>  <SCORE.RESTR>
0

>  <SCORE.RESTR.CAVITY>
0

>  <SCORE.RESTR.norm>
0

>  <SCORE.SYSTEM>
0

>  <SCORE.SYSTEM.CONST>
0

>  <SCORE.SYSTEM.DIHEDRAL>
0

>  <SCORE.SYSTEM.SOLV>
0

>  <SCORE.SYSTEM.norm>
0

>  <SCORE.heavy>
12

>  <SCORE.norm>
-1.09064

>  <RMSD>
17.427

$$$$
ligand
 OpenBabel11021811513D
libRbt.so/2013.1/901 2013/11/27
 12 12  0  0  0  0  0  0  0  0999 V2000
   12.9463   -3.3175  -14.4837 O   0  0  0  0  0  0  0  0  0  0  0  0
    7.6757    0.4560  -16.8752 O   0  0  0  0  0  0  0  0  0  0  0  0
   12.4911   -2.2386  -13.7571 C   0  0  0  0  0  0  0  0  0  0  0  0
    8.7239    0.9874  -19.0118 O   0  0  0  0  0  0  0  0  0  0  0  0
   11.2725   -1.6243  -14.3126 C   0  0  0  0  0  0  0  0  0  0  0  0
    8.7398    2.6273  -17.2183 O   0  5  0  0  0  0  0  0  0  0  0  0
   11.4103   -1.3392  -15.7471 N   0  3  0  0  0  0  0  0  0  0  0  0
   11.8518   -2.5178  -16.4477 C   0  0  0  0  0  0  0  0  0  0  0  0
   13.0819   -3.0919  -15.8247 C   0  0  0  0  0  0  0  0  0  0  0  0
   10.1655   -0.8618  -16.2695 C   0  0  0  0  0  0  0  0  0  0  0  0
   10.3856    0.5064  -16.9631 C   0  0  0  0  0  0  0  0  0  0  0  0
    8.8090    1.1771  -17.5294 S   0  0  1  0  0  0  0  0  0  0  0  0
  1  3  1  0  0  0  0
  1  9  1  0  0  0  0
  2 12  1  0  0  0  0
  3  5  1  0  0  0  0
  4 12  2  0  0  0  0
  5  7  1  0  0  0  0
  6 12  2  0  0  0  0
  7  8  1  0  0  0  0
  7 10  1  0  0  0  0
  8  9  1  0  0  0  0
 10 11  1  0  0  0  0
 12 11  1  1  0  0  0
M  CHG  2   6  -1   7   1
M  END
>  <CHROM.1>
124.98252844,-176.16440077,15.44839483,10.41533758,-0.54999630,-16.35472924
-0.39887940,0.83320880,-1.65937528

>  <Name>
ligand

>  <RI>
0

>  <Rbt.Current_Directory>
/home/itssahil/PROJECTS/Mol_Feturizer/New_Systems/rnas/4P95

>  <Rbt.Executable>
rbdock ($Id: //depot/dev/client3/rdock/2013.1/src/exe/rbdock.cxx#4 $)

>  <Rbt.Library>
libRbt.so (2013.1, Build901 2013/11/27)

>  <Rbt.Parameter_File>
/export/apps/rDock/src/rDock_2013.1_src/data/scripts/dock_solv.prm

>  <Rbt.Receptor>
prm/blind_docking_40.prm

>  <SCORE>
-11.9307

>  <SCORE.INTER>
-11.7589

>  <SCORE.INTER.CONST>
1

>  <SCORE.INTER.POLAR>
0

>  <SCORE.INTER.ROT>
3

>  <SCORE.INTER.SOLV>
17.7721

>  <SCORE.INTER.VDW>
-19.3633

>  <SCORE.INTER.norm>
-0.979905

>  <SCORE.INTRA>
-0.171821

>  <SCORE.INTRA.DIHEDRAL>
5.10394

>  <SCORE.INTRA.DIHEDRAL.0>
0.283163

>  <SCORE.INTRA.POLAR>
0

>  <SCORE.INTRA.POLAR.0>
0

>  <SCORE.INTRA.REPUL>
0

>  <SCORE.INTRA.REPUL.0>
0

>  <SCORE.INTRA.SOLV>
-0.686482

>  <SCORE.INTRA.SOLV.lig_0>
-32.2894

>  <SCORE.INTRA.VDW>
-2.38055

>  <SCORE.INTRA.VDW.0>
2.0241

>  <SCORE.INTRA.norm>
-0.0143184

>  <SCORE.RESTR>
0

>  <SCORE.RESTR.CAVITY>
0

>  <SCORE.RESTR.norm>
0

>  <SCORE.SYSTEM>
0

>  <SCORE.SYSTEM.CONST>
0

>  <SCORE.SYSTEM.DIHEDRAL>
0

>  <SCORE.SYSTEM.SOLV>
0

>  <SCORE.SYSTEM.norm>
0

>  <SCORE.heavy>
12

>  <SCORE.norm>
-0.994223

>  <RMSD>
17.432

$$$$
ligand
 OpenBabel11021811513D
libRbt.so/2013.1/901 2013/11/27
 12 12  0  0  0  0  0  0  0  0999 V2000
   10.4525   -1.1406  -15.6232 O   0  0  0  0  0  0  0  0  0  0  0  0
   14.7122   -0.8577  -19.1651 O   0  0  0  0  0  0  0  0  0  0  0  0
   11.2528   -0.4513  -16.5084 C   0  0  0  0  0  0  0  0  0  0  0  0
   15.4555   -3.0852  -19.8225 O   0  0  0  0  0  0  0  0  0  0  0  0
   12.1711   -1.3155  -17.2705 C   0  0  0  0  0  0  0  0  0  0  0  0
   17.0307   -1.5372  -18.8082 O   0  5  0  0  0  0  0  0  0  0  0  0
   12.9252   -2.2194  -16.3917 N   0  3  0  0  0  0  0  0  0  0  0  0
   12.0251   -2.9326  -15.5223 C   0  0  0  0  0  0  0  0  0  0  0  0
   11.1188   -1.9967  -14.7920 C   0  0  0  0  0  0  0  0  0  0  0  0
   13.7082   -3.1225  -17.1802 C   0  0  0  0  0  0  0  0  0  0  0  0
   15.1856   -2.6544  -17.1898 C   0  0  0  0  0  0  0  0  0  0  0  0
   15.6175   -1.9927  -18.8121 S   0  0  1  0  0  0  0  0  0  0  0  0
  1  3  1  0  0  0  0
  1  9  1  0  0  0  0
  2 12  1  0  0  0  0
  3  5  1  0  0  0  0
  4 12  2  0  0  0  0
  5  7  1  0  0  0  0
  6 12  2  0  0  0  0
  7  8  1  0  0  0  0
  7 10  1  0  0  0  0
  8  9  1  0  0  0  0
 10 11  1  0  0  0  0
 12 11  1  1  0  0  0
M  CHG  2   6  -1   7   1
M  END
>  <CHROM.1>
102.13445017,-108.41588683,58.06768748,13.70884287,-1.93514551,-17.44624014
2.84157030,-0.55523915,2.48435615

>  <Name>
ligand

>  <RI>
0

>  <Rbt.Current_Directory>
/home/itssahil/PROJECTS/Mol_Feturizer/New_Systems/rnas/4P95

>  <Rbt.Executable>
rbdock ($Id: //depot/dev/client3/rdock/2013.1/src/exe/rbdock.cxx#4 $)

>  <Rbt.Library>
libRbt.so (2013.1, Build901 2013/11/27)

>  <Rbt.Parameter_File>
/export/apps/rDock/src/rDock_2013.1_src/data/scripts/dock_solv.prm

>  <Rbt.Receptor>
prm/blind_docking_40.prm

>  <SCORE>
-12.1035

>  <SCORE.INTER>
-12.0942

>  <SCORE.INTER.CONST>
1

>  <SCORE.INTER.POLAR>
0

>  <SCORE.INTER.ROT>
3

>  <SCORE.INTER.SOLV>
10.6622

>  <SCORE.INTER.VDW>
-17.2169

>  <SCORE.INTER.norm>
-1.00785

>  <SCORE.INTRA>
-0.051623

>  <SCORE.INTRA.DIHEDRAL>
6.71537

>  <SCORE.INTRA.DIHEDRAL.0>
0.283163

>  <SCORE.INTRA.POLAR>
0

>  <SCORE.INTRA.POLAR.0>
0

>  <SCORE.INTRA.REPUL>
0

>  <SCORE.INTRA.REPUL.0>
0

>  <SCORE.INTRA.SOLV>
-0.734399

>  <SCORE.INTRA.SOLV.lig_0>
-32.2894

>  <SCORE.INTRA.VDW>
-3.04211

>  <SCORE.INTRA.VDW.0>
2.0241

>  <SCORE.INTRA.norm>
-0.00430192

>  <SCORE.RESTR>
0.0423221

>  <SCORE.RESTR.CAVITY>
0.0423221

>  <SCORE.RESTR.norm>
0.00352684

>  <SCORE.SYSTEM>
0

>  <SCORE.SYSTEM.CONST>
0

>  <SCORE.SYSTEM.DIHEDRAL>
0

>  <SCORE.SYSTEM.SOLV>
0

>  <SCORE.SYSTEM.norm>
0

>  <SCORE.heavy>
12

>  <SCORE.norm>
-1.00863

>  <RMSD>
17.452

$$$$
ligand
 OpenBabel11021811513D
libRbt.so/2013.1/901 2013/11/27
 12 12  0  0  0  0  0  0  0  0999 V2000
   12.8732   -3.1466  -14.2072 O   0  0  0  0  0  0  0  0  0  0  0  0
    7.6356    0.5139  -16.8068 O   0  0  0  0  0  0  0  0  0  0  0  0
   12.7065   -1.8243  -13.8565 C   0  0  0  0  0  0  0  0  0  0  0  0
    8.7484    0.9334  -18.9357 O   0  0  0  0  0  0  0  0  0  0  0  0
   11.5006   -1.2072  -14.4359 C   0  0  0  0  0  0  0  0  0  0  0  0
    8.7243    2.6597  -17.2252 O   0  5  0  0  0  0  0  0  0  0  0  0
   11.4118   -1.4373  -15.8840 N   0  3  0  0  0  0  0  0  0  0  0  0
   11.5566   -2.8407  -16.1739 C   0  0  0  0  0  0  0  0  0  0  0  0
   12.7914   -3.4008  -15.5475 C   0  0  0  0  0  0  0  0  0  0  0  0
   10.1681   -0.9311  -16.3812 C   0  0  0  0  0  0  0  0  0  0  0  0
   10.3472    0.5448  -16.8185 C   0  0  0  0  0  0  0  0  0  0  0  0
    8.7922    1.1956  -17.4625 S   0  0  1  0  0  0  0  0  0  0  0  0
  1  3  1  0  0  0  0
  1  9  1  0  0  0  0
  2 12  1  0  0  0  0
  3  5  1  0  0  0  0
  4 12  2  0  0  0  0
  5  7  1  0  0  0  0
  6 12  2  0  0  0  0
  7  8  1  0  0  0  0
  7 10  1  0  0  0  0
  8  9  1  0  0  0  0
 10 11  1  0  0  0  0
 12 11  1  1  0  0  0
M  CHG  2   6  -1   7   1
M  END
>  <CHROM.1>
90.55334835,179.48384527,29.45296850,10.39121567,-0.52477303,-16.29335548
-0.11833436,-0.89923301,0.80706482

>  <Name>
ligand

>  <RI>
0

>  <Rbt.Current_Directory>
/home/itssahil/PROJECTS/Mol_Feturizer/New_Systems/rnas/4P95

>  <Rbt.Executable>
rbdock ($Id: //depot/dev/client3/rdock/2013.1/src/exe/rbdock.cxx#4 $)

>  <Rbt.Library>
libRbt.so (2013.1, Build901 2013/11/27)

>  <Rbt.Parameter_File>
/export/apps/rDock/src/rDock_2013.1_src/data/scripts/dock_solv.prm

>  <Rbt.Receptor>
prm/blind_docking_40.prm

>  <SCORE>
-12.1896

>  <SCORE.INTER>
-10.9904

>  <SCORE.INTER.CONST>
1

>  <SCORE.INTER.POLAR>
0

>  <SCORE.INTER.ROT>
3

>  <SCORE.INTER.SOLV>
18.0362

>  <SCORE.INTER.VDW>
-18.939

>  <SCORE.INTER.norm>
-0.915867

>  <SCORE.INTRA>
-1.19918

>  <SCORE.INTRA.DIHEDRAL>
2.80928

>  <SCORE.INTRA.DIHEDRAL.0>
0.283163

>  <SCORE.INTRA.POLAR>
0

>  <SCORE.INTRA.POLAR.0>
0

>  <SCORE.INTRA.REPUL>
0

>  <SCORE.INTRA.REPUL.0>
0

>  <SCORE.INTRA.SOLV>
-0.723886

>  <SCORE.INTRA.SOLV.lig_0>
-32.2894

>  <SCORE.INTRA.VDW>
-2.24187

>  <SCORE.INTRA.VDW.0>
2.0241

>  <SCORE.INTRA.norm>
-0.0999313

>  <SCORE.RESTR>
0

>  <SCORE.RESTR.CAVITY>
0

>  <SCORE.RESTR.norm>
0

>  <SCORE.SYSTEM>
0

>  <SCORE.SYSTEM.CONST>
0

>  <SCORE.SYSTEM.DIHEDRAL>
0

>  <SCORE.SYSTEM.SOLV>
0

>  <SCORE.SYSTEM.norm>
0

>  <SCORE.heavy>
12

>  <SCORE.norm>
-1.0158

>  <RMSD>
17.467

$$$$
ligand
 OpenBabel11021811513D
libRbt.so/2013.1/901 2013/11/27
 12 12  0  0  0  0  0  0  0  0999 V2000
    3.7344   13.4426  -20.4471 O   0  0  0  0  0  0  0  0  0  0  0  0
    3.5968   17.8867  -25.8039 O   0  0  0  0  0  0  0  0  0  0  0  0
    4.3197   14.6902  -20.4483 C   0  0  0  0  0  0  0  0  0  0  0  0
    4.9459   16.2742  -27.0393 O   0  0  0  0  0  0  0  0  0  0  0  0
    4.1369   15.4271  -21.7110 C   0  0  0  0  0  0  0  0  0  0  0  0
    5.9833   18.2804  -26.1418 O   0  5  0  0  0  0  0  0  0  0  0  0
    4.5073   14.6131  -22.8764 N   0  3  0  0  0  0  0  0  0  0  0  0
    3.8319   13.3418  -22.8294 C   0  0  0  0  0  0  0  0  0  0  0  0
    4.0513   12.6576  -21.5200 C   0  0  0  0  0  0  0  0  0  0  0  0
    4.1965   15.3206  -24.0819 C   0  0  0  0  0  0  0  0  0  0  0  0
    5.3188   16.3454  -24.3850 C   0  0  0  0  0  0  0  0  0  0  0  0
    4.9438   17.2476  -25.9021 S   0  0  1  0  0  0  0  0  0  0  0  0
  1  3  1  0  0  0  0
  1  9  1  0  0  0  0
  2 12  1  0  0  0  0
  3  5  1  0  0  0  0
  4 12  2  0  0  0  0
  5  7  1  0  0  0  0
  6 12  2  0  0  0  0
  7  8  1  0  0  0  0
  7 10  1  0  0  0  0
  8  9  1  0  0  0  0
 10 11  1  0  0  0  0
 12 11  1  1  0  0  0
M  CHG  2   6  -1   7   1
M  END
>  <CHROM.1>
80.77754493,-179.98736085,55.24589715,4.51254998,15.66766052,-23.86393203
-2.47349506,-1.37063300,-1.82080865

>  <Name>
ligand

>  <RI>
0

>  <Rbt.Current_Directory>
/home/itssahil/PROJECTS/Mol_Feturizer/New_Systems/rnas/4P95

>  <Rbt.Executable>
rbdock ($Id: //depot/dev/client3/rdock/2013.1/src/exe/rbdock.cxx#4 $)

>  <Rbt.Library>
libRbt.so (2013.1, Build901 2013/11/27)

>  <Rbt.Parameter_File>
/export/apps/rDock/src/rDock_2013.1_src/data/scripts/dock_solv.prm

>  <Rbt.Receptor>
prm/blind_docking_40.prm

>  <SCORE>
-10.6095

>  <SCORE.INTER>
-8.39535

>  <SCORE.INTER.CONST>
1

>  <SCORE.INTER.POLAR>
0

>  <SCORE.INTER.ROT>
3

>  <SCORE.INTER.SOLV>
6.92228

>  <SCORE.INTER.VDW>
-13.5043

>  <SCORE.INTER.norm>
-0.699612

>  <SCORE.INTRA>
-2.21416

>  <SCORE.INTRA.DIHEDRAL>
0.465134

>  <SCORE.INTRA.DIHEDRAL.0>
0.283163

>  <SCORE.INTRA.POLAR>
0

>  <SCORE.INTRA.POLAR.0>
0

>  <SCORE.INTRA.REPUL>
0

>  <SCORE.INTRA.REPUL.0>
0

>  <SCORE.INTRA.SOLV>
-0.720201

>  <SCORE.INTRA.SOLV.lig_0>
-32.2894

>  <SCORE.INTRA.VDW>
-2.08663

>  <SCORE.INTRA.VDW.0>
2.0241

>  <SCORE.INTRA.norm>
-0.184514

>  <SCORE.RESTR>
0

>  <SCORE.RESTR.CAVITY>
0

>  <SCORE.RESTR.norm>
0

>  <SCORE.SYSTEM>
0

>  <SCORE.SYSTEM.CONST>
0

>  <SCORE.SYSTEM.DIHEDRAL>
0

>  <SCORE.SYSTEM.SOLV>
0

>  <SCORE.SYSTEM.norm>
0

>  <SCORE.heavy>
12

>  <SCORE.norm>
-0.884126

>  <RMSD>
17.470

$$$$
ligand
 OpenBabel11021811513D
libRbt.so/2013.1/901 2013/11/27
 12 12  0  0  0  0  0  0  0  0999 V2000
   12.8408   -3.3567  -14.5152 O   0  0  0  0  0  0  0  0  0  0  0  0
    9.2193    2.5906  -17.0758 O   0  0  0  0  0  0  0  0  0  0  0  0
   12.8485   -2.1559  -13.8389 C   0  0  0  0  0  0  0  0  0  0  0  0
    7.7995    0.6081  -17.0515 O   0  0  0  0  0  0  0  0  0  0  0  0
   11.7099   -1.2825  -14.1732 C   0  0  0  0  0  0  0  0  0  0  0  0
    8.7920    1.3567  -19.1397 O   0  5  0  0  0  0  0  0  0  0  0  0
   11.5488   -1.1278  -15.6251 N   0  3  0  0  0  0  0  0  0  0  0  0
   11.5112   -2.4195  -16.2613 C   0  0  0  0  0  0  0  0  0  0  0  0
   12.6869   -3.2531  -15.8692 C   0  0  0  0  0  0  0  0  0  0  0  0
   10.3616   -0.3777  -15.9051 C   0  0  0  0  0  0  0  0  0  0  0  0
   10.4294    0.1792  -17.3497 C   0  0  0  0  0  0  0  0  0  0  0  0
    9.0054    1.2387  -17.6751 S   0  0  1  0  0  0  0  0  0  0  0  0
  1  3  1  0  0  0  0
  1  9  1  0  0  0  0
  2 12  1  0  0  0  0
  3  5  1  0  0  0  0
  4 12  2  0  0  0  0
  5  7  1  0  0  0  0
  6 12  2  0  0  0  0
  7  8  1  0  0  0  0
  7 10  1  0  0  0  0
  8  9  1  0  0  0  0
 10 11  1  0  0  0  0
 12 11  1  1  0  0  0
M  CHG  2   6  -1   7   1
M  END
>  <CHROM.1>
161.54429227,-175.39629597,79.42370735,10.52594668,-0.45043988,-16.37307375
-0.06602023,0.93920895,-2.12935090

>  <Name>
ligand

>  <RI>
0

>  <Rbt.Current_Directory>
/home/itssahil/PROJECTS/Mol_Feturizer/New_Systems/rnas/4P95

>  <Rbt.Executable>
rbdock ($Id: //depot/dev/client3/rdock/2013.1/src/exe/rbdock.cxx#4 $)

>  <Rbt.Library>
libRbt.so (2013.1, Build901 2013/11/27)

>  <Rbt.Parameter_File>
/export/apps/rDock/src/rDock_2013.1_src/data/scripts/dock_solv.prm

>  <Rbt.Receptor>
prm/blind_docking_80.prm

>  <SCORE>
-13.5448

>  <SCORE.INTER>
-12.0666

>  <SCORE.INTER.CONST>
1

>  <SCORE.INTER.POLAR>
0

>  <SCORE.INTER.ROT>
3

>  <SCORE.INTER.SOLV>
17.072

>  <SCORE.INTER.VDW>
-19.3351

>  <SCORE.INTER.norm>
-1.00555

>  <SCORE.INTRA>
-1.47821

>  <SCORE.INTRA.DIHEDRAL>
1.1689

>  <SCORE.INTRA.DIHEDRAL.0>
0.283163

>  <SCORE.INTRA.POLAR>
0

>  <SCORE.INTRA.POLAR.0>
0

>  <SCORE.INTRA.REPUL>
0

>  <SCORE.INTRA.REPUL.0>
0

>  <SCORE.INTRA.SOLV>
-0.634613

>  <SCORE.INTRA.SOLV.lig_0>
-32.2894

>  <SCORE.INTRA.VDW>
-1.74535

>  <SCORE.INTRA.VDW.0>
2.0241

>  <SCORE.INTRA.norm>
-0.123184

>  <SCORE.RESTR>
0

>  <SCORE.RESTR.CAVITY>
0

>  <SCORE.RESTR.norm>
0

>  <SCORE.SYSTEM>
0

>  <SCORE.SYSTEM.CONST>
0

>  <SCORE.SYSTEM.DIHEDRAL>
0

>  <SCORE.SYSTEM.SOLV>
0

>  <SCORE.SYSTEM.norm>
0

>  <SCORE.heavy>
12

>  <SCORE.norm>
-1.12873

>  <RMSD>
17.473

$$$$
ligand
 OpenBabel11021811513D
libRbt.so/2013.1/901 2013/11/27
 12 12  0  0  0  0  0  0  0  0999 V2000
   13.0355   -2.9512  -14.1441 O   0  0  0  0  0  0  0  0  0  0  0  0
    8.8404    1.4485  -19.2105 O   0  0  0  0  0  0  0  0  0  0  0  0
   13.1803   -1.5893  -13.9910 C   0  0  0  0  0  0  0  0  0  0  0  0
    9.2434    2.5360  -17.0653 O   0  0  0  0  0  0  0  0  0  0  0  0
   11.9953   -0.8190  -14.4073 C   0  0  0  0  0  0  0  0  0  0  0  0
    7.7953    0.5875  -17.1780 O   0  5  0  0  0  0  0  0  0  0  0  0
   11.5371   -1.2050  -15.7486 N   0  3  0  0  0  0  0  0  0  0  0  0
   11.3716   -2.6338  -15.8250 C   0  0  0  0  0  0  0  0  0  0  0  0
   12.6048   -3.3486  -15.3787 C   0  0  0  0  0  0  0  0  0  0  0  0
   10.3161   -0.5247  -16.0595 C   0  0  0  0  0  0  0  0  0  0  0  0
   10.4465    0.1690  -17.4391 C   0  0  0  0  0  0  0  0  0  0  0  0
    9.0128    1.2217  -17.7437 S   0  0  1  0  0  0  0  0  0  0  0  0
  1  3  1  0  0  0  0
  1  9  1  0  0  0  0
  2 12  1  0  0  0  0
  3  5  1  0  0  0  0
  4 12  2  0  0  0  0
  5  7  1  0  0  0  0
  6 12  2  0  0  0  0
  7  8  1  0  0  0  0
  7 10  1  0  0  0  0
  8  9  1  0  0  0  0
 10 11  1  0  0  0  0
 12 11  1  1  0  0  0
M  CHG  2   6  -1   7   1
M  END
>  <CHROM.1>
128.80242570,-171.97650524,-157.36737876,10.57451451,-0.38338916,-16.35667919
-0.39264743,-0.85966439,0.36716758

>  <Name>
ligand

>  <RI>
0

>  <Rbt.Current_Directory>
/home/itssahil/PROJECTS/Mol_Feturizer/New_Systems/rnas/4P95

>  <Rbt.Executable>
rbdock ($Id: //depot/dev/client3/rdock/2013.1/src/exe/rbdock.cxx#4 $)

>  <Rbt.Library>
libRbt.so (2013.1, Build901 2013/11/27)

>  <Rbt.Parameter_File>
/export/apps/rDock/src/rDock_2013.1_src/data/scripts/dock_solv.prm

>  <Rbt.Receptor>
prm/blind_docking_40.prm

>  <SCORE>
-12.874

>  <SCORE.INTER>
-12.206

>  <SCORE.INTER.CONST>
1

>  <SCORE.INTER.POLAR>
0

>  <SCORE.INTER.ROT>
3

>  <SCORE.INTER.SOLV>
15.3758

>  <SCORE.INTER.VDW>
-18.8626

>  <SCORE.INTER.norm>
-1.01717

>  <SCORE.INTRA>
-0.668031

>  <SCORE.INTRA.DIHEDRAL>
3.3803

>  <SCORE.INTRA.DIHEDRAL.0>
0.283163

>  <SCORE.INTRA.POLAR>
0

>  <SCORE.INTRA.POLAR.0>
0

>  <SCORE.INTRA.REPUL>
0

>  <SCORE.INTRA.REPUL.0>
0

>  <SCORE.INTRA.SOLV>
0.40417

>  <SCORE.INTRA.SOLV.lig_0>
-32.2894

>  <SCORE.INTRA.VDW>
-2.56027

>  <SCORE.INTRA.VDW.0>
2.0241

>  <SCORE.INTRA.norm>
-0.0556693

>  <SCORE.RESTR>
0

>  <SCORE.RESTR.CAVITY>
0

>  <SCORE.RESTR.norm>
0

>  <SCORE.SYSTEM>
0

>  <SCORE.SYSTEM.CONST>
0

>  <SCORE.SYSTEM.DIHEDRAL>
0

>  <SCORE.SYSTEM.SOLV>
0

>  <SCORE.SYSTEM.norm>
0

>  <SCORE.heavy>
12

>  <SCORE.norm>
-1.07284

>  <RMSD>
17.479

$$$$
ligand
 OpenBabel11021811513D
libRbt.so/2013.1/901 2013/11/27
 12 12  0  0  0  0  0  0  0  0999 V2000
   13.0081   -2.9634  -14.1409 O   0  0  0  0  0  0  0  0  0  0  0  0
    9.2536    2.5900  -17.0373 O   0  0  0  0  0  0  0  0  0  0  0  0
   13.1916   -1.6033  -14.0152 C   0  0  0  0  0  0  0  0  0  0  0  0
    7.7831    0.6450  -17.0725 O   0  0  0  0  0  0  0  0  0  0  0  0
   12.0145   -0.8097  -14.4096 C   0  0  0  0  0  0  0  0  0  0  0  0
    8.7742    1.4469  -19.1416 O   0  5  0  0  0  0  0  0  0  0  0  0
   11.5071   -1.2055  -15.7302 N   0  3  0  0  0  0  0  0  0  0  0  0
   11.3036   -2.6307  -15.7775 C   0  0  0  0  0  0  0  0  0  0  0  0
   12.5310   -3.3695  -15.3554 C   0  0  0  0  0  0  0  0  0  0  0  0
   10.2948   -0.4993  -16.0167 C   0  0  0  0  0  0  0  0  0  0  0  0
   10.3980    0.1607  -17.4150 C   0  0  0  0  0  0  0  0  0  0  0  0
    8.9988    1.2678  -17.6848 S   0  0  1  0  0  0  0  0  0  0  0  0
  1  3  1  0  0  0  0
  1  9  1  0  0  0  0
  2 12  1  0  0  0  0
  3  5  1  0  0  0  0
  4 12  2  0  0  0  0
  5  7  1  0  0  0  0
  6 12  2  0  0  0  0
  7  8  1  0  0  0  0
  7 10  1  0  0  0  0
  8  9  1  0  0  0  0
 10 11  1  0  0  0  0
 12 11  1  1  0  0  0
M  CHG  2   6  -1   7   1
M  END
>  <CHROM.1>
129.17248913,-170.96059693,82.03354901,10.54908341,-0.36815256,-16.32066990
-0.44386428,-0.84085271,0.31464742

>  <Name>
ligand

>  <RI>
0

>  <Rbt.Current_Directory>
/home/itssahil/PROJECTS/Mol_Feturizer/New_Systems/rnas/4P95

>  <Rbt.Executable>
rbdock ($Id: //depot/dev/client3/rdock/2013.1/src/exe/rbdock.cxx#4 $)

>  <Rbt.Library>
libRbt.so (2013.1, Build901 2013/11/27)

>  <Rbt.Parameter_File>
/export/apps/rDock/src/rDock_2013.1_src/data/scripts/dock_solv.prm

>  <Rbt.Receptor>
prm/blind_docking_40.prm

>  <SCORE>
-12.674

>  <SCORE.INTER>
-11.5165

>  <SCORE.INTER.CONST>
1

>  <SCORE.INTER.POLAR>
0

>  <SCORE.INTER.ROT>
3

>  <SCORE.INTER.SOLV>
16.7091

>  <SCORE.INTER.VDW>
-18.8474

>  <SCORE.INTER.norm>
-0.959709

>  <SCORE.INTRA>
-1.15747

>  <SCORE.INTRA.DIHEDRAL>
3.3793

>  <SCORE.INTRA.DIHEDRAL.0>
0.283163

>  <SCORE.INTRA.POLAR>
0

>  <SCORE.INTRA.POLAR.0>
0

>  <SCORE.INTRA.REPUL>
0

>  <SCORE.INTRA.REPUL.0>
0

>  <SCORE.INTRA.SOLV>
-0.627598

>  <SCORE.INTRA.SOLV.lig_0>
-32.2894

>  <SCORE.INTRA.VDW>
-2.53333

>  <SCORE.INTRA.VDW.0>
2.0241

>  <SCORE.INTRA.norm>
-0.0964562

>  <SCORE.RESTR>
0

>  <SCORE.RESTR.CAVITY>
0

>  <SCORE.RESTR.norm>
0

>  <SCORE.SYSTEM>
0

>  <SCORE.SYSTEM.CONST>
0

>  <SCORE.SYSTEM.DIHEDRAL>
0

>  <SCORE.SYSTEM.SOLV>
0

>  <SCORE.SYSTEM.norm>
0

>  <SCORE.heavy>
12

>  <SCORE.norm>
-1.05617

>  <RMSD>
17.506

$$$$
ligand
 OpenBabel11021811513D
libRbt.so/2013.1/901 2013/11/27
 12 12  0  0  0  0  0  0  0  0999 V2000
    9.9853   -0.7650  -14.9729 O   0  0  0  0  0  0  0  0  0  0  0  0
   15.7537   -2.7650  -19.7707 O   0  0  0  0  0  0  0  0  0  0  0  0
   10.3777   -0.3681  -16.2330 C   0  0  0  0  0  0  0  0  0  0  0  0
   14.6733   -4.5380  -18.4917 O   0  0  0  0  0  0  0  0  0  0  0  0
   11.3130   -1.3033  -16.8822 C   0  0  0  0  0  0  0  0  0  0  0  0
   16.4219   -3.2004  -17.4623 O   0  5  0  0  0  0  0  0  0  0  0  0
   12.4413   -1.6435  -16.0051 N   0  3  0  0  0  0  0  0  0  0  0  0
   11.9578   -2.0845  -14.7220 C   0  0  0  0  0  0  0  0  0  0  0  0
   11.0085   -1.0954  -14.1294 C   0  0  0  0  0  0  0  0  0  0  0  0
   13.2537   -2.6463  -16.6253 C   0  0  0  0  0  0  0  0  0  0  0  0
   14.0212   -2.0254  -17.8199 C   0  0  0  0  0  0  0  0  0  0  0  0
   15.2817   -3.1725  -18.4129 S   0  0  1  0  0  0  0  0  0  0  0  0
  1  3  1  0  0  0  0
  1  9  1  0  0  0  0
  2 12  1  0  0  0  0
  3  5  1  0  0  0  0
  4 12  2  0  0  0  0
  5  7  1  0  0  0  0
  6 12  2  0  0  0  0
  7  8  1  0  0  0  0
  7 10  1  0  0  0  0
  8  9  1  0  0  0  0
 10 11  1  0  0  0  0
 12 11  1  1  0  0  0
M  CHG  2   6  -1   7   1
M  END
>  <CHROM.1>
71.17713677,169.06106196,164.08480625,13.29630753,-2.25817265,-16.98012388
2.67223149,-0.55310449,1.77711128

>  <Name>
ligand

>  <RI>
0

>  <Rbt.Current_Directory>
/home/itssahil/PROJECTS/Mol_Feturizer/New_Systems/rnas/4P95

>  <Rbt.Executable>
rbdock ($Id: //depot/dev/client3/rdock/2013.1/src/exe/rbdock.cxx#4 $)

>  <Rbt.Library>
libRbt.so (2013.1, Build901 2013/11/27)

>  <Rbt.Parameter_File>
/export/apps/rDock/src/rDock_2013.1_src/data/scripts/dock_solv.prm

>  <Rbt.Receptor>
prm/blind_docking_60.prm

>  <SCORE>
-11.4883

>  <SCORE.INTER>
-10.5211

>  <SCORE.INTER.CONST>
1

>  <SCORE.INTER.POLAR>
0

>  <SCORE.INTER.ROT>
3

>  <SCORE.INTER.SOLV>
8.69697

>  <SCORE.INTER.VDW>
-15.5131

>  <SCORE.INTER.norm>
-0.876758

>  <SCORE.INTRA>
-0.967177

>  <SCORE.INTRA.DIHEDRAL>
0.942243

>  <SCORE.INTRA.DIHEDRAL.0>
0.283163

>  <SCORE.INTRA.POLAR>
0

>  <SCORE.INTRA.POLAR.0>
0

>  <SCORE.INTRA.REPUL>
0

>  <SCORE.INTRA.REPUL.0>
0

>  <SCORE.INTRA.SOLV>
0.0376425

>  <SCORE.INTRA.SOLV.lig_0>
-32.2894

>  <SCORE.INTRA.VDW>
-1.45712

>  <SCORE.INTRA.VDW.0>
2.0241

>  <SCORE.INTRA.norm>
-0.0805981

>  <SCORE.RESTR>
0

>  <SCORE.RESTR.CAVITY>
0

>  <SCORE.RESTR.norm>
0

>  <SCORE.SYSTEM>
0

>  <SCORE.SYSTEM.CONST>
0

>  <SCORE.SYSTEM.DIHEDRAL>
0

>  <SCORE.SYSTEM.SOLV>
0

>  <SCORE.SYSTEM.norm>
0

>  <SCORE.heavy>
12

>  <SCORE.norm>
-0.957357

>  <RMSD>
17.624

$$$$
ligand
 OpenBabel11021811513D
libRbt.so/2013.1/901 2013/11/27
 12 12  0  0  0  0  0  0  0  0999 V2000
    7.8193    0.5809  -17.6597 O   0  0  0  0  0  0  0  0  0  0  0  0
   14.3198   -0.8823  -14.6328 O   0  0  0  0  0  0  0  0  0  0  0  0
    8.8200    1.5285  -17.6557 C   0  0  0  0  0  0  0  0  0  0  0  0
   13.2929   -2.9426  -15.4372 O   0  0  0  0  0  0  0  0  0  0  0  0
   10.1587    0.9725  -17.3914 C   0  0  0  0  0  0  0  0  0  0  0  0
   13.3042   -2.4483  -13.0577 O   0  5  0  0  0  0  0  0  0  0  0  0
   10.1680    0.1162  -16.1979 N   0  3  0  0  0  0  0  0  0  0  0  0
    9.1234   -0.8716  -16.2869 C   0  0  0  0  0  0  0  0  0  0  0  0
    7.7995   -0.2392  -16.5667 C   0  0  0  0  0  0  0  0  0  0  0  0
   11.4523   -0.4998  -16.0517 C   0  0  0  0  0  0  0  0  0  0  0  0
   11.6120   -1.0272  -14.6033 C   0  0  0  0  0  0  0  0  0  0  0  0
   13.2052   -1.8531  -14.4144 S   0  0  1  0  0  0  0  0  0  0  0  0
  1  3  1  0  0  0  0
  1  9  1  0  0  0  0
  2 12  1  0  0  0  0
  3  5  1  0  0  0  0
  4 12  2  0  0  0  0
  5  7  1  0  0  0  0
  6 12  2  0  0  0  0
  7  8  1  0  0  0  0
  7 10  1  0  0  0  0
  8  9  1  0  0  0  0
 10 11  1  0  0  0  0
 12 11  1  6  0  0  0
M  CHG  2   6  -1   7   1
M  END
>  <CHROM.1>
162.38812875,178.23587378,62.98454990,11.18615298,-0.77629526,-15.67247486
2.48824362,-0.16423995,-0.64874431

>  <Name>
ligand

>  <RI>
0

>  <Rbt.Current_Directory>
/home/itssahil/PROJECTS/Mol_Feturizer/New_Systems/rnas/4P95

>  <Rbt.Executable>
rbdock ($Id: //depot/dev/client3/rdock/2013.1/src/exe/rbdock.cxx#4 $)

>  <Rbt.Library>
libRbt.so (2013.1, Build901 2013/11/27)

>  <Rbt.Parameter_File>
/export/apps/rDock/src/rDock_2013.1_src/data/scripts/dock_solv.prm

>  <Rbt.Receptor>
prm/blind_docking_100.prm

>  <SCORE>
-5.32769

>  <SCORE.INTER>
-3.22145

>  <SCORE.INTER.CONST>
1

>  <SCORE.INTER.POLAR>
0

>  <SCORE.INTER.ROT>
3

>  <SCORE.INTER.SOLV>
10.8474

>  <SCORE.INTER.VDW>
-11.3634

>  <SCORE.INTER.norm>
-0.268454

>  <SCORE.INTRA>
-2.10624

>  <SCORE.INTRA.DIHEDRAL>
0.184406

>  <SCORE.INTRA.DIHEDRAL.0>
0.283163

>  <SCORE.INTRA.POLAR>
0

>  <SCORE.INTRA.POLAR.0>
0

>  <SCORE.INTRA.REPUL>
0

>  <SCORE.INTRA.REPUL.0>
0

>  <SCORE.INTRA.SOLV>
-0.699821

>  <SCORE.INTRA.SOLV.lig_0>
-32.2894

>  <SCORE.INTRA.VDW>
-1.84854

>  <SCORE.INTRA.VDW.0>
2.0241

>  <SCORE.INTRA.norm>
-0.17552

>  <SCORE.RESTR>
0

>  <SCORE.RESTR.CAVITY>
0

>  <SCORE.RESTR.norm>
0

>  <SCORE.SYSTEM>
0

>  <SCORE.SYSTEM.CONST>
0

>  <SCORE.SYSTEM.DIHEDRAL>
0

>  <SCORE.SYSTEM.SOLV>
0

>  <SCORE.SYSTEM.norm>
0

>  <SCORE.heavy>
12

>  <SCORE.norm>
-0.443974

>  <RMSD>
17.651

$$$$
ligand
 OpenBabel11021811513D
libRbt.so/2013.1/901 2013/11/27
 12 12  0  0  0  0  0  0  0  0999 V2000
   10.3075   -1.2202  -14.7465 O   0  0  0  0  0  0  0  0  0  0  0  0
   15.5651   -1.1927  -19.3924 O   0  0  0  0  0  0  0  0  0  0  0  0
   10.7356   -0.2343  -15.6091 C   0  0  0  0  0  0  0  0  0  0  0  0
   15.3441   -3.6209  -19.3559 O   0  0  0  0  0  0  0  0  0  0  0  0
   11.5467   -0.7415  -16.7297 C   0  0  0  0  0  0  0  0  0  0  0  0
   17.2286   -2.5633  -18.2440 O   0  5  0  0  0  0  0  0  0  0  0  0
   12.6322   -1.6158  -16.2658 N   0  3  0  0  0  0  0  0  0  0  0  0
   12.1086   -2.6422  -15.4015 C   0  0  0  0  0  0  0  0  0  0  0  0
   11.2896   -2.0578  -14.2976 C   0  0  0  0  0  0  0  0  0  0  0  0
   13.3134   -2.1832  -17.3903 C   0  0  0  0  0  0  0  0  0  0  0  0
   14.8176   -2.3478  -17.0556 C   0  0  0  0  0  0  0  0  0  0  0  0
   15.7880   -2.4234  -18.5751 S   0  0  1  0  0  0  0  0  0  0  0  0
  1  3  1  0  0  0  0
  1  9  1  0  0  0  0
  2 12  1  0  0  0  0
  3  5  1  0  0  0  0
  4 12  2  0  0  0  0
  5  7  1  0  0  0  0
  6 12  2  0  0  0  0
  7  8  1  0  0  0  0
  7 10  1  0  0  0  0
  8  9  1  0  0  0  0
 10 11  1  0  0  0  0
 12 11  1  1  0  0  0
M  CHG  2   6  -1   7   1
M  END
>  <CHROM.1>
146.02653166,-157.68362300,57.78317708,13.66212400,-1.96186836,-17.11666132
-2.85848734,0.58702832,-0.80293623

>  <Name>
ligand

>  <RI>
0

>  <Rbt.Current_Directory>
/home/itssahil/PROJECTS/Mol_Feturizer/New_Systems/rnas/4P95

>  <Rbt.Executable>
rbdock ($Id: //depot/dev/client3/rdock/2013.1/src/exe/rbdock.cxx#4 $)

>  <Rbt.Library>
libRbt.so (2013.1, Build901 2013/11/27)

>  <Rbt.Parameter_File>
/export/apps/rDock/src/rDock_2013.1_src/data/scripts/dock_solv.prm

>  <Rbt.Receptor>
prm/blind_docking_80.prm

>  <SCORE>
-11.9699

>  <SCORE.INTER>
-10.5565

>  <SCORE.INTER.CONST>
1

>  <SCORE.INTER.POLAR>
0

>  <SCORE.INTER.ROT>
3

>  <SCORE.INTER.SOLV>
8.70471

>  <SCORE.INTER.VDW>
-15.5393

>  <SCORE.INTER.norm>
-0.87971

>  <SCORE.INTRA>
-1.4134

>  <SCORE.INTRA.DIHEDRAL>
2.78132

>  <SCORE.INTRA.DIHEDRAL.0>
0.283163

>  <SCORE.INTRA.POLAR>
0

>  <SCORE.INTRA.POLAR.0>
0

>  <SCORE.INTRA.REPUL>
0

>  <SCORE.INTRA.REPUL.0>
0

>  <SCORE.INTRA.SOLV>
-0.713355

>  <SCORE.INTRA.SOLV.lig_0>
-32.2894

>  <SCORE.INTRA.VDW>
-2.44738

>  <SCORE.INTRA.VDW.0>
2.0241

>  <SCORE.INTRA.norm>
-0.117783

>  <SCORE.RESTR>
0

>  <SCORE.RESTR.CAVITY>
0

>  <SCORE.RESTR.norm>
0

>  <SCORE.SYSTEM>
0

>  <SCORE.SYSTEM.CONST>
0

>  <SCORE.SYSTEM.DIHEDRAL>
0

>  <SCORE.SYSTEM.SOLV>
0

>  <SCORE.SYSTEM.norm>
0

>  <SCORE.heavy>
12

>  <SCORE.norm>
-0.997493

>  <RMSD>
17.674

$$$$
ligand
 OpenBabel11021811513D
libRbt.so/2013.1/901 2013/11/27
 12 12  0  0  0  0  0  0  0  0999 V2000
    8.2388    1.0154  -18.0228 O   0  0  0  0  0  0  0  0  0  0  0  0
   13.7089   -2.0061  -15.4652 O   0  0  0  0  0  0  0  0  0  0  0  0
    9.4101    1.6285  -17.6337 C   0  0  0  0  0  0  0  0  0  0  0  0
   12.5964   -2.6454  -13.3915 O   0  0  0  0  0  0  0  0  0  0  0  0
   10.3860    0.7065  -17.0268 C   0  0  0  0  0  0  0  0  0  0  0  0
   14.1503   -0.7768  -13.4015 O   0  5  0  0  0  0  0  0  0  0  0  0
    9.7797   -0.1090  -15.9660 N   0  3  0  0  0  0  0  0  0  0  0  0
    8.5841   -0.7481  -16.4526 C   0  0  0  0  0  0  0  0  0  0  0  0
    7.6479    0.2426  -17.0630 C   0  0  0  0  0  0  0  0  0  0  0  0
   10.7268   -1.0732  -15.4929 C   0  0  0  0  0  0  0  0  0  0  0  0
   11.7410   -0.3820  -14.5467 C   0  0  0  0  0  0  0  0  0  0  0  0
   13.1179   -1.4933  -14.1924 S   0  0  1  0  0  0  0  0  0  0  0  0
  1  3  1  0  0  0  0
  1  9  1  0  0  0  0
  2 12  1  0  0  0  0
  3  5  1  0  0  0  0
  4 12  2  0  0  0  0
  5  7  1  0  0  0  0
  6 12  2  0  0  0  0
  7  8  1  0  0  0  0
  7 10  1  0  0  0  0
  8  9  1  0  0  0  0
 10 11  1  0  0  0  0
 12 11  1  6  0  0  0
M  CHG  2   6  -1   7   1
M  END
>  <CHROM.1>
77.61189862,-169.17886316,52.71792180,11.10635775,-0.59084436,-15.55283747
-2.47745541,0.24555242,2.47325325

>  <Name>
ligand

>  <RI>
0

>  <Rbt.Current_Directory>
/home/itssahil/PROJECTS/Mol_Feturizer/New_Systems/rnas/4P95

>  <Rbt.Executable>
rbdock ($Id: //depot/dev/client3/rdock/2013.1/src/exe/rbdock.cxx#4 $)

>  <Rbt.Library>
libRbt.so (2013.1, Build901 2013/11/27)

>  <Rbt.Parameter_File>
/export/apps/rDock/src/rDock_2013.1_src/data/scripts/dock_solv.prm

>  <Rbt.Receptor>
prm/blind_docking_60.prm

>  <SCORE>
-5.73561

>  <SCORE.INTER>
-3.80128

>  <SCORE.INTER.CONST>
1

>  <SCORE.INTER.POLAR>
0

>  <SCORE.INTER.ROT>
3

>  <SCORE.INTER.SOLV>
10.3287

>  <SCORE.INTER.VDW>
-11.5771

>  <SCORE.INTER.norm>
-0.316773

>  <SCORE.INTRA>
-1.93433

>  <SCORE.INTRA.DIHEDRAL>
0.788621

>  <SCORE.INTRA.DIHEDRAL.0>
0.283163

>  <SCORE.INTRA.POLAR>
0

>  <SCORE.INTRA.POLAR.0>
0

>  <SCORE.INTRA.REPUL>
0

>  <SCORE.INTRA.REPUL.0>
0

>  <SCORE.INTRA.SOLV>
-0.724442

>  <SCORE.INTRA.SOLV.lig_0>
-32.2894

>  <SCORE.INTRA.VDW>
-1.96642

>  <SCORE.INTRA.VDW.0>
2.0241

>  <SCORE.INTRA.norm>
-0.161194

>  <SCORE.RESTR>
0

>  <SCORE.RESTR.CAVITY>
0

>  <SCORE.RESTR.norm>
0

>  <SCORE.SYSTEM>
0

>  <SCORE.SYSTEM.CONST>
0

>  <SCORE.SYSTEM.DIHEDRAL>
0

>  <SCORE.SYSTEM.SOLV>
0

>  <SCORE.SYSTEM.norm>
0

>  <SCORE.heavy>
12

>  <SCORE.norm>
-0.477968

>  <RMSD>
17.721

$$$$
ligand
 OpenBabel11021811513D
libRbt.so/2013.1/901 2013/11/27
 12 12  0  0  0  0  0  0  0  0999 V2000
   11.2743   -1.0343  -14.7513 O   0  0  0  0  0  0  0  0  0  0  0  0
   14.6118   -0.8965  -19.0505 O   0  0  0  0  0  0  0  0  0  0  0  0
   10.9765   -1.5367  -15.9996 C   0  0  0  0  0  0  0  0  0  0  0  0
   15.3443   -3.1401  -19.6639 O   0  0  0  0  0  0  0  0  0  0  0  0
   11.9497   -2.5317  -16.4832 C   0  0  0  0  0  0  0  0  0  0  0  0
   16.9932   -1.4274  -19.1597 O   0  5  0  0  0  0  0  0  0  0  0  0
   13.3307   -2.0440  -16.3701 N   0  3  0  0  0  0  0  0  0  0  0  0
   13.5825   -1.5704  -15.0333 C   0  0  0  0  0  0  0  0  0  0  0  0
   12.5535   -0.5757  -14.6061 C   0  0  0  0  0  0  0  0  0  0  0  0
   14.2449   -3.0851  -16.7316 C   0  0  0  0  0  0  0  0  0  0  0  0
   15.6216   -2.4665  -17.0834 C   0  0  0  0  0  0  0  0  0  0  0  0
   15.6467   -1.9474  -18.8114 S   0  0  1  0  0  0  0  0  0  0  0  0
  1  3  1  0  0  0  0
  1  9  1  0  0  0  0
  2 12  1  0  0  0  0
  3  5  1  0  0  0  0
  4 12  2  0  0  0  0
  5  7  1  0  0  0  0
  6 12  2  0  0  0  0
  7  8  1  0  0  0  0
  7 10  1  0  0  0  0
  8  9  1  0  0  0  0
 10 11  1  0  0  0  0
 12 11  1  1  0  0  0
M  CHG  2   6  -1   7   1
M  END
>  <CHROM.1>
160.70841733,-85.22243348,61.70992759,14.04048291,-1.85389191,-17.19675182
-2.39648262,-0.20033720,-1.94771000

>  <Name>
ligand

>  <RI>
0

>  <Rbt.Current_Directory>
/home/itssahil/PROJECTS/Mol_Feturizer/New_Systems/rnas/4P95

>  <Rbt.Executable>
rbdock ($Id: //depot/dev/client3/rdock/2013.1/src/exe/rbdock.cxx#4 $)

>  <Rbt.Library>
libRbt.so (2013.1, Build901 2013/11/27)

>  <Rbt.Parameter_File>
/export/apps/rDock/src/rDock_2013.1_src/data/scripts/dock_solv.prm

>  <Rbt.Receptor>
prm/blind_docking_100.prm

>  <SCORE>
-9.63926

>  <SCORE.INTER>
-8.13511

>  <SCORE.INTER.CONST>
1

>  <SCORE.INTER.POLAR>
0

>  <SCORE.INTER.ROT>
3

>  <SCORE.INTER.SOLV>
10.6109

>  <SCORE.INTER.VDW>
-14.5604

>  <SCORE.INTER.norm>
-0.677926

>  <SCORE.INTRA>
-1.50762

>  <SCORE.INTRA.DIHEDRAL>
2.3134

>  <SCORE.INTRA.DIHEDRAL.0>
0.283163

>  <SCORE.INTRA.POLAR>
0

>  <SCORE.INTRA.POLAR.0>
0

>  <SCORE.INTRA.REPUL>
0

>  <SCORE.INTRA.REPUL.0>
0

>  <SCORE.INTRA.SOLV>
-0.543707

>  <SCORE.INTRA.SOLV.lig_0>
-32.2894

>  <SCORE.INTRA.VDW>
-2.39246

>  <SCORE.INTRA.VDW.0>
2.0241

>  <SCORE.INTRA.norm>
-0.125635

>  <SCORE.RESTR>
0.00347006

>  <SCORE.RESTR.CAVITY>
0.00347006

>  <SCORE.RESTR.norm>
0.000289172

>  <SCORE.SYSTEM>
0

>  <SCORE.SYSTEM.CONST>
0

>  <SCORE.SYSTEM.DIHEDRAL>
0

>  <SCORE.SYSTEM.SOLV>
0

>  <SCORE.SYSTEM.norm>
0

>  <SCORE.heavy>
12

>  <SCORE.norm>
-0.803272

>  <RMSD>
17.844

$$$$
ligand
 OpenBabel11021811513D
libRbt.so/2013.1/901 2013/11/27
 12 12  0  0  0  0  0  0  0  0999 V2000
   11.5521   -3.5932  -15.7953 O   0  0  0  0  0  0  0  0  0  0  0  0
   16.4929   -0.7665  -20.2330 O   0  0  0  0  0  0  0  0  0  0  0  0
   11.6143   -2.2205  -15.9000 C   0  0  0  0  0  0  0  0  0  0  0  0
   16.8876   -3.1649  -20.0367 O   0  0  0  0  0  0  0  0  0  0  0  0
   12.4577   -1.7508  -17.0131 C   0  0  0  0  0  0  0  0  0  0  0  0
   18.4302   -1.5986  -19.0004 O   0  5  0  0  0  0  0  0  0  0  0  0
   13.7798   -2.3909  -17.0039 N   0  3  0  0  0  0  0  0  0  0  0  0
   13.6382   -3.8225  -16.9312 C   0  0  0  0  0  0  0  0  0  0  0  0
   12.7638   -4.2251  -15.7892 C   0  0  0  0  0  0  0  0  0  0  0  0
   14.5164   -2.0016  -18.1684 C   0  0  0  0  0  0  0  0  0  0  0  0
   16.0252   -1.9203  -17.8238 C   0  0  0  0  0  0  0  0  0  0  0  0
   17.0055   -1.8467  -19.3370 S   0  0  1  0  0  0  0  0  0  0  0  0
  1  3  1  0  0  0  0
  1  9  1  0  0  0  0
  2 12  1  0  0  0  0
  3  5  1  0  0  0  0
  4 12  2  0  0  0  0
  5  7  1  0  0  0  0
  6 12  2  0  0  0  0
  7  8  1  0  0  0  0
  7 10  1  0  0  0  0
  8  9  1  0  0  0  0
 10 11  1  0  0  0  0
 12 11  1  1  0  0  0
M  CHG  2   6  -1   7   1
M  END
>  <CHROM.1>
146.74061338,165.70904286,51.47609349,14.87120586,-2.38001881,-17.94103389
-2.72589366,0.48197802,-0.38594100

>  <Name>
ligand

>  <RI>
0

>  <Rbt.Current_Directory>
/home/itssahil/PROJECTS/Mol_Feturizer/New_Systems/rnas/4P95

>  <Rbt.Executable>
rbdock ($Id: //depot/dev/client3/rdock/2013.1/src/exe/rbdock.cxx#4 $)

>  <Rbt.Library>
libRbt.so (2013.1, Build901 2013/11/27)

>  <Rbt.Parameter_File>
/export/apps/rDock/src/rDock_2013.1_src/data/scripts/dock_solv.prm

>  <Rbt.Receptor>
prm/blind_docking_60.prm

>  <SCORE>
-11.4282

>  <SCORE.INTER>
-9.59902

>  <SCORE.INTER.CONST>
1

>  <SCORE.INTER.POLAR>
0

>  <SCORE.INTER.ROT>
3

>  <SCORE.INTER.SOLV>
11.4839

>  <SCORE.INTER.VDW>
-15.8273

>  <SCORE.INTER.norm>
-0.799918

>  <SCORE.INTRA>
-1.82918

>  <SCORE.INTRA.DIHEDRAL>
1.93845

>  <SCORE.INTRA.DIHEDRAL.0>
0.283163

>  <SCORE.INTRA.POLAR>
0

>  <SCORE.INTRA.POLAR.0>
0

>  <SCORE.INTRA.REPUL>
0

>  <SCORE.INTRA.REPUL.0>
0

>  <SCORE.INTRA.SOLV>
-0.715758

>  <SCORE.INTRA.SOLV.lig_0>
-32.2894

>  <SCORE.INTRA.VDW>
-2.44053

>  <SCORE.INTRA.VDW.0>
2.0241

>  <SCORE.INTRA.norm>
-0.152432

>  <SCORE.RESTR>
0

>  <SCORE.RESTR.CAVITY>
0

>  <SCORE.RESTR.norm>
0

>  <SCORE.SYSTEM>
0

>  <SCORE.SYSTEM.CONST>
0

>  <SCORE.SYSTEM.DIHEDRAL>
0

>  <SCORE.SYSTEM.SOLV>
0

>  <SCORE.SYSTEM.norm>
0

>  <SCORE.heavy>
12

>  <SCORE.norm>
-0.95235

>  <RMSD>
17.844

$$$$
ligand
 OpenBabel11021811513D
libRbt.so/2013.1/901 2013/11/27
 12 12  0  0  0  0  0  0  0  0999 V2000
   15.2974   -4.3833  -18.2932 O   0  0  0  0  0  0  0  0  0  0  0  0
   11.5324    0.9387  -15.2257 O   0  0  0  0  0  0  0  0  0  0  0  0
   15.2545   -3.1006  -18.7954 C   0  0  0  0  0  0  0  0  0  0  0  0
    9.8407   -0.7915  -15.5279 O   0  0  0  0  0  0  0  0  0  0  0  0
   14.5303   -2.1520  -17.9314 C   0  0  0  0  0  0  0  0  0  0  0  0
    9.8572    1.1495  -16.9903 O   0  5  0  0  0  0  0  0  0  0  0  0
   13.2099   -2.6660  -17.5433 N   0  3  0  0  0  0  0  0  0  0  0  0
   13.3346   -3.9915  -16.9937 C   0  0  0  0  0  0  0  0  0  0  0  0
   14.0873   -4.8939  -17.9157 C   0  0  0  0  0  0  0  0  0  0  0  0
   12.5966   -1.7726  -16.6074 C   0  0  0  0  0  0  0  0  0  0  0  0
   11.7837   -0.6981  -17.3732 C   0  0  0  0  0  0  0  0  0  0  0  0
   10.7121    0.2006  -16.2331 S   0  0  1  0  0  0  0  0  0  0  0  0
  1  3  1  0  0  0  0
  1  9  1  0  0  0  0
  2 12  1  0  0  0  0
  3  5  1  0  0  0  0
  4 12  2  0  0  0  0
  5  7  1  0  0  0  0
  6 12  2  0  0  0  0
  7  8  1  0  0  0  0
  7 10  1  0  0  0  0
  8  9  1  0  0  0  0
 10 11  1  0  0  0  0
 12 11  1  6  0  0  0
M  CHG  2   6  -1   7   1
M  END
>  <CHROM.1>
89.02361861,167.25578830,63.14705965,12.44574052,-1.61286611,-17.01209809
-0.68833894,0.55153115,-0.13802692

>  <Name>
ligand

>  <RI>
0

>  <Rbt.Current_Directory>
/home/itssahil/PROJECTS/Mol_Feturizer/New_Systems/rnas/4P95

>  <Rbt.Executable>
rbdock ($Id: //depot/dev/client3/rdock/2013.1/src/exe/rbdock.cxx#4 $)

>  <Rbt.Library>
libRbt.so (2013.1, Build901 2013/11/27)

>  <Rbt.Parameter_File>
/export/apps/rDock/src/rDock_2013.1_src/data/scripts/dock_solv.prm

>  <Rbt.Receptor>
prm/blind_docking_80.prm

>  <SCORE>
-9.95814

>  <SCORE.INTER>
-8.00208

>  <SCORE.INTER.CONST>
1

>  <SCORE.INTER.POLAR>
0

>  <SCORE.INTER.ROT>
3

>  <SCORE.INTER.SOLV>
15.8833

>  <SCORE.INTER.VDW>
-16.2292

>  <SCORE.INTER.norm>
-0.66684

>  <SCORE.INTRA>
-1.95606

>  <SCORE.INTRA.DIHEDRAL>
1.55476

>  <SCORE.INTRA.DIHEDRAL.0>
0.283163

>  <SCORE.INTRA.POLAR>
0

>  <SCORE.INTRA.POLAR.0>
0

>  <SCORE.INTRA.REPUL>
0

>  <SCORE.INTRA.REPUL.0>
0

>  <SCORE.INTRA.SOLV>
-0.702616

>  <SCORE.INTRA.SOLV.lig_0>
-32.2894

>  <SCORE.INTRA.VDW>
-2.38213

>  <SCORE.INTRA.VDW.0>
2.0241

>  <SCORE.INTRA.norm>
-0.163005

>  <SCORE.RESTR>
0

>  <SCORE.RESTR.CAVITY>
0

>  <SCORE.RESTR.norm>
0

>  <SCORE.SYSTEM>
0

>  <SCORE.SYSTEM.CONST>
0

>  <SCORE.SYSTEM.DIHEDRAL>
0

>  <SCORE.SYSTEM.SOLV>
0

>  <SCORE.SYSTEM.norm>
0

>  <SCORE.heavy>
12

>  <SCORE.norm>
-0.829845

>  <RMSD>
17.845

$$$$
ligand
 OpenBabel11021811513D
libRbt.so/2013.1/901 2013/11/27
 12 12  0  0  0  0  0  0  0  0999 V2000
   11.7538   -2.3158  -14.0422 O   0  0  0  0  0  0  0  0  0  0  0  0
   15.4488   -0.9810  -19.8203 O   0  0  0  0  0  0  0  0  0  0  0  0
   13.0740   -2.7104  -14.0635 C   0  0  0  0  0  0  0  0  0  0  0  0
   16.8090   -3.0005  -19.9538 O   0  0  0  0  0  0  0  0  0  0  0  0
   13.8050   -2.2622  -15.2617 C   0  0  0  0  0  0  0  0  0  0  0  0
   17.1557   -1.4296  -18.1322 O   0  5  0  0  0  0  0  0  0  0  0  0
   13.0823   -2.5927  -16.4973 N   0  3  0  0  0  0  0  0  0  0  0  0
   11.7242   -2.1191  -16.4203 C   0  0  0  0  0  0  0  0  0  0  0  0
   11.0497   -2.6016  -15.1781 C   0  0  0  0  0  0  0  0  0  0  0  0
   13.7640   -2.0306  -17.6241 C   0  0  0  0  0  0  0  0  0  0  0  0
   14.9357   -2.9575  -18.0358 C   0  0  0  0  0  0  0  0  0  0  0  0
   16.1366   -2.0406  -19.0225 S   0  0  1  0  0  0  0  0  0  0  0  0
  1  3  1  0  0  0  0
  1  9  1  0  0  0  0
  2 12  1  0  0  0  0
  3  5  1  0  0  0  0
  4 12  2  0  0  0  0
  5  7  1  0  0  0  0
  6 12  2  0  0  0  0
  7  8  1  0  0  0  0
  7 10  1  0  0  0  0
  8  9  1  0  0  0  0
 10 11  1  0  0  0  0
 12 11  1  1  0  0  0
M  CHG  2   6  -1   7   1
M  END
>  <CHROM.1>
81.73708814,-159.99248175,-31.67527185,14.30431493,-2.22059197,-17.23169426
-2.34318467,0.00848454,-1.46378367

>  <Name>
ligand

>  <RI>
0

>  <Rbt.Current_Directory>
/home/itssahil/PROJECTS/Mol_Feturizer/New_Systems/rnas/4P95

>  <Rbt.Executable>
rbdock ($Id: //depot/dev/client3/rdock/2013.1/src/exe/rbdock.cxx#4 $)

>  <Rbt.Library>
libRbt.so (2013.1, Build901 2013/11/27)

>  <Rbt.Parameter_File>
/export/apps/rDock/src/rDock_2013.1_src/data/scripts/dock_solv.prm

>  <Rbt.Receptor>
prm/blind_docking_80.prm

>  <SCORE>
-8.98631

>  <SCORE.INTER>
-8.68128

>  <SCORE.INTER.CONST>
1

>  <SCORE.INTER.POLAR>
0

>  <SCORE.INTER.ROT>
3

>  <SCORE.INTER.SOLV>
11.1486

>  <SCORE.INTER.VDW>
-15.1037

>  <SCORE.INTER.norm>
-0.72344

>  <SCORE.INTRA>
-0.305032

>  <SCORE.INTRA.DIHEDRAL>
3.56697

>  <SCORE.INTRA.DIHEDRAL.0>
0.283163

>  <SCORE.INTRA.POLAR>
0

>  <SCORE.INTRA.POLAR.0>
0

>  <SCORE.INTRA.REPUL>
0

>  <SCORE.INTRA.REPUL.0>
0

>  <SCORE.INTRA.SOLV>
-0.0727027

>  <SCORE.INTRA.SOLV.lig_0>
-32.2894

>  <SCORE.INTRA.VDW>
-2.05217

>  <SCORE.INTRA.VDW.0>
2.0241

>  <SCORE.INTRA.norm>
-0.0254194

>  <SCORE.RESTR>
0

>  <SCORE.RESTR.CAVITY>
0

>  <SCORE.RESTR.norm>
0

>  <SCORE.SYSTEM>
0

>  <SCORE.SYSTEM.CONST>
0

>  <SCORE.SYSTEM.DIHEDRAL>
0

>  <SCORE.SYSTEM.SOLV>
0

>  <SCORE.SYSTEM.norm>
0

>  <SCORE.heavy>
12

>  <SCORE.norm>
-0.748859

>  <RMSD>
18.041

$$$$
ligand
 OpenBabel11021811513D
libRbt.so/2013.1/901 2013/11/27
 12 12  0  0  0  0  0  0  0  0999 V2000
   15.4695   -4.2936  -18.5811 O   0  0  0  0  0  0  0  0  0  0  0  0
   10.7188   -1.6316  -14.0611 O   0  0  0  0  0  0  0  0  0  0  0  0
   15.4144   -2.9512  -18.8879 C   0  0  0  0  0  0  0  0  0  0  0  0
    9.2334   -0.4755  -15.6115 O   0  0  0  0  0  0  0  0  0  0  0  0
   14.7478   -2.1367  -17.8567 C   0  0  0  0  0  0  0  0  0  0  0  0
   11.3798    0.5082  -15.0354 O   0  5  0  0  0  0  0  0  0  0  0  0
   13.4442   -2.6974  -17.4768 N   0  3  0  0  0  0  0  0  0  0  0  0
   13.5831   -4.0895  -17.1339 C   0  0  0  0  0  0  0  0  0  0  0  0
   14.2755   -4.8499  -18.2170 C   0  0  0  0  0  0  0  0  0  0  0  0
   12.8916   -1.9485  -16.3887 C   0  0  0  0  0  0  0  0  0  0  0  0
   11.4051   -1.6252  -16.6847 C   0  0  0  0  0  0  0  0  0  0  0  0
   10.6633   -0.7691  -15.2800 S   0  0  1  0  0  0  0  0  0  0  0  0
  1  3  1  0  0  0  0
  1  9  1  0  0  0  0
  2 12  1  0  0  0  0
  3  5  1  0  0  0  0
  4 12  2  0  0  0  0
  5  7  1  0  0  0  0
  6 12  2  0  0  0  0
  7  8  1  0  0  0  0
  7 10  1  0  0  0  0
  8  9  1  0  0  0  0
 10 11  1  0  0  0  0
 12 11  1  6  0  0  0
M  CHG  2   6  -1   7   1
M  END
>  <CHROM.1>
133.36094421,176.54325326,-60.70517692,12.52990597,-2.07801873,-16.59126016
0.56448049,-0.59094223,-3.07468598

>  <Name>
ligand

>  <RI>
0

>  <Rbt.Current_Directory>
/home/itssahil/PROJECTS/Mol_Feturizer/New_Systems/rnas/4P95

>  <Rbt.Executable>
rbdock ($Id: //depot/dev/client3/rdock/2013.1/src/exe/rbdock.cxx#4 $)

>  <Rbt.Library>
libRbt.so (2013.1, Build901 2013/11/27)

>  <Rbt.Parameter_File>
/export/apps/rDock/src/rDock_2013.1_src/data/scripts/dock_solv.prm

>  <Rbt.Receptor>
prm/blind_docking_80.prm

>  <SCORE>
-10.0434

>  <SCORE.INTER>
-8.26769

>  <SCORE.INTER.CONST>
1

>  <SCORE.INTER.POLAR>
0

>  <SCORE.INTER.ROT>
3

>  <SCORE.INTER.SOLV>
11.9127

>  <SCORE.INTER.VDW>
-15.0827

>  <SCORE.INTER.norm>
-0.688974

>  <SCORE.INTRA>
-1.77572

>  <SCORE.INTRA.DIHEDRAL>
1.83274

>  <SCORE.INTRA.DIHEDRAL.0>
0.283163

>  <SCORE.INTRA.POLAR>
0

>  <SCORE.INTRA.POLAR.0>
0

>  <SCORE.INTRA.REPUL>
0

>  <SCORE.INTRA.REPUL.0>
0

>  <SCORE.INTRA.SOLV>
-0.0608597

>  <SCORE.INTRA.SOLV.lig_0>
-32.2894

>  <SCORE.INTRA.VDW>
-2.66166

>  <SCORE.INTRA.VDW.0>
2.0241

>  <SCORE.INTRA.norm>
-0.147977

>  <SCORE.RESTR>
0

>  <SCORE.RESTR.CAVITY>
0

>  <SCORE.RESTR.norm>
0

>  <SCORE.SYSTEM>
0

>  <SCORE.SYSTEM.CONST>
0

>  <SCORE.SYSTEM.DIHEDRAL>
0

>  <SCORE.SYSTEM.SOLV>
0

>  <SCORE.SYSTEM.norm>
0

>  <SCORE.heavy>
12

>  <SCORE.norm>
-0.836951

>  <RMSD>
18.237

$$$$
ligand
 OpenBabel11021811513D
libRbt.so/2013.1/901 2013/11/27
 12 12  0  0  0  0  0  0  0  0999 V2000
   15.6499   -2.1240  -17.5391 O   0  0  0  0  0  0  0  0  0  0  0  0
   21.6142   -0.7578  -22.5163 O   0  0  0  0  0  0  0  0  0  0  0  0
   16.9797   -2.0167  -17.1935 C   0  0  0  0  0  0  0  0  0  0  0  0
   19.4656    0.3748  -22.7331 O   0  0  0  0  0  0  0  0  0  0  0  0
   17.7819   -1.2506  -18.1632 C   0  0  0  0  0  0  0  0  0  0  0  0
   19.7172   -1.9024  -23.5438 O   0  5  0  0  0  0  0  0  0  0  0  0
   17.5779   -1.7273  -19.5377 N   0  3  0  0  0  0  0  0  0  0  0  0
   16.1710   -1.7786  -19.8421 C   0  0  0  0  0  0  0  0  0  0  0  0
   15.4203   -2.5596  -18.8139 C   0  0  0  0  0  0  0  0  0  0  0  0
   18.2759   -0.8780  -20.4552 C   0  0  0  0  0  0  0  0  0  0  0  0
   19.6083   -1.5505  -20.8724 C   0  0  0  0  0  0  0  0  0  0  0  0
   20.1319   -0.9432  -22.4890 S   0  0  1  0  0  0  0  0  0  0  0  0
  1  3  1  0  0  0  0
  1  9  1  0  0  0  0
  2 12  1  0  0  0  0
  3  5  1  0  0  0  0
  4 12  2  0  0  0  0
  5  7  1  0  0  0  0
  6 12  2  0  0  0  0
  7  8  1  0  0  0  0
  7 10  1  0  0  0  0
  8  9  1  0  0  0  0
 10 11  1  0  0  0  0
 12 11  1  1  0  0  0
M  CHG  2   6  -1   7   1
M  END
>  <CHROM.1>
100.38539204,154.70082538,141.03743688,18.41602276,-1.36812098,-20.56261659
2.32202789,0.30488259,1.54412702

>  <Name>
ligand

>  <RI>
0

>  <Rbt.Current_Directory>
/home/itssahil/PROJECTS/Mol_Feturizer/New_Systems/rnas/4P95

>  <Rbt.Executable>
rbdock ($Id: //depot/dev/client3/rdock/2013.1/src/exe/rbdock.cxx#4 $)

>  <Rbt.Library>
libRbt.so (2013.1, Build901 2013/11/27)

>  <Rbt.Parameter_File>
/export/apps/rDock/src/rDock_2013.1_src/data/scripts/dock_solv.prm

>  <Rbt.Receptor>
prm/blind_docking_40.prm

>  <SCORE>
-7.08734

>  <SCORE.INTER>
-8.12289

>  <SCORE.INTER.CONST>
1

>  <SCORE.INTER.POLAR>
0

>  <SCORE.INTER.ROT>
3

>  <SCORE.INTER.SOLV>
18.5622

>  <SCORE.INTER.VDW>
-17.2027

>  <SCORE.INTER.norm>
-0.676908

>  <SCORE.INTRA>
0.760717

>  <SCORE.INTRA.DIHEDRAL>
6.23836

>  <SCORE.INTRA.DIHEDRAL.0>
0.283163

>  <SCORE.INTRA.POLAR>
0

>  <SCORE.INTRA.POLAR.0>
0

>  <SCORE.INTRA.REPUL>
0

>  <SCORE.INTRA.REPUL.0>
0

>  <SCORE.INTRA.SOLV>
-0.157375

>  <SCORE.INTRA.SOLV.lig_0>
-32.2894

>  <SCORE.INTRA.VDW>
-2.27977

>  <SCORE.INTRA.VDW.0>
2.0241

>  <SCORE.INTRA.norm>
0.0633931

>  <SCORE.RESTR>
0.274829

>  <SCORE.RESTR.CAVITY>
0.274829

>  <SCORE.RESTR.norm>
0.0229025

>  <SCORE.SYSTEM>
0

>  <SCORE.SYSTEM.CONST>
0

>  <SCORE.SYSTEM.DIHEDRAL>
0

>  <SCORE.SYSTEM.SOLV>
0

>  <SCORE.SYSTEM.norm>
0

>  <SCORE.heavy>
12

>  <SCORE.norm>
-0.590612

>  <RMSD>
18.289

$$$$
ligand
 OpenBabel11021811513D
libRbt.so/2013.1/901 2013/11/27
 12 12  0  0  0  0  0  0  0  0999 V2000
   17.5124   -1.5572  -19.1589 O   0  0  0  0  0  0  0  0  0  0  0  0
   10.8313   -4.3095  -15.8747 O   0  0  0  0  0  0  0  0  0  0  0  0
   16.3278   -1.6488  -19.8571 C   0  0  0  0  0  0  0  0  0  0  0  0
   10.9272   -1.9813  -16.5936 O   0  0  0  0  0  0  0  0  0  0  0  0
   15.1305   -1.5190  -19.0083 C   0  0  0  0  0  0  0  0  0  0  0  0
   12.0958   -2.6715  -14.5776 O   0  5  0  0  0  0  0  0  0  0  0  0
   15.1869   -2.4138  -17.8447 N   0  3  0  0  0  0  0  0  0  0  0  0
   16.4324   -2.2382  -17.1428 C   0  0  0  0  0  0  0  0  0  0  0  0
   17.5997   -2.3717  -18.0650 C   0  0  0  0  0  0  0  0  0  0  0  0
   14.0686   -2.1651  -16.9856 C   0  0  0  0  0  0  0  0  0  0  0  0
   13.1626   -3.4215  -16.9379 C   0  0  0  0  0  0  0  0  0  0  0  0
   11.6933   -3.0911  -15.9438 S   0  0  1  0  0  0  0  0  0  0  0  0
  1  3  1  0  0  0  0
  1  9  1  0  0  0  0
  2 12  1  0  0  0  0
  3  5  1  0  0  0  0
  4 12  2  0  0  0  0
  5  7  1  0  0  0  0
  6 12  2  0  0  0  0
  7  8  1  0  0  0  0
  7 10  1  0  0  0  0
  8  9  1  0  0  0  0
 10 11  1  0  0  0  0
 12 11  1  6  0  0  0
M  CHG  2   6  -1   7   1
M  END
>  <CHROM.1>
115.54834430,-176.40877440,-178.91271731,13.95304399,-2.51601864,-17.17176468
0.53986420,-0.01953673,-1.19543640

>  <Name>
ligand

>  <RI>
0

>  <Rbt.Current_Directory>
/home/itssahil/PROJECTS/Mol_Feturizer/New_Systems/rnas/4P95

>  <Rbt.Executable>
rbdock ($Id: //depot/dev/client3/rdock/2013.1/src/exe/rbdock.cxx#4 $)

>  <Rbt.Library>
libRbt.so (2013.1, Build901 2013/11/27)

>  <Rbt.Parameter_File>
/export/apps/rDock/src/rDock_2013.1_src/data/scripts/dock_solv.prm

>  <Rbt.Receptor>
prm/blind_docking_60.prm

>  <SCORE>
-11.2269

>  <SCORE.INTER>
-9.68745

>  <SCORE.INTER.CONST>
1

>  <SCORE.INTER.POLAR>
0

>  <SCORE.INTER.ROT>
3

>  <SCORE.INTER.SOLV>
10.7579

>  <SCORE.INTER.VDW>
-15.6443

>  <SCORE.INTER.norm>
-0.807287

>  <SCORE.INTRA>
-1.53941

>  <SCORE.INTRA.DIHEDRAL>
2.15391

>  <SCORE.INTRA.DIHEDRAL.0>
0.283163

>  <SCORE.INTRA.POLAR>
0

>  <SCORE.INTRA.POLAR.0>
0

>  <SCORE.INTRA.REPUL>
0

>  <SCORE.INTRA.REPUL.0>
0

>  <SCORE.INTRA.SOLV>
0.166568

>  <SCORE.INTRA.SOLV.lig_0>
-32.2894

>  <SCORE.INTRA.VDW>
-2.69965

>  <SCORE.INTRA.VDW.0>
2.0241

>  <SCORE.INTRA.norm>
-0.128284

>  <SCORE.RESTR>
0

>  <SCORE.RESTR.CAVITY>
0

>  <SCORE.RESTR.norm>
0

>  <SCORE.SYSTEM>
0

>  <SCORE.SYSTEM.CONST>
0

>  <SCORE.SYSTEM.DIHEDRAL>
0

>  <SCORE.SYSTEM.SOLV>
0

>  <SCORE.SYSTEM.norm>
0

>  <SCORE.heavy>
12

>  <SCORE.norm>
-0.935572

>  <RMSD>
18.424

$$$$
ligand
 OpenBabel11021811513D
libRbt.so/2013.1/901 2013/11/27
 12 12  0  0  0  0  0  0  0  0999 V2000
   -2.4422   13.2639  -17.6310 O   0  0  0  0  0  0  0  0  0  0  0  0
    4.9850   13.8074  -20.3654 O   0  0  0  0  0  0  0  0  0  0  0  0
   -2.0473   14.4451  -18.2209 C   0  0  0  0  0  0  0  0  0  0  0  0
    3.2337   14.5193  -21.9057 O   0  0  0  0  0  0  0  0  0  0  0  0
   -1.0093   14.2721  -19.2522 C   0  0  0  0  0  0  0  0  0  0  0  0
    3.4671   12.1655  -21.3478 O   0  5  0  0  0  0  0  0  0  0  0  0
    0.1164   13.4647  -18.7634 N   0  3  0  0  0  0  0  0  0  0  0  0
   -0.3659   12.2319  -18.1957 C   0  0  0  0  0  0  0  0  0  0  0  0
   -1.4209   12.4823  -17.1686 C   0  0  0  0  0  0  0  0  0  0  0  0
    1.0373   13.2178  -19.8317 C   0  0  0  0  0  0  0  0  0  0  0  0
    2.4304   13.7833  -19.4557 C   0  0  0  0  0  0  0  0  0  0  0  0
    3.5859   13.5489  -20.8218 S   0  0  1  0  0  0  0  0  0  0  0  0
  1  3  1  0  0  0  0
  1  9  1  0  0  0  0
  2 12  1  0  0  0  0
  3  5  1  0  0  0  0
  4 12  2  0  0  0  0
  5  7  1  0  0  0  0
  6 12  2  0  0  0  0
  7  8  1  0  0  0  0
  7 10  1  0  0  0  0
  8  9  1  0  0  0  0
 10 11  1  0  0  0  0
 12 11  1  1  0  0  0
M  CHG  2   6  -1   7   1
M  END
>  <CHROM.1>
120.91998697,-177.40310238,-167.43524841,1.26239528,13.44445567,-19.58069522
2.83398184,-0.40770947,2.53604747

>  <Name>
ligand

>  <RI>
0

>  <Rbt.Current_Directory>
/home/itssahil/PROJECTS/Mol_Feturizer/New_Systems/rnas/4P95

>  <Rbt.Executable>
rbdock ($Id: //depot/dev/client3/rdock/2013.1/src/exe/rbdock.cxx#4 $)

>  <Rbt.Library>
libRbt.so (2013.1, Build901 2013/11/27)

>  <Rbt.Parameter_File>
/export/apps/rDock/src/rDock_2013.1_src/data/scripts/dock_solv.prm

>  <Rbt.Receptor>
prm/blind_docking_80.prm

>  <SCORE>
-7.99115

>  <SCORE.INTER>
-6.75781

>  <SCORE.INTER.CONST>
1

>  <SCORE.INTER.POLAR>
0

>  <SCORE.INTER.ROT>
3

>  <SCORE.INTER.SOLV>
17.942

>  <SCORE.INTER.VDW>
-16.0859

>  <SCORE.INTER.norm>
-0.563151

>  <SCORE.INTRA>
-1.23334

>  <SCORE.INTRA.DIHEDRAL>
2.55038

>  <SCORE.INTRA.DIHEDRAL.0>
0.283163

>  <SCORE.INTRA.POLAR>
0

>  <SCORE.INTRA.POLAR.0>
0

>  <SCORE.INTRA.REPUL>
0

>  <SCORE.INTRA.REPUL.0>
0

>  <SCORE.INTRA.SOLV>
0.31229

>  <SCORE.INTRA.SOLV.lig_0>
-32.2894

>  <SCORE.INTRA.VDW>
-2.66468

>  <SCORE.INTRA.VDW.0>
2.0241

>  <SCORE.INTRA.norm>
-0.102778

>  <SCORE.RESTR>
0

>  <SCORE.RESTR.CAVITY>
0

>  <SCORE.RESTR.norm>
0

>  <SCORE.SYSTEM>
0

>  <SCORE.SYSTEM.CONST>
0

>  <SCORE.SYSTEM.DIHEDRAL>
0

>  <SCORE.SYSTEM.SOLV>
0

>  <SCORE.SYSTEM.norm>
0

>  <SCORE.heavy>
12

>  <SCORE.norm>
-0.665929

>  <RMSD>
18.427

$$$$
ligand
 OpenBabel11021811513D
libRbt.so/2013.1/901 2013/11/27
 12 12  0  0  0  0  0  0  0  0999 V2000
   17.5154   -1.4416  -20.2274 O   0  0  0  0  0  0  0  0  0  0  0  0
   12.7201   -3.6648  -17.0632 O   0  0  0  0  0  0  0  0  0  0  0  0
   18.0296   -1.0327  -19.0159 C   0  0  0  0  0  0  0  0  0  0  0  0
   13.1662   -1.4129  -17.8856 O   0  0  0  0  0  0  0  0  0  0  0  0
   17.5930   -1.8617  -17.8789 C   0  0  0  0  0  0  0  0  0  0  0  0
   12.0942   -1.7193  -15.7261 O   0  5  0  0  0  0  0  0  0  0  0  0
   16.1345   -2.0362  -17.8591 N   0  3  0  0  0  0  0  0  0  0  0  0
   15.6721   -2.4996  -19.1421 C   0  0  0  0  0  0  0  0  0  0  0  0
   16.1606   -1.6203  -20.2462 C   0  0  0  0  0  0  0  0  0  0  0  0
   15.7681   -2.9468  -16.8165 C   0  0  0  0  0  0  0  0  0  0  0  0
   14.7282   -2.2752  -15.8841 C   0  0  0  0  0  0  0  0  0  0  0  0
   13.1012   -2.2763  -16.6644 S   0  0  1  0  0  0  0  0  0  0  0  0
  1  3  1  0  0  0  0
  1  9  1  0  0  0  0
  2 12  1  0  0  0  0
  3  5  1  0  0  0  0
  4 12  2  0  0  0  0
  5  7  1  0  0  0  0
  6 12  2  0  0  0  0
  7  8  1  0  0  0  0
  7 10  1  0  0  0  0
  8  9  1  0  0  0  0
 10 11  1  0  0  0  0
 12 11  1  1  0  0  0
M  CHG  2   6  -1   7   1
M  END
>  <CHROM.1>
125.06888800,77.00733150,54.51115045,14.97160985,-2.08493331,-17.74999832
0.58757504,-0.04649899,-1.38365535

>  <Name>
ligand

>  <RI>
0

>  <Rbt.Current_Directory>
/home/itssahil/PROJECTS/Mol_Feturizer/New_Systems/rnas/4P95

>  <Rbt.Executable>
rbdock ($Id: //depot/dev/client3/rdock/2013.1/src/exe/rbdock.cxx#4 $)

>  <Rbt.Library>
libRbt.so (2013.1, Build901 2013/11/27)

>  <Rbt.Parameter_File>
/export/apps/rDock/src/rDock_2013.1_src/data/scripts/dock_solv.prm

>  <Rbt.Receptor>
prm/blind_docking_80.prm

>  <SCORE>
-12.9045

>  <SCORE.INTER>
-11.1438

>  <SCORE.INTER.CONST>
1

>  <SCORE.INTER.POLAR>
0

>  <SCORE.INTER.ROT>
3

>  <SCORE.INTER.SOLV>
8.92212

>  <SCORE.INTER.VDW>
-16.0032

>  <SCORE.INTER.norm>
-0.928648

>  <SCORE.INTRA>
-1.76074

>  <SCORE.INTRA.DIHEDRAL>
3.13386

>  <SCORE.INTRA.DIHEDRAL.0>
0.283163

>  <SCORE.INTRA.POLAR>
0

>  <SCORE.INTRA.POLAR.0>
0

>  <SCORE.INTRA.REPUL>
0

>  <SCORE.INTRA.REPUL.0>
0

>  <SCORE.INTRA.SOLV>
-0.0235094

>  <SCORE.INTRA.SOLV.lig_0>
-32.2894

>  <SCORE.INTRA.VDW>
-3.31591

>  <SCORE.INTRA.VDW.0>
2.0241

>  <SCORE.INTRA.norm>
-0.146728

>  <SCORE.RESTR>
0

>  <SCORE.RESTR.CAVITY>
0

>  <SCORE.RESTR.norm>
0

>  <SCORE.SYSTEM>
0

>  <SCORE.SYSTEM.CONST>
0

>  <SCORE.SYSTEM.DIHEDRAL>
0

>  <SCORE.SYSTEM.SOLV>
0

>  <SCORE.SYSTEM.norm>
0

>  <SCORE.heavy>
12

>  <SCORE.norm>
-1.07538

>  <RMSD>
18.436

$$$$
ligand
 OpenBabel11021811513D
libRbt.so/2013.1/901 2013/11/27
 12 12  0  0  0  0  0  0  0  0999 V2000
   13.6721   -4.6267  -15.2323 O   0  0  0  0  0  0  0  0  0  0  0  0
    9.3720   -1.2413  -16.5124 O   0  0  0  0  0  0  0  0  0  0  0  0
   14.2165   -3.6931  -14.3773 C   0  0  0  0  0  0  0  0  0  0  0  0
   11.5671   -0.7917  -17.4747 O   0  0  0  0  0  0  0  0  0  0  0  0
   13.2221   -2.7756  -13.7941 C   0  0  0  0  0  0  0  0  0  0  0  0
   10.0181    1.0415  -17.0920 O   0  5  0  0  0  0  0  0  0  0  0  0
   12.3570   -2.1830  -14.8229 N   0  3  0  0  0  0  0  0  0  0  0  0
   11.7941   -3.2160  -15.6540 C   0  0  0  0  0  0  0  0  0  0  0  0
   12.8559   -4.1129  -16.2006 C   0  0  0  0  0  0  0  0  0  0  0  0
   11.3307   -1.4002  -14.2029 C   0  0  0  0  0  0  0  0  0  0  0  0
   11.2119   -0.0351  -14.9269 C   0  0  0  0  0  0  0  0  0  0  0  0
   10.4992   -0.2622  -16.5691 S   0  0  1  0  0  0  0  0  0  0  0  0
  1  3  1  0  0  0  0
  1  9  1  0  0  0  0
  2 12  1  0  0  0  0
  3  5  1  0  0  0  0
  4 12  2  0  0  0  0
  5  7  1  0  0  0  0
  6 12  2  0  0  0  0
  7  8  1  0  0  0  0
  7 10  1  0  0  0  0
  8  9  1  0  0  0  0
 10 11  1  0  0  0  0
 12 11  1  1  0  0  0
M  CHG  2   6  -1   7   1
M  END
>  <CHROM.1>
133.85359429,70.53242527,41.83251825,11.69036698,-1.76362021,-15.70517761
0.12518197,0.92489361,-2.16933353

>  <Name>
ligand

>  <RI>
0

>  <Rbt.Current_Directory>
/home/itssahil/PROJECTS/Mol_Feturizer/New_Systems/rnas/4P95

>  <Rbt.Executable>
rbdock ($Id: //depot/dev/client3/rdock/2013.1/src/exe/rbdock.cxx#4 $)

>  <Rbt.Library>
libRbt.so (2013.1, Build901 2013/11/27)

>  <Rbt.Parameter_File>
/export/apps/rDock/src/rDock_2013.1_src/data/scripts/dock_solv.prm

>  <Rbt.Receptor>
prm/blind_docking_100.prm

>  <SCORE>
-11.6641

>  <SCORE.INTER>
-9.77655

>  <SCORE.INTER.CONST>
1

>  <SCORE.INTER.POLAR>
0

>  <SCORE.INTER.ROT>
3

>  <SCORE.INTER.SOLV>
14.3645

>  <SCORE.INTER.VDW>
-16.9059

>  <SCORE.INTER.norm>
-0.814713

>  <SCORE.INTRA>
-1.88756

>  <SCORE.INTRA.DIHEDRAL>
2.87765

>  <SCORE.INTRA.DIHEDRAL.0>
0.283163

>  <SCORE.INTRA.POLAR>
0

>  <SCORE.INTRA.POLAR.0>
0

>  <SCORE.INTRA.REPUL>
0

>  <SCORE.INTRA.REPUL.0>
0

>  <SCORE.INTRA.SOLV>
-0.0759222

>  <SCORE.INTRA.SOLV.lig_0>
-32.2894

>  <SCORE.INTRA.VDW>
-3.28843

>  <SCORE.INTRA.VDW.0>
2.0241

>  <SCORE.INTRA.norm>
-0.157297

>  <SCORE.RESTR>
0

>  <SCORE.RESTR.CAVITY>
0

>  <SCORE.RESTR.norm>
0

>  <SCORE.SYSTEM>
0

>  <SCORE.SYSTEM.CONST>
0

>  <SCORE.SYSTEM.DIHEDRAL>
0

>  <SCORE.SYSTEM.SOLV>
0

>  <SCORE.SYSTEM.norm>
0

>  <SCORE.heavy>
12

>  <SCORE.norm>
-0.97201

>  <RMSD>
18.506

$$$$
ligand
 OpenBabel11021811513D
libRbt.so/2013.1/901 2013/11/27
 12 12  0  0  0  0  0  0  0  0999 V2000
   17.8734   -1.6346  -19.5032 O   0  0  0  0  0  0  0  0  0  0  0  0
   12.2491   -4.4202  -16.0648 O   0  0  0  0  0  0  0  0  0  0  0  0
   17.7838   -1.1975  -18.1993 C   0  0  0  0  0  0  0  0  0  0  0  0
   10.7925   -2.4651  -16.1152 O   0  0  0  0  0  0  0  0  0  0  0  0
   16.7932   -1.9351  -17.3958 C   0  0  0  0  0  0  0  0  0  0  0  0
   12.7163   -2.4994  -14.6306 O   0  5  0  0  0  0  0  0  0  0  0  0
   15.4909   -2.0117  -18.0712 N   0  3  0  0  0  0  0  0  0  0  0  0
   15.6553   -2.5103  -19.4125 C   0  0  0  0  0  0  0  0  0  0  0  0
   16.6800   -1.7243  -20.1629 C   0  0  0  0  0  0  0  0  0  0  0  0
   14.5999   -2.8402  -17.3161 C   0  0  0  0  0  0  0  0  0  0  0  0
   13.1983   -2.1811  -17.2647 C   0  0  0  0  0  0  0  0  0  0  0  0
   12.2064   -2.9306  -15.9567 S   0  0  1  0  0  0  0  0  0  0  0  0
  1  3  1  0  0  0  0
  1  9  1  0  0  0  0
  2 12  1  0  0  0  0
  3  5  1  0  0  0  0
  4 12  2  0  0  0  0
  5  7  1  0  0  0  0
  6 12  2  0  0  0  0
  7  8  1  0  0  0  0
  7 10  1  0  0  0  0
  8  9  1  0  0  0  0
 10 11  1  0  0  0  0
 12 11  1  6  0  0  0
M  CHG  2   6  -1   7   1
M  END
>  <CHROM.1>
137.24308754,-163.73934807,-49.54920979,14.38983556,-2.43122994,-17.32592744
-0.52480464,0.29466241,1.48012654

>  <Name>
ligand

>  <RI>
0

>  <Rbt.Current_Directory>
/home/itssahil/PROJECTS/Mol_Feturizer/New_Systems/rnas/4P95

>  <Rbt.Executable>
rbdock ($Id: //depot/dev/client3/rdock/2013.1/src/exe/rbdock.cxx#4 $)

>  <Rbt.Library>
libRbt.so (2013.1, Build901 2013/11/27)

>  <Rbt.Parameter_File>
/export/apps/rDock/src/rDock_2013.1_src/data/scripts/dock_solv.prm

>  <Rbt.Receptor>
prm/blind_docking_100.prm

>  <SCORE>
-13.293

>  <SCORE.INTER>
-12.0717

>  <SCORE.INTER.CONST>
1

>  <SCORE.INTER.POLAR>
0

>  <SCORE.INTER.ROT>
3

>  <SCORE.INTER.SOLV>
9.93653

>  <SCORE.INTER.VDW>
-16.96

>  <SCORE.INTER.norm>
-1.00597

>  <SCORE.INTRA>
-1.22137

>  <SCORE.INTRA.DIHEDRAL>
2.84222

>  <SCORE.INTRA.DIHEDRAL.0>
0.283163

>  <SCORE.INTRA.POLAR>
0

>  <SCORE.INTRA.POLAR.0>
0

>  <SCORE.INTRA.REPUL>
0

>  <SCORE.INTRA.REPUL.0>
0

>  <SCORE.INTRA.SOLV>
-0.124097

>  <SCORE.INTRA.SOLV.lig_0>
-32.2894

>  <SCORE.INTRA.VDW>
-2.58043

>  <SCORE.INTRA.VDW.0>
2.0241

>  <SCORE.INTRA.norm>
-0.101781

>  <SCORE.RESTR>
0

>  <SCORE.RESTR.CAVITY>
0

>  <SCORE.RESTR.norm>
0

>  <SCORE.SYSTEM>
0

>  <SCORE.SYSTEM.CONST>
0

>  <SCORE.SYSTEM.DIHEDRAL>
0

>  <SCORE.SYSTEM.SOLV>
0

>  <SCORE.SYSTEM.norm>
0

>  <SCORE.heavy>
12

>  <SCORE.norm>
-1.10775

>  <RMSD>
18.511

$$$$
ligand
 OpenBabel11021811513D
libRbt.so/2013.1/901 2013/11/27
 12 12  0  0  0  0  0  0  0  0999 V2000
    4.7809   13.7628  -22.1194 O   0  0  0  0  0  0  0  0  0  0  0  0
   -1.8027   12.0796  -18.1874 O   0  0  0  0  0  0  0  0  0  0  0  0
    4.0874   14.9394  -21.9349 C   0  0  0  0  0  0  0  0  0  0  0  0
   -1.2614   14.4567  -18.1318 O   0  0  0  0  0  0  0  0  0  0  0  0
    3.2313   14.9384  -20.7358 C   0  0  0  0  0  0  0  0  0  0  0  0
    0.1330   12.8724  -16.9267 O   0  5  0  0  0  0  0  0  0  0  0  0
    2.3744   13.7466  -20.6780 N   0  3  0  0  0  0  0  0  0  0  0  0
    3.1682   12.5557  -20.8400 C   0  0  0  0  0  0  0  0  0  0  0  0
    4.0172   12.6308  -22.0666 C   0  0  0  0  0  0  0  0  0  0  0  0
    1.6547   13.7251  -19.4403 C   0  0  0  0  0  0  0  0  0  0  0  0
    0.3492   12.9084  -19.6145 C   0  0  0  0  0  0  0  0  0  0  0  0
   -0.6882   13.0739  -18.1473 S   0  0  1  0  0  0  0  0  0  0  0  0
  1  3  1  0  0  0  0
  1  9  1  0  0  0  0
  2 12  1  0  0  0  0
  3  5  1  0  0  0  0
  4 12  2  0  0  0  0
  5  7  1  0  0  0  0
  6 12  2  0  0  0  0
  7  8  1  0  0  0  0
  7 10  1  0  0  0  0
  8  9  1  0  0  0  0
 10 11  1  0  0  0  0
 12 11  1  6  0  0  0
M  CHG  2   6  -1   7   1
M  END
>  <CHROM.1>
154.63453891,-171.56906860,-168.43101526,1.40221635,13.42959756,-19.69580492
-0.05343786,-0.65671959,-3.02523393

>  <Name>
ligand

>  <RI>
0

>  <Rbt.Current_Directory>
/home/itssahil/PROJECTS/Mol_Feturizer/New_Systems/rnas/4P95

>  <Rbt.Executable>
rbdock ($Id: //depot/dev/client3/rdock/2013.1/src/exe/rbdock.cxx#4 $)

>  <Rbt.Library>
libRbt.so (2013.1, Build901 2013/11/27)

>  <Rbt.Parameter_File>
/export/apps/rDock/src/rDock_2013.1_src/data/scripts/dock_solv.prm

>  <Rbt.Receptor>
prm/blind_docking_80.prm

>  <SCORE>
-11.273

>  <SCORE.INTER>
-9.8571

>  <SCORE.INTER.CONST>
1

>  <SCORE.INTER.POLAR>
0

>  <SCORE.INTER.ROT>
3

>  <SCORE.INTER.SOLV>
15.1411

>  <SCORE.INTER.VDW>
-17.2184

>  <SCORE.INTER.norm>
-0.821425

>  <SCORE.INTRA>
-1.41589

>  <SCORE.INTRA.DIHEDRAL>
1.18491

>  <SCORE.INTRA.DIHEDRAL.0>
0.283163

>  <SCORE.INTRA.POLAR>
0

>  <SCORE.INTRA.POLAR.0>
0

>  <SCORE.INTRA.REPUL>
0

>  <SCORE.INTRA.REPUL.0>
0

>  <SCORE.INTRA.SOLV>
0.284496

>  <SCORE.INTRA.SOLV.lig_0>
-32.2894

>  <SCORE.INTRA.VDW>
-2.15059

>  <SCORE.INTRA.VDW.0>
2.0241

>  <SCORE.INTRA.norm>
-0.117991

>  <SCORE.RESTR>
0

>  <SCORE.RESTR.CAVITY>
0

>  <SCORE.RESTR.norm>
0

>  <SCORE.SYSTEM>
0

>  <SCORE.SYSTEM.CONST>
0

>  <SCORE.SYSTEM.DIHEDRAL>
0

>  <SCORE.SYSTEM.SOLV>
0

>  <SCORE.SYSTEM.norm>
0

>  <SCORE.heavy>
12

>  <SCORE.norm>
-0.939416

>  <RMSD>
18.543

$$$$
ligand
 OpenBabel11021811513D
libRbt.so/2013.1/901 2013/11/27
 12 12  0  0  0  0  0  0  0  0999 V2000
   15.3250   -4.3098  -18.5921 O   0  0  0  0  0  0  0  0  0  0  0  0
   10.6460   -2.0879  -13.4450 O   0  0  0  0  0  0  0  0  0  0  0  0
   15.1884   -2.9405  -18.6684 C   0  0  0  0  0  0  0  0  0  0  0  0
    9.4383   -0.5601  -14.9126 O   0  0  0  0  0  0  0  0  0  0  0  0
   14.5665   -2.3417  -17.4744 C   0  0  0  0  0  0  0  0  0  0  0  0
   11.7314   -0.0649  -14.2781 O   0  5  0  0  0  0  0  0  0  0  0  0
   13.3210   -3.0278  -17.1057 N   0  3  0  0  0  0  0  0  0  0  0  0
   13.5458   -4.4471  -17.0077 C   0  0  0  0  0  0  0  0  0  0  0  0
   14.1872   -4.9828  -18.2456 C   0  0  0  0  0  0  0  0  0  0  0  0
   12.8197   -2.4964  -15.8741 C   0  0  0  0  0  0  0  0  0  0  0  0
   11.3483   -2.0487  -16.0640 C   0  0  0  0  0  0  0  0  0  0  0  0
   10.7771   -1.1545  -14.6044 S   0  0  1  0  0  0  0  0  0  0  0  0
  1  3  1  0  0  0  0
  1  9  1  0  0  0  0
  2 12  1  0  0  0  0
  3  5  1  0  0  0  0
  4 12  2  0  0  0  0
  5  7  1  0  0  0  0
  6 12  2  0  0  0  0
  7  8  1  0  0  0  0
  7 10  1  0  0  0  0
  8  9  1  0  0  0  0
 10 11  1  0  0  0  0
 12 11  1  6  0  0  0
M  CHG  2   6  -1   7   1
M  END
>  <CHROM.1>
126.38711647,-171.57500635,-69.29500614,12.51997451,-2.37815439,-16.15067642
-0.59069117,0.66182962,0.17056089

>  <Name>
ligand

>  <RI>
0

>  <Rbt.Current_Directory>
/home/itssahil/PROJECTS/Mol_Feturizer/New_Systems/rnas/4P95

>  <Rbt.Executable>
rbdock ($Id: //depot/dev/client3/rdock/2013.1/src/exe/rbdock.cxx#4 $)

>  <Rbt.Library>
libRbt.so (2013.1, Build901 2013/11/27)

>  <Rbt.Parameter_File>
/export/apps/rDock/src/rDock_2013.1_src/data/scripts/dock_solv.prm

>  <Rbt.Receptor>
prm/blind_docking_60.prm

>  <SCORE>
-10.5415

>  <SCORE.INTER>
-9.18189

>  <SCORE.INTER.CONST>
1

>  <SCORE.INTER.POLAR>
0

>  <SCORE.INTER.ROT>
3

>  <SCORE.INTER.SOLV>
10.4791

>  <SCORE.INTER.VDW>
-15.2143

>  <SCORE.INTER.norm>
-0.765158

>  <SCORE.INTRA>
-1.35958

>  <SCORE.INTRA.DIHEDRAL>
2.46826

>  <SCORE.INTRA.DIHEDRAL.0>
0.283163

>  <SCORE.INTRA.POLAR>
0

>  <SCORE.INTRA.POLAR.0>
0

>  <SCORE.INTRA.REPUL>
0

>  <SCORE.INTRA.REPUL.0>
0

>  <SCORE.INTRA.SOLV>
0.120954

>  <SCORE.INTRA.SOLV.lig_0>
-32.2894

>  <SCORE.INTRA.VDW>
-2.65419

>  <SCORE.INTRA.VDW.0>
2.0241

>  <SCORE.INTRA.norm>
-0.113298

>  <SCORE.RESTR>
0

>  <SCORE.RESTR.CAVITY>
0

>  <SCORE.RESTR.norm>
0

>  <SCORE.SYSTEM>
0

>  <SCORE.SYSTEM.CONST>
0

>  <SCORE.SYSTEM.DIHEDRAL>
0

>  <SCORE.SYSTEM.SOLV>
0

>  <SCORE.SYSTEM.norm>
0

>  <SCORE.heavy>
12

>  <SCORE.norm>
-0.878456

>  <RMSD>
18.614

$$$$
ligand
 OpenBabel11021811513D
libRbt.so/2013.1/901 2013/11/27
 12 12  0  0  0  0  0  0  0  0999 V2000
   18.1629   -1.2328  -19.5722 O   0  0  0  0  0  0  0  0  0  0  0  0
   12.7696   -4.7904  -16.4496 O   0  0  0  0  0  0  0  0  0  0  0  0
   18.1188   -1.0523  -18.2066 C   0  0  0  0  0  0  0  0  0  0  0  0
   11.2600   -2.9012  -16.1356 O   0  0  0  0  0  0  0  0  0  0  0  0
   17.1843   -1.9617  -17.5207 C   0  0  0  0  0  0  0  0  0  0  0  0
   13.2577   -3.0913  -14.7646 O   0  5  0  0  0  0  0  0  0  0  0  0
   15.8562   -1.9546  -18.1484 N   0  3  0  0  0  0  0  0  0  0  0  0
   15.9750   -2.1857  -19.5652 C   0  0  0  0  0  0  0  0  0  0  0  0
   16.9446   -1.2377  -20.1913 C   0  0  0  0  0  0  0  0  0  0  0  0
   15.0214   -2.9406  -17.5309 C   0  0  0  0  0  0  0  0  0  0  0  0
   13.5951   -2.3655  -17.3397 C   0  0  0  0  0  0  0  0  0  0  0  0
   12.6922   -3.3362  -16.1155 S   0  0  1  0  0  0  0  0  0  0  0  0
  1  3  1  0  0  0  0
  1  9  1  0  0  0  0
  2 12  1  0  0  0  0
  3  5  1  0  0  0  0
  4 12  2  0  0  0  0
  5  7  1  0  0  0  0
  6 12  2  0  0  0  0
  7  8  1  0  0  0  0
  7 10  1  0  0  0  0
  8  9  1  0  0  0  0
 10 11  1  0  0  0  0
 12 11  1  6  0  0  0
M  CHG  2   6  -1   7   1
M  END
>  <CHROM.1>
138.86721901,-161.59899518,-50.88984417,14.79992676,-2.52956674,-17.45135006
-0.56900844,0.32031907,1.68062617

>  <Name>
ligand

>  <RI>
0

>  <Rbt.Current_Directory>
/home/itssahil/PROJECTS/Mol_Feturizer/New_Systems/rnas/4P95

>  <Rbt.Executable>
rbdock ($Id: //depot/dev/client3/rdock/2013.1/src/exe/rbdock.cxx#4 $)

>  <Rbt.Library>
libRbt.so (2013.1, Build901 2013/11/27)

>  <Rbt.Parameter_File>
/export/apps/rDock/src/rDock_2013.1_src/data/scripts/dock_solv.prm

>  <Rbt.Receptor>
prm/blind_docking_100.prm

>  <SCORE>
-13.5262

>  <SCORE.INTER>
-12.3864

>  <SCORE.INTER.CONST>
1

>  <SCORE.INTER.POLAR>
0

>  <SCORE.INTER.ROT>
3

>  <SCORE.INTER.SOLV>
9.72801

>  <SCORE.INTER.VDW>
-17.1003

>  <SCORE.INTER.norm>
-1.0322

>  <SCORE.INTRA>
-1.13985

>  <SCORE.INTRA.DIHEDRAL>
2.9341

>  <SCORE.INTRA.DIHEDRAL.0>
0.283163

>  <SCORE.INTRA.POLAR>
0

>  <SCORE.INTRA.POLAR.0>
0

>  <SCORE.INTRA.REPUL>
0

>  <SCORE.INTRA.REPUL.0>
0

>  <SCORE.INTRA.SOLV>
-0.0800604

>  <SCORE.INTRA.SOLV.lig_0>
-32.2894

>  <SCORE.INTRA.VDW>
-2.56687

>  <SCORE.INTRA.VDW.0>
2.0241

>  <SCORE.INTRA.norm>
-0.0949874

>  <SCORE.RESTR>
0

>  <SCORE.RESTR.CAVITY>
0

>  <SCORE.RESTR.norm>
0

>  <SCORE.SYSTEM>
0

>  <SCORE.SYSTEM.CONST>
0

>  <SCORE.SYSTEM.DIHEDRAL>
0

>  <SCORE.SYSTEM.SOLV>
0

>  <SCORE.SYSTEM.norm>
0

>  <SCORE.heavy>
12

>  <SCORE.norm>
-1.12719

>  <RMSD>
18.621

$$$$
ligand
 OpenBabel11021811513D
libRbt.so/2013.1/901 2013/11/27
 12 12  0  0  0  0  0  0  0  0999 V2000
   17.9469   -1.4193  -19.8270 O   0  0  0  0  0  0  0  0  0  0  0  0
   11.2468   -3.1736  -16.1581 O   0  0  0  0  0  0  0  0  0  0  0  0
   18.1048   -1.0517  -18.5082 C   0  0  0  0  0  0  0  0  0  0  0  0
   13.1820   -3.2788  -14.6780 O   0  0  0  0  0  0  0  0  0  0  0  0
   17.2844   -1.8410  -17.5728 C   0  0  0  0  0  0  0  0  0  0  0  0
   12.9378   -4.9091  -16.4638 O   0  5  0  0  0  0  0  0  0  0  0  0
   15.8781   -1.8965  -17.9936 N   0  3  0  0  0  0  0  0  0  0  0  0
   15.7867   -2.3227  -19.3664 C   0  0  0  0  0  0  0  0  0  0  0  0
   16.6504   -1.4875  -20.2537 C   0  0  0  0  0  0  0  0  0  0  0  0
   15.1464   -2.7729  -17.1293 C   0  0  0  0  0  0  0  0  0  0  0  0
   13.6419   -2.4037  -17.1704 C   0  0  0  0  0  0  0  0  0  0  0  0
   12.7041   -3.4938  -16.0802 S   0  0  1  0  0  0  0  0  0  0  0  0
  1  3  1  0  0  0  0
  1  9  1  0  0  0  0
  2 12  1  0  0  0  0
  3  5  1  0  0  0  0
  4 12  2  0  0  0  0
  5  7  1  0  0  0  0
  6 12  2  0  0  0  0
  7  8  1  0  0  0  0
  7 10  1  0  0  0  0
  8  9  1  0  0  0  0
 10 11  1  0  0  0  0
 12 11  1  6  0  0  0
M  CHG  2   6  -1   7   1
M  END
>  <CHROM.1>
156.76020153,-179.73971571,-177.84953832,14.77600348,-2.62423794,-17.42571472
0.58811578,-0.35293732,-1.48180416

>  <Name>
ligand

>  <RI>
0

>  <Rbt.Current_Directory>
/home/itssahil/PROJECTS/Mol_Feturizer/New_Systems/rnas/4P95

>  <Rbt.Executable>
rbdock ($Id: //depot/dev/client3/rdock/2013.1/src/exe/rbdock.cxx#4 $)

>  <Rbt.Library>
libRbt.so (2013.1, Build901 2013/11/27)

>  <Rbt.Parameter_File>
/export/apps/rDock/src/rDock_2013.1_src/data/scripts/dock_solv.prm

>  <Rbt.Receptor>
prm/blind_docking_60.prm

>  <SCORE>
-12.4276

>  <SCORE.INTER>
-10.655

>  <SCORE.INTER.CONST>
1

>  <SCORE.INTER.POLAR>
0

>  <SCORE.INTER.ROT>
3

>  <SCORE.INTER.SOLV>
14.3475

>  <SCORE.INTER.VDW>
-17.4859

>  <SCORE.INTER.norm>
-0.88792

>  <SCORE.INTRA>
-1.77254

>  <SCORE.INTRA.DIHEDRAL>
0.457613

>  <SCORE.INTRA.DIHEDRAL.0>
0.283163

>  <SCORE.INTRA.POLAR>
0

>  <SCORE.INTRA.POLAR.0>
0

>  <SCORE.INTRA.REPUL>
0

>  <SCORE.INTRA.REPUL.0>
0

>  <SCORE.INTRA.SOLV>
0.200012

>  <SCORE.INTRA.SOLV.lig_0>
-32.2894

>  <SCORE.INTRA.VDW>
-2.10135

>  <SCORE.INTRA.VDW.0>
2.0241

>  <SCORE.INTRA.norm>
-0.147712

>  <SCORE.RESTR>
0

>  <SCORE.RESTR.CAVITY>
0

>  <SCORE.RESTR.norm>
0

>  <SCORE.SYSTEM>
0

>  <SCORE.SYSTEM.CONST>
0

>  <SCORE.SYSTEM.DIHEDRAL>
0

>  <SCORE.SYSTEM.SOLV>
0

>  <SCORE.SYSTEM.norm>
0

>  <SCORE.heavy>
12

>  <SCORE.norm>
-1.03563

>  <RMSD>
18.652

$$$$
ligand
 OpenBabel11021811513D
libRbt.so/2013.1/901 2013/11/27
 12 12  0  0  0  0  0  0  0  0999 V2000
    3.4747   12.5311  -22.1255 O   0  0  0  0  0  0  0  0  0  0  0  0
    7.1993   15.4096  -21.4390 O   0  0  0  0  0  0  0  0  0  0  0  0
    3.4296   12.7297  -20.7625 C   0  0  0  0  0  0  0  0  0  0  0  0
    8.1460   17.0696  -19.9243 O   0  0  0  0  0  0  0  0  0  0  0  0
    3.3870   14.1503  -20.3739 C   0  0  0  0  0  0  0  0  0  0  0  0
    6.9373   17.7926  -21.9049 O   0  5  0  0  0  0  0  0  0  0  0  0
    4.4406   14.9295  -21.0377 N   0  3  0  0  0  0  0  0  0  0  0  0
    4.4049   14.7031  -22.4597 C   0  0  0  0  0  0  0  0  0  0  0  0
    4.4398   13.2445  -22.7791 C   0  0  0  0  0  0  0  0  0  0  0  0
    4.2841   16.3192  -20.7303 C   0  0  0  0  0  0  0  0  0  0  0  0
    5.4792   16.7965  -19.8668 C   0  0  0  0  0  0  0  0  0  0  0  0
    7.0002   16.7626  -20.8373 S   0  0  1  0  0  0  0  0  0  0  0  0
  1  3  1  0  0  0  0
  1  9  1  0  0  0  0
  2 12  1  0  0  0  0
  3  5  1  0  0  0  0
  4 12  2  0  0  0  0
  5  7  1  0  0  0  0
  6 12  2  0  0  0  0
  7  8  1  0  0  0  0
  7 10  1  0  0  0  0
  8  9  1  0  0  0  0
 10 11  1  0  0  0  0
 12 11  1  1  0  0  0
M  CHG  2   6  -1   7   1
M  END
>  <CHROM.1>
113.34565197,67.33033980,-53.84150252,5.43366644,15.36822615,-21.16088995
-2.47283731,0.53457516,0.79919967

>  <Name>
ligand

>  <RI>
0

>  <Rbt.Current_Directory>
/home/itssahil/PROJECTS/Mol_Feturizer/New_Systems/rnas/4P95

>  <Rbt.Executable>
rbdock ($Id: //depot/dev/client3/rdock/2013.1/src/exe/rbdock.cxx#4 $)

>  <Rbt.Library>
libRbt.so (2013.1, Build901 2013/11/27)

>  <Rbt.Parameter_File>
/export/apps/rDock/src/rDock_2013.1_src/data/scripts/dock_solv.prm

>  <Rbt.Receptor>
prm/blind_docking_100.prm

>  <SCORE>
-10.7736

>  <SCORE.INTER>
-9.12618

>  <SCORE.INTER.CONST>
1

>  <SCORE.INTER.POLAR>
0

>  <SCORE.INTER.ROT>
3

>  <SCORE.INTER.SOLV>
6.82717

>  <SCORE.INTER.VDW>
-13.9598

>  <SCORE.INTER.norm>
-0.760515

>  <SCORE.INTRA>
-1.64744

>  <SCORE.INTRA.DIHEDRAL>
2.38088

>  <SCORE.INTRA.DIHEDRAL.0>
0.283163

>  <SCORE.INTRA.POLAR>
0

>  <SCORE.INTRA.POLAR.0>
0

>  <SCORE.INTRA.REPUL>
0

>  <SCORE.INTRA.REPUL.0>
0

>  <SCORE.INTRA.SOLV>
1.06064

>  <SCORE.INTRA.SOLV.lig_0>
-32.2894

>  <SCORE.INTRA.VDW>
-3.3682

>  <SCORE.INTRA.VDW.0>
2.0241

>  <SCORE.INTRA.norm>
-0.137287

>  <SCORE.RESTR>
0

>  <SCORE.RESTR.CAVITY>
0

>  <SCORE.RESTR.norm>
0

>  <SCORE.SYSTEM>
0

>  <SCORE.SYSTEM.CONST>
0

>  <SCORE.SYSTEM.DIHEDRAL>
0

>  <SCORE.SYSTEM.SOLV>
0

>  <SCORE.SYSTEM.norm>
0

>  <SCORE.heavy>
12

>  <SCORE.norm>
-0.897802

>  <RMSD>
18.656

$$$$
ligand
 OpenBabel11021811513D
libRbt.so/2013.1/901 2013/11/27
 12 12  0  0  0  0  0  0  0  0999 V2000
   17.6138   -0.8640  -19.9764 O   0  0  0  0  0  0  0  0  0  0  0  0
   11.9206   -4.3681  -16.0733 O   0  0  0  0  0  0  0  0  0  0  0  0
   16.4263   -1.4791  -20.3092 C   0  0  0  0  0  0  0  0  0  0  0  0
   12.1630   -1.9542  -16.3199 O   0  0  0  0  0  0  0  0  0  0  0  0
   15.5145   -1.6605  -19.1661 C   0  0  0  0  0  0  0  0  0  0  0  0
   13.3911   -3.1190  -14.5759 O   0  5  0  0  0  0  0  0  0  0  0  0
   16.1907   -2.2882  -18.0230 N   0  3  0  0  0  0  0  0  0  0  0  0
   17.4008   -1.5733  -17.7078 C   0  0  0  0  0  0  0  0  0  0  0  0
   18.2696   -1.4171  -18.9127 C   0  0  0  0  0  0  0  0  0  0  0  0
   15.3058   -2.3301  -16.8981 C   0  0  0  0  0  0  0  0  0  0  0  0
   14.2480   -3.4422  -17.1123 C   0  0  0  0  0  0  0  0  0  0  0  0
   12.8736   -3.2227  -15.9638 S   0  0  1  0  0  0  0  0  0  0  0  0
  1  3  1  0  0  0  0
  1  9  1  0  0  0  0
  2 12  1  0  0  0  0
  3  5  1  0  0  0  0
  4 12  2  0  0  0  0
  5  7  1  0  0  0  0
  6 12  2  0  0  0  0
  7  8  1  0  0  0  0
  7 10  1  0  0  0  0
  8  9  1  0  0  0  0
 10 11  1  0  0  0  0
 12 11  1  6  0  0  0
M  CHG  2   6  -1   7   1
M  END
>  <CHROM.1>
75.05573079,-164.35643952,-174.32894791,14.84774370,-2.40544246,-17.40128873
0.68671019,-0.21850696,-1.32431132

>  <Name>
ligand

>  <RI>
0

>  <Rbt.Current_Directory>
/home/itssahil/PROJECTS/Mol_Feturizer/New_Systems/rnas/4P95

>  <Rbt.Executable>
rbdock ($Id: //depot/dev/client3/rdock/2013.1/src/exe/rbdock.cxx#4 $)

>  <Rbt.Library>
libRbt.so (2013.1, Build901 2013/11/27)

>  <Rbt.Parameter_File>
/export/apps/rDock/src/rDock_2013.1_src/data/scripts/dock_solv.prm

>  <Rbt.Receptor>
prm/blind_docking_40.prm

>  <SCORE>
-12.6192

>  <SCORE.INTER>
-11.4615

>  <SCORE.INTER.CONST>
1

>  <SCORE.INTER.POLAR>
0

>  <SCORE.INTER.ROT>
3

>  <SCORE.INTER.SOLV>
8.87461

>  <SCORE.INTER.VDW>
-16.1992

>  <SCORE.INTER.norm>
-0.955123

>  <SCORE.INTRA>
-1.15768

>  <SCORE.INTRA.DIHEDRAL>
1.09832

>  <SCORE.INTRA.DIHEDRAL.0>
0.283163

>  <SCORE.INTRA.POLAR>
0

>  <SCORE.INTRA.POLAR.0>
0

>  <SCORE.INTRA.REPUL>
0

>  <SCORE.INTRA.REPUL.0>
0

>  <SCORE.INTRA.SOLV>
0.238694

>  <SCORE.INTRA.SOLV.lig_0>
-32.2894

>  <SCORE.INTRA.VDW>
-1.82619

>  <SCORE.INTRA.VDW.0>
2.0241

>  <SCORE.INTRA.norm>
-0.0964733

>  <SCORE.RESTR>
0

>  <SCORE.RESTR.CAVITY>
0

>  <SCORE.RESTR.norm>
0

>  <SCORE.SYSTEM>
0

>  <SCORE.SYSTEM.CONST>
0

>  <SCORE.SYSTEM.DIHEDRAL>
0

>  <SCORE.SYSTEM.SOLV>
0

>  <SCORE.SYSTEM.norm>
0

>  <SCORE.heavy>
12

>  <SCORE.norm>
-1.0516

>  <RMSD>
18.659

$$$$
ligand
 OpenBabel11021811513D
libRbt.so/2013.1/901 2013/11/27
 12 12  0  0  0  0  0  0  0  0999 V2000
   17.9145   -1.5168  -19.8817 O   0  0  0  0  0  0  0  0  0  0  0  0
   12.9899   -4.9240  -16.2072 O   0  0  0  0  0  0  0  0  0  0  0  0
   18.0768   -1.1011  -18.5778 C   0  0  0  0  0  0  0  0  0  0  0  0
   11.2718   -3.1948  -16.1410 O   0  0  0  0  0  0  0  0  0  0  0  0
   17.2729   -1.8671  -17.6093 C   0  0  0  0  0  0  0  0  0  0  0  0
   13.1474   -3.0928  -14.5990 O   0  5  0  0  0  0  0  0  0  0  0  0
   15.8645   -1.9549  -18.0176 N   0  3  0  0  0  0  0  0  0  0  0  0
   15.7691   -2.4302  -19.3739 C   0  0  0  0  0  0  0  0  0  0  0  0
   16.6161   -1.6161  -20.2963 C   0  0  0  0  0  0  0  0  0  0  0  0
   15.1500   -2.8093  -17.1177 C   0  0  0  0  0  0  0  0  0  0  0  0
   13.6377   -2.4762  -17.1780 C   0  0  0  0  0  0  0  0  0  0  0  0
   12.7335   -3.4706  -15.9739 S   0  0  1  0  0  0  0  0  0  0  0  0
  1  3  1  0  0  0  0
  1  9  1  0  0  0  0
  2 12  1  0  0  0  0
  3  5  1  0  0  0  0
  4 12  2  0  0  0  0
  5  7  1  0  0  0  0
  6 12  2  0  0  0  0
  7  8  1  0  0  0  0
  7 10  1  0  0  0  0
  8  9  1  0  0  0  0
 10 11  1  0  0  0  0
 12 11  1  6  0  0  0
M  CHG  2   6  -1   7   1
M  END
>  <CHROM.1>
157.67865088,-176.41103801,-56.22755288,14.77406782,-2.65066421,-17.39635321
0.60331021,-0.35716533,-1.51841246

>  <Name>
ligand

>  <RI>
0

>  <Rbt.Current_Directory>
/home/itssahil/PROJECTS/Mol_Feturizer/New_Systems/rnas/4P95

>  <Rbt.Executable>
rbdock ($Id: //depot/dev/client3/rdock/2013.1/src/exe/rbdock.cxx#4 $)

>  <Rbt.Library>
libRbt.so (2013.1, Build901 2013/11/27)

>  <Rbt.Parameter_File>
/export/apps/rDock/src/rDock_2013.1_src/data/scripts/dock_solv.prm

>  <Rbt.Receptor>
prm/blind_docking_60.prm

>  <SCORE>
-14.4642

>  <SCORE.INTER>
-12.5758

>  <SCORE.INTER.CONST>
1

>  <SCORE.INTER.POLAR>
0

>  <SCORE.INTER.ROT>
3

>  <SCORE.INTER.SOLV>
10.1883

>  <SCORE.INTER.VDW>
-17.38

>  <SCORE.INTER.norm>
-1.04798

>  <SCORE.INTRA>
-1.88839

>  <SCORE.INTRA.DIHEDRAL>
0.48275

>  <SCORE.INTRA.DIHEDRAL.0>
0.283163

>  <SCORE.INTRA.POLAR>
0

>  <SCORE.INTRA.POLAR.0>
0

>  <SCORE.INTRA.REPUL>
0

>  <SCORE.INTRA.REPUL.0>
0

>  <SCORE.INTRA.SOLV>
-0.102462

>  <SCORE.INTRA.SOLV.lig_0>
-32.2894

>  <SCORE.INTRA.VDW>
-2.07854

>  <SCORE.INTRA.VDW.0>
2.0241

>  <SCORE.INTRA.norm>
-0.157366

>  <SCORE.RESTR>
0

>  <SCORE.RESTR.CAVITY>
0

>  <SCORE.RESTR.norm>
0

>  <SCORE.SYSTEM>
0

>  <SCORE.SYSTEM.CONST>
0

>  <SCORE.SYSTEM.DIHEDRAL>
0

>  <SCORE.SYSTEM.SOLV>
0

>  <SCORE.SYSTEM.norm>
0

>  <SCORE.heavy>
12

>  <SCORE.norm>
-1.20535

>  <RMSD>
18.664

$$$$
ligand
 OpenBabel11021811513D
libRbt.so/2013.1/901 2013/11/27
 12 12  0  0  0  0  0  0  0  0999 V2000
    3.4301   12.6918  -22.2253 O   0  0  0  0  0  0  0  0  0  0  0  0
    7.3000   15.4133  -21.5713 O   0  0  0  0  0  0  0  0  0  0  0  0
    3.6231   12.7826  -20.8637 C   0  0  0  0  0  0  0  0  0  0  0  0
    8.3745   16.8379  -19.9093 O   0  0  0  0  0  0  0  0  0  0  0  0
    3.6474   14.1676  -20.3619 C   0  0  0  0  0  0  0  0  0  0  0  0
    7.1846   17.8444  -21.7740 O   0  5  0  0  0  0  0  0  0  0  0  0
    4.5685   15.0119  -21.1344 N   0  3  0  0  0  0  0  0  0  0  0  0
    4.2858   14.8968  -22.5420 C   0  0  0  0  0  0  0  0  0  0  0  0
    4.2659   13.4683  -22.9777 C   0  0  0  0  0  0  0  0  0  0  0  0
    4.4666   16.3708  -20.6948 C   0  0  0  0  0  0  0  0  0  0  0  0
    5.6969   16.7267  -19.8223 C   0  0  0  0  0  0  0  0  0  0  0  0
    7.1975   16.7032  -20.8243 S   0  0  1  0  0  0  0  0  0  0  0  0
  1  3  1  0  0  0  0
  1  9  1  0  0  0  0
  2 12  1  0  0  0  0
  3  5  1  0  0  0  0
  4 12  2  0  0  0  0
  5  7  1  0  0  0  0
  6 12  2  0  0  0  0
  7  8  1  0  0  0  0
  7 10  1  0  0  0  0
  8  9  1  0  0  0  0
 10 11  1  0  0  0  0
 12 11  1  1  0  0  0
M  CHG  2   6  -1   7   1
M  END
>  <CHROM.1>
104.38411898,66.19425782,-51.82065856,5.55979249,15.39697628,-21.19376555
-2.57950475,0.58103749,0.99817452

>  <Name>
ligand

>  <RI>
0

>  <Rbt.Current_Directory>
/home/itssahil/PROJECTS/Mol_Feturizer/New_Systems/rnas/4P95

>  <Rbt.Executable>
rbdock ($Id: //depot/dev/client3/rdock/2013.1/src/exe/rbdock.cxx#4 $)

>  <Rbt.Library>
libRbt.so (2013.1, Build901 2013/11/27)

>  <Rbt.Parameter_File>
/export/apps/rDock/src/rDock_2013.1_src/data/scripts/dock_solv.prm

>  <Rbt.Receptor>
prm/blind_docking_100.prm

>  <SCORE>
-10.8601

>  <SCORE.INTER>
-9.0405

>  <SCORE.INTER.CONST>
1

>  <SCORE.INTER.POLAR>
0

>  <SCORE.INTER.ROT>
3

>  <SCORE.INTER.SOLV>
6.55937

>  <SCORE.INTER.VDW>
-13.8135

>  <SCORE.INTER.norm>
-0.753375

>  <SCORE.INTRA>
-1.81963

>  <SCORE.INTRA.DIHEDRAL>
2.12112

>  <SCORE.INTRA.DIHEDRAL.0>
0.283163

>  <SCORE.INTRA.POLAR>
0

>  <SCORE.INTRA.POLAR.0>
0

>  <SCORE.INTRA.REPUL>
0

>  <SCORE.INTRA.REPUL.0>
0

>  <SCORE.INTRA.SOLV>
0.897412

>  <SCORE.INTRA.SOLV.lig_0>
-32.2894

>  <SCORE.INTRA.VDW>
-3.32889

>  <SCORE.INTRA.VDW.0>
2.0241

>  <SCORE.INTRA.norm>
-0.151636

>  <SCORE.RESTR>
0

>  <SCORE.RESTR.CAVITY>
0

>  <SCORE.RESTR.norm>
0

>  <SCORE.SYSTEM>
0

>  <SCORE.SYSTEM.CONST>
0

>  <SCORE.SYSTEM.DIHEDRAL>
0

>  <SCORE.SYSTEM.SOLV>
0

>  <SCORE.SYSTEM.norm>
0

>  <SCORE.heavy>
12

>  <SCORE.norm>
-0.905011

>  <RMSD>
18.669

$$$$
ligand
 OpenBabel11021811513D
libRbt.so/2013.1/901 2013/11/27
 12 12  0  0  0  0  0  0  0  0999 V2000
    3.4495   12.6251  -22.1883 O   0  0  0  0  0  0  0  0  0  0  0  0
    7.3340   15.4421  -21.5252 O   0  0  0  0  0  0  0  0  0  0  0  0
    3.5245   12.7786  -20.8208 C   0  0  0  0  0  0  0  0  0  0  0  0
    8.3240   16.9070  -19.8457 O   0  0  0  0  0  0  0  0  0  0  0  0
    3.5444   14.1858  -20.3848 C   0  0  0  0  0  0  0  0  0  0  0  0
    7.1692   17.8678  -21.7561 O   0  5  0  0  0  0  0  0  0  0  0  0
    4.5538   14.9680  -21.1111 N   0  3  0  0  0  0  0  0  0  0  0  0
    4.3927   14.7901  -22.5313 C   0  0  0  0  0  0  0  0  0  0  0  0
    4.3701   13.3427  -22.8990 C   0  0  0  0  0  0  0  0  0  0  0  0
    4.4527   16.3492  -20.7471 C   0  0  0  0  0  0  0  0  0  0  0  0
    5.6482   16.7344  -19.8394 C   0  0  0  0  0  0  0  0  0  0  0  0
    7.1790   16.7363  -20.7948 S   0  0  1  0  0  0  0  0  0  0  0  0
  1  3  1  0  0  0  0
  1  9  1  0  0  0  0
  2 12  1  0  0  0  0
  3  5  1  0  0  0  0
  4 12  2  0  0  0  0
  5  7  1  0  0  0  0
  6 12  2  0  0  0  0
  7  8  1  0  0  0  0
  7 10  1  0  0  0  0
  8  9  1  0  0  0  0
 10 11  1  0  0  0  0
 12 11  1  1  0  0  0
M  CHG  2   6  -1   7   1
M  END
>  <CHROM.1>
107.00981188,69.58593249,-52.11968859,5.55080965,15.38702347,-21.17076864
-2.53168951,0.55290853,0.91425126

>  <Name>
ligand

>  <RI>
0

>  <Rbt.Current_Directory>
/home/itssahil/PROJECTS/Mol_Feturizer/New_Systems/rnas/4P95

>  <Rbt.Executable>
rbdock ($Id: //depot/dev/client3/rdock/2013.1/src/exe/rbdock.cxx#4 $)

>  <Rbt.Library>
libRbt.so (2013.1, Build901 2013/11/27)

>  <Rbt.Parameter_File>
/export/apps/rDock/src/rDock_2013.1_src/data/scripts/dock_solv.prm

>  <Rbt.Receptor>
prm/blind_docking_40.prm

>  <SCORE>
-10.8506

>  <SCORE.INTER>
-9.13268

>  <SCORE.INTER.CONST>
1

>  <SCORE.INTER.POLAR>
0

>  <SCORE.INTER.ROT>
3

>  <SCORE.INTER.SOLV>
6.42461

>  <SCORE.INTER.VDW>
-13.83

>  <SCORE.INTER.norm>
-0.761057

>  <SCORE.INTRA>
-1.71789

>  <SCORE.INTRA.DIHEDRAL>
2.41003

>  <SCORE.INTRA.DIHEDRAL.0>
0.283163

>  <SCORE.INTRA.POLAR>
0

>  <SCORE.INTRA.POLAR.0>
0

>  <SCORE.INTRA.REPUL>
0

>  <SCORE.INTRA.REPUL.0>
0

>  <SCORE.INTRA.SOLV>
0.84564

>  <SCORE.INTRA.SOLV.lig_0>
-32.2894

>  <SCORE.INTRA.VDW>
-3.34572

>  <SCORE.INTRA.VDW.0>
2.0241

>  <SCORE.INTRA.norm>
-0.143157

>  <SCORE.RESTR>
0

>  <SCORE.RESTR.CAVITY>
0

>  <SCORE.RESTR.norm>
0

>  <SCORE.SYSTEM>
0

>  <SCORE.SYSTEM.CONST>
0

>  <SCORE.SYSTEM.DIHEDRAL>
0

>  <SCORE.SYSTEM.SOLV>
0

>  <SCORE.SYSTEM.norm>
0

>  <SCORE.heavy>
12

>  <SCORE.norm>
-0.904214

>  <RMSD>
18.673

$$$$
ligand
 OpenBabel11021811513D
libRbt.so/2013.1/901 2013/11/27
 12 12  0  0  0  0  0  0  0  0999 V2000
    3.3455   12.7111  -22.2029 O   0  0  0  0  0  0  0  0  0  0  0  0
    7.2527   15.4490  -21.6149 O   0  0  0  0  0  0  0  0  0  0  0  0
    3.6396   12.7961  -20.8592 C   0  0  0  0  0  0  0  0  0  0  0  0
    8.3383   16.7650  -19.8724 O   0  0  0  0  0  0  0  0  0  0  0  0
    3.6802   14.1780  -20.3498 C   0  0  0  0  0  0  0  0  0  0  0  0
    7.2046   17.8891  -21.7047 O   0  5  0  0  0  0  0  0  0  0  0  0
    4.5267   15.0422  -21.1832 N   0  3  0  0  0  0  0  0  0  0  0  0
    4.1399   14.9318  -22.5663 C   0  0  0  0  0  0  0  0  0  0  0  0
    4.1095   13.5061  -23.0103 C   0  0  0  0  0  0  0  0  0  0  0  0
    4.4371   16.3964  -20.7267 C   0  0  0  0  0  0  0  0  0  0  0  0
    5.6577   16.7223  -19.8292 C   0  0  0  0  0  0  0  0  0  0  0  0
    7.1726   16.7050  -20.8095 S   0  0  1  0  0  0  0  0  0  0  0  0
  1  3  1  0  0  0  0
  1  9  1  0  0  0  0
  2 12  1  0  0  0  0
  3  5  1  0  0  0  0
  4 12  2  0  0  0  0
  5  7  1  0  0  0  0
  6 12  2  0  0  0  0
  7  8  1  0  0  0  0
  7 10  1  0  0  0  0
  8  9  1  0  0  0  0
 10 11  1  0  0  0  0
 12 11  1  1  0  0  0
M  CHG  2   6  -1   7   1
M  END
>  <CHROM.1>
98.79741465,66.69841009,-50.02652410,5.51722397,15.41016990,-21.19355528
-2.62511395,0.61070548,1.08493738

>  <Name>
ligand

>  <RI>
0

>  <Rbt.Current_Directory>
/home/itssahil/PROJECTS/Mol_Feturizer/New_Systems/rnas/4P95

>  <Rbt.Executable>
rbdock ($Id: //depot/dev/client3/rdock/2013.1/src/exe/rbdock.cxx#4 $)

>  <Rbt.Library>
libRbt.so (2013.1, Build901 2013/11/27)

>  <Rbt.Parameter_File>
/export/apps/rDock/src/rDock_2013.1_src/data/scripts/dock_solv.prm

>  <Rbt.Receptor>
prm/blind_docking_100.prm

>  <SCORE>
-10.8204

>  <SCORE.INTER>
-8.91458

>  <SCORE.INTER.CONST>
1

>  <SCORE.INTER.POLAR>
0

>  <SCORE.INTER.ROT>
3

>  <SCORE.INTER.SOLV>
6.77019

>  <SCORE.INTER.VDW>
-13.7998

>  <SCORE.INTER.norm>
-0.742882

>  <SCORE.INTRA>
-1.90581

>  <SCORE.INTRA.DIHEDRAL>
1.95322

>  <SCORE.INTRA.DIHEDRAL.0>
0.283163

>  <SCORE.INTRA.POLAR>
0

>  <SCORE.INTRA.POLAR.0>
0

>  <SCORE.INTRA.REPUL>
0

>  <SCORE.INTRA.REPUL.0>
0

>  <SCORE.INTRA.SOLV>
0.737662

>  <SCORE.INTRA.SOLV.lig_0>
-32.2894

>  <SCORE.INTRA.VDW>
-3.25125

>  <SCORE.INTRA.VDW.0>
2.0241

>  <SCORE.INTRA.norm>
-0.158817

>  <SCORE.RESTR>
0

>  <SCORE.RESTR.CAVITY>
0

>  <SCORE.RESTR.norm>
0

>  <SCORE.SYSTEM>
0

>  <SCORE.SYSTEM.CONST>
0

>  <SCORE.SYSTEM.DIHEDRAL>
0

>  <SCORE.SYSTEM.SOLV>
0

>  <SCORE.SYSTEM.norm>
0

>  <SCORE.heavy>
12

>  <SCORE.norm>
-0.901699

>  <RMSD>
18.679

$$$$
ligand
 OpenBabel11021811513D
libRbt.so/2013.1/901 2013/11/27
 12 12  0  0  0  0  0  0  0  0999 V2000
   17.9321   -1.5303  -19.8688 O   0  0  0  0  0  0  0  0  0  0  0  0
   13.3410   -3.4797  -14.6135 O   0  0  0  0  0  0  0  0  0  0  0  0
   18.1116   -1.1454  -18.5577 C   0  0  0  0  0  0  0  0  0  0  0  0
   12.8371   -4.9215  -16.5145 O   0  0  0  0  0  0  0  0  0  0  0  0
   17.3049   -1.9207  -17.5989 C   0  0  0  0  0  0  0  0  0  0  0  0
   11.3286   -3.1030  -15.9451 O   0  5  0  0  0  0  0  0  0  0  0  0
   15.8920   -1.9793  -17.9965 N   0  3  0  0  0  0  0  0  0  0  0  0
   15.7780   -2.4236  -19.3619 C   0  0  0  0  0  0  0  0  0  0  0  0
   16.6289   -1.6019  -20.2739 C   0  0  0  0  0  0  0  0  0  0  0  0
   15.1729   -2.8428  -17.1090 C   0  0  0  0  0  0  0  0  0  0  0  0
   13.6759   -2.4421  -17.0965 C   0  0  0  0  0  0  0  0  0  0  0  0
   12.7520   -3.5235  -15.9859 S   0  0  1  0  0  0  0  0  0  0  0  0
  1  3  1  0  0  0  0
  1  9  1  0  0  0  0
  2 12  1  0  0  0  0
  3  5  1  0  0  0  0
  4 12  2  0  0  0  0
  5  7  1  0  0  0  0
  6 12  2  0  0  0  0
  7  8  1  0  0  0  0
  7 10  1  0  0  0  0
  8  9  1  0  0  0  0
 10 11  1  0  0  0  0
 12 11  1  6  0  0  0
M  CHG  2   6  -1   7   1
M  END
>  <CHROM.1>
154.95194251,179.83707904,56.59520101,14.79937849,-2.69189063,-17.39491244
0.60820177,-0.34748929,-1.48908328

>  <Name>
ligand

>  <RI>
0

>  <Rbt.Current_Directory>
/home/itssahil/PROJECTS/Mol_Feturizer/New_Systems/rnas/4P95

>  <Rbt.Executable>
rbdock ($Id: //depot/dev/client3/rdock/2013.1/src/exe/rbdock.cxx#4 $)

>  <Rbt.Library>
libRbt.so (2013.1, Build901 2013/11/27)

>  <Rbt.Parameter_File>
/export/apps/rDock/src/rDock_2013.1_src/data/scripts/dock_solv.prm

>  <Rbt.Receptor>
prm/blind_docking_80.prm

>  <SCORE>
-12.0077

>  <SCORE.INTER>
-9.74713

>  <SCORE.INTER.CONST>
1

>  <SCORE.INTER.POLAR>
0

>  <SCORE.INTER.ROT>
3

>  <SCORE.INTER.SOLV>
15.6189

>  <SCORE.INTER.VDW>
-17.3044

>  <SCORE.INTER.norm>
-0.812261

>  <SCORE.INTRA>
-2.26053

>  <SCORE.INTRA.DIHEDRAL>
0.561713

>  <SCORE.INTRA.DIHEDRAL.0>
0.283163

>  <SCORE.INTRA.POLAR>
0

>  <SCORE.INTRA.POLAR.0>
0

>  <SCORE.INTRA.REPUL>
0

>  <SCORE.INTRA.REPUL.0>
0

>  <SCORE.INTRA.SOLV>
-0.718356

>  <SCORE.INTRA.SOLV.lig_0>
-32.2894

>  <SCORE.INTRA.VDW>
-2.18221

>  <SCORE.INTRA.VDW.0>
2.0241

>  <SCORE.INTRA.norm>
-0.188377

>  <SCORE.RESTR>
0

>  <SCORE.RESTR.CAVITY>
0

>  <SCORE.RESTR.norm>
0

>  <SCORE.SYSTEM>
0

>  <SCORE.SYSTEM.CONST>
0

>  <SCORE.SYSTEM.DIHEDRAL>
0

>  <SCORE.SYSTEM.SOLV>
0

>  <SCORE.SYSTEM.norm>
0

>  <SCORE.heavy>
12

>  <SCORE.norm>
-1.00064

>  <RMSD>
18.691

$$$$
ligand
 OpenBabel11021811513D
libRbt.so/2013.1/901 2013/11/27
 12 12  0  0  0  0  0  0  0  0999 V2000
   19.5193   -0.2901  -19.8068 O   0  0  0  0  0  0  0  0  0  0  0  0
   13.4229   -4.9024  -17.7678 O   0  0  0  0  0  0  0  0  0  0  0  0
   18.6961   -0.9648  -20.6822 C   0  0  0  0  0  0  0  0  0  0  0  0
   13.1152   -2.4927  -17.5552 O   0  0  0  0  0  0  0  0  0  0  0  0
   17.3378   -1.1927  -20.1589 C   0  0  0  0  0  0  0  0  0  0  0  0
   14.5733   -3.6652  -16.0041 O   0  5  0  0  0  0  0  0  0  0  0  0
   17.3631   -1.7854  -18.8150 N   0  3  0  0  0  0  0  0  0  0  0  0
   18.2103   -1.0099  -17.9458 C   0  0  0  0  0  0  0  0  0  0  0  0
   19.5643   -0.8094  -18.5435 C   0  0  0  0  0  0  0  0  0  0  0  0
   16.0309   -1.8726  -18.2971 C   0  0  0  0  0  0  0  0  0  0  0  0
   15.4824   -3.3053  -18.5172 C   0  0  0  0  0  0  0  0  0  0  0  0
   14.0933   -3.6164  -17.4083 S   0  0  1  0  0  0  0  0  0  0  0  0
  1  3  1  0  0  0  0
  1  9  1  0  0  0  0
  2 12  1  0  0  0  0
  3  5  1  0  0  0  0
  4 12  2  0  0  0  0
  5  7  1  0  0  0  0
  6 12  2  0  0  0  0
  7  8  1  0  0  0  0
  7 10  1  0  0  0  0
  8  9  1  0  0  0  0
 10 11  1  0  0  0  0
 12 11  1  6  0  0  0
M  CHG  2   6  -1   7   1
M  END
>  <CHROM.1>
98.00882867,160.44971819,170.77979411,16.17922949,-2.32183999,-18.33351877
-0.42112768,0.48999279,1.69051262

>  <Name>
ligand

>  <RI>
0

>  <Rbt.Current_Directory>
/home/itssahil/PROJECTS/Mol_Feturizer/New_Systems/rnas/4P95

>  <Rbt.Executable>
rbdock ($Id: //depot/dev/client3/rdock/2013.1/src/exe/rbdock.cxx#4 $)

>  <Rbt.Library>
libRbt.so (2013.1, Build901 2013/11/27)

>  <Rbt.Parameter_File>
/export/apps/rDock/src/rDock_2013.1_src/data/scripts/dock_solv.prm

>  <Rbt.Receptor>
prm/blind_docking_40.prm

>  <SCORE>
-14.1994

>  <SCORE.INTER>
-13.2362

>  <SCORE.INTER.CONST>
1

>  <SCORE.INTER.POLAR>
0

>  <SCORE.INTER.ROT>
3

>  <SCORE.INTER.SOLV>
9.38844

>  <SCORE.INTER.VDW>
-17.5536

>  <SCORE.INTER.norm>
-1.10302

>  <SCORE.INTRA>
-0.963218

>  <SCORE.INTRA.DIHEDRAL>
2.96935

>  <SCORE.INTRA.DIHEDRAL.0>
0.283163

>  <SCORE.INTRA.POLAR>
0

>  <SCORE.INTRA.POLAR.0>
0

>  <SCORE.INTRA.REPUL>
0

>  <SCORE.INTRA.REPUL.0>
0

>  <SCORE.INTRA.SOLV>
0.198058

>  <SCORE.INTRA.SOLV.lig_0>
-32.2894

>  <SCORE.INTRA.VDW>
-2.54692

>  <SCORE.INTRA.VDW.0>
2.0241

>  <SCORE.INTRA.norm>
-0.0802682

>  <SCORE.RESTR>
0

>  <SCORE.RESTR.CAVITY>
0

>  <SCORE.RESTR.norm>
0

>  <SCORE.SYSTEM>
0

>  <SCORE.SYSTEM.CONST>
0

>  <SCORE.SYSTEM.DIHEDRAL>
0

>  <SCORE.SYSTEM.SOLV>
0

>  <SCORE.SYSTEM.norm>
0

>  <SCORE.heavy>
12

>  <SCORE.norm>
-1.18329

>  <RMSD>
18.754

$$$$
ligand
 OpenBabel11021811513D
libRbt.so/2013.1/901 2013/11/27
 12 12  0  0  0  0  0  0  0  0999 V2000
   19.9554   -0.4161  -18.9688 O   0  0  0  0  0  0  0  0  0  0  0  0
   13.4575   -1.6121  -17.9851 O   0  0  0  0  0  0  0  0  0  0  0  0
   19.6957   -0.9350  -20.2188 C   0  0  0  0  0  0  0  0  0  0  0  0
   15.4593   -1.9894  -16.6445 O   0  0  0  0  0  0  0  0  0  0  0  0
   18.2587   -1.0629  -20.5183 C   0  0  0  0  0  0  0  0  0  0  0  0
   13.9262   -3.8269  -17.0686 O   0  5  0  0  0  0  0  0  0  0  0  0
   17.5367   -1.7556  -19.4427 N   0  3  0  0  0  0  0  0  0  0  0  0
   17.8247   -1.1387  -18.1734 C   0  0  0  0  0  0  0  0  0  0  0  0
   19.2964   -1.0319  -17.9422 C   0  0  0  0  0  0  0  0  0  0  0  0
   16.1312   -1.7461  -19.7163 C   0  0  0  0  0  0  0  0  0  0  0  0
   15.4789   -3.0192  -19.1201 C   0  0  0  0  0  0  0  0  0  0  0  0
   14.5276   -2.5981  -17.6457 S   0  0  1  0  0  0  0  0  0  0  0  0
  1  3  1  0  0  0  0
  1  9  1  0  0  0  0
  2 12  1  0  0  0  0
  3  5  1  0  0  0  0
  4 12  2  0  0  0  0
  5  7  1  0  0  0  0
  6 12  2  0  0  0  0
  7  8  1  0  0  0  0
  7 10  1  0  0  0  0
  8  9  1  0  0  0  0
 10 11  1  0  0  0  0
 12 11  1  6  0  0  0
M  CHG  2   6  -1   7   1
M  END
>  <CHROM.1>
149.32573578,106.25569129,59.49041553,16.54050666,-1.84685199,-18.49104774
-0.33195466,0.34894727,1.57022726

>  <Name>
ligand

>  <RI>
0

>  <Rbt.Current_Directory>
/home/itssahil/PROJECTS/Mol_Feturizer/New_Systems/rnas/4P95

>  <Rbt.Executable>
rbdock ($Id: //depot/dev/client3/rdock/2013.1/src/exe/rbdock.cxx#4 $)

>  <Rbt.Library>
libRbt.so (2013.1, Build901 2013/11/27)

>  <Rbt.Parameter_File>
/export/apps/rDock/src/rDock_2013.1_src/data/scripts/dock_solv.prm

>  <Rbt.Receptor>
prm/blind_docking_100.prm

>  <SCORE>
-13.5296

>  <SCORE.INTER>
-13.6573

>  <SCORE.INTER.CONST>
1

>  <SCORE.INTER.POLAR>
0

>  <SCORE.INTER.ROT>
3

>  <SCORE.INTER.SOLV>
10.86

>  <SCORE.INTER.VDW>
-18.3248

>  <SCORE.INTER.norm>
-1.13811

>  <SCORE.INTRA>
0.127648

>  <SCORE.INTRA.DIHEDRAL>
5.72566

>  <SCORE.INTRA.DIHEDRAL.0>
0.283163

>  <SCORE.INTRA.POLAR>
0

>  <SCORE.INTRA.POLAR.0>
0

>  <SCORE.INTRA.REPUL>
0

>  <SCORE.INTRA.REPUL.0>
0

>  <SCORE.INTRA.SOLV>
-0.191293

>  <SCORE.INTRA.SOLV.lig_0>
-32.2894

>  <SCORE.INTRA.VDW>
-2.63954

>  <SCORE.INTRA.VDW.0>
2.0241

>  <SCORE.INTRA.norm>
0.0106373

>  <SCORE.RESTR>
5.10676e-05

>  <SCORE.RESTR.CAVITY>
5.10676e-05

>  <SCORE.RESTR.norm>
4.25563e-06

>  <SCORE.SYSTEM>
0

>  <SCORE.SYSTEM.CONST>
0

>  <SCORE.SYSTEM.DIHEDRAL>
0

>  <SCORE.SYSTEM.SOLV>
0

>  <SCORE.SYSTEM.norm>
0

>  <SCORE.heavy>
12

>  <SCORE.norm>
-1.12746

>  <RMSD>
18.815

$$$$
ligand
 OpenBabel11021811513D
libRbt.so/2013.1/901 2013/11/27
 12 12  0  0  0  0  0  0  0  0999 V2000
   19.9594   -0.4168  -18.9720 O   0  0  0  0  0  0  0  0  0  0  0  0
   13.5120   -1.6580  -17.9263 O   0  0  0  0  0  0  0  0  0  0  0  0
   19.7114   -0.9544  -20.2164 C   0  0  0  0  0  0  0  0  0  0  0  0
   15.5536   -2.0351  -16.6472 O   0  0  0  0  0  0  0  0  0  0  0  0
   18.2773   -1.0955  -20.5236 C   0  0  0  0  0  0  0  0  0  0  0  0
   14.0132   -3.8749  -17.0327 O   0  5  0  0  0  0  0  0  0  0  0  0
   17.5524   -1.7781  -19.4435 N   0  3  0  0  0  0  0  0  0  0  0  0
   17.8279   -1.1420  -18.1809 C   0  0  0  0  0  0  0  0  0  0  0  0
   19.2973   -1.0227  -17.9414 C   0  0  0  0  0  0  0  0  0  0  0  0
   16.1488   -1.7813  -19.7266 C   0  0  0  0  0  0  0  0  0  0  0  0
   15.5022   -3.0554  -19.1263 C   0  0  0  0  0  0  0  0  0  0  0  0
   14.5941   -2.6424  -17.6226 S   0  0  1  0  0  0  0  0  0  0  0  0
  1  3  1  0  0  0  0
  1  9  1  0  0  0  0
  2 12  1  0  0  0  0
  3  5  1  0  0  0  0
  4 12  2  0  0  0  0
  5  7  1  0  0  0  0
  6 12  2  0  0  0  0
  7  8  1  0  0  0  0
  7 10  1  0  0  0  0
  8  9  1  0  0  0  0
 10 11  1  0  0  0  0
 12 11  1  6  0  0  0
M  CHG  2   6  -1   7   1
M  END
>  <CHROM.1>
148.91312931,103.92302542,60.22155254,16.57807869,-1.87582974,-18.48188104
-0.33694161,0.36215716,1.56227843

>  <Name>
ligand

>  <RI>
0

>  <Rbt.Current_Directory>
/home/itssahil/PROJECTS/Mol_Feturizer/New_Systems/rnas/4P95

>  <Rbt.Executable>
rbdock ($Id: //depot/dev/client3/rdock/2013.1/src/exe/rbdock.cxx#4 $)

>  <Rbt.Library>
libRbt.so (2013.1, Build901 2013/11/27)

>  <Rbt.Parameter_File>
/export/apps/rDock/src/rDock_2013.1_src/data/scripts/dock_solv.prm

>  <Rbt.Receptor>
prm/blind_docking_40.prm

>  <SCORE>
-13.5514

>  <SCORE.INTER>
-13.6683

>  <SCORE.INTER.CONST>
1

>  <SCORE.INTER.POLAR>
0

>  <SCORE.INTER.ROT>
3

>  <SCORE.INTER.SOLV>
10.8071

>  <SCORE.INTER.VDW>
-18.3146

>  <SCORE.INTER.norm>
-1.13903

>  <SCORE.INTRA>
0.116916

>  <SCORE.INTRA.DIHEDRAL>
5.5164

>  <SCORE.INTRA.DIHEDRAL.0>
0.283163

>  <SCORE.INTRA.POLAR>
0

>  <SCORE.INTRA.POLAR.0>
0

>  <SCORE.INTRA.REPUL>
0

>  <SCORE.INTRA.REPUL.0>
0

>  <SCORE.INTRA.SOLV>
-0.162394

>  <SCORE.INTRA.SOLV.lig_0>
-32.2894

>  <SCORE.INTRA.VDW>
-2.56009

>  <SCORE.INTRA.VDW.0>
2.0241

>  <SCORE.INTRA.norm>
0.009743

>  <SCORE.RESTR>
0

>  <SCORE.RESTR.CAVITY>
0

>  <SCORE.RESTR.norm>
0

>  <SCORE.SYSTEM>
0

>  <SCORE.SYSTEM.CONST>
0

>  <SCORE.SYSTEM.DIHEDRAL>
0

>  <SCORE.SYSTEM.SOLV>
0

>  <SCORE.SYSTEM.norm>
0

>  <SCORE.heavy>
12

>  <SCORE.norm>
-1.12928

>  <RMSD>
18.842

$$$$
ligand
 OpenBabel11021811513D
libRbt.so/2013.1/901 2013/11/27
 12 12  0  0  0  0  0  0  0  0999 V2000
   -0.9428   10.3219  -15.1323 O   0  0  0  0  0  0  0  0  0  0  0  0
    2.3611    4.1616  -13.2430 O   0  0  0  0  0  0  0  0  0  0  0  0
   -1.3017    9.6228  -14.0001 C   0  0  0  0  0  0  0  0  0  0  0  0
    1.9634    3.9393  -15.6386 O   0  0  0  0  0  0  0  0  0  0  0  0
   -0.3939    8.5066  -13.6828 C   0  0  0  0  0  0  0  0  0  0  0  0
    0.6250    2.6551  -14.0683 O   0  5  0  0  0  0  0  0  0  0  0  0
   -0.1638    7.6421  -14.8480 N   0  3  0  0  0  0  0  0  0  0  0  0
    0.2433    8.4331  -15.9808 C   0  0  0  0  0  0  0  0  0  0  0  0
   -0.7147    9.5500  -16.2367 C   0  0  0  0  0  0  0  0  0  0  0  0
    0.8173    6.6489  -14.5301 C   0  0  0  0  0  0  0  0  0  0  0  0
    0.1138    5.2966  -14.2508 C   0  0  0  0  0  0  0  0  0  0  0  0
    1.3155    3.9509  -14.2892 S   0  0  1  0  0  0  0  0  0  0  0  0
  1  3  1  0  0  0  0
  1  9  1  0  0  0  0
  2 12  1  0  0  0  0
  3  5  1  0  0  0  0
  4 12  2  0  0  0  0
  5  7  1  0  0  0  0
  6 12  2  0  0  0  0
  7  8  1  0  0  0  0
  7 10  1  0  0  0  0
  8  9  1  0  0  0  0
 10 11  1  0  0  0  0
 12 11  1  1  0  0  0
M  CHG  2   6  -1   7   1
M  END
>  <CHROM.1>
102.11186708,164.76616686,60.49795355,0.44613938,6.41029415,-14.61848630
-2.48650311,-1.11770549,2.14333083

>  <Name>
ligand

>  <RI>
0

>  <Rbt.Current_Directory>
/home/itssahil/PROJECTS/Mol_Feturizer/New_Systems/rnas/4P95

>  <Rbt.Executable>
rbdock ($Id: //depot/dev/client3/rdock/2013.1/src/exe/rbdock.cxx#4 $)

>  <Rbt.Library>
libRbt.so (2013.1, Build901 2013/11/27)

>  <Rbt.Parameter_File>
/export/apps/rDock/src/rDock_2013.1_src/data/scripts/dock_solv.prm

>  <Rbt.Receptor>
prm/blind_docking_80.prm

>  <SCORE>
-10.7316

>  <SCORE.INTER>
-9.02533

>  <SCORE.INTER.CONST>
1

>  <SCORE.INTER.POLAR>
0

>  <SCORE.INTER.ROT>
3

>  <SCORE.INTER.SOLV>
10.5939

>  <SCORE.INTER.VDW>
-15.1482

>  <SCORE.INTER.norm>
-0.752111

>  <SCORE.INTRA>
-1.70627

>  <SCORE.INTRA.DIHEDRAL>
2.51867

>  <SCORE.INTRA.DIHEDRAL.0>
0.283163

>  <SCORE.INTRA.POLAR>
0

>  <SCORE.INTRA.POLAR.0>
0

>  <SCORE.INTRA.REPUL>
0

>  <SCORE.INTRA.REPUL.0>
0

>  <SCORE.INTRA.SOLV>
-0.712244

>  <SCORE.INTRA.SOLV.lig_0>
-32.2894

>  <SCORE.INTRA.VDW>
-2.60949

>  <SCORE.INTRA.VDW.0>
2.0241

>  <SCORE.INTRA.norm>
-0.14219

>  <SCORE.RESTR>
0

>  <SCORE.RESTR.CAVITY>
0

>  <SCORE.RESTR.norm>
0

>  <SCORE.SYSTEM>
0

>  <SCORE.SYSTEM.CONST>
0

>  <SCORE.SYSTEM.DIHEDRAL>
0

>  <SCORE.SYSTEM.SOLV>
0

>  <SCORE.SYSTEM.norm>
0

>  <SCORE.heavy>
12

>  <SCORE.norm>
-0.894301

>  <RMSD>
18.858

$$$$
ligand
 OpenBabel11021811513D
libRbt.so/2013.1/901 2013/11/27
 12 12  0  0  0  0  0  0  0  0999 V2000
   -0.9053   10.5316  -14.9859 O   0  0  0  0  0  0  0  0  0  0  0  0
    2.4575    3.6541  -13.2427 O   0  0  0  0  0  0  0  0  0  0  0  0
   -0.3423   10.0298  -16.1393 C   0  0  0  0  0  0  0  0  0  0  0  0
    1.9190    3.9229  -15.6058 O   0  0  0  0  0  0  0  0  0  0  0  0
   -0.2672    8.5586  -16.1681 C   0  0  0  0  0  0  0  0  0  0  0  0
    0.1320    3.6158  -13.9876 O   0  5  0  0  0  0  0  0  0  0  0  0
    0.3418    8.0192  -14.9449 N   0  3  0  0  0  0  0  0  0  0  0  0
   -0.3185    8.5560  -13.7828 C   0  0  0  0  0  0  0  0  0  0  0  0
   -0.3679   10.0481  -13.8261 C   0  0  0  0  0  0  0  0  0  0  0  0
    0.2803    6.5887  -14.9614 C   0  0  0  0  0  0  0  0  0  0  0  0
    1.3673    6.0127  -14.0189 C   0  0  0  0  0  0  0  0  0  0  0  0
    1.4695    4.2212  -14.2094 S   0  0  1  0  0  0  0  0  0  0  0  0
  1  3  1  0  0  0  0
  1  9  1  0  0  0  0
  2 12  1  0  0  0  0
  3  5  1  0  0  0  0
  4 12  2  0  0  0  0
  5  7  1  0  0  0  0
  6 12  2  0  0  0  0
  7  8  1  0  0  0  0
  7 10  1  0  0  0  0
  8  9  1  0  0  0  0
 10 11  1  0  0  0  0
 12 11  1  1  0  0  0
M  CHG  2   6  -1   7   1
M  END
>  <CHROM.1>
157.69510825,-171.66353743,-176.55863153,0.58941660,6.66071320,-14.60642080
3.06268984,1.23616010,-1.63361538

>  <Name>
ligand

>  <RI>
0

>  <Rbt.Current_Directory>
/home/itssahil/PROJECTS/Mol_Feturizer/New_Systems/rnas/4P95

>  <Rbt.Executable>
rbdock ($Id: //depot/dev/client3/rdock/2013.1/src/exe/rbdock.cxx#4 $)

>  <Rbt.Library>
libRbt.so (2013.1, Build901 2013/11/27)

>  <Rbt.Parameter_File>
/export/apps/rDock/src/rDock_2013.1_src/data/scripts/dock_solv.prm

>  <Rbt.Receptor>
prm/blind_docking_40.prm

>  <SCORE>
-11.6249

>  <SCORE.INTER>
-10.0085

>  <SCORE.INTER.CONST>
1

>  <SCORE.INTER.POLAR>
0

>  <SCORE.INTER.ROT>
3

>  <SCORE.INTER.SOLV>
10.3485

>  <SCORE.INTER.VDW>
-15.7219

>  <SCORE.INTER.norm>
-0.834044

>  <SCORE.INTRA>
-1.61637

>  <SCORE.INTRA.DIHEDRAL>
0.685064

>  <SCORE.INTRA.DIHEDRAL.0>
0.283163

>  <SCORE.INTRA.POLAR>
0

>  <SCORE.INTRA.POLAR.0>
0

>  <SCORE.INTRA.REPUL>
0

>  <SCORE.INTRA.REPUL.0>
0

>  <SCORE.INTRA.SOLV>
0.189682

>  <SCORE.INTRA.SOLV.lig_0>
-32.2894

>  <SCORE.INTRA.VDW>
-2.05374

>  <SCORE.INTRA.VDW.0>
2.0241

>  <SCORE.INTRA.norm>
-0.134697

>  <SCORE.RESTR>
0

>  <SCORE.RESTR.CAVITY>
0

>  <SCORE.RESTR.norm>
0

>  <SCORE.SYSTEM>
0

>  <SCORE.SYSTEM.CONST>
0

>  <SCORE.SYSTEM.DIHEDRAL>
0

>  <SCORE.SYSTEM.SOLV>
0

>  <SCORE.SYSTEM.norm>
0

>  <SCORE.heavy>
12

>  <SCORE.norm>
-0.968741

>  <RMSD>
18.909

$$$$
ligand
 OpenBabel11021811513D
libRbt.so/2013.1/901 2013/11/27
 12 12  0  0  0  0  0  0  0  0999 V2000
   18.8151   -0.3493  -19.4654 O   0  0  0  0  0  0  0  0  0  0  0  0
   13.9133   -4.8060  -15.3220 O   0  0  0  0  0  0  0  0  0  0  0  0
   18.0945   -1.0899  -20.3772 C   0  0  0  0  0  0  0  0  0  0  0  0
   13.3364   -4.5716  -17.6797 O   0  0  0  0  0  0  0  0  0  0  0  0
   16.7519   -1.4675  -19.9019 C   0  0  0  0  0  0  0  0  0  0  0  0
   12.9626   -2.7163  -16.1551 O   0  5  0  0  0  0  0  0  0  0  0  0
   16.7976   -2.0788  -18.5669 N   0  3  0  0  0  0  0  0  0  0  0  0
   17.5318   -1.2353  -17.6590 C   0  0  0  0  0  0  0  0  0  0  0  0
   18.8752   -0.8841  -18.2092 C   0  0  0  0  0  0  0  0  0  0  0  0
   15.4665   -2.3137  -18.0942 C   0  0  0  0  0  0  0  0  0  0  0  0
   15.5135   -3.2419  -16.8541 C   0  0  0  0  0  0  0  0  0  0  0  0
   13.8598   -3.8557  -16.4738 S   0  0  1  0  0  0  0  0  0  0  0  0
  1  3  1  0  0  0  0
  1  9  1  0  0  0  0
  2 12  1  0  0  0  0
  3  5  1  0  0  0  0
  4 12  2  0  0  0  0
  5  7  1  0  0  0  0
  6 12  2  0  0  0  0
  7  8  1  0  0  0  0
  7 10  1  0  0  0  0
  8  9  1  0  0  0  0
 10 11  1  0  0  0  0
 12 11  1  6  0  0  0
M  CHG  2   6  -1   7   1
M  END
>  <CHROM.1>
167.03501096,-167.00632915,177.09544798,15.74480430,-2.55035200,-17.73425746
-0.56767425,0.51966417,1.72055118

>  <Name>
ligand

>  <RI>
0

>  <Rbt.Current_Directory>
/home/itssahil/PROJECTS/Mol_Feturizer/New_Systems/rnas/4P95

>  <Rbt.Executable>
rbdock ($Id: //depot/dev/client3/rdock/2013.1/src/exe/rbdock.cxx#4 $)

>  <Rbt.Library>
libRbt.so (2013.1, Build901 2013/11/27)

>  <Rbt.Parameter_File>
/export/apps/rDock/src/rDock_2013.1_src/data/scripts/dock_solv.prm

>  <Rbt.Receptor>
prm/blind_docking_60.prm

>  <SCORE>
-12.1516

>  <SCORE.INTER>
-10.9587

>  <SCORE.INTER.CONST>
1

>  <SCORE.INTER.POLAR>
0

>  <SCORE.INTER.ROT>
3

>  <SCORE.INTER.SOLV>
9.86996

>  <SCORE.INTER.VDW>
-16.1958

>  <SCORE.INTER.norm>
-0.913225

>  <SCORE.INTRA>
-1.19293

>  <SCORE.INTRA.DIHEDRAL>
0.569619

>  <SCORE.INTRA.DIHEDRAL.0>
0.283163

>  <SCORE.INTRA.POLAR>
0

>  <SCORE.INTRA.POLAR.0>
0

>  <SCORE.INTRA.REPUL>
0

>  <SCORE.INTRA.REPUL.0>
0

>  <SCORE.INTRA.SOLV>
0.14494

>  <SCORE.INTRA.SOLV.lig_0>
-32.2894

>  <SCORE.INTRA.VDW>
-1.55021

>  <SCORE.INTRA.VDW.0>
2.0241

>  <SCORE.INTRA.norm>
-0.0994112

>  <SCORE.RESTR>
0

>  <SCORE.RESTR.CAVITY>
0

>  <SCORE.RESTR.norm>
0

>  <SCORE.SYSTEM>
0

>  <SCORE.SYSTEM.CONST>
0

>  <SCORE.SYSTEM.DIHEDRAL>
0

>  <SCORE.SYSTEM.SOLV>
0

>  <SCORE.SYSTEM.norm>
0

>  <SCORE.heavy>
12

>  <SCORE.norm>
-1.01264

>  <RMSD>
18.914

$$$$
ligand
 OpenBabel11021811513D
libRbt.so/2013.1/901 2013/11/27
 12 12  0  0  0  0  0  0  0  0999 V2000
    0.6349    9.9139  -15.4199 O   0  0  0  0  0  0  0  0  0  0  0  0
    2.3533    5.2439  -14.7523 O   0  0  0  0  0  0  0  0  0  0  0  0
    0.2686    8.8025  -16.1480 C   0  0  0  0  0  0  0  0  0  0  0  0
    1.3871    3.0201  -14.4925 O   0  0  0  0  0  0  0  0  0  0  0  0
   -0.3636    7.7473  -15.3369 C   0  0  0  0  0  0  0  0  0  0  0  0
    1.8954    4.3530  -12.5249 O   0  5  0  0  0  0  0  0  0  0  0  0
    0.4339    7.4223  -14.1468 N   0  3  0  0  0  0  0  0  0  0  0  0
    0.7478    8.6231  -13.4159 C   0  0  0  0  0  0  0  0  0  0  0  0
    1.3740    9.6504  -14.3010 C   0  0  0  0  0  0  0  0  0  0  0  0
   -0.2757    6.4872  -13.3268 C   0  0  0  0  0  0  0  0  0  0  0  0
   -0.2449    5.0877  -13.9917 C   0  0  0  0  0  0  0  0  0  0  0  0
    1.4255    4.4077  -13.9324 S   0  0  1  0  0  0  0  0  0  0  0  0
  1  3  1  0  0  0  0
  1  9  1  0  0  0  0
  2 12  1  0  0  0  0
  3  5  1  0  0  0  0
  4 12  2  0  0  0  0
  5  7  1  0  0  0  0
  6 12  2  0  0  0  0
  7  8  1  0  0  0  0
  7 10  1  0  0  0  0
  8  9  1  0  0  0  0
 10 11  1  0  0  0  0
 12 11  1  6  0  0  0
M  CHG  2   6  -1   7   1
M  END
>  <CHROM.1>
73.59133658,69.55881187,-64.66997012,0.89193099,6.46967543,-14.27943150,2.18418350
-1.26939610,0.37433692

>  <Name>
ligand

>  <RI>
0

>  <Rbt.Current_Directory>
/home/itssahil/PROJECTS/Mol_Feturizer/New_Systems/rnas/4P95

>  <Rbt.Executable>
rbdock ($Id: //depot/dev/client3/rdock/2013.1/src/exe/rbdock.cxx#4 $)

>  <Rbt.Library>
libRbt.so (2013.1, Build901 2013/11/27)

>  <Rbt.Parameter_File>
/export/apps/rDock/src/rDock_2013.1_src/data/scripts/dock_solv.prm

>  <Rbt.Receptor>
prm/blind_docking_60.prm

>  <SCORE>
-10.6998

>  <SCORE.INTER>
-8.94835

>  <SCORE.INTER.CONST>
1

>  <SCORE.INTER.POLAR>
0

>  <SCORE.INTER.ROT>
3

>  <SCORE.INTER.SOLV>
8.89484

>  <SCORE.INTER.VDW>
-14.5305

>  <SCORE.INTER.norm>
-0.745696

>  <SCORE.INTRA>
-1.75143

>  <SCORE.INTRA.DIHEDRAL>
0.435372

>  <SCORE.INTRA.DIHEDRAL.0>
0.283163

>  <SCORE.INTRA.POLAR>
0

>  <SCORE.INTRA.POLAR.0>
0

>  <SCORE.INTRA.REPUL>
0

>  <SCORE.INTRA.REPUL.0>
0

>  <SCORE.INTRA.SOLV>
0.95607

>  <SCORE.INTRA.SOLV.lig_0>
-32.2894

>  <SCORE.INTRA.VDW>
-2.44716

>  <SCORE.INTRA.VDW.0>
2.0241

>  <SCORE.INTRA.norm>
-0.145953

>  <SCORE.RESTR>
0

>  <SCORE.RESTR.CAVITY>
0

>  <SCORE.RESTR.norm>
0

>  <SCORE.SYSTEM>
0

>  <SCORE.SYSTEM.CONST>
0

>  <SCORE.SYSTEM.DIHEDRAL>
0

>  <SCORE.SYSTEM.SOLV>
0

>  <SCORE.SYSTEM.norm>
0

>  <SCORE.heavy>
12

>  <SCORE.norm>
-0.891649

>  <RMSD>
19.104

$$$$
ligand
 OpenBabel11021811513D
libRbt.so/2013.1/901 2013/11/27
 12 12  0  0  0  0  0  0  0  0999 V2000
   15.0343   -4.4781  -13.8065 O   0  0  0  0  0  0  0  0  0  0  0  0
   11.4753   -0.3022  -17.7222 O   0  0  0  0  0  0  0  0  0  0  0  0
   14.3578   -4.5557  -15.0046 C   0  0  0  0  0  0  0  0  0  0  0  0
   11.0386    0.9430  -15.6715 O   0  0  0  0  0  0  0  0  0  0  0  0
   13.6679   -3.3076  -15.3751 C   0  0  0  0  0  0  0  0  0  0  0  0
    9.2171   -0.2067  -16.7969 O   0  5  0  0  0  0  0  0  0  0  0  0
   12.8401   -2.7945  -14.2754 N   0  3  0  0  0  0  0  0  0  0  0  0
   13.6192   -2.7044  -13.0673 C   0  0  0  0  0  0  0  0  0  0  0  0
   14.2975   -3.9991  -12.7599 C   0  0  0  0  0  0  0  0  0  0  0  0
   12.2907   -1.5216  -14.6336 C   0  0  0  0  0  0  0  0  0  0  0  0
   11.0004   -1.7302  -15.4663 C   0  0  0  0  0  0  0  0  0  0  0  0
   10.6637   -0.2676  -16.4682 S   0  0  1  0  0  0  0  0  0  0  0  0
  1  3  1  0  0  0  0
  1  9  1  0  0  0  0
  2 12  1  0  0  0  0
  3  5  1  0  0  0  0
  4 12  2  0  0  0  0
  5  7  1  0  0  0  0
  6 12  2  0  0  0  0
  7  8  1  0  0  0  0
  7 10  1  0  0  0  0
  8  9  1  0  0  0  0
 10 11  1  0  0  0  0
 12 11  1  1  0  0  0
M  CHG  2   6  -1   7   1
M  END
>  <CHROM.1>
83.94578494,-157.22938191,82.34319774,12.26070294,-1.86567086,-15.25263781
-0.31060657,0.85522665,-1.78706778

>  <Name>
ligand

>  <RI>
0

>  <Rbt.Current_Directory>
/home/itssahil/PROJECTS/Mol_Feturizer/New_Systems/rnas/4P95

>  <Rbt.Executable>
rbdock ($Id: //depot/dev/client3/rdock/2013.1/src/exe/rbdock.cxx#4 $)

>  <Rbt.Library>
libRbt.so (2013.1, Build901 2013/11/27)

>  <Rbt.Parameter_File>
/export/apps/rDock/src/rDock_2013.1_src/data/scripts/dock_solv.prm

>  <Rbt.Receptor>
prm/blind_docking_40.prm

>  <SCORE>
-10.9249

>  <SCORE.INTER>
-10.2285

>  <SCORE.INTER.CONST>
1

>  <SCORE.INTER.POLAR>
0

>  <SCORE.INTER.ROT>
3

>  <SCORE.INTER.SOLV>
10.7659

>  <SCORE.INTER.VDW>
-16.0077

>  <SCORE.INTER.norm>
-0.852377

>  <SCORE.INTRA>
-0.696396

>  <SCORE.INTRA.DIHEDRAL>
3.50863

>  <SCORE.INTRA.DIHEDRAL.0>
0.283163

>  <SCORE.INTRA.POLAR>
0

>  <SCORE.INTRA.POLAR.0>
0

>  <SCORE.INTRA.REPUL>
0

>  <SCORE.INTRA.REPUL.0>
0

>  <SCORE.INTRA.SOLV>
-0.626861

>  <SCORE.INTRA.SOLV.lig_0>
-32.2894

>  <SCORE.INTRA.VDW>
-2.13728

>  <SCORE.INTRA.VDW.0>
2.0241

>  <SCORE.INTRA.norm>
-0.058033

>  <SCORE.RESTR>
0

>  <SCORE.RESTR.CAVITY>
0

>  <SCORE.RESTR.norm>
0

>  <SCORE.SYSTEM>
0

>  <SCORE.SYSTEM.CONST>
0

>  <SCORE.SYSTEM.DIHEDRAL>
0

>  <SCORE.SYSTEM.SOLV>
0

>  <SCORE.SYSTEM.norm>
0

>  <SCORE.heavy>
12

>  <SCORE.norm>
-0.91041

>  <RMSD>
19.273

$$$$
ligand
 OpenBabel11021811513D
libRbt.so/2013.1/901 2013/11/27
 12 12  0  0  0  0  0  0  0  0999 V2000
   10.4574   -0.3767  -15.7807 O   0  0  0  0  0  0  0  0  0  0  0  0
   15.0910   -1.4239  -14.5130 O   0  0  0  0  0  0  0  0  0  0  0  0
   11.4664   -0.4947  -16.7119 C   0  0  0  0  0  0  0  0  0  0  0  0
   16.0804   -3.2559  -15.7823 O   0  0  0  0  0  0  0  0  0  0  0  0
   12.0907   -1.8290  -16.7404 C   0  0  0  0  0  0  0  0  0  0  0  0
   16.3841   -3.1540  -13.3732 O   0  5  0  0  0  0  0  0  0  0  0  0
   12.4872   -2.2747  -15.3980 N   0  3  0  0  0  0  0  0  0  0  0  0
   11.3765   -2.1597  -14.4881 C   0  0  0  0  0  0  0  0  0  0  0  0
   10.7875   -0.7876  -14.5198 C   0  0  0  0  0  0  0  0  0  0  0  0
   12.9718   -3.6209  -15.4564 C   0  0  0  0  0  0  0  0  0  0  0  0
   13.9474   -3.8716  -14.2786 C   0  0  0  0  0  0  0  0  0  0  0  0
   15.4388   -2.8766  -14.4841 S   0  0  1  0  0  0  0  0  0  0  0  0
  1  3  1  0  0  0  0
  1  9  1  0  0  0  0
  2 12  1  0  0  0  0
  3  5  1  0  0  0  0
  4 12  2  0  0  0  0
  5  7  1  0  0  0  0
  6 12  2  0  0  0  0
  7  8  1  0  0  0  0
  7 10  1  0  0  0  0
  8  9  1  0  0  0  0
 10 11  1  0  0  0  0
 12 11  1  1  0  0  0
M  CHG  2   6  -1   7   1
M  END
>  <CHROM.1>
154.47570352,-66.76092668,60.20053090,13.47382939,-2.23698276,-15.05671283
-2.76786425,-0.30159650,1.93638010

>  <Name>
ligand

>  <RI>
0

>  <Rbt.Current_Directory>
/home/itssahil/PROJECTS/Mol_Feturizer/New_Systems/rnas/4P95

>  <Rbt.Executable>
rbdock ($Id: //depot/dev/client3/rdock/2013.1/src/exe/rbdock.cxx#4 $)

>  <Rbt.Library>
libRbt.so (2013.1, Build901 2013/11/27)

>  <Rbt.Parameter_File>
/export/apps/rDock/src/rDock_2013.1_src/data/scripts/dock_solv.prm

>  <Rbt.Receptor>
prm/blind_docking_100.prm

>  <SCORE>
-11.545

>  <SCORE.INTER>
-8.74824

>  <SCORE.INTER.CONST>
1

>  <SCORE.INTER.POLAR>
0

>  <SCORE.INTER.ROT>
3

>  <SCORE.INTER.SOLV>
4.45336

>  <SCORE.INTER.VDW>
-12.9166

>  <SCORE.INTER.norm>
-0.72902

>  <SCORE.INTRA>
-2.79675

>  <SCORE.INTRA.DIHEDRAL>
0.745008

>  <SCORE.INTRA.DIHEDRAL.0>
0.283163

>  <SCORE.INTRA.POLAR>
0

>  <SCORE.INTRA.POLAR.0>
0

>  <SCORE.INTRA.REPUL>
0

>  <SCORE.INTRA.REPUL.0>
0

>  <SCORE.INTRA.SOLV>
-0.482159

>  <SCORE.INTRA.SOLV.lig_0>
-32.2894

>  <SCORE.INTRA.VDW>
-2.92817

>  <SCORE.INTRA.VDW.0>
2.0241

>  <SCORE.INTRA.norm>
-0.233062

>  <SCORE.RESTR>
0

>  <SCORE.RESTR.CAVITY>
0

>  <SCORE.RESTR.norm>
0

>  <SCORE.SYSTEM>
0

>  <SCORE.SYSTEM.CONST>
0

>  <SCORE.SYSTEM.DIHEDRAL>
0

>  <SCORE.SYSTEM.SOLV>
0

>  <SCORE.SYSTEM.norm>
0

>  <SCORE.heavy>
12

>  <SCORE.norm>
-0.962082

>  <RMSD>
19.287

$$$$
ligand
 OpenBabel11021811513D
libRbt.so/2013.1/901 2013/11/27
 12 12  0  0  0  0  0  0  0  0999 V2000
   20.0019    6.0711  -21.9021 O   0  0  0  0  0  0  0  0  0  0  0  0
   19.5886   10.5144  -23.7260 O   0  0  0  0  0  0  0  0  0  0  0  0
   18.7898    6.6651  -22.1799 C   0  0  0  0  0  0  0  0  0  0  0  0
   18.0710   11.6635  -25.2501 O   0  0  0  0  0  0  0  0  0  0  0  0
   18.6128    7.0089  -23.6017 C   0  0  0  0  0  0  0  0  0  0  0  0
   20.3239   11.1131  -25.9766 O   0  5  0  0  0  0  0  0  0  0  0  0
   19.7598    7.7606  -24.1282 N   0  3  0  0  0  0  0  0  0  0  0  0
   20.9866    7.0650  -23.8353 C   0  0  0  0  0  0  0  0  0  0  0  0
   21.0933    6.7394  -22.3816 C   0  0  0  0  0  0  0  0  0  0  0  0
   19.6027    7.9632  -25.5370 C   0  0  0  0  0  0  0  0  0  0  0  0
   18.5600    9.0823  -25.7863 C   0  0  0  0  0  0  0  0  0  0  0  0
   19.1747   10.6568  -25.1546 S   0  0  1  0  0  0  0  0  0  0  0  0
  1  3  1  0  0  0  0
  1  9  1  0  0  0  0
  2 12  1  0  0  0  0
  3  5  1  0  0  0  0
  4 12  2  0  0  0  0
  5  7  1  0  0  0  0
  6 12  2  0  0  0  0
  7  8  1  0  0  0  0
  7 10  1  0  0  0  0
  8  9  1  0  0  0  0
 10 11  1  0  0  0  0
 12 11  1  6  0  0  0
M  CHG  2   6  -1   7   1
M  END
>  <CHROM.1>
76.19256695,65.02705426,-53.15420454,19.51043644,8.77671328,-24.22125947
1.39679020,-0.34783248,2.52250712

>  <Name>
ligand

>  <RI>
0

>  <Rbt.Current_Directory>
/home/itssahil/PROJECTS/Mol_Feturizer/New_Systems/rnas/4P95

>  <Rbt.Executable>
rbdock ($Id: //depot/dev/client3/rdock/2013.1/src/exe/rbdock.cxx#4 $)

>  <Rbt.Library>
libRbt.so (2013.1, Build901 2013/11/27)

>  <Rbt.Parameter_File>
/export/apps/rDock/src/rDock_2013.1_src/data/scripts/dock_solv.prm

>  <Rbt.Receptor>
prm/blind_docking_60.prm

>  <SCORE>
-4.86017

>  <SCORE.INTER>
-2.7709

>  <SCORE.INTER.CONST>
1

>  <SCORE.INTER.POLAR>
0

>  <SCORE.INTER.ROT>
3

>  <SCORE.INTER.SOLV>
3.8104

>  <SCORE.INTER.VDW>
-8.7174

>  <SCORE.INTER.norm>
-0.230908

>  <SCORE.INTRA>
-2.08927

>  <SCORE.INTRA.DIHEDRAL>
0.412293

>  <SCORE.INTRA.DIHEDRAL.0>
0.283163

>  <SCORE.INTRA.POLAR>
0

>  <SCORE.INTRA.POLAR.0>
0

>  <SCORE.INTRA.REPUL>
0

>  <SCORE.INTRA.REPUL.0>
0

>  <SCORE.INTRA.SOLV>
0.613384

>  <SCORE.INTRA.SOLV.lig_0>
-32.2894

>  <SCORE.INTRA.VDW>
-2.6021

>  <SCORE.INTRA.VDW.0>
2.0241

>  <SCORE.INTRA.norm>
-0.174106

>  <SCORE.RESTR>
0

>  <SCORE.RESTR.CAVITY>
0

>  <SCORE.RESTR.norm>
0

>  <SCORE.SYSTEM>
0

>  <SCORE.SYSTEM.CONST>
0

>  <SCORE.SYSTEM.DIHEDRAL>
0

>  <SCORE.SYSTEM.SOLV>
0

>  <SCORE.SYSTEM.norm>
0

>  <SCORE.heavy>
12

>  <SCORE.norm>
-0.405014

>  <RMSD>
19.318

$$$$
ligand
 OpenBabel11021811513D
libRbt.so/2013.1/901 2013/11/27
 12 12  0  0  0  0  0  0  0  0999 V2000
    2.8428   12.5031  -20.9189 O   0  0  0  0  0  0  0  0  0  0  0  0
    7.1329   17.6419  -18.7821 O   0  0  0  0  0  0  0  0  0  0  0  0
    3.8083   12.5483  -21.9013 C   0  0  0  0  0  0  0  0  0  0  0  0
    6.4358   19.4129  -20.3066 O   0  0  0  0  0  0  0  0  0  0  0  0
    4.9588   13.4030  -21.5597 C   0  0  0  0  0  0  0  0  0  0  0  0
    7.9328   17.6658  -21.0895 O   0  5  0  0  0  0  0  0  0  0  0  0
    4.5341   14.7334  -21.1042 N   0  3  0  0  0  0  0  0  0  0  0  0
    3.5554   14.6102  -20.0546 C   0  0  0  0  0  0  0  0  0  0  0  0
    2.4262   13.7231  -20.4654 C   0  0  0  0  0  0  0  0  0  0  0  0
    5.6725   15.4833  -20.6657 C   0  0  0  0  0  0  0  0  0  0  0  0
    5.3468   16.9975  -20.7182 C   0  0  0  0  0  0  0  0  0  0  0  0
    6.7818   17.9605  -20.1990 S   0  0  1  0  0  0  0  0  0  0  0  0
  1  3  1  0  0  0  0
  1  9  1  0  0  0  0
  2 12  1  0  0  0  0
  3  5  1  0  0  0  0
  4 12  2  0  0  0  0
  5  7  1  0  0  0  0
  6 12  2  0  0  0  0
  7  8  1  0  0  0  0
  7 10  1  0  0  0  0
  8  9  1  0  0  0  0
 10 11  1  0  0  0  0
 12 11  1  6  0  0  0
M  CHG  2   6  -1   7   1
M  END
>  <CHROM.1>
157.95602142,-178.90791093,-62.32693086,5.31276224,15.83091272,-20.59029967
2.25117081,-0.43082372,-2.63620391

>  <Name>
ligand

>  <RI>
0

>  <Rbt.Current_Directory>
/home/itssahil/PROJECTS/Mol_Feturizer/New_Systems/rnas/4P95

>  <Rbt.Executable>
rbdock ($Id: //depot/dev/client3/rdock/2013.1/src/exe/rbdock.cxx#4 $)

>  <Rbt.Library>
libRbt.so (2013.1, Build901 2013/11/27)

>  <Rbt.Parameter_File>
/export/apps/rDock/src/rDock_2013.1_src/data/scripts/dock_solv.prm

>  <Rbt.Receptor>
prm/blind_docking_60.prm

>  <SCORE>
-12.1137

>  <SCORE.INTER>
-10.2194

>  <SCORE.INTER.CONST>
1

>  <SCORE.INTER.POLAR>
0

>  <SCORE.INTER.ROT>
3

>  <SCORE.INTER.SOLV>
7.35123

>  <SCORE.INTER.VDW>
-14.8633

>  <SCORE.INTER.norm>
-0.851613

>  <SCORE.INTRA>
-1.89437

>  <SCORE.INTRA.DIHEDRAL>
0.380934

>  <SCORE.INTRA.DIHEDRAL.0>
0.283163

>  <SCORE.INTRA.POLAR>
0

>  <SCORE.INTRA.POLAR.0>
0

>  <SCORE.INTRA.REPUL>
0

>  <SCORE.INTRA.REPUL.0>
0

>  <SCORE.INTRA.SOLV>
-0.0299479

>  <SCORE.INTRA.SOLV.lig_0>
-32.2894

>  <SCORE.INTRA.VDW>
-2.06986

>  <SCORE.INTRA.VDW.0>
2.0241

>  <SCORE.INTRA.norm>
-0.157864

>  <SCORE.RESTR>
0

>  <SCORE.RESTR.CAVITY>
0

>  <SCORE.RESTR.norm>
0

>  <SCORE.SYSTEM>
0

>  <SCORE.SYSTEM.CONST>
0

>  <SCORE.SYSTEM.DIHEDRAL>
0

>  <SCORE.SYSTEM.SOLV>
0

>  <SCORE.SYSTEM.norm>
0

>  <SCORE.heavy>
12

>  <SCORE.norm>
-1.00948

>  <RMSD>
19.351

$$$$
ligand
 OpenBabel11021811513D
libRbt.so/2013.1/901 2013/11/27
 12 12  0  0  0  0  0  0  0  0999 V2000
    2.6875   13.0407  -21.2100 O   0  0  0  0  0  0  0  0  0  0  0  0
    6.1644   19.3246  -20.7883 O   0  0  0  0  0  0  0  0  0  0  0  0
    2.7219   13.8955  -20.1296 C   0  0  0  0  0  0  0  0  0  0  0  0
    7.5960   18.0471  -22.2933 O   0  0  0  0  0  0  0  0  0  0  0  0
    3.3934   15.1764  -20.4111 C   0  0  0  0  0  0  0  0  0  0  0  0
    8.3134   18.4649  -20.0092 O   0  5  0  0  0  0  0  0  0  0  0  0
    4.7090   14.9776  -21.0337 N   0  3  0  0  0  0  0  0  0  0  0  0
    4.5921   14.1067  -22.1750 C   0  0  0  0  0  0  0  0  0  0  0  0
    3.8934   12.8354  -21.8195 C   0  0  0  0  0  0  0  0  0  0  0  0
    5.2682   16.2431  -21.4028 C   0  0  0  0  0  0  0  0  0  0  0  0
    6.3509   16.6514  -20.3720 C   0  0  0  0  0  0  0  0  0  0  0  0
    7.1383   18.1949  -20.8757 S   0  0  1  0  0  0  0  0  0  0  0  0
  1  3  1  0  0  0  0
  1  9  1  0  0  0  0
  2 12  1  0  0  0  0
  3  5  1  0  0  0  0
  4 12  2  0  0  0  0
  5  7  1  0  0  0  0
  6 12  2  0  0  0  0
  7  8  1  0  0  0  0
  7 10  1  0  0  0  0
  8  9  1  0  0  0  0
 10 11  1  0  0  0  0
 12 11  1  1  0  0  0
M  CHG  2   6  -1   7   1
M  END
>  <CHROM.1>
102.68694870,176.52979667,67.53762584,5.45119756,16.17820046,-21.02908501
2.44232729,-0.58836919,-2.50335799

>  <Name>
ligand

>  <RI>
0

>  <Rbt.Current_Directory>
/home/itssahil/PROJECTS/Mol_Feturizer/New_Systems/rnas/4P95

>  <Rbt.Executable>
rbdock ($Id: //depot/dev/client3/rdock/2013.1/src/exe/rbdock.cxx#4 $)

>  <Rbt.Library>
libRbt.so (2013.1, Build901 2013/11/27)

>  <Rbt.Parameter_File>
/export/apps/rDock/src/rDock_2013.1_src/data/scripts/dock_solv.prm

>  <Rbt.Receptor>
prm/blind_docking_60.prm

>  <SCORE>
-11.3961

>  <SCORE.INTER>
-9.40303

>  <SCORE.INTER.CONST>
1

>  <SCORE.INTER.POLAR>
0

>  <SCORE.INTER.ROT>
3

>  <SCORE.INTER.SOLV>
6.71315

>  <SCORE.INTER.VDW>
-14.1064

>  <SCORE.INTER.norm>
-0.783586

>  <SCORE.INTRA>
-1.99311

>  <SCORE.INTRA.DIHEDRAL>
1.9199

>  <SCORE.INTRA.DIHEDRAL.0>
0.283163

>  <SCORE.INTRA.POLAR>
0

>  <SCORE.INTRA.POLAR.0>
0

>  <SCORE.INTRA.REPUL>
0

>  <SCORE.INTRA.REPUL.0>
0

>  <SCORE.INTRA.SOLV>
-0.691703

>  <SCORE.INTRA.SOLV.lig_0>
-32.2894

>  <SCORE.INTRA.VDW>
-2.60721

>  <SCORE.INTRA.VDW.0>
2.0241

>  <SCORE.INTRA.norm>
-0.166093

>  <SCORE.RESTR>
0

>  <SCORE.RESTR.CAVITY>
0

>  <SCORE.RESTR.norm>
0

>  <SCORE.SYSTEM>
0

>  <SCORE.SYSTEM.CONST>
0

>  <SCORE.SYSTEM.DIHEDRAL>
0

>  <SCORE.SYSTEM.SOLV>
0

>  <SCORE.SYSTEM.norm>
0

>  <SCORE.heavy>
12

>  <SCORE.norm>
-0.949679

>  <RMSD>
19.379

$$$$
ligand
 OpenBabel11021811513D
libRbt.so/2013.1/901 2013/11/27
 12 12  0  0  0  0  0  0  0  0999 V2000
   14.4670   -3.7509  -12.3612 O   0  0  0  0  0  0  0  0  0  0  0  0
   10.3170   -2.0193  -16.3774 O   0  0  0  0  0  0  0  0  0  0  0  0
   13.7393   -2.6219  -12.6699 C   0  0  0  0  0  0  0  0  0  0  0  0
   11.2290   -0.1774  -17.6898 O   0  0  0  0  0  0  0  0  0  0  0  0
   12.9697   -2.7391  -13.9208 C   0  0  0  0  0  0  0  0  0  0  0  0
   11.8027   -0.3836  -15.3372 O   0  5  0  0  0  0  0  0  0  0  0  0
   13.8050   -3.2112  -15.0332 N   0  3  0  0  0  0  0  0  0  0  0  0
   14.5054   -4.4113  -14.6541 C   0  0  0  0  0  0  0  0  0  0  0  0
   15.2527   -4.2236  -13.3745 C   0  0  0  0  0  0  0  0  0  0  0  0
   12.9929   -3.4295  -16.1921 C   0  0  0  0  0  0  0  0  0  0  0  0
   12.9438   -2.1343  -17.0416 C   0  0  0  0  0  0  0  0  0  0  0  0
   11.5093   -1.1417  -16.5797 S   0  0  1  0  0  0  0  0  0  0  0  0
  1  3  1  0  0  0  0
  1  9  1  0  0  0  0
  2 12  1  0  0  0  0
  3  5  1  0  0  0  0
  4 12  2  0  0  0  0
  5  7  1  0  0  0  0
  6 12  2  0  0  0  0
  7  8  1  0  0  0  0
  7 10  1  0  0  0  0
  8  9  1  0  0  0  0
 10 11  1  0  0  0  0
 12 11  1  6  0  0  0
M  CHG  2   6  -1   7   1
M  END
>  <CHROM.1>
90.97184210,-92.89113287,-41.57048443,12.78534851,-2.35415005,-15.25352614
0.50349707,-0.85479155,1.30101751

>  <Name>
ligand

>  <RI>
0

>  <Rbt.Current_Directory>
/home/itssahil/PROJECTS/Mol_Feturizer/New_Systems/rnas/4P95

>  <Rbt.Executable>
rbdock ($Id: //depot/dev/client3/rdock/2013.1/src/exe/rbdock.cxx#4 $)

>  <Rbt.Library>
libRbt.so (2013.1, Build901 2013/11/27)

>  <Rbt.Parameter_File>
/export/apps/rDock/src/rDock_2013.1_src/data/scripts/dock_solv.prm

>  <Rbt.Receptor>
prm/blind_docking_100.prm

>  <SCORE>
-9.80508

>  <SCORE.INTER>
-10.9226

>  <SCORE.INTER.CONST>
1

>  <SCORE.INTER.POLAR>
0

>  <SCORE.INTER.ROT>
3

>  <SCORE.INTER.SOLV>
8.31992

>  <SCORE.INTER.VDW>
-15.655

>  <SCORE.INTER.norm>
-0.910215

>  <SCORE.INTRA>
1.1175

>  <SCORE.INTRA.DIHEDRAL>
5.05326

>  <SCORE.INTRA.DIHEDRAL.0>
0.283163

>  <SCORE.INTRA.POLAR>
0

>  <SCORE.INTRA.POLAR.0>
0

>  <SCORE.INTRA.REPUL>
0

>  <SCORE.INTRA.REPUL.0>
0

>  <SCORE.INTRA.SOLV>
2.90806

>  <SCORE.INTRA.SOLV.lig_0>
-32.2894

>  <SCORE.INTRA.VDW>
-2.86316

>  <SCORE.INTRA.VDW.0>
2.0241

>  <SCORE.INTRA.norm>
0.093125

>  <SCORE.RESTR>
0

>  <SCORE.RESTR.CAVITY>
0

>  <SCORE.RESTR.norm>
0

>  <SCORE.SYSTEM>
0

>  <SCORE.SYSTEM.CONST>
0

>  <SCORE.SYSTEM.DIHEDRAL>
0

>  <SCORE.SYSTEM.SOLV>
0

>  <SCORE.SYSTEM.norm>
0

>  <SCORE.heavy>
12

>  <SCORE.norm>
-0.81709

>  <RMSD>
19.382

$$$$
ligand
 OpenBabel11021811513D
libRbt.so/2013.1/901 2013/11/27
 12 12  0  0  0  0  0  0  0  0999 V2000
    2.6712   13.0441  -21.2174 O   0  0  0  0  0  0  0  0  0  0  0  0
    6.1407   19.3336  -20.8194 O   0  0  0  0  0  0  0  0  0  0  0  0
    2.7200   13.8904  -20.1308 C   0  0  0  0  0  0  0  0  0  0  0  0
    7.6177   18.0233  -22.2505 O   0  0  0  0  0  0  0  0  0  0  0  0
    3.3944   15.1705  -20.4091 C   0  0  0  0  0  0  0  0  0  0  0  0
    8.2594   18.4830  -19.9520 O   0  5  0  0  0  0  0  0  0  0  0  0
    4.7030   14.9707  -21.0461 N   0  3  0  0  0  0  0  0  0  0  0  0
    4.5710   14.1091  -22.1928 C   0  0  0  0  0  0  0  0  0  0  0  0
    3.8701   12.8382  -21.8403 C   0  0  0  0  0  0  0  0  0  0  0  0
    5.2642   16.2365  -21.4110 C   0  0  0  0  0  0  0  0  0  0  0  0
    6.3038   16.6685  -20.3459 C   0  0  0  0  0  0  0  0  0  0  0  0
    7.1132   18.1997  -20.8523 S   0  0  1  0  0  0  0  0  0  0  0  0
  1  3  1  0  0  0  0
  1  9  1  0  0  0  0
  2 12  1  0  0  0  0
  3  5  1  0  0  0  0
  4 12  2  0  0  0  0
  5  7  1  0  0  0  0
  6 12  2  0  0  0  0
  7  8  1  0  0  0  0
  7 10  1  0  0  0  0
  8  9  1  0  0  0  0
 10 11  1  0  0  0  0
 12 11  1  1  0  0  0
M  CHG  2   6  -1   7   1
M  END
>  <CHROM.1>
99.62526071,175.69254696,68.05743198,5.43369989,16.17940215,-21.02248116
2.44519471,-0.59686743,-2.48711491

>  <Name>
ligand

>  <RI>
0

>  <Rbt.Current_Directory>
/home/itssahil/PROJECTS/Mol_Feturizer/New_Systems/rnas/4P95

>  <Rbt.Executable>
rbdock ($Id: //depot/dev/client3/rdock/2013.1/src/exe/rbdock.cxx#4 $)

>  <Rbt.Library>
libRbt.so (2013.1, Build901 2013/11/27)

>  <Rbt.Parameter_File>
/export/apps/rDock/src/rDock_2013.1_src/data/scripts/dock_solv.prm

>  <Rbt.Receptor>
prm/blind_docking_80.prm

>  <SCORE>
-11.3805

>  <SCORE.INTER>
-9.3731

>  <SCORE.INTER.CONST>
1

>  <SCORE.INTER.POLAR>
0

>  <SCORE.INTER.ROT>
3

>  <SCORE.INTER.SOLV>
6.89841

>  <SCORE.INTER.VDW>
-14.1482

>  <SCORE.INTER.norm>
-0.781092

>  <SCORE.INTRA>
-2.00741

>  <SCORE.INTRA.DIHEDRAL>
1.81184

>  <SCORE.INTRA.DIHEDRAL.0>
0.283163

>  <SCORE.INTRA.POLAR>
0

>  <SCORE.INTRA.POLAR.0>
0

>  <SCORE.INTRA.REPUL>
0

>  <SCORE.INTRA.REPUL.0>
0

>  <SCORE.INTRA.SOLV>
-0.689239

>  <SCORE.INTRA.SOLV.lig_0>
-32.2894

>  <SCORE.INTRA.VDW>
-2.56871

>  <SCORE.INTRA.VDW.0>
2.0241

>  <SCORE.INTRA.norm>
-0.167284

>  <SCORE.RESTR>
0

>  <SCORE.RESTR.CAVITY>
0

>  <SCORE.RESTR.norm>
0

>  <SCORE.SYSTEM>
0

>  <SCORE.SYSTEM.CONST>
0

>  <SCORE.SYSTEM.DIHEDRAL>
0

>  <SCORE.SYSTEM.SOLV>
0

>  <SCORE.SYSTEM.norm>
0

>  <SCORE.heavy>
12

>  <SCORE.norm>
-0.948376

>  <RMSD>
19.383

$$$$
ligand
 OpenBabel11021811513D
libRbt.so/2013.1/901 2013/11/27
 12 12  0  0  0  0  0  0  0  0999 V2000
    3.1779   12.7584  -21.4317 O   0  0  0  0  0  0  0  0  0  0  0  0
    6.3142   19.2815  -20.2919 O   0  0  0  0  0  0  0  0  0  0  0  0
    2.7516   13.4894  -20.3440 C   0  0  0  0  0  0  0  0  0  0  0  0
    7.0118   18.1698  -22.3471 O   0  0  0  0  0  0  0  0  0  0  0  0
    3.1990   14.8930  -20.3638 C   0  0  0  0  0  0  0  0  0  0  0  0
    8.5411   18.2932  -20.4623 O   0  5  0  0  0  0  0  0  0  0  0  0
    4.6442   15.0018  -20.6035 N   0  3  0  0  0  0  0  0  0  0  0  0
    5.0121   14.2463  -21.7734 C   0  0  0  0  0  0  0  0  0  0  0  0
    4.5175   12.8394  -21.6898 C   0  0  0  0  0  0  0  0  0  0  0  0
    5.0121   16.3789  -20.7393 C   0  0  0  0  0  0  0  0  0  0  0  0
    6.4729   16.5745  -20.2604 C   0  0  0  0  0  0  0  0  0  0  0  0
    7.1158   18.1528  -20.8539 S   0  0  1  0  0  0  0  0  0  0  0  0
  1  3  1  0  0  0  0
  1  9  1  0  0  0  0
  2 12  1  0  0  0  0
  3  5  1  0  0  0  0
  4 12  2  0  0  0  0
  5  7  1  0  0  0  0
  6 12  2  0  0  0  0
  7  8  1  0  0  0  0
  7 10  1  0  0  0  0
  8  9  1  0  0  0  0
 10 11  1  0  0  0  0
 12 11  1  1  0  0  0
M  CHG  2   6  -1   7   1
M  END
>  <CHROM.1>
150.66351159,163.58616457,62.01799463,5.51999993,16.10698250,-20.93128596
-2.31387138,0.47582502,0.44139528

>  <Name>
ligand

>  <RI>
0

>  <Rbt.Current_Directory>
/home/itssahil/PROJECTS/Mol_Feturizer/New_Systems/rnas/4P95

>  <Rbt.Executable>
rbdock ($Id: //depot/dev/client3/rdock/2013.1/src/exe/rbdock.cxx#4 $)

>  <Rbt.Library>
libRbt.so (2013.1, Build901 2013/11/27)

>  <Rbt.Parameter_File>
/export/apps/rDock/src/rDock_2013.1_src/data/scripts/dock_solv.prm

>  <Rbt.Receptor>
prm/blind_docking_100.prm

>  <SCORE>
-12.2045

>  <SCORE.INTER>
-10.4061

>  <SCORE.INTER.CONST>
1

>  <SCORE.INTER.POLAR>
0

>  <SCORE.INTER.ROT>
3

>  <SCORE.INTER.SOLV>
6.16196

>  <SCORE.INTER.VDW>
-14.5914

>  <SCORE.INTER.norm>
-0.867178

>  <SCORE.INTRA>
-1.79839

>  <SCORE.INTRA.DIHEDRAL>
1.78231

>  <SCORE.INTRA.DIHEDRAL.0>
0.283163

>  <SCORE.INTRA.POLAR>
0

>  <SCORE.INTRA.POLAR.0>
0

>  <SCORE.INTRA.REPUL>
0

>  <SCORE.INTRA.REPUL.0>
0

>  <SCORE.INTRA.SOLV>
-0.678659

>  <SCORE.INTRA.SOLV.lig_0>
-32.2894

>  <SCORE.INTRA.VDW>
-2.35021

>  <SCORE.INTRA.VDW.0>
2.0241

>  <SCORE.INTRA.norm>
-0.149866

>  <SCORE.RESTR>
0

>  <SCORE.RESTR.CAVITY>
0

>  <SCORE.RESTR.norm>
0

>  <SCORE.SYSTEM>
0

>  <SCORE.SYSTEM.CONST>
0

>  <SCORE.SYSTEM.DIHEDRAL>
0

>  <SCORE.SYSTEM.SOLV>
0

>  <SCORE.SYSTEM.norm>
0

>  <SCORE.heavy>
12

>  <SCORE.norm>
-1.01704

>  <RMSD>
19.384

$$$$
ligand
 OpenBabel11021811513D
libRbt.so/2013.1/901 2013/11/27
 12 12  0  0  0  0  0  0  0  0999 V2000
    3.1708   12.7449  -21.4024 O   0  0  0  0  0  0  0  0  0  0  0  0
    6.2758   19.2884  -20.3118 O   0  0  0  0  0  0  0  0  0  0  0  0
    2.7360   13.4872  -20.3258 C   0  0  0  0  0  0  0  0  0  0  0  0
    6.9962   18.1643  -22.3523 O   0  0  0  0  0  0  0  0  0  0  0  0
    3.1799   14.8917  -20.3590 C   0  0  0  0  0  0  0  0  0  0  0  0
    8.5095   18.3114  -20.4564 O   0  5  0  0  0  0  0  0  0  0  0  0
    4.6263   15.0016  -20.5913 N   0  3  0  0  0  0  0  0  0  0  0  0
    5.0031   14.2337  -21.7502 C   0  0  0  0  0  0  0  0  0  0  0  0
    4.5117   12.8266  -21.6534 C   0  0  0  0  0  0  0  0  0  0  0  0
    4.9913   16.3781  -20.7408 C   0  0  0  0  0  0  0  0  0  0  0  0
    6.4494   16.5827  -20.2573 C   0  0  0  0  0  0  0  0  0  0  0  0
    7.0882   18.1598  -20.8583 S   0  0  1  0  0  0  0  0  0  0  0  0
  1  3  1  0  0  0  0
  1  9  1  0  0  0  0
  2 12  1  0  0  0  0
  3  5  1  0  0  0  0
  4 12  2  0  0  0  0
  5  7  1  0  0  0  0
  6 12  2  0  0  0  0
  7  8  1  0  0  0  0
  7 10  1  0  0  0  0
  8  9  1  0  0  0  0
 10 11  1  0  0  0  0
 12 11  1  1  0  0  0
M  CHG  2   6  -1   7   1
M  END
>  <CHROM.1>
150.74720436,163.87734163,61.74991230,5.49974910,16.10706840,-20.92423720
-2.30714881,0.47119713,0.42741511

>  <Name>
ligand

>  <RI>
0

>  <Rbt.Current_Directory>
/home/itssahil/PROJECTS/Mol_Feturizer/New_Systems/rnas/4P95

>  <Rbt.Executable>
rbdock ($Id: //depot/dev/client3/rdock/2013.1/src/exe/rbdock.cxx#4 $)

>  <Rbt.Library>
libRbt.so (2013.1, Build901 2013/11/27)

>  <Rbt.Parameter_File>
/export/apps/rDock/src/rDock_2013.1_src/data/scripts/dock_solv.prm

>  <Rbt.Receptor>
prm/blind_docking_100.prm

>  <SCORE>
-12.1838

>  <SCORE.INTER>
-10.367

>  <SCORE.INTER.CONST>
1

>  <SCORE.INTER.POLAR>
0

>  <SCORE.INTER.ROT>
3

>  <SCORE.INTER.SOLV>
6.21811

>  <SCORE.INTER.VDW>
-14.584

>  <SCORE.INTER.norm>
-0.863914

>  <SCORE.INTRA>
-1.81678

>  <SCORE.INTRA.DIHEDRAL>
1.74203

>  <SCORE.INTRA.DIHEDRAL.0>
0.283163

>  <SCORE.INTRA.POLAR>
0

>  <SCORE.INTRA.POLAR.0>
0

>  <SCORE.INTRA.REPUL>
0

>  <SCORE.INTRA.REPUL.0>
0

>  <SCORE.INTRA.SOLV>
-0.680464

>  <SCORE.INTRA.SOLV.lig_0>
-32.2894

>  <SCORE.INTRA.VDW>
-2.34756

>  <SCORE.INTRA.VDW.0>
2.0241

>  <SCORE.INTRA.norm>
-0.151398

>  <SCORE.RESTR>
0

>  <SCORE.RESTR.CAVITY>
0

>  <SCORE.RESTR.norm>
0

>  <SCORE.SYSTEM>
0

>  <SCORE.SYSTEM.CONST>
0

>  <SCORE.SYSTEM.DIHEDRAL>
0

>  <SCORE.SYSTEM.SOLV>
0

>  <SCORE.SYSTEM.norm>
0

>  <SCORE.heavy>
12

>  <SCORE.norm>
-1.01531

>  <RMSD>
19.387

$$$$
ligand
 OpenBabel11021811513D
libRbt.so/2013.1/901 2013/11/27
 12 12  0  0  0  0  0  0  0  0999 V2000
    2.8142   12.7403  -21.3169 O   0  0  0  0  0  0  0  0  0  0  0  0
    7.6167   18.6853  -19.2742 O   0  0  0  0  0  0  0  0  0  0  0  0
    2.7641   13.4455  -20.1339 C   0  0  0  0  0  0  0  0  0  0  0  0
    5.9320   19.1485  -20.9753 O   0  0  0  0  0  0  0  0  0  0  0  0
    3.2705   14.8245  -20.2466 C   0  0  0  0  0  0  0  0  0  0  0  0
    7.8399   17.7437  -21.5166 O   0  5  0  0  0  0  0  0  0  0  0  0
    4.5891   14.8706  -20.8923 N   0  3  0  0  0  0  0  0  0  0  0  0
    4.5582   14.1474  -22.1376 C   0  0  0  0  0  0  0  0  0  0  0  0
    4.0250   12.7649  -21.9503 C   0  0  0  0  0  0  0  0  0  0  0  0
    4.9844   16.2321  -21.0936 C   0  0  0  0  0  0  0  0  0  0  0  0
    5.9276   16.6728  -19.9456 C   0  0  0  0  0  0  0  0  0  0  0  0
    6.8822   18.1200  -20.4461 S   0  0  1  0  0  0  0  0  0  0  0  0
  1  3  1  0  0  0  0
  1  9  1  0  0  0  0
  2 12  1  0  0  0  0
  3  5  1  0  0  0  0
  4 12  2  0  0  0  0
  5  7  1  0  0  0  0
  6 12  2  0  0  0  0
  7  8  1  0  0  0  0
  7 10  1  0  0  0  0
  8  9  1  0  0  0  0
 10 11  1  0  0  0  0
 12 11  1  1  0  0  0
M  CHG  2   6  -1   7   1
M  END
>  <CHROM.1>
97.53374808,160.18557017,170.44574613,5.30441645,16.05271324,-20.78973154
-2.40210852,0.64861106,0.73236956

>  <Name>
ligand

>  <RI>
0

>  <Rbt.Current_Directory>
/home/itssahil/PROJECTS/Mol_Feturizer/New_Systems/rnas/4P95

>  <Rbt.Executable>
rbdock ($Id: //depot/dev/client3/rdock/2013.1/src/exe/rbdock.cxx#4 $)

>  <Rbt.Library>
libRbt.so (2013.1, Build901 2013/11/27)

>  <Rbt.Parameter_File>
/export/apps/rDock/src/rDock_2013.1_src/data/scripts/dock_solv.prm

>  <Rbt.Receptor>
prm/blind_docking_40.prm

>  <SCORE>
-11.7266

>  <SCORE.INTER>
-10.7811

>  <SCORE.INTER.CONST>
1

>  <SCORE.INTER.POLAR>
0

>  <SCORE.INTER.ROT>
3

>  <SCORE.INTER.SOLV>
6.5575

>  <SCORE.INTER.VDW>
-14.9733

>  <SCORE.INTER.norm>
-0.898428

>  <SCORE.INTRA>
-0.945433

>  <SCORE.INTRA.DIHEDRAL>
2.9893

>  <SCORE.INTRA.DIHEDRAL.0>
0.283163

>  <SCORE.INTRA.POLAR>
0

>  <SCORE.INTRA.POLAR.0>
0

>  <SCORE.INTRA.REPUL>
0

>  <SCORE.INTRA.REPUL.0>
0

>  <SCORE.INTRA.SOLV>
0.196132

>  <SCORE.INTRA.SOLV.lig_0>
-32.2894

>  <SCORE.INTRA.VDW>
-2.53815

>  <SCORE.INTRA.VDW.0>
2.0241

>  <SCORE.INTRA.norm>
-0.0787861

>  <SCORE.RESTR>
0

>  <SCORE.RESTR.CAVITY>
0

>  <SCORE.RESTR.norm>
0

>  <SCORE.SYSTEM>
0

>  <SCORE.SYSTEM.CONST>
0

>  <SCORE.SYSTEM.DIHEDRAL>
0

>  <SCORE.SYSTEM.SOLV>
0

>  <SCORE.SYSTEM.norm>
0

>  <SCORE.heavy>
12

>  <SCORE.norm>
-0.977214

>  <RMSD>
19.415

$$$$
ligand
 OpenBabel11021811513D
libRbt.so/2013.1/901 2013/11/27
 12 12  0  0  0  0  0  0  0  0999 V2000
    3.1960   12.7644  -21.3363 O   0  0  0  0  0  0  0  0  0  0  0  0
    6.2998   19.3407  -20.3253 O   0  0  0  0  0  0  0  0  0  0  0  0
    2.7089   13.5503  -20.3144 C   0  0  0  0  0  0  0  0  0  0  0  0
    6.9863   18.1776  -22.3557 O   0  0  0  0  0  0  0  0  0  0  0  0
    3.1569   14.9523  -20.3826 C   0  0  0  0  0  0  0  0  0  0  0  0
    8.5195   18.3332  -20.4764 O   0  5  0  0  0  0  0  0  0  0  0  0
    4.6134   15.0524  -20.5456 N   0  3  0  0  0  0  0  0  0  0  0  0
    5.0467   14.2376  -21.6515 C   0  0  0  0  0  0  0  0  0  0  0  0
    4.5481   12.8357  -21.5222 C   0  0  0  0  0  0  0  0  0  0  0  0
    4.9885   16.4216  -20.7327 C   0  0  0  0  0  0  0  0  0  0  0  0
    6.4398   16.6340  -20.2324 C   0  0  0  0  0  0  0  0  0  0  0  0
    7.0926   18.1938  -20.8626 S   0  0  1  0  0  0  0  0  0  0  0  0
  1  3  1  0  0  0  0
  1  9  1  0  0  0  0
  2 12  1  0  0  0  0
  3  5  1  0  0  0  0
  4 12  2  0  0  0  0
  5  7  1  0  0  0  0
  6 12  2  0  0  0  0
  7  8  1  0  0  0  0
  7 10  1  0  0  0  0
  8  9  1  0  0  0  0
 10 11  1  0  0  0  0
 12 11  1  1  0  0  0
M  CHG  2   6  -1   7   1
M  END
>  <CHROM.1>
152.81246282,164.29599337,63.37270733,5.50485938,16.14187563,-20.90114466
-2.28913688,0.42973491,0.37300183

>  <Name>
ligand

>  <RI>
0

>  <Rbt.Current_Directory>
/home/itssahil/PROJECTS/Mol_Feturizer/New_Systems/rnas/4P95

>  <Rbt.Executable>
rbdock ($Id: //depot/dev/client3/rdock/2013.1/src/exe/rbdock.cxx#4 $)

>  <Rbt.Library>
libRbt.so (2013.1, Build901 2013/11/27)

>  <Rbt.Parameter_File>
/export/apps/rDock/src/rDock_2013.1_src/data/scripts/dock_solv.prm

>  <Rbt.Receptor>
prm/blind_docking_40.prm

>  <SCORE>
-12.2185

>  <SCORE.INTER>
-10.4169

>  <SCORE.INTER.CONST>
1

>  <SCORE.INTER.POLAR>
0

>  <SCORE.INTER.ROT>
3

>  <SCORE.INTER.SOLV>
6.31442

>  <SCORE.INTER.VDW>
-14.6494

>  <SCORE.INTER.norm>
-0.868073

>  <SCORE.INTRA>
-1.80166

>  <SCORE.INTRA.DIHEDRAL>
1.59513

>  <SCORE.INTRA.DIHEDRAL.0>
0.283163

>  <SCORE.INTRA.POLAR>
0

>  <SCORE.INTRA.POLAR.0>
0

>  <SCORE.INTRA.REPUL>
0

>  <SCORE.INTRA.REPUL.0>
0

>  <SCORE.INTRA.SOLV>
-0.675509

>  <SCORE.INTRA.SOLV.lig_0>
-32.2894

>  <SCORE.INTRA.VDW>
-2.26147

>  <SCORE.INTRA.VDW.0>
2.0241

>  <SCORE.INTRA.norm>
-0.150138

>  <SCORE.RESTR>
0

>  <SCORE.RESTR.CAVITY>
0

>  <SCORE.RESTR.norm>
0

>  <SCORE.SYSTEM>
0

>  <SCORE.SYSTEM.CONST>
0

>  <SCORE.SYSTEM.DIHEDRAL>
0

>  <SCORE.SYSTEM.SOLV>
0

>  <SCORE.SYSTEM.norm>
0

>  <SCORE.heavy>
12

>  <SCORE.norm>
-1.01821

>  <RMSD>
19.428

$$$$
ligand
 OpenBabel11021811513D
libRbt.so/2013.1/901 2013/11/27
 12 12  0  0  0  0  0  0  0  0999 V2000
    3.2460   12.8046  -21.3712 O   0  0  0  0  0  0  0  0  0  0  0  0
    6.3262   19.4078  -20.3351 O   0  0  0  0  0  0  0  0  0  0  0  0
    2.7174   13.6004  -20.3780 C   0  0  0  0  0  0  0  0  0  0  0  0
    6.9947   18.2185  -22.3564 O   0  0  0  0  0  0  0  0  0  0  0  0
    3.1603   15.0039  -20.4474 C   0  0  0  0  0  0  0  0  0  0  0  0
    8.5338   18.3735  -20.4819 O   0  5  0  0  0  0  0  0  0  0  0  0
    4.6213   15.1102  -20.5578 N   0  3  0  0  0  0  0  0  0  0  0  0
    5.0995   14.2841  -21.6366 C   0  0  0  0  0  0  0  0  0  0  0  0
    4.6036   12.8811  -21.5080 C   0  0  0  0  0  0  0  0  0  0  0  0
    4.9960   16.4790  -20.7482 C   0  0  0  0  0  0  0  0  0  0  0  0
    6.4352   16.7007  -20.2180 C   0  0  0  0  0  0  0  0  0  0  0  0
    7.1045   18.2471  -20.8637 S   0  0  1  0  0  0  0  0  0  0  0  0
  1  3  1  0  0  0  0
  1  9  1  0  0  0  0
  2 12  1  0  0  0  0
  3  5  1  0  0  0  0
  4 12  2  0  0  0  0
  5  7  1  0  0  0  0
  6 12  2  0  0  0  0
  7  8  1  0  0  0  0
  7 10  1  0  0  0  0
  8  9  1  0  0  0  0
 10 11  1  0  0  0  0
 12 11  1  1  0  0  0
M  CHG  2   6  -1   7   1
M  END
>  <CHROM.1>
153.70488435,163.57832776,65.10322002,5.52444696,16.19331398,-20.91366011
-2.27466127,0.40150339,0.34977132

>  <Name>
ligand

>  <RI>
0

>  <Rbt.Current_Directory>
/home/itssahil/PROJECTS/Mol_Feturizer/New_Systems/rnas/4P95

>  <Rbt.Executable>
rbdock ($Id: //depot/dev/client3/rdock/2013.1/src/exe/rbdock.cxx#4 $)

>  <Rbt.Library>
libRbt.so (2013.1, Build901 2013/11/27)

>  <Rbt.Parameter_File>
/export/apps/rDock/src/rDock_2013.1_src/data/scripts/dock_solv.prm

>  <Rbt.Receptor>
prm/blind_docking_60.prm

>  <SCORE>
-12.1816

>  <SCORE.INTER>
-10.4499

>  <SCORE.INTER.CONST>
1

>  <SCORE.INTER.POLAR>
0

>  <SCORE.INTER.ROT>
3

>  <SCORE.INTER.SOLV>
6.28596

>  <SCORE.INTER.VDW>
-14.6619

>  <SCORE.INTER.norm>
-0.870822

>  <SCORE.INTRA>
-1.73176

>  <SCORE.INTRA.DIHEDRAL>
1.65948

>  <SCORE.INTRA.DIHEDRAL.0>
0.283163

>  <SCORE.INTRA.POLAR>
0

>  <SCORE.INTRA.POLAR.0>
0

>  <SCORE.INTRA.REPUL>
0

>  <SCORE.INTRA.REPUL.0>
0

>  <SCORE.INTRA.SOLV>
-0.666708

>  <SCORE.INTRA.SOLV.lig_0>
-32.2894

>  <SCORE.INTRA.VDW>
-2.22815

>  <SCORE.INTRA.VDW.0>
2.0241

>  <SCORE.INTRA.norm>
-0.144314

>  <SCORE.RESTR>
0

>  <SCORE.RESTR.CAVITY>
0

>  <SCORE.RESTR.norm>
0

>  <SCORE.SYSTEM>
0

>  <SCORE.SYSTEM.CONST>
0

>  <SCORE.SYSTEM.DIHEDRAL>
0

>  <SCORE.SYSTEM.SOLV>
0

>  <SCORE.SYSTEM.norm>
0

>  <SCORE.heavy>
12

>  <SCORE.norm>
-1.01514

>  <RMSD>
19.463

$$$$
ligand
 OpenBabel11021811513D
libRbt.so/2013.1/901 2013/11/27
 12 12  0  0  0  0  0  0  0  0999 V2000
   14.2143   -4.0894  -12.5814 O   0  0  0  0  0  0  0  0  0  0  0  0
   14.9713   -0.9912  -19.1297 O   0  0  0  0  0  0  0  0  0  0  0  0
   13.7061   -2.8512  -12.9097 C   0  0  0  0  0  0  0  0  0  0  0  0
   15.4590   -3.3631  -19.4174 O   0  0  0  0  0  0  0  0  0  0  0  0
   13.6445   -2.6040  -14.3609 C   0  0  0  0  0  0  0  0  0  0  0  0
   17.2742   -1.7472  -19.4289 O   0  5  0  0  0  0  0  0  0  0  0  0
   14.9246   -2.8972  -15.0193 N   0  3  0  0  0  0  0  0  0  0  0  0
   15.3761   -4.2174  -14.6620 C   0  0  0  0  0  0  0  0  0  0  0  0
   15.4030   -4.4003  -13.1799 C   0  0  0  0  0  0  0  0  0  0  0  0
   14.7830   -2.7643  -16.4380 C   0  0  0  0  0  0  0  0  0  0  0  0
   16.1266   -2.2941  -17.0508 C   0  0  0  0  0  0  0  0  0  0  0  0
   15.9544   -2.0767  -18.8338 S   0  0  1  0  0  0  0  0  0  0  0  0
  1  3  1  0  0  0  0
  1  9  1  0  0  0  0
  2 12  1  0  0  0  0
  3  5  1  0  0  0  0
  4 12  2  0  0  0  0
  5  7  1  0  0  0  0
  6 12  2  0  0  0  0
  7  8  1  0  0  0  0
  7 10  1  0  0  0  0
  8  9  1  0  0  0  0
 10 11  1  0  0  0  0
 12 11  1  1  0  0  0
M  CHG  2   6  -1   7   1
M  END
>  <CHROM.1>
148.84030879,-178.43017709,63.65588068,15.24079147,-2.77286382,-16.40289660
-1.91163253,0.69441186,-1.07216034

>  <Name>
ligand

>  <RI>
0

>  <Rbt.Current_Directory>
/home/itssahil/PROJECTS/Mol_Feturizer/New_Systems/rnas/4P95

>  <Rbt.Executable>
rbdock ($Id: //depot/dev/client3/rdock/2013.1/src/exe/rbdock.cxx#4 $)

>  <Rbt.Library>
libRbt.so (2013.1, Build901 2013/11/27)

>  <Rbt.Parameter_File>
/export/apps/rDock/src/rDock_2013.1_src/data/scripts/dock_solv.prm

>  <Rbt.Receptor>
prm/blind_docking_60.prm

>  <SCORE>
-11.1897

>  <SCORE.INTER>
-8.96311

>  <SCORE.INTER.CONST>
1

>  <SCORE.INTER.POLAR>
0

>  <SCORE.INTER.ROT>
3

>  <SCORE.INTER.SOLV>
10.2247

>  <SCORE.INTER.VDW>
-14.9837

>  <SCORE.INTER.norm>
-0.746926

>  <SCORE.INTRA>
-2.22659

>  <SCORE.INTRA.DIHEDRAL>
0.97605

>  <SCORE.INTRA.DIHEDRAL.0>
0.283163

>  <SCORE.INTRA.POLAR>
0

>  <SCORE.INTRA.POLAR.0>
0

>  <SCORE.INTRA.REPUL>
0

>  <SCORE.INTRA.REPUL.0>
0

>  <SCORE.INTRA.SOLV>
-0.701692

>  <SCORE.INTRA.SOLV.lig_0>
-32.2894

>  <SCORE.INTRA.VDW>
-2.36377

>  <SCORE.INTRA.VDW.0>
2.0241

>  <SCORE.INTRA.norm>
-0.185549

>  <SCORE.RESTR>
0

>  <SCORE.RESTR.CAVITY>
0

>  <SCORE.RESTR.norm>
0

>  <SCORE.SYSTEM>
0

>  <SCORE.SYSTEM.CONST>
0

>  <SCORE.SYSTEM.DIHEDRAL>
0

>  <SCORE.SYSTEM.SOLV>
0

>  <SCORE.SYSTEM.norm>
0

>  <SCORE.heavy>
12

>  <SCORE.norm>
-0.932475

>  <RMSD>
19.535

$$$$
ligand
 OpenBabel11021811513D
libRbt.so/2013.1/901 2013/11/27
 12 12  0  0  0  0  0  0  0  0999 V2000
   10.4213   -0.3472  -15.8257 O   0  0  0  0  0  0  0  0  0  0  0  0
   14.0253   -4.8560  -12.6390 O   0  0  0  0  0  0  0  0  0  0  0  0
   11.4696   -0.4799  -16.7105 C   0  0  0  0  0  0  0  0  0  0  0  0
   13.6527   -2.4605  -12.9021 O   0  0  0  0  0  0  0  0  0  0  0  0
   12.0325   -1.8406  -16.7593 C   0  0  0  0  0  0  0  0  0  0  0  0
   15.9082   -3.3542  -13.0440 O   0  5  0  0  0  0  0  0  0  0  0  0
   12.3399   -2.3525  -15.4171 N   0  3  0  0  0  0  0  0  0  0  0  0
   11.1912   -2.2172  -14.5587 C   0  0  0  0  0  0  0  0  0  0  0  0
   10.6681   -0.8182  -14.5668 C   0  0  0  0  0  0  0  0  0  0  0  0
   12.7646   -3.7173  -15.5030 C   0  0  0  0  0  0  0  0  0  0  0  0
   14.2660   -3.8168  -15.1323 C   0  0  0  0  0  0  0  0  0  0  0  0
   14.4808   -3.6239  -13.3510 S   0  0  1  0  0  0  0  0  0  0  0  0
  1  3  1  0  0  0  0
  1  9  1  0  0  0  0
  2 12  1  0  0  0  0
  3  5  1  0  0  0  0
  4 12  2  0  0  0  0
  5  7  1  0  0  0  0
  6 12  2  0  0  0  0
  7  8  1  0  0  0  0
  7 10  1  0  0  0  0
  8  9  1  0  0  0  0
 10 11  1  0  0  0  0
 12 11  1  6  0  0  0
M  CHG  2   6  -1   7   1
M  END
>  <CHROM.1>
111.86685263,74.19692360,73.67488567,12.95718293,-2.60632424,-14.53077116
2.66415841,0.69754939,-1.64724994

>  <Name>
ligand

>  <RI>
0

>  <Rbt.Current_Directory>
/home/itssahil/PROJECTS/Mol_Feturizer/New_Systems/rnas/4P95

>  <Rbt.Executable>
rbdock ($Id: //depot/dev/client3/rdock/2013.1/src/exe/rbdock.cxx#4 $)

>  <Rbt.Library>
libRbt.so (2013.1, Build901 2013/11/27)

>  <Rbt.Parameter_File>
/export/apps/rDock/src/rDock_2013.1_src/data/scripts/dock_solv.prm

>  <Rbt.Receptor>
prm/blind_docking_100.prm

>  <SCORE>
-13.8732

>  <SCORE.INTER>
-12.4972

>  <SCORE.INTER.CONST>
1

>  <SCORE.INTER.POLAR>
0

>  <SCORE.INTER.ROT>
3

>  <SCORE.INTER.SOLV>
5.07799

>  <SCORE.INTER.VDW>
-15.6241

>  <SCORE.INTER.norm>
-1.04144

>  <SCORE.INTRA>
-1.37601

>  <SCORE.INTRA.DIHEDRAL>
3.24905

>  <SCORE.INTRA.DIHEDRAL.0>
0.283163

>  <SCORE.INTRA.POLAR>
0

>  <SCORE.INTRA.POLAR.0>
0

>  <SCORE.INTRA.REPUL>
0

>  <SCORE.INTRA.REPUL.0>
0

>  <SCORE.INTRA.SOLV>
0.239362

>  <SCORE.INTRA.SOLV.lig_0>
-32.2894

>  <SCORE.INTRA.VDW>
-3.12022

>  <SCORE.INTRA.VDW.0>
2.0241

>  <SCORE.INTRA.norm>
-0.114668

>  <SCORE.RESTR>
0

>  <SCORE.RESTR.CAVITY>
0

>  <SCORE.RESTR.norm>
0

>  <SCORE.SYSTEM>
0

>  <SCORE.SYSTEM.CONST>
0

>  <SCORE.SYSTEM.DIHEDRAL>
0

>  <SCORE.SYSTEM.SOLV>
0

>  <SCORE.SYSTEM.norm>
0

>  <SCORE.heavy>
12

>  <SCORE.norm>
-1.1561

>  <RMSD>
19.537

$$$$
ligand
 OpenBabel11021811513D
libRbt.so/2013.1/901 2013/11/27
 12 12  0  0  0  0  0  0  0  0999 V2000
   10.6727   -0.4689  -17.4350 O   0  0  0  0  0  0  0  0  0  0  0  0
   14.0199   -4.8936  -13.2803 O   0  0  0  0  0  0  0  0  0  0  0  0
   12.0146   -0.7615  -17.5482 C   0  0  0  0  0  0  0  0  0  0  0  0
   13.8968   -3.2340  -11.4978 O   0  0  0  0  0  0  0  0  0  0  0  0
   12.4970   -1.7207  -16.5391 C   0  0  0  0  0  0  0  0  0  0  0  0
   15.9859   -3.5687  -12.6937 O   0  5  0  0  0  0  0  0  0  0  0  0
   12.1033   -1.3269  -15.1798 N   0  3  0  0  0  0  0  0  0  0  0  0
   10.6864   -1.0737  -15.1265 C   0  0  0  0  0  0  0  0  0  0  0  0
   10.2674   -0.1036  -16.1820 C   0  0  0  0  0  0  0  0  0  0  0  0
   12.4827   -2.3471  -14.2493 C   0  0  0  0  0  0  0  0  0  0  0  0
   14.0109   -2.2793  -14.0008 C   0  0  0  0  0  0  0  0  0  0  0  0
   14.5071   -3.5561  -12.8262 S   0  0  1  0  0  0  0  0  0  0  0  0
  1  3  1  0  0  0  0
  1  9  1  0  0  0  0
  2 12  1  0  0  0  0
  3  5  1  0  0  0  0
  4 12  2  0  0  0  0
  5  7  1  0  0  0  0
  6 12  2  0  0  0  0
  7  8  1  0  0  0  0
  7 10  1  0  0  0  0
  8  9  1  0  0  0  0
 10 11  1  0  0  0  0
 12 11  1  6  0  0  0
M  CHG  2   6  -1   7   1
M  END
>  <CHROM.1>
75.79032769,179.85511845,53.11888513,12.95995916,-2.28320387,-14.49788035
-2.28135479,-0.48089014,1.83440357

>  <Name>
ligand

>  <RI>
0

>  <Rbt.Current_Directory>
/home/itssahil/PROJECTS/Mol_Feturizer/New_Systems/rnas/4P95

>  <Rbt.Executable>
rbdock ($Id: //depot/dev/client3/rdock/2013.1/src/exe/rbdock.cxx#4 $)

>  <Rbt.Library>
libRbt.so (2013.1, Build901 2013/11/27)

>  <Rbt.Parameter_File>
/export/apps/rDock/src/rDock_2013.1_src/data/scripts/dock_solv.prm

>  <Rbt.Receptor>
prm/blind_docking_60.prm

>  <SCORE>
-12.7282

>  <SCORE.INTER>
-10.6473

>  <SCORE.INTER.CONST>
1

>  <SCORE.INTER.POLAR>
0

>  <SCORE.INTER.ROT>
3

>  <SCORE.INTER.SOLV>
8.02279

>  <SCORE.INTER.VDW>
-15.3725

>  <SCORE.INTER.norm>
-0.887273

>  <SCORE.INTRA>
-2.08088

>  <SCORE.INTRA.DIHEDRAL>
0.253239

>  <SCORE.INTRA.DIHEDRAL.0>
0.283163

>  <SCORE.INTRA.POLAR>
0

>  <SCORE.INTRA.POLAR.0>
0

>  <SCORE.INTRA.REPUL>
0

>  <SCORE.INTRA.REPUL.0>
0

>  <SCORE.INTRA.SOLV>
-0.722797

>  <SCORE.INTRA.SOLV.lig_0>
-32.2894

>  <SCORE.INTRA.VDW>
-1.8461

>  <SCORE.INTRA.VDW.0>
2.0241

>  <SCORE.INTRA.norm>
-0.173407

>  <SCORE.RESTR>
0

>  <SCORE.RESTR.CAVITY>
0

>  <SCORE.RESTR.norm>
0

>  <SCORE.SYSTEM>
0

>  <SCORE.SYSTEM.CONST>
0

>  <SCORE.SYSTEM.DIHEDRAL>
0

>  <SCORE.SYSTEM.SOLV>
0

>  <SCORE.SYSTEM.norm>
0

>  <SCORE.heavy>
12

>  <SCORE.norm>
-1.06068

>  <RMSD>
19.576

$$$$
ligand
 OpenBabel11021811513D
libRbt.so/2013.1/901 2013/11/27
 12 12  0  0  0  0  0  0  0  0999 V2000
    0.0665    8.7053  -13.6221 O   0  0  0  0  0  0  0  0  0  0  0  0
    0.9539   13.5844  -17.3634 O   0  0  0  0  0  0  0  0  0  0  0  0
   -0.6554    8.0491  -14.5954 C   0  0  0  0  0  0  0  0  0  0  0  0
   -1.0185   14.3758  -18.5590 O   0  0  0  0  0  0  0  0  0  0  0  0
   -0.5055    8.6361  -15.9385 C   0  0  0  0  0  0  0  0  0  0  0  0
    0.3351   12.5948  -19.5087 O   0  5  0  0  0  0  0  0  0  0  0  0
   -0.7337   10.0872  -15.9284 N   0  3  0  0  0  0  0  0  0  0  0  0
    0.0784   10.7108  -14.9154 C   0  0  0  0  0  0  0  0  0  0  0  0
   -0.1157   10.0593  -13.5855 C   0  0  0  0  0  0  0  0  0  0  0  0
   -0.4558   10.6319  -17.2232 C   0  0  0  0  0  0  0  0  0  0  0  0
   -1.2226   11.9671  -17.3989 C   0  0  0  0  0  0  0  0  0  0  0  0
   -0.1819   13.1752  -18.2437 S   0  0  1  0  0  0  0  0  0  0  0  0
  1  3  1  0  0  0  0
  1  9  1  0  0  0  0
  2 12  1  0  0  0  0
  3  5  1  0  0  0  0
  4 12  2  0  0  0  0
  5  7  1  0  0  0  0
  6 12  2  0  0  0  0
  7  8  1  0  0  0  0
  7 10  1  0  0  0  0
  8  9  1  0  0  0  0
 10 11  1  0  0  0  0
 12 11  1  1  0  0  0
M  CHG  2   6  -1   7   1
M  END
>  <CHROM.1>
156.62006931,139.69709545,-68.26416987,-0.26294023,11.29714979,-16.61223042
-1.63440007,-1.27714883,-0.80270553

>  <Name>
ligand

>  <RI>
0

>  <Rbt.Current_Directory>
/home/itssahil/PROJECTS/Mol_Feturizer/New_Systems/rnas/4P95

>  <Rbt.Executable>
rbdock ($Id: //depot/dev/client3/rdock/2013.1/src/exe/rbdock.cxx#4 $)

>  <Rbt.Library>
libRbt.so (2013.1, Build901 2013/11/27)

>  <Rbt.Parameter_File>
/export/apps/rDock/src/rDock_2013.1_src/data/scripts/dock_solv.prm

>  <Rbt.Receptor>
prm/blind_docking_100.prm

>  <SCORE>
-8.97464

>  <SCORE.INTER>
-9.08072

>  <SCORE.INTER.CONST>
1

>  <SCORE.INTER.POLAR>
0

>  <SCORE.INTER.ROT>
3

>  <SCORE.INTER.SOLV>
14.5477

>  <SCORE.INTER.VDW>
-16.503

>  <SCORE.INTER.norm>
-0.756726

>  <SCORE.INTRA>
0.106074

>  <SCORE.INTRA.DIHEDRAL>
4.76305

>  <SCORE.INTRA.DIHEDRAL.0>
0.283163

>  <SCORE.INTRA.POLAR>
0

>  <SCORE.INTRA.POLAR.0>
0

>  <SCORE.INTRA.REPUL>
0

>  <SCORE.INTRA.REPUL.0>
0

>  <SCORE.INTRA.SOLV>
-0.00676609

>  <SCORE.INTRA.SOLV.lig_0>
-32.2894

>  <SCORE.INTRA.VDW>
-2.27207

>  <SCORE.INTRA.VDW.0>
2.0241

>  <SCORE.INTRA.norm>
0.00883953

>  <SCORE.RESTR>
0

>  <SCORE.RESTR.CAVITY>
0

>  <SCORE.RESTR.norm>
0

>  <SCORE.SYSTEM>
0

>  <SCORE.SYSTEM.CONST>
0

>  <SCORE.SYSTEM.DIHEDRAL>
0

>  <SCORE.SYSTEM.SOLV>
0

>  <SCORE.SYSTEM.norm>
0

>  <SCORE.heavy>
12

>  <SCORE.norm>
-0.747887

>  <RMSD>
19.594

$$$$
ligand
 OpenBabel11021811513D
libRbt.so/2013.1/901 2013/11/27
 12 12  0  0  0  0  0  0  0  0999 V2000
   -0.6322   11.5204  -16.4857 O   0  0  0  0  0  0  0  0  0  0  0  0
   -0.9012    4.9144  -13.9885 O   0  0  0  0  0  0  0  0  0  0  0  0
   -0.4649   10.3236  -17.1483 C   0  0  0  0  0  0  0  0  0  0  0  0
   -0.0304    5.9936  -11.9826 O   0  0  0  0  0  0  0  0  0  0  0  0
   -0.6932    9.1414  -16.2989 C   0  0  0  0  0  0  0  0  0  0  0  0
    1.4256    4.5840  -13.3240 O   0  5  0  0  0  0  0  0  0  0  0  0
    0.0639    9.2180  -15.0423 N   0  3  0  0  0  0  0  0  0  0  0  0
   -0.1872   10.4757  -14.3868 C   0  0  0  0  0  0  0  0  0  0  0  0
    0.0530   11.6265  -15.3081 C   0  0  0  0  0  0  0  0  0  0  0  0
   -0.2836    8.1151  -14.1977 C   0  0  0  0  0  0  0  0  0  0  0  0
    0.7914    7.0061  -14.3254 C   0  0  0  0  0  0  0  0  0  0  0  0
    0.3018    5.5530  -13.3741 S   0  0  1  0  0  0  0  0  0  0  0  0
  1  3  1  0  0  0  0
  1  9  1  0  0  0  0
  2 12  1  0  0  0  0
  3  5  1  0  0  0  0
  4 12  2  0  0  0  0
  5  7  1  0  0  0  0
  6 12  2  0  0  0  0
  7  8  1  0  0  0  0
  7 10  1  0  0  0  0
  8  9  1  0  0  0  0
 10 11  1  0  0  0  0
 12 11  1  6  0  0  0
M  CHG  2   6  -1   7   1
M  END
>  <CHROM.1>
98.84218645,-175.33679249,67.44284958,-0.01361865,7.90053920,-14.50737462
2.04807392,-1.32780580,0.00015547

>  <Name>
ligand

>  <RI>
0

>  <Rbt.Current_Directory>
/home/itssahil/PROJECTS/Mol_Feturizer/New_Systems/rnas/4P95

>  <Rbt.Executable>
rbdock ($Id: //depot/dev/client3/rdock/2013.1/src/exe/rbdock.cxx#4 $)

>  <Rbt.Library>
libRbt.so (2013.1, Build901 2013/11/27)

>  <Rbt.Parameter_File>
/export/apps/rDock/src/rDock_2013.1_src/data/scripts/dock_solv.prm

>  <Rbt.Receptor>
prm/blind_docking_80.prm

>  <SCORE>
-9.78927

>  <SCORE.INTER>
-7.75714

>  <SCORE.INTER.CONST>
1

>  <SCORE.INTER.POLAR>
0

>  <SCORE.INTER.ROT>
3

>  <SCORE.INTER.SOLV>
7.89505

>  <SCORE.INTER.VDW>
-13.4031

>  <SCORE.INTER.norm>
-0.646428

>  <SCORE.INTRA>
-2.03213

>  <SCORE.INTRA.DIHEDRAL>
1.75698

>  <SCORE.INTRA.DIHEDRAL.0>
0.283163

>  <SCORE.INTRA.POLAR>
0

>  <SCORE.INTRA.POLAR.0>
0

>  <SCORE.INTRA.REPUL>
0

>  <SCORE.INTRA.REPUL.0>
0

>  <SCORE.INTRA.SOLV>
-0.689256

>  <SCORE.INTRA.SOLV.lig_0>
-32.2894

>  <SCORE.INTRA.VDW>
-2.56599

>  <SCORE.INTRA.VDW.0>
2.0241

>  <SCORE.INTRA.norm>
-0.169344

>  <SCORE.RESTR>
0

>  <SCORE.RESTR.CAVITY>
0

>  <SCORE.RESTR.norm>
0

>  <SCORE.SYSTEM>
0

>  <SCORE.SYSTEM.CONST>
0

>  <SCORE.SYSTEM.DIHEDRAL>
0

>  <SCORE.SYSTEM.SOLV>
0

>  <SCORE.SYSTEM.norm>
0

>  <SCORE.heavy>
12

>  <SCORE.norm>
-0.815772

>  <RMSD>
19.607

$$$$
ligand
 OpenBabel11021811513D
libRbt.so/2013.1/901 2013/11/27
 12 12  0  0  0  0  0  0  0  0999 V2000
   10.9966   -0.7981  -17.2299 O   0  0  0  0  0  0  0  0  0  0  0  0
   14.0530   -4.6415  -14.5359 O   0  0  0  0  0  0  0  0  0  0  0  0
   12.2618   -1.3441  -17.2093 C   0  0  0  0  0  0  0  0  0  0  0  0
   14.0991   -4.7334  -12.0995 O   0  0  0  0  0  0  0  0  0  0  0  0
   12.5336   -2.1598  -16.0128 C   0  0  0  0  0  0  0  0  0  0  0  0
   16.0201   -3.8692  -13.3116 O   0  5  0  0  0  0  0  0  0  0  0  0
   12.1917   -1.4448  -14.7758 N   0  3  0  0  0  0  0  0  0  0  0  0
   10.8468   -0.9349  -14.8521 C   0  0  0  0  0  0  0  0  0  0  0  0
   10.6403   -0.1291  -16.0926 C   0  0  0  0  0  0  0  0  0  0  0  0
   12.3525   -2.3159  -13.6508 C   0  0  0  0  0  0  0  0  0  0  0  0
   13.8318   -2.2981  -13.1892 C   0  0  0  0  0  0  0  0  0  0  0  0
   14.5378   -3.9551  -13.3005 S   0  0  1  0  0  0  0  0  0  0  0  0
  1  3  1  0  0  0  0
  1  9  1  0  0  0  0
  2 12  1  0  0  0  0
  3  5  1  0  0  0  0
  4 12  2  0  0  0  0
  5  7  1  0  0  0  0
  6 12  2  0  0  0  0
  7  8  1  0  0  0  0
  7 10  1  0  0  0  0
  8  9  1  0  0  0  0
 10 11  1  0  0  0  0
 12 11  1  1  0  0  0
M  CHG  2   6  -1   7   1
M  END
>  <CHROM.1>
84.87887211,-119.73821446,39.41605278,13.05698378,-2.57689230,-14.54345126
-2.47259839,-0.69768602,1.68405189

>  <Name>
ligand

>  <RI>
0

>  <Rbt.Current_Directory>
/home/itssahil/PROJECTS/Mol_Feturizer/New_Systems/rnas/4P95

>  <Rbt.Executable>
rbdock ($Id: //depot/dev/client3/rdock/2013.1/src/exe/rbdock.cxx#4 $)

>  <Rbt.Library>
libRbt.so (2013.1, Build901 2013/11/27)

>  <Rbt.Parameter_File>
/export/apps/rDock/src/rDock_2013.1_src/data/scripts/dock_solv.prm

>  <Rbt.Receptor>
prm/blind_docking_60.prm

>  <SCORE>
-10.6451

>  <SCORE.INTER>
-11.2816

>  <SCORE.INTER.CONST>
1

>  <SCORE.INTER.POLAR>
0

>  <SCORE.INTER.ROT>
3

>  <SCORE.INTER.SOLV>
8.31341

>  <SCORE.INTER.VDW>
-15.8922

>  <SCORE.INTER.norm>
-0.940137

>  <SCORE.INTRA>
0.636558

>  <SCORE.INTRA.DIHEDRAL>
7.07931

>  <SCORE.INTRA.DIHEDRAL.0>
0.283163

>  <SCORE.INTRA.POLAR>
0

>  <SCORE.INTRA.POLAR.0>
0

>  <SCORE.INTRA.REPUL>
0

>  <SCORE.INTRA.REPUL.0>
0

>  <SCORE.INTRA.SOLV>
-0.700226

>  <SCORE.INTRA.SOLV.lig_0>
-32.2894

>  <SCORE.INTRA.VDW>
-2.55298

>  <SCORE.INTRA.VDW.0>
2.0241

>  <SCORE.INTRA.norm>
0.0530465

>  <SCORE.RESTR>
0

>  <SCORE.RESTR.CAVITY>
0

>  <SCORE.RESTR.norm>
0

>  <SCORE.SYSTEM>
0

>  <SCORE.SYSTEM.CONST>
0

>  <SCORE.SYSTEM.DIHEDRAL>
0

>  <SCORE.SYSTEM.SOLV>
0

>  <SCORE.SYSTEM.norm>
0

>  <SCORE.heavy>
12

>  <SCORE.norm>
-0.887091

>  <RMSD>
19.627

$$$$
ligand
 OpenBabel11021811513D
libRbt.so/2013.1/901 2013/11/27
 12 12  0  0  0  0  0  0  0  0999 V2000
    2.9131   13.3055  -21.9077 O   0  0  0  0  0  0  0  0  0  0  0  0
    5.9748   19.6056  -21.0175 O   0  0  0  0  0  0  0  0  0  0  0  0
    3.2106   13.4215  -20.5670 C   0  0  0  0  0  0  0  0  0  0  0  0
    8.2807   18.9257  -21.4263 O   0  0  0  0  0  0  0  0  0  0  0  0
    3.6743   14.7652  -20.1791 C   0  0  0  0  0  0  0  0  0  0  0  0
    7.2606   18.4955  -19.2628 O   0  5  0  0  0  0  0  0  0  0  0  0
    4.7522   15.2443  -21.0546 N   0  3  0  0  0  0  0  0  0  0  0  0
    4.3590   15.1291  -22.4355 C   0  0  0  0  0  0  0  0  0  0  0  0
    3.8910   13.7470  -22.7541 C   0  0  0  0  0  0  0  0  0  0  0  0
    5.0838   16.5969  -20.7215 C   0  0  0  0  0  0  0  0  0  0  0  0
    6.4636   16.9564  -21.3286 C   0  0  0  0  0  0  0  0  0  0  0  0
    7.0082   18.5671  -20.7242 S   0  0  1  0  0  0  0  0  0  0  0  0
  1  3  1  0  0  0  0
  1  9  1  0  0  0  0
  2 12  1  0  0  0  0
  3  5  1  0  0  0  0
  4 12  2  0  0  0  0
  5  7  1  0  0  0  0
  6 12  2  0  0  0  0
  7  8  1  0  0  0  0
  7 10  1  0  0  0  0
  8  9  1  0  0  0  0
 10 11  1  0  0  0  0
 12 11  1  6  0  0  0
M  CHG  2   6  -1   7   1
M  END
>  <CHROM.1>
163.27241618,-171.82508875,-55.66538691,5.43887941,16.50204445,-21.07004624
-2.77500759,0.88362076,1.28611995

>  <Name>
ligand

>  <RI>
0

>  <Rbt.Current_Directory>
/home/itssahil/PROJECTS/Mol_Feturizer/New_Systems/rnas/4P95

>  <Rbt.Executable>
rbdock ($Id: //depot/dev/client3/rdock/2013.1/src/exe/rbdock.cxx#4 $)

>  <Rbt.Library>
libRbt.so (2013.1, Build901 2013/11/27)

>  <Rbt.Parameter_File>
/export/apps/rDock/src/rDock_2013.1_src/data/scripts/dock_solv.prm

>  <Rbt.Receptor>
prm/blind_docking_40.prm

>  <SCORE>
-9.08713

>  <SCORE.INTER>
-7.44288

>  <SCORE.INTER.CONST>
1

>  <SCORE.INTER.POLAR>
0

>  <SCORE.INTER.ROT>
3

>  <SCORE.INTER.SOLV>
11.0235

>  <SCORE.INTER.VDW>
-14.2364

>  <SCORE.INTER.norm>
-0.62024

>  <SCORE.INTRA>
-1.64425

>  <SCORE.INTRA.DIHEDRAL>
0.409016

>  <SCORE.INTRA.DIHEDRAL.0>
0.283163

>  <SCORE.INTRA.POLAR>
0

>  <SCORE.INTRA.POLAR.0>
0

>  <SCORE.INTRA.REPUL>
0

>  <SCORE.INTRA.REPUL.0>
0

>  <SCORE.INTRA.SOLV>
-0.0886537

>  <SCORE.INTRA.SOLV.lig_0>
-32.2894

>  <SCORE.INTRA.VDW>
-1.80443

>  <SCORE.INTRA.VDW.0>
2.0241

>  <SCORE.INTRA.norm>
-0.137021

>  <SCORE.RESTR>
0

>  <SCORE.RESTR.CAVITY>
0

>  <SCORE.RESTR.norm>
0

>  <SCORE.SYSTEM>
0

>  <SCORE.SYSTEM.CONST>
0

>  <SCORE.SYSTEM.DIHEDRAL>
0

>  <SCORE.SYSTEM.SOLV>
0

>  <SCORE.SYSTEM.norm>
0

>  <SCORE.heavy>
12

>  <SCORE.norm>
-0.757261

>  <RMSD>
19.647

$$$$
ligand
 OpenBabel11021811513D
libRbt.so/2013.1/901 2013/11/27
 12 12  0  0  0  0  0  0  0  0999 V2000
    0.1367   10.3968  -16.1126 O   0  0  0  0  0  0  0  0  0  0  0  0
    1.3091    6.0605  -14.6790 O   0  0  0  0  0  0  0  0  0  0  0  0
   -0.0656    9.0620  -16.3892 C   0  0  0  0  0  0  0  0  0  0  0  0
   -0.7413    4.9484  -13.9682 O   0  0  0  0  0  0  0  0  0  0  0  0
   -0.6789    8.3148  -15.2772 C   0  0  0  0  0  0  0  0  0  0  0  0
    1.3599    4.4276  -12.8637 O   0  5  0  0  0  0  0  0  0  0  0  0
    0.0295    8.5423  -14.0106 N   0  3  0  0  0  0  0  0  0  0  0  0
    0.1719    9.9549  -13.7677 C   0  0  0  0  0  0  0  0  0  0  0  0
    0.7885   10.6484  -14.9381 C   0  0  0  0  0  0  0  0  0  0  0  0
   -0.6716    7.9006  -12.9396 C   0  0  0  0  0  0  0  0  0  0  0  0
    0.2332    6.8133  -12.3063 C   0  0  0  0  0  0  0  0  0  0  0  0
    0.5680    5.5072  -13.5055 S   0  0  1  0  0  0  0  0  0  0  0  0
  1  3  1  0  0  0  0
  1  9  1  0  0  0  0
  2 12  1  0  0  0  0
  3  5  1  0  0  0  0
  4 12  2  0  0  0  0
  5  7  1  0  0  0  0
  6 12  2  0  0  0  0
  7  8  1  0  0  0  0
  7 10  1  0  0  0  0
  8  9  1  0  0  0  0
 10 11  1  0  0  0  0
 12 11  1  1  0  0  0
M  CHG  2   6  -1   7   1
M  END
>  <CHROM.1>
117.67759247,-64.66004621,62.23076885,0.24987010,7.45863135,-14.16974658
-2.45146483,-1.46412600,1.87176550

>  <Name>
ligand

>  <RI>
0

>  <Rbt.Current_Directory>
/home/itssahil/PROJECTS/Mol_Feturizer/New_Systems/rnas/4P95

>  <Rbt.Executable>
rbdock ($Id: //depot/dev/client3/rdock/2013.1/src/exe/rbdock.cxx#4 $)

>  <Rbt.Library>
libRbt.so (2013.1, Build901 2013/11/27)

>  <Rbt.Parameter_File>
/export/apps/rDock/src/rDock_2013.1_src/data/scripts/dock_solv.prm

>  <Rbt.Receptor>
prm/blind_docking_100.prm

>  <SCORE>
-11.4519

>  <SCORE.INTER>
-8.8582

>  <SCORE.INTER.CONST>
1

>  <SCORE.INTER.POLAR>
0

>  <SCORE.INTER.ROT>
3

>  <SCORE.INTER.SOLV>
6.86547

>  <SCORE.INTER.VDW>
-13.794

>  <SCORE.INTER.norm>
-0.738183

>  <SCORE.INTRA>
-2.59373

>  <SCORE.INTRA.DIHEDRAL>
2.21604

>  <SCORE.INTRA.DIHEDRAL.0>
0.283163

>  <SCORE.INTRA.POLAR>
0

>  <SCORE.INTRA.POLAR.0>
0

>  <SCORE.INTRA.REPUL>
0

>  <SCORE.INTRA.REPUL.0>
0

>  <SCORE.INTRA.SOLV>
-0.412752

>  <SCORE.INTRA.SOLV.lig_0>
-32.2894

>  <SCORE.INTRA.VDW>
-3.49537

>  <SCORE.INTRA.VDW.0>
2.0241

>  <SCORE.INTRA.norm>
-0.216144

>  <SCORE.RESTR>
0

>  <SCORE.RESTR.CAVITY>
0

>  <SCORE.RESTR.norm>
0

>  <SCORE.SYSTEM>
0

>  <SCORE.SYSTEM.CONST>
0

>  <SCORE.SYSTEM.DIHEDRAL>
0

>  <SCORE.SYSTEM.SOLV>
0

>  <SCORE.SYSTEM.norm>
0

>  <SCORE.heavy>
12

>  <SCORE.norm>
-0.954327

>  <RMSD>
19.681

$$$$
ligand
 OpenBabel11021811513D
libRbt.so/2013.1/901 2013/11/27
 12 12  0  0  0  0  0  0  0  0999 V2000
   10.4617   -2.1677  -15.9652 O   0  0  0  0  0  0  0  0  0  0  0  0
   12.9067    4.2710  -14.0669 O   0  0  0  0  0  0  0  0  0  0  0  0
   11.1619   -2.3020  -14.7858 C   0  0  0  0  0  0  0  0  0  0  0  0
   14.9209    3.5761  -12.8810 O   0  0  0  0  0  0  0  0  0  0  0  0
   11.3441   -1.0331  -14.0594 C   0  0  0  0  0  0  0  0  0  0  0  0
   12.7441    3.2734  -11.8436 O   0  5  0  0  0  0  0  0  0  0  0  0
   11.8759    0.0231  -14.9310 N   0  3  0  0  0  0  0  0  0  0  0  0
   11.0756    0.1329  -16.1236 C   0  0  0  0  0  0  0  0  0  0  0  0
   10.9241   -1.1899  -16.8004 C   0  0  0  0  0  0  0  0  0  0  0  0
   11.9182    1.2649  -14.2193 C   0  0  0  0  0  0  0  0  0  0  0  0
   13.3872    1.6096  -13.8660 C   0  0  0  0  0  0  0  0  0  0  0  0
   13.4805    3.2558  -13.1328 S   0  0  1  0  0  0  0  0  0  0  0  0
  1  3  1  0  0  0  0
  1  9  1  0  0  0  0
  2 12  1  0  0  0  0
  3  5  1  0  0  0  0
  4 12  2  0  0  0  0
  5  7  1  0  0  0  0
  6 12  2  0  0  0  0
  7  8  1  0  0  0  0
  7 10  1  0  0  0  0
  8  9  1  0  0  0  0
 10 11  1  0  0  0  0
 12 11  1  6  0  0  0
M  CHG  2   6  -1   7   1
M  END
>  <CHROM.1>
106.67322048,173.72115515,-57.39125529,12.32724418,1.16698332,-14.24438925
-2.88674389,-1.11363526,-0.79994380

>  <Name>
ligand

>  <RI>
0

>  <Rbt.Current_Directory>
/home/itssahil/PROJECTS/Mol_Feturizer/New_Systems/rnas/4P95

>  <Rbt.Executable>
rbdock ($Id: //depot/dev/client3/rdock/2013.1/src/exe/rbdock.cxx#4 $)

>  <Rbt.Library>
libRbt.so (2013.1, Build901 2013/11/27)

>  <Rbt.Parameter_File>
/export/apps/rDock/src/rDock_2013.1_src/data/scripts/dock_solv.prm

>  <Rbt.Receptor>
prm/blind_docking_40.prm

>  <SCORE>
-13.5268

>  <SCORE.INTER>
-11.8264

>  <SCORE.INTER.CONST>
1

>  <SCORE.INTER.POLAR>
0

>  <SCORE.INTER.ROT>
3

>  <SCORE.INTER.SOLV>
8.20178

>  <SCORE.INTER.VDW>
-16.2182

>  <SCORE.INTER.norm>
-0.985535

>  <SCORE.INTRA>
-1.70038

>  <SCORE.INTRA.DIHEDRAL>
2.05369

>  <SCORE.INTRA.DIHEDRAL.0>
0.283163

>  <SCORE.INTRA.POLAR>
0

>  <SCORE.INTRA.POLAR.0>
0

>  <SCORE.INTRA.REPUL>
0

>  <SCORE.INTRA.REPUL.0>
0

>  <SCORE.INTRA.SOLV>
-0.0963046

>  <SCORE.INTRA.SOLV.lig_0>
-32.2894

>  <SCORE.INTRA.VDW>
-2.67907

>  <SCORE.INTRA.VDW.0>
2.0241

>  <SCORE.INTRA.norm>
-0.141698

>  <SCORE.RESTR>
0

>  <SCORE.RESTR.CAVITY>
0

>  <SCORE.RESTR.norm>
0

>  <SCORE.SYSTEM>
0

>  <SCORE.SYSTEM.CONST>
0

>  <SCORE.SYSTEM.DIHEDRAL>
0

>  <SCORE.SYSTEM.SOLV>
0

>  <SCORE.SYSTEM.norm>
0

>  <SCORE.heavy>
12

>  <SCORE.norm>
-1.12723

>  <RMSD>
19.730

$$$$
ligand
 OpenBabel11021811513D
libRbt.so/2013.1/901 2013/11/27
 12 12  0  0  0  0  0  0  0  0999 V2000
   10.4560   -2.1710  -15.9415 O   0  0  0  0  0  0  0  0  0  0  0  0
   12.8991    4.2922  -14.0737 O   0  0  0  0  0  0  0  0  0  0  0  0
   11.1237   -2.2916  -14.7420 C   0  0  0  0  0  0  0  0  0  0  0  0
   14.9046    3.5949  -12.8744 O   0  0  0  0  0  0  0  0  0  0  0  0
   11.3039   -1.0114  -14.0351 C   0  0  0  0  0  0  0  0  0  0  0  0
   12.7199    3.2856  -11.8557 O   0  5  0  0  0  0  0  0  0  0  0  0
   11.8719    0.0210  -14.9123 N   0  3  0  0  0  0  0  0  0  0  0  0
   11.1042    0.1181  -16.1272 C   0  0  0  0  0  0  0  0  0  0  0  0
   10.9527   -1.2153  -16.7827 C   0  0  0  0  0  0  0  0  0  0  0  0
   11.9123    1.2756  -14.2233 C   0  0  0  0  0  0  0  0  0  0  0  0
   13.3812    1.6306  -13.8795 C   0  0  0  0  0  0  0  0  0  0  0  0
   13.4667    3.2740  -13.1390 S   0  0  1  0  0  0  0  0  0  0  0  0
  1  3  1  0  0  0  0
  1  9  1  0  0  0  0
  2 12  1  0  0  0  0
  3  5  1  0  0  0  0
  4 12  2  0  0  0  0
  5  7  1  0  0  0  0
  6 12  2  0  0  0  0
  7  8  1  0  0  0  0
  7 10  1  0  0  0  0
  8  9  1  0  0  0  0
 10 11  1  0  0  0  0
 12 11  1  6  0  0  0
M  CHG  2   6  -1   7   1
M  END
>  <CHROM.1>
108.51664845,175.10485224,-58.37402944,12.31784779,1.17554506,-14.23843856
-2.95179411,-1.12264851,-0.87927504

>  <Name>
ligand

>  <RI>
0

>  <Rbt.Current_Directory>
/home/itssahil/PROJECTS/Mol_Feturizer/New_Systems/rnas/4P95

>  <Rbt.Executable>
rbdock ($Id: //depot/dev/client3/rdock/2013.1/src/exe/rbdock.cxx#4 $)

>  <Rbt.Library>
libRbt.so (2013.1, Build901 2013/11/27)

>  <Rbt.Parameter_File>
/export/apps/rDock/src/rDock_2013.1_src/data/scripts/dock_solv.prm

>  <Rbt.Receptor>
prm/blind_docking_60.prm

>  <SCORE>
-13.5117

>  <SCORE.INTER>
-11.7998

>  <SCORE.INTER.CONST>
1

>  <SCORE.INTER.POLAR>
0

>  <SCORE.INTER.ROT>
3

>  <SCORE.INTER.SOLV>
8.23326

>  <SCORE.INTER.VDW>
-16.211

>  <SCORE.INTER.norm>
-0.983317

>  <SCORE.INTRA>
-1.71187

>  <SCORE.INTRA.DIHEDRAL>
2.0469

>  <SCORE.INTRA.DIHEDRAL.0>
0.283163

>  <SCORE.INTRA.POLAR>
0

>  <SCORE.INTRA.POLAR.0>
0

>  <SCORE.INTRA.REPUL>
0

>  <SCORE.INTRA.REPUL.0>
0

>  <SCORE.INTRA.SOLV>
-0.0866414

>  <SCORE.INTRA.SOLV.lig_0>
-32.2894

>  <SCORE.INTRA.VDW>
-2.692

>  <SCORE.INTRA.VDW.0>
2.0241

>  <SCORE.INTRA.norm>
-0.142656

>  <SCORE.RESTR>
0

>  <SCORE.RESTR.CAVITY>
0

>  <SCORE.RESTR.norm>
0

>  <SCORE.SYSTEM>
0

>  <SCORE.SYSTEM.CONST>
0

>  <SCORE.SYSTEM.DIHEDRAL>
0

>  <SCORE.SYSTEM.SOLV>
0

>  <SCORE.SYSTEM.norm>
0

>  <SCORE.heavy>
12

>  <SCORE.norm>
-1.12597

>  <RMSD>
19.732

$$$$
ligand
 OpenBabel11021811513D
libRbt.so/2013.1/901 2013/11/27
 12 12  0  0  0  0  0  0  0  0999 V2000
   10.6524   -2.1562  -15.9851 O   0  0  0  0  0  0  0  0  0  0  0  0
   12.7876    4.8719  -13.3443 O   0  0  0  0  0  0  0  0  0  0  0  0
   10.2579   -0.8721  -16.2928 C   0  0  0  0  0  0  0  0  0  0  0  0
   14.4564    3.3750  -14.3039 O   0  0  0  0  0  0  0  0  0  0  0  0
   11.2308    0.1576  -15.8879 C   0  0  0  0  0  0  0  0  0  0  0  0
   13.8186    3.1353  -11.9710 O   0  5  0  0  0  0  0  0  0  0  0  0
   11.6420   -0.0011  -14.4866 N   0  3  0  0  0  0  0  0  0  0  0  0
   12.0762   -1.3533  -14.2464 C   0  0  0  0  0  0  0  0  0  0  0  0
   11.0479   -2.3415  -14.6901 C   0  0  0  0  0  0  0  0  0  0  0  0
   12.6765    0.9384  -14.1743 C   0  0  0  0  0  0  0  0  0  0  0  0
   12.0432    2.3090  -13.8249 C   0  0  0  0  0  0  0  0  0  0  0  0
   13.3252    3.4780  -13.3289 S   0  0  1  0  0  0  0  0  0  0  0  0
  1  3  1  0  0  0  0
  1  9  1  0  0  0  0
  2 12  1  0  0  0  0
  3  5  1  0  0  0  0
  4 12  2  0  0  0  0
  5  7  1  0  0  0  0
  6 12  2  0  0  0  0
  7  8  1  0  0  0  0
  7 10  1  0  0  0  0
  8  9  1  0  0  0  0
 10 11  1  0  0  0  0
 12 11  1  6  0  0  0
M  CHG  2   6  -1   7   1
M  END
>  <CHROM.1>
82.97994463,176.49359636,164.96222100,12.30632151,1.25009626,-14.26122145
2.31464586,0.93191696,2.90645204

>  <Name>
ligand

>  <RI>
0

>  <Rbt.Current_Directory>
/home/itssahil/PROJECTS/Mol_Feturizer/New_Systems/rnas/4P95

>  <Rbt.Executable>
rbdock ($Id: //depot/dev/client3/rdock/2013.1/src/exe/rbdock.cxx#4 $)

>  <Rbt.Library>
libRbt.so (2013.1, Build901 2013/11/27)

>  <Rbt.Parameter_File>
/export/apps/rDock/src/rDock_2013.1_src/data/scripts/dock_solv.prm

>  <Rbt.Receptor>
prm/blind_docking_60.prm

>  <SCORE>
-14.0309

>  <SCORE.INTER>
-12.4845

>  <SCORE.INTER.CONST>
1

>  <SCORE.INTER.POLAR>
0

>  <SCORE.INTER.ROT>
3

>  <SCORE.INTER.SOLV>
8.1101

>  <SCORE.INTER.VDW>
-16.6264

>  <SCORE.INTER.norm>
-1.04038

>  <SCORE.INTRA>
-1.54639

>  <SCORE.INTRA.DIHEDRAL>
1.08418

>  <SCORE.INTRA.DIHEDRAL.0>
0.283163

>  <SCORE.INTRA.POLAR>
0

>  <SCORE.INTRA.POLAR.0>
0

>  <SCORE.INTRA.REPUL>
0

>  <SCORE.INTRA.REPUL.0>
0

>  <SCORE.INTRA.SOLV>
0.0419407

>  <SCORE.INTRA.SOLV.lig_0>
-32.2894

>  <SCORE.INTRA.VDW>
-2.10945

>  <SCORE.INTRA.VDW.0>
2.0241

>  <SCORE.INTRA.norm>
-0.128866

>  <SCORE.RESTR>
0

>  <SCORE.RESTR.CAVITY>
0

>  <SCORE.RESTR.norm>
0

>  <SCORE.SYSTEM>
0

>  <SCORE.SYSTEM.CONST>
0

>  <SCORE.SYSTEM.DIHEDRAL>
0

>  <SCORE.SYSTEM.SOLV>
0

>  <SCORE.SYSTEM.norm>
0

>  <SCORE.heavy>
12

>  <SCORE.norm>
-1.16924

>  <RMSD>
19.734

$$$$
ligand
 OpenBabel11021811513D
libRbt.so/2013.1/901 2013/11/27
 12 12  0  0  0  0  0  0  0  0999 V2000
   10.4918   -2.1757  -16.0460 O   0  0  0  0  0  0  0  0  0  0  0  0
   12.8025    4.2786  -14.0322 O   0  0  0  0  0  0  0  0  0  0  0  0
   11.0066   -2.3556  -14.7803 C   0  0  0  0  0  0  0  0  0  0  0  0
   14.8286    3.6140  -12.8492 O   0  0  0  0  0  0  0  0  0  0  0  0
   11.1633   -1.1015  -14.0229 C   0  0  0  0  0  0  0  0  0  0  0  0
   12.6547    3.2166  -11.8379 O   0  5  0  0  0  0  0  0  0  0  0  0
   11.8798   -0.0809  -14.7994 N   0  3  0  0  0  0  0  0  0  0  0  0
   11.2666    0.0809  -16.0926 C   0  0  0  0  0  0  0  0  0  0  0  0
   11.1297   -1.2290  -16.7972 C   0  0  0  0  0  0  0  0  0  0  0  0
   11.8988    1.1551  -14.0767 C   0  0  0  0  0  0  0  0  0  0  0  0
   13.3636    1.6288  -13.8991 C   0  0  0  0  0  0  0  0  0  0  0  0
   13.4006    3.2566  -13.1211 S   0  0  1  0  0  0  0  0  0  0  0  0
  1  3  1  0  0  0  0
  1  9  1  0  0  0  0
  2 12  1  0  0  0  0
  3  5  1  0  0  0  0
  4 12  2  0  0  0  0
  5  7  1  0  0  0  0
  6 12  2  0  0  0  0
  7  8  1  0  0  0  0
  7 10  1  0  0  0  0
  8  9  1  0  0  0  0
 10 11  1  0  0  0  0
 12 11  1  6  0  0  0
M  CHG  2   6  -1   7   1
M  END
>  <CHROM.1>
124.28528565,174.95555810,-65.98974497,12.29452295,1.13609440,-14.22028404
-3.05481108,1.14672641,1.95765653

>  <Name>
ligand

>  <RI>
0

>  <Rbt.Current_Directory>
/home/itssahil/PROJECTS/Mol_Feturizer/New_Systems/rnas/4P95

>  <Rbt.Executable>
rbdock ($Id: //depot/dev/client3/rdock/2013.1/src/exe/rbdock.cxx#4 $)

>  <Rbt.Library>
libRbt.so (2013.1, Build901 2013/11/27)

>  <Rbt.Parameter_File>
/export/apps/rDock/src/rDock_2013.1_src/data/scripts/dock_solv.prm

>  <Rbt.Receptor>
prm/blind_docking_40.prm

>  <SCORE>
-13.5293

>  <SCORE.INTER>
-11.9341

>  <SCORE.INTER.CONST>
1

>  <SCORE.INTER.POLAR>
0

>  <SCORE.INTER.ROT>
3

>  <SCORE.INTER.SOLV>
8.6076

>  <SCORE.INTER.VDW>
-16.4253

>  <SCORE.INTER.norm>
-0.994509

>  <SCORE.INTRA>
-1.59519

>  <SCORE.INTRA.DIHEDRAL>
2.23269

>  <SCORE.INTRA.DIHEDRAL.0>
0.283163

>  <SCORE.INTRA.POLAR>
0

>  <SCORE.INTRA.POLAR.0>
0

>  <SCORE.INTRA.REPUL>
0

>  <SCORE.INTRA.REPUL.0>
0

>  <SCORE.INTRA.SOLV>
-0.00861213

>  <SCORE.INTRA.SOLV.lig_0>
-32.2894

>  <SCORE.INTRA.VDW>
-2.70723

>  <SCORE.INTRA.VDW.0>
2.0241

>  <SCORE.INTRA.norm>
-0.132932

>  <SCORE.RESTR>
0

>  <SCORE.RESTR.CAVITY>
0

>  <SCORE.RESTR.norm>
0

>  <SCORE.SYSTEM>
0

>  <SCORE.SYSTEM.CONST>
0

>  <SCORE.SYSTEM.DIHEDRAL>
0

>  <SCORE.SYSTEM.SOLV>
0

>  <SCORE.SYSTEM.norm>
0

>  <SCORE.heavy>
12

>  <SCORE.norm>
-1.12744

>  <RMSD>
19.743

$$$$
ligand
 OpenBabel11021811513D
libRbt.so/2013.1/901 2013/11/27
 12 12  0  0  0  0  0  0  0  0999 V2000
   10.6147   -2.2793  -16.1769 O   0  0  0  0  0  0  0  0  0  0  0  0
   12.4609    4.1689  -13.8193 O   0  0  0  0  0  0  0  0  0  0  0  0
   11.0597   -2.4914  -14.8899 C   0  0  0  0  0  0  0  0  0  0  0  0
   14.6638    3.6616  -12.9048 O   0  0  0  0  0  0  0  0  0  0  0  0
   11.1578   -1.2590  -14.0884 C   0  0  0  0  0  0  0  0  0  0  0  0
   12.6687    2.9779  -11.6972 O   0  5  0  0  0  0  0  0  0  0  0  0
   11.9041   -0.2079  -14.7928 N   0  3  0  0  0  0  0  0  0  0  0  0
   11.3626   -0.0140  -16.1133 C   0  0  0  0  0  0  0  0  0  0  0  0
   11.2820   -1.3035  -16.8627 C   0  0  0  0  0  0  0  0  0  0  0  0
   11.8669    1.0061  -14.0342 C   0  0  0  0  0  0  0  0  0  0  0  0
   13.2975    1.5914  -13.9230 C   0  0  0  0  0  0  0  0  0  0  0  0
   13.2577    3.1684  -13.0468 S   0  0  1  0  0  0  0  0  0  0  0  0
  1  3  1  0  0  0  0
  1  9  1  0  0  0  0
  2 12  1  0  0  0  0
  3  5  1  0  0  0  0
  4 12  2  0  0  0  0
  5  7  1  0  0  0  0
  6 12  2  0  0  0  0
  7  8  1  0  0  0  0
  7 10  1  0  0  0  0
  8  9  1  0  0  0  0
 10 11  1  0  0  0  0
 12 11  1  6  0  0  0
M  CHG  2   6  -1   7   1
M  END
>  <CHROM.1>
131.84086291,176.93407037,-63.30686409,12.25652946,1.03219185,-14.21129001
-2.93124379,1.18208597,1.84801639

>  <Name>
ligand

>  <RI>
0

>  <Rbt.Current_Directory>
/home/itssahil/PROJECTS/Mol_Feturizer/New_Systems/rnas/4P95

>  <Rbt.Executable>
rbdock ($Id: //depot/dev/client3/rdock/2013.1/src/exe/rbdock.cxx#4 $)

>  <Rbt.Library>
libRbt.so (2013.1, Build901 2013/11/27)

>  <Rbt.Parameter_File>
/export/apps/rDock/src/rDock_2013.1_src/data/scripts/dock_solv.prm

>  <Rbt.Receptor>
prm/blind_docking_60.prm

>  <SCORE>
-13.3184

>  <SCORE.INTER>
-11.5804

>  <SCORE.INTER.CONST>
1

>  <SCORE.INTER.POLAR>
0

>  <SCORE.INTER.ROT>
3

>  <SCORE.INTER.SOLV>
9.21432

>  <SCORE.INTER.VDW>
-16.3917

>  <SCORE.INTER.norm>
-0.965035

>  <SCORE.INTRA>
-1.73798

>  <SCORE.INTRA.DIHEDRAL>
1.90276

>  <SCORE.INTRA.DIHEDRAL.0>
0.283163

>  <SCORE.INTRA.POLAR>
0

>  <SCORE.INTRA.POLAR.0>
0

>  <SCORE.INTRA.REPUL>
0

>  <SCORE.INTRA.REPUL.0>
0

>  <SCORE.INTRA.SOLV>
-0.0351199

>  <SCORE.INTRA.SOLV.lig_0>
-32.2894

>  <SCORE.INTRA.VDW>
-2.6718

>  <SCORE.INTRA.VDW.0>
2.0241

>  <SCORE.INTRA.norm>
-0.144831

>  <SCORE.RESTR>
0

>  <SCORE.RESTR.CAVITY>
0

>  <SCORE.RESTR.norm>
0

>  <SCORE.SYSTEM>
0

>  <SCORE.SYSTEM.CONST>
0

>  <SCORE.SYSTEM.DIHEDRAL>
0

>  <SCORE.SYSTEM.SOLV>
0

>  <SCORE.SYSTEM.norm>
0

>  <SCORE.heavy>
12

>  <SCORE.norm>
-1.10987

>  <RMSD>
19.745

$$$$
ligand
 OpenBabel11021811513D
libRbt.so/2013.1/901 2013/11/27
 12 12  0  0  0  0  0  0  0  0999 V2000
   10.6035   -2.2594  -16.0288 O   0  0  0  0  0  0  0  0  0  0  0  0
   12.7954    4.2692  -14.0732 O   0  0  0  0  0  0  0  0  0  0  0  0
   11.0196   -2.3690  -14.7195 C   0  0  0  0  0  0  0  0  0  0  0  0
   14.7798    3.6341  -12.8063 O   0  0  0  0  0  0  0  0  0  0  0  0
   11.1380   -1.0739  -14.0272 C   0  0  0  0  0  0  0  0  0  0  0  0
   12.5722    3.2426  -11.8685 O   0  5  0  0  0  0  0  0  0  0  0  0
   11.9256   -0.1088  -14.8058 N   0  3  0  0  0  0  0  0  0  0  0  0
   11.4131   -0.0178  -16.1488 C   0  0  0  0  0  0  0  0  0  0  0  0
   11.3097   -1.3657  -16.7838 C   0  0  0  0  0  0  0  0  0  0  0  0
   11.9089    1.1678  -14.1573 C   0  0  0  0  0  0  0  0  0  0  0  0
   13.3627    1.6247  -13.8758 C   0  0  0  0  0  0  0  0  0  0  0  0
   13.3643    3.2652  -13.1241 S   0  0  1  0  0  0  0  0  0  0  0  0
  1  3  1  0  0  0  0
  1  9  1  0  0  0  0
  2 12  1  0  0  0  0
  3  5  1  0  0  0  0
  4 12  2  0  0  0  0
  5  7  1  0  0  0  0
  6 12  2  0  0  0  0
  7  8  1  0  0  0  0
  7 10  1  0  0  0  0
  8  9  1  0  0  0  0
 10 11  1  0  0  0  0
 12 11  1  6  0  0  0
M  CHG  2   6  -1   7   1
M  END
>  <CHROM.1>
123.31943112,177.51492163,-63.45551579,12.31298820,1.11627940,-14.22532361
-2.85883567,1.15425357,1.73765818

>  <Name>
ligand

>  <RI>
0

>  <Rbt.Current_Directory>
/home/itssahil/PROJECTS/Mol_Feturizer/New_Systems/rnas/4P95

>  <Rbt.Executable>
rbdock ($Id: //depot/dev/client3/rdock/2013.1/src/exe/rbdock.cxx#4 $)

>  <Rbt.Library>
libRbt.so (2013.1, Build901 2013/11/27)

>  <Rbt.Parameter_File>
/export/apps/rDock/src/rDock_2013.1_src/data/scripts/dock_solv.prm

>  <Rbt.Receptor>
prm/blind_docking_100.prm

>  <SCORE>
-13.4674

>  <SCORE.INTER>
-11.7986

>  <SCORE.INTER.CONST>
1

>  <SCORE.INTER.POLAR>
0

>  <SCORE.INTER.ROT>
3

>  <SCORE.INTER.SOLV>
8.55436

>  <SCORE.INTER.VDW>
-16.3172

>  <SCORE.INTER.norm>
-0.98322

>  <SCORE.INTRA>
-1.66877

>  <SCORE.INTRA.DIHEDRAL>
2.12572

>  <SCORE.INTRA.DIHEDRAL.0>
0.283163

>  <SCORE.INTRA.POLAR>
0

>  <SCORE.INTRA.POLAR.0>
0

>  <SCORE.INTRA.REPUL>
0

>  <SCORE.INTRA.REPUL.0>
0

>  <SCORE.INTRA.SOLV>
-0.0354123

>  <SCORE.INTRA.SOLV.lig_0>
-32.2894

>  <SCORE.INTRA.VDW>
-2.71393

>  <SCORE.INTRA.VDW.0>
2.0241

>  <SCORE.INTRA.norm>
-0.139065

>  <SCORE.RESTR>
0

>  <SCORE.RESTR.CAVITY>
0

>  <SCORE.RESTR.norm>
0

>  <SCORE.SYSTEM>
0

>  <SCORE.SYSTEM.CONST>
0

>  <SCORE.SYSTEM.DIHEDRAL>
0

>  <SCORE.SYSTEM.SOLV>
0

>  <SCORE.SYSTEM.norm>
0

>  <SCORE.heavy>
12

>  <SCORE.norm>
-1.12228

>  <RMSD>
19.752

$$$$
ligand
 OpenBabel11021811513D
libRbt.so/2013.1/901 2013/11/27
 12 12  0  0  0  0  0  0  0  0999 V2000
   10.7296   -2.2730  -15.8140 O   0  0  0  0  0  0  0  0  0  0  0  0
   12.8401    4.8811  -13.1896 O   0  0  0  0  0  0  0  0  0  0  0  0
   10.3635   -1.0645  -16.3661 C   0  0  0  0  0  0  0  0  0  0  0  0
   14.4732    3.4242  -14.2653 O   0  0  0  0  0  0  0  0  0  0  0  0
   11.3195    0.0230  -16.0935 C   0  0  0  0  0  0  0  0  0  0  0  0
   13.8665    3.0496  -11.9419 O   0  5  0  0  0  0  0  0  0  0  0  0
   11.6480    0.1154  -14.6647 N   0  3  0  0  0  0  0  0  0  0  0  0
   12.0571   -1.1720  -14.1647 C   0  0  0  0  0  0  0  0  0  0  0  0
   11.0484   -2.2256  -14.4859 C   0  0  0  0  0  0  0  0  0  0  0  0
   12.6701    1.0979  -14.4636 C   0  0  0  0  0  0  0  0  0  0  0  0
   12.0524    2.3627  -13.8152 C   0  0  0  0  0  0  0  0  0  0  0  0
   13.3581    3.4818  -13.2683 S   0  0  1  0  0  0  0  0  0  0  0  0
  1  3  1  0  0  0  0
  1  9  1  0  0  0  0
  2 12  1  0  0  0  0
  3  5  1  0  0  0  0
  4 12  2  0  0  0  0
  5  7  1  0  0  0  0
  6 12  2  0  0  0  0
  7  8  1  0  0  0  0
  7 10  1  0  0  0  0
  8  9  1  0  0  0  0
 10 11  1  0  0  0  0
 12 11  1  6  0  0  0
M  CHG  2   6  -1   7   1
M  END
>  <CHROM.1>
106.76393285,169.29832508,156.10827128,12.34107192,1.26052618,-14.25131236
-2.47860917,-1.03594898,-0.42447515

>  <Name>
ligand

>  <RI>
0

>  <Rbt.Current_Directory>
/home/itssahil/PROJECTS/Mol_Feturizer/New_Systems/rnas/4P95

>  <Rbt.Executable>
rbdock ($Id: //depot/dev/client3/rdock/2013.1/src/exe/rbdock.cxx#4 $)

>  <Rbt.Library>
libRbt.so (2013.1, Build901 2013/11/27)

>  <Rbt.Parameter_File>
/export/apps/rDock/src/rDock_2013.1_src/data/scripts/dock_solv.prm

>  <Rbt.Receptor>
prm/blind_docking_100.prm

>  <SCORE>
-13.0751

>  <SCORE.INTER>
-12.2787

>  <SCORE.INTER.CONST>
1

>  <SCORE.INTER.POLAR>
0

>  <SCORE.INTER.ROT>
3

>  <SCORE.INTER.SOLV>
8.02405

>  <SCORE.INTER.VDW>
-16.4605

>  <SCORE.INTER.norm>
-1.02322

>  <SCORE.INTRA>
-0.796484

>  <SCORE.INTRA.DIHEDRAL>
3.47694

>  <SCORE.INTRA.DIHEDRAL.0>
0.283163

>  <SCORE.INTRA.POLAR>
0

>  <SCORE.INTRA.POLAR.0>
0

>  <SCORE.INTRA.REPUL>
0

>  <SCORE.INTRA.REPUL.0>
0

>  <SCORE.INTRA.SOLV>
-0.0401808

>  <SCORE.INTRA.SOLV.lig_0>
-32.2894

>  <SCORE.INTRA.VDW>
-2.51486

>  <SCORE.INTRA.VDW.0>
2.0241

>  <SCORE.INTRA.norm>
-0.0663736

>  <SCORE.RESTR>
0

>  <SCORE.RESTR.CAVITY>
0

>  <SCORE.RESTR.norm>
0

>  <SCORE.SYSTEM>
0

>  <SCORE.SYSTEM.CONST>
0

>  <SCORE.SYSTEM.DIHEDRAL>
0

>  <SCORE.SYSTEM.SOLV>
0

>  <SCORE.SYSTEM.norm>
0

>  <SCORE.heavy>
12

>  <SCORE.norm>
-1.0896

>  <RMSD>
19.752

$$$$
ligand
 OpenBabel11021811513D
libRbt.so/2013.1/901 2013/11/27
 12 12  0  0  0  0  0  0  0  0999 V2000
   10.6919   -2.2601  -16.1253 O   0  0  0  0  0  0  0  0  0  0  0  0
   13.0197    4.2427  -14.0979 O   0  0  0  0  0  0  0  0  0  0  0  0
   10.1261   -1.0283  -16.3743 C   0  0  0  0  0  0  0  0  0  0  0  0
   14.5340    2.7495  -12.9047 O   0  0  0  0  0  0  0  0  0  0  0  0
   11.0036    0.1046  -16.0316 C   0  0  0  0  0  0  0  0  0  0  0  0
   12.8097    3.9492  -11.6824 O   0  5  0  0  0  0  0  0  0  0  0  0
   11.5477   -0.0182  -14.6726 N   0  3  0  0  0  0  0  0  0  0  0  0
   12.1549   -1.3123  -14.4956 C   0  0  0  0  0  0  0  0  0  0  0  0
   11.2145   -2.4101  -14.8715 C   0  0  0  0  0  0  0  0  0  0  0  0
   12.4887    1.0333  -14.4291 C   0  0  0  0  0  0  0  0  0  0  0  0
   12.0171    1.8808  -13.2204 C   0  0  0  0  0  0  0  0  0  0  0  0
   13.1337    3.2751  -12.9651 S   0  0  1  0  0  0  0  0  0  0  0  0
  1  3  1  0  0  0  0
  1  9  1  0  0  0  0
  2 12  1  0  0  0  0
  3  5  1  0  0  0  0
  4 12  2  0  0  0  0
  5  7  1  0  0  0  0
  6 12  2  0  0  0  0
  7  8  1  0  0  0  0
  7 10  1  0  0  0  0
  8  9  1  0  0  0  0
 10 11  1  0  0  0  0
 12 11  1  6  0  0  0
M  CHG  2   6  -1   7   1
M  END
>  <CHROM.1>
120.47601805,-176.32256297,67.77764329,12.18990860,1.12936764,-14.17128050
2.23358209,0.91987779,3.09189543

>  <Name>
ligand

>  <RI>
0

>  <Rbt.Current_Directory>
/home/itssahil/PROJECTS/Mol_Feturizer/New_Systems/rnas/4P95

>  <Rbt.Executable>
rbdock ($Id: //depot/dev/client3/rdock/2013.1/src/exe/rbdock.cxx#4 $)

>  <Rbt.Library>
libRbt.so (2013.1, Build901 2013/11/27)

>  <Rbt.Parameter_File>
/export/apps/rDock/src/rDock_2013.1_src/data/scripts/dock_solv.prm

>  <Rbt.Receptor>
prm/blind_docking_100.prm

>  <SCORE>
-12.9237

>  <SCORE.INTER>
-11.0638

>  <SCORE.INTER.CONST>
1

>  <SCORE.INTER.POLAR>
0

>  <SCORE.INTER.ROT>
3

>  <SCORE.INTER.SOLV>
7.68384

>  <SCORE.INTER.VDW>
-15.5372

>  <SCORE.INTER.norm>
-0.921985

>  <SCORE.INTRA>
-1.85984

>  <SCORE.INTRA.DIHEDRAL>
2.33639

>  <SCORE.INTRA.DIHEDRAL.0>
0.283163

>  <SCORE.INTRA.POLAR>
0

>  <SCORE.INTRA.POLAR.0>
0

>  <SCORE.INTRA.REPUL>
0

>  <SCORE.INTRA.REPUL.0>
0

>  <SCORE.INTRA.SOLV>
-0.692742

>  <SCORE.INTRA.SOLV.lig_0>
-32.2894

>  <SCORE.INTRA.VDW>
-2.68167

>  <SCORE.INTRA.VDW.0>
2.0241

>  <SCORE.INTRA.norm>
-0.154987

>  <SCORE.RESTR>
0

>  <SCORE.RESTR.CAVITY>
0

>  <SCORE.RESTR.norm>
0

>  <SCORE.SYSTEM>
0

>  <SCORE.SYSTEM.CONST>
0

>  <SCORE.SYSTEM.DIHEDRAL>
0

>  <SCORE.SYSTEM.SOLV>
0

>  <SCORE.SYSTEM.norm>
0

>  <SCORE.heavy>
12

>  <SCORE.norm>
-1.07697

>  <RMSD>
19.757

$$$$
ligand
 OpenBabel11021811513D
libRbt.so/2013.1/901 2013/11/27
 12 12  0  0  0  0  0  0  0  0999 V2000
   10.6570   -2.1699  -15.9383 O   0  0  0  0  0  0  0  0  0  0  0  0
   12.7917    4.8790  -13.3281 O   0  0  0  0  0  0  0  0  0  0  0  0
   10.2509   -0.8907  -16.2513 C   0  0  0  0  0  0  0  0  0  0  0  0
   14.4708    3.3806  -14.2674 O   0  0  0  0  0  0  0  0  0  0  0  0
   11.2229    0.1480  -15.8676 C   0  0  0  0  0  0  0  0  0  0  0  0
   13.8005    3.1380  -11.9440 O   0  5  0  0  0  0  0  0  0  0  0  0
   11.6534    0.0030  -14.4705 N   0  3  0  0  0  0  0  0  0  0  0  0
   12.0987   -1.3446  -14.2251 C   0  0  0  0  0  0  0  0  0  0  0  0
   11.0705   -2.3424  -14.6472 C   0  0  0  0  0  0  0  0  0  0  0  0
   12.6863    0.9511  -14.1795 C   0  0  0  0  0  0  0  0  0  0  0  0
   12.0492    2.3182  -13.8236 C   0  0  0  0  0  0  0  0  0  0  0  0
   13.3265    3.4840  -13.3078 S   0  0  1  0  0  0  0  0  0  0  0  0
  1  3  1  0  0  0  0
  1  9  1  0  0  0  0
  2 12  1  0  0  0  0
  3  5  1  0  0  0  0
  4 12  2  0  0  0  0
  5  7  1  0  0  0  0
  6 12  2  0  0  0  0
  7  8  1  0  0  0  0
  7 10  1  0  0  0  0
  8  9  1  0  0  0  0
 10 11  1  0  0  0  0
 12 11  1  6  0  0  0
M  CHG  2   6  -1   7   1
M  END
>  <CHROM.1>
83.35921671,174.85423704,164.43231425,12.31107299,1.25163148,-14.23734536
2.30300100,0.92441766,2.91725367

>  <Name>
ligand

>  <RI>
0

>  <Rbt.Current_Directory>
/home/itssahil/PROJECTS/Mol_Feturizer/New_Systems/rnas/4P95

>  <Rbt.Executable>
rbdock ($Id: //depot/dev/client3/rdock/2013.1/src/exe/rbdock.cxx#4 $)

>  <Rbt.Library>
libRbt.so (2013.1, Build901 2013/11/27)

>  <Rbt.Parameter_File>
/export/apps/rDock/src/rDock_2013.1_src/data/scripts/dock_solv.prm

>  <Rbt.Receptor>
prm/blind_docking_40.prm

>  <SCORE>
-14.0006

>  <SCORE.INTER>
-12.4979

>  <SCORE.INTER.CONST>
1

>  <SCORE.INTER.POLAR>
0

>  <SCORE.INTER.ROT>
3

>  <SCORE.INTER.SOLV>
8.01326

>  <SCORE.INTER.VDW>
-16.603

>  <SCORE.INTER.norm>
-1.04149

>  <SCORE.INTRA>
-1.50267

>  <SCORE.INTRA.DIHEDRAL>
1.19468

>  <SCORE.INTRA.DIHEDRAL.0>
0.283163

>  <SCORE.INTRA.POLAR>
0

>  <SCORE.INTRA.POLAR.0>
0

>  <SCORE.INTRA.REPUL>
0

>  <SCORE.INTRA.REPUL.0>
0

>  <SCORE.INTRA.SOLV>
0.0371855

>  <SCORE.INTRA.SOLV.lig_0>
-32.2894

>  <SCORE.INTRA.VDW>
-2.1186

>  <SCORE.INTRA.VDW.0>
2.0241

>  <SCORE.INTRA.norm>
-0.125223

>  <SCORE.RESTR>
0

>  <SCORE.RESTR.CAVITY>
0

>  <SCORE.RESTR.norm>
0

>  <SCORE.SYSTEM>
0

>  <SCORE.SYSTEM.CONST>
0

>  <SCORE.SYSTEM.DIHEDRAL>
0

>  <SCORE.SYSTEM.SOLV>
0

>  <SCORE.SYSTEM.norm>
0

>  <SCORE.heavy>
12

>  <SCORE.norm>
-1.16672

>  <RMSD>
19.758

$$$$
ligand
 OpenBabel11021811513D
libRbt.so/2013.1/901 2013/11/27
 12 12  0  0  0  0  0  0  0  0999 V2000
   10.7059   -2.4810  -15.8354 O   0  0  0  0  0  0  0  0  0  0  0  0
   12.0392    3.9618  -13.3065 O   0  0  0  0  0  0  0  0  0  0  0  0
   10.9547   -2.3302  -14.4883 C   0  0  0  0  0  0  0  0  0  0  0  0
   14.3301    3.5686  -14.0439 O   0  0  0  0  0  0  0  0  0  0  0  0
   11.0878   -0.9248  -14.0661 C   0  0  0  0  0  0  0  0  0  0  0  0
   13.7734    3.3889  -11.6850 O   0  5  0  0  0  0  0  0  0  0  0  0
   12.0326   -0.1871  -14.9152 N   0  3  0  0  0  0  0  0  0  0  0  0
   11.6909   -0.3585  -16.3040 C   0  0  0  0  0  0  0  0  0  0  0  0
   11.5619   -1.8039  -16.6577 C   0  0  0  0  0  0  0  0  0  0  0  0
   12.0357    1.1974  -14.5496 C   0  0  0  0  0  0  0  0  0  0  0  0
   12.9344    1.4020  -13.3038 C   0  0  0  0  0  0  0  0  0  0  0  0
   13.2751    3.1579  -13.0645 S   0  0  1  0  0  0  0  0  0  0  0  0
  1  3  1  0  0  0  0
  1  9  1  0  0  0  0
  2 12  1  0  0  0  0
  3  5  1  0  0  0  0
  4 12  2  0  0  0  0
  5  7  1  0  0  0  0
  6 12  2  0  0  0  0
  7  8  1  0  0  0  0
  7 10  1  0  0  0  0
  8  9  1  0  0  0  0
 10 11  1  0  0  0  0
 12 11  1  6  0  0  0
M  CHG  2   6  -1   7   1
M  END
>  <CHROM.1>
80.99203936,166.37299661,41.66162280,12.32219916,0.99936470,-14.20635097
2.50399272,-1.11151242,-1.79152170

>  <Name>
ligand

>  <RI>
0

>  <Rbt.Current_Directory>
/home/itssahil/PROJECTS/Mol_Feturizer/New_Systems/rnas/4P95

>  <Rbt.Executable>
rbdock ($Id: //depot/dev/client3/rdock/2013.1/src/exe/rbdock.cxx#4 $)

>  <Rbt.Library>
libRbt.so (2013.1, Build901 2013/11/27)

>  <Rbt.Parameter_File>
/export/apps/rDock/src/rDock_2013.1_src/data/scripts/dock_solv.prm

>  <Rbt.Receptor>
prm/blind_docking_40.prm

>  <SCORE>
-12.3131

>  <SCORE.INTER>
-10.8241

>  <SCORE.INTER.CONST>
1

>  <SCORE.INTER.POLAR>
0

>  <SCORE.INTER.ROT>
3

>  <SCORE.INTER.SOLV>
8.41392

>  <SCORE.INTER.VDW>
-15.6207

>  <SCORE.INTER.norm>
-0.902007

>  <SCORE.INTRA>
-1.48901

>  <SCORE.INTRA.DIHEDRAL>
1.82521

>  <SCORE.INTRA.DIHEDRAL.0>
0.283163

>  <SCORE.INTRA.POLAR>
0

>  <SCORE.INTRA.POLAR.0>
0

>  <SCORE.INTRA.REPUL>
0

>  <SCORE.INTRA.REPUL.0>
0

>  <SCORE.INTRA.SOLV>
-0.73301

>  <SCORE.INTRA.SOLV.lig_0>
-32.2894

>  <SCORE.INTRA.VDW>
-2.03511

>  <SCORE.INTRA.VDW.0>
2.0241

>  <SCORE.INTRA.norm>
-0.124084

>  <SCORE.RESTR>
0

>  <SCORE.RESTR.CAVITY>
0

>  <SCORE.RESTR.norm>
0

>  <SCORE.SYSTEM>
0

>  <SCORE.SYSTEM.CONST>
0

>  <SCORE.SYSTEM.DIHEDRAL>
0

>  <SCORE.SYSTEM.SOLV>
0

>  <SCORE.SYSTEM.norm>
0

>  <SCORE.heavy>
12

>  <SCORE.norm>
-1.02609

>  <RMSD>
19.769

$$$$
ligand
 OpenBabel11021811513D
libRbt.so/2013.1/901 2013/11/27
 12 12  0  0  0  0  0  0  0  0999 V2000
   -0.2325   10.4569  -16.1386 O   0  0  0  0  0  0  0  0  0  0  0  0
    1.3007    6.2068  -14.7584 O   0  0  0  0  0  0  0  0  0  0  0  0
   -0.3358    9.0918  -16.2977 C   0  0  0  0  0  0  0  0  0  0  0  0
   -0.6877    5.2492  -13.7211 O   0  0  0  0  0  0  0  0  0  0  0  0
   -0.7156    8.3806  -15.0645 C   0  0  0  0  0  0  0  0  0  0  0  0
    1.5174    4.5971  -12.9345 O   0  5  0  0  0  0  0  0  0  0  0  0
    0.1310    8.7682  -13.9283 N   0  3  0  0  0  0  0  0  0  0  0  0
    0.1630   10.2024  -13.7990 C   0  0  0  0  0  0  0  0  0  0  0  0
    0.5435   10.8561  -15.0869 C   0  0  0  0  0  0  0  0  0  0  0  0
   -0.3514    8.1506  -12.7299 C   0  0  0  0  0  0  0  0  0  0  0  0
    0.6509    7.0624  -12.2684 C   0  0  0  0  0  0  0  0  0  0  0  0
    0.7113    5.7212  -13.4742 S   0  0  1  0  0  0  0  0  0  0  0  0
  1  3  1  0  0  0  0
  1  9  1  0  0  0  0
  2 12  1  0  0  0  0
  3  5  1  0  0  0  0
  4 12  2  0  0  0  0
  5  7  1  0  0  0  0
  6 12  2  0  0  0  0
  7  8  1  0  0  0  0
  7 10  1  0  0  0  0
  8  9  1  0  0  0  0
 10 11  1  0  0  0  0
 12 11  1  1  0  0  0
M  CHG  2   6  -1   7   1
M  END
>  <CHROM.1>
110.07679467,-65.63090835,66.71046407,0.27992236,7.64183271,-14.12594524
2.77406958,-1.40531796,0.79758094

>  <Name>
ligand

>  <RI>
0

>  <Rbt.Current_Directory>
/home/itssahil/PROJECTS/Mol_Feturizer/New_Systems/rnas/4P95

>  <Rbt.Executable>
rbdock ($Id: //depot/dev/client3/rdock/2013.1/src/exe/rbdock.cxx#4 $)

>  <Rbt.Library>
libRbt.so (2013.1, Build901 2013/11/27)

>  <Rbt.Parameter_File>
/export/apps/rDock/src/rDock_2013.1_src/data/scripts/dock_solv.prm

>  <Rbt.Receptor>
prm/blind_docking_60.prm

>  <SCORE>
-11.2564

>  <SCORE.INTER>
-8.79631

>  <SCORE.INTER.CONST>
1

>  <SCORE.INTER.POLAR>
0

>  <SCORE.INTER.ROT>
3

>  <SCORE.INTER.SOLV>
6.91154

>  <SCORE.INTER.VDW>
-13.7681

>  <SCORE.INTER.norm>
-0.733026

>  <SCORE.INTRA>
-2.46014

>  <SCORE.INTRA.DIHEDRAL>
2.243

>  <SCORE.INTRA.DIHEDRAL.0>
0.283163

>  <SCORE.INTRA.POLAR>
0

>  <SCORE.INTRA.POLAR.0>
0

>  <SCORE.INTRA.REPUL>
0

>  <SCORE.INTRA.REPUL.0>
0

>  <SCORE.INTRA.SOLV>
-0.390853

>  <SCORE.INTRA.SOLV.lig_0>
-32.2894

>  <SCORE.INTRA.VDW>
-3.38621

>  <SCORE.INTRA.VDW.0>
2.0241

>  <SCORE.INTRA.norm>
-0.205011

>  <SCORE.RESTR>
0

>  <SCORE.RESTR.CAVITY>
0

>  <SCORE.RESTR.norm>
0

>  <SCORE.SYSTEM>
0

>  <SCORE.SYSTEM.CONST>
0

>  <SCORE.SYSTEM.DIHEDRAL>
0

>  <SCORE.SYSTEM.SOLV>
0

>  <SCORE.SYSTEM.norm>
0

>  <SCORE.heavy>
12

>  <SCORE.norm>
-0.938037

>  <RMSD>
19.780

$$$$
ligand
 OpenBabel11021811513D
libRbt.so/2013.1/901 2013/11/27
 12 12  0  0  0  0  0  0  0  0999 V2000
   11.0504   -2.4371  -16.5424 O   0  0  0  0  0  0  0  0  0  0  0  0
   11.5896    2.4115  -11.4558 O   0  0  0  0  0  0  0  0  0  0  0  0
   11.3263   -2.7228  -15.2227 C   0  0  0  0  0  0  0  0  0  0  0  0
   11.9405    3.9935  -13.2780 O   0  0  0  0  0  0  0  0  0  0  0  0
   11.1566   -1.5699  -14.3210 C   0  0  0  0  0  0  0  0  0  0  0  0
   13.8171    3.3129  -11.8918 O   0  5  0  0  0  0  0  0  0  0  0  0
   11.8639   -0.3813  -14.8158 N   0  3  0  0  0  0  0  0  0  0  0  0
   11.5004   -0.1209  -16.1850 C   0  0  0  0  0  0  0  0  0  0  0  0
   11.6867   -1.3334  -17.0371 C   0  0  0  0  0  0  0  0  0  0  0  0
   11.5698    0.7427  -13.9789 C   0  0  0  0  0  0  0  0  0  0  0  0
   12.8784    1.5116  -13.6656 C   0  0  0  0  0  0  0  0  0  0  0  0
   12.5467    2.8591  -12.5121 S   0  0  1  0  0  0  0  0  0  0  0  0
  1  3  1  0  0  0  0
  1  9  1  0  0  0  0
  2 12  1  0  0  0  0
  3  5  1  0  0  0  0
  4 12  2  0  0  0  0
  5  7  1  0  0  0  0
  6 12  2  0  0  0  0
  7  8  1  0  0  0  0
  7 10  1  0  0  0  0
  8  9  1  0  0  0  0
 10 11  1  0  0  0  0
 12 11  1  6  0  0  0
M  CHG  2   6  -1   7   1
M  END
>  <CHROM.1>
134.96506730,-175.77442539,40.89641659,11.97727859,0.79196767,-14.04288666
-2.45259672,1.30727389,1.50108009

>  <Name>
ligand

>  <RI>
0

>  <Rbt.Current_Directory>
/home/itssahil/PROJECTS/Mol_Feturizer/New_Systems/rnas/4P95

>  <Rbt.Executable>
rbdock ($Id: //depot/dev/client3/rdock/2013.1/src/exe/rbdock.cxx#4 $)

>  <Rbt.Library>
libRbt.so (2013.1, Build901 2013/11/27)

>  <Rbt.Parameter_File>
/export/apps/rDock/src/rDock_2013.1_src/data/scripts/dock_solv.prm

>  <Rbt.Receptor>
prm/blind_docking_100.prm

>  <SCORE>
-12.646

>  <SCORE.INTER>
-11.0005

>  <SCORE.INTER.CONST>
1

>  <SCORE.INTER.POLAR>
0

>  <SCORE.INTER.ROT>
3

>  <SCORE.INTER.SOLV>
8.76249

>  <SCORE.INTER.VDW>
-15.8545

>  <SCORE.INTER.norm>
-0.916709

>  <SCORE.INTRA>
-1.64544

>  <SCORE.INTRA.DIHEDRAL>
2.55632

>  <SCORE.INTRA.DIHEDRAL.0>
0.283163

>  <SCORE.INTRA.POLAR>
0

>  <SCORE.INTRA.POLAR.0>
0

>  <SCORE.INTRA.REPUL>
0

>  <SCORE.INTRA.REPUL.0>
0

>  <SCORE.INTRA.SOLV>
-0.739003

>  <SCORE.INTRA.SOLV.lig_0>
-32.2894

>  <SCORE.INTRA.VDW>
-2.5541

>  <SCORE.INTRA.VDW.0>
2.0241

>  <SCORE.INTRA.norm>
-0.13712

>  <SCORE.RESTR>
0

>  <SCORE.RESTR.CAVITY>
0

>  <SCORE.RESTR.norm>
0

>  <SCORE.SYSTEM>
0

>  <SCORE.SYSTEM.CONST>
0

>  <SCORE.SYSTEM.DIHEDRAL>
0

>  <SCORE.SYSTEM.SOLV>
0

>  <SCORE.SYSTEM.norm>
0

>  <SCORE.heavy>
12

>  <SCORE.norm>
-1.05383

>  <RMSD>
19.789

$$$$
ligand
 OpenBabel11021811513D
libRbt.so/2013.1/901 2013/11/27
 12 12  0  0  0  0  0  0  0  0999 V2000
    3.2091   13.0388  -21.2558 O   0  0  0  0  0  0  0  0  0  0  0  0
    7.4690   19.4290  -19.2808 O   0  0  0  0  0  0  0  0  0  0  0  0
    2.7873   14.0104  -20.3741 C   0  0  0  0  0  0  0  0  0  0  0  0
    6.0055   19.5300  -21.2287 O   0  0  0  0  0  0  0  0  0  0  0  0
    3.3723   15.3375  -20.6337 C   0  0  0  0  0  0  0  0  0  0  0  0
    8.1077   18.3175  -21.3597 O   0  5  0  0  0  0  0  0  0  0  0  0
    4.8337   15.2729  -20.7677 N   0  3  0  0  0  0  0  0  0  0  0  0
    5.2004   14.2655  -21.7297 C   0  0  0  0  0  0  0  0  0  0  0  0
    4.5641   12.9523  -21.4112 C   0  0  0  0  0  0  0  0  0  0  0  0
    5.3447   16.5571  -21.1420 C   0  0  0  0  0  0  0  0  0  0  0  0
    6.1134   17.1770  -19.9476 C   0  0  0  0  0  0  0  0  0  0  0  0
    6.9728   18.6748  -20.4713 S   0  0  1  0  0  0  0  0  0  0  0  0
  1  3  1  0  0  0  0
  1  9  1  0  0  0  0
  2 12  1  0  0  0  0
  3  5  1  0  0  0  0
  4 12  2  0  0  0  0
  5  7  1  0  0  0  0
  6 12  2  0  0  0  0
  7  8  1  0  0  0  0
  7 10  1  0  0  0  0
  8  9  1  0  0  0  0
 10 11  1  0  0  0  0
 12 11  1  1  0  0  0
M  CHG  2   6  -1   7   1
M  END
>  <CHROM.1>
109.23941442,171.49816703,167.99534053,5.51927483,16.49765388,-20.76889267
-2.18906723,0.34815776,0.35554749

>  <Name>
ligand

>  <RI>
0

>  <Rbt.Current_Directory>
/home/itssahil/PROJECTS/Mol_Feturizer/New_Systems/rnas/4P95

>  <Rbt.Executable>
rbdock ($Id: //depot/dev/client3/rdock/2013.1/src/exe/rbdock.cxx#4 $)

>  <Rbt.Library>
libRbt.so (2013.1, Build901 2013/11/27)

>  <Rbt.Parameter_File>
/export/apps/rDock/src/rDock_2013.1_src/data/scripts/dock_solv.prm

>  <Rbt.Receptor>
prm/blind_docking_80.prm

>  <SCORE>
-12.717

>  <SCORE.INTER>
-11.3824

>  <SCORE.INTER.CONST>
1

>  <SCORE.INTER.POLAR>
0

>  <SCORE.INTER.ROT>
3

>  <SCORE.INTER.SOLV>
6.77027

>  <SCORE.INTER.VDW>
-15.445

>  <SCORE.INTER.norm>
-0.94853

>  <SCORE.INTRA>
-1.33464

>  <SCORE.INTRA.DIHEDRAL>
2.54192

>  <SCORE.INTRA.DIHEDRAL.0>
0.283163

>  <SCORE.INTRA.POLAR>
0

>  <SCORE.INTRA.POLAR.0>
0

>  <SCORE.INTRA.REPUL>
0

>  <SCORE.INTRA.REPUL.0>
0

>  <SCORE.INTRA.SOLV>
0.0621826

>  <SCORE.INTRA.SOLV.lig_0>
-32.2894

>  <SCORE.INTRA.VDW>
-2.63669

>  <SCORE.INTRA.VDW.0>
2.0241

>  <SCORE.INTRA.norm>
-0.11122

>  <SCORE.RESTR>
0

>  <SCORE.RESTR.CAVITY>
0

>  <SCORE.RESTR.norm>
0

>  <SCORE.SYSTEM>
0

>  <SCORE.SYSTEM.CONST>
0

>  <SCORE.SYSTEM.DIHEDRAL>
0

>  <SCORE.SYSTEM.SOLV>
0

>  <SCORE.SYSTEM.norm>
0

>  <SCORE.heavy>
12

>  <SCORE.norm>
-1.05975

>  <RMSD>
19.790

$$$$
ligand
 OpenBabel11021811513D
libRbt.so/2013.1/901 2013/11/27
 12 12  0  0  0  0  0  0  0  0999 V2000
    3.1953   13.0280  -21.2597 O   0  0  0  0  0  0  0  0  0  0  0  0
    7.3942   19.4345  -19.2224 O   0  0  0  0  0  0  0  0  0  0  0  0
    2.7726   13.9839  -20.3615 C   0  0  0  0  0  0  0  0  0  0  0  0
    6.0211   19.4746  -21.2372 O   0  0  0  0  0  0  0  0  0  0  0  0
    3.3504   15.3176  -20.6028 C   0  0  0  0  0  0  0  0  0  0  0  0
    8.1476   18.2981  -21.2487 O   0  5  0  0  0  0  0  0  0  0  0  0
    4.8116   15.2619  -20.7437 N   0  3  0  0  0  0  0  0  0  0  0  0
    5.1790   14.2712  -21.7226 C   0  0  0  0  0  0  0  0  0  0  0  0
    4.5500   12.9503  -21.4219 C   0  0  0  0  0  0  0  0  0  0  0  0
    5.3151   16.5541  -21.1002 C   0  0  0  0  0  0  0  0  0  0  0  0
    6.1099   17.1469  -19.9091 C   0  0  0  0  0  0  0  0  0  0  0  0
    6.9668   18.6505  -20.4204 S   0  0  1  0  0  0  0  0  0  0  0  0
  1  3  1  0  0  0  0
  1  9  1  0  0  0  0
  2 12  1  0  0  0  0
  3  5  1  0  0  0  0
  4 12  2  0  0  0  0
  5  7  1  0  0  0  0
  6 12  2  0  0  0  0
  7  8  1  0  0  0  0
  7 10  1  0  0  0  0
  8  9  1  0  0  0  0
 10 11  1  0  0  0  0
 12 11  1  1  0  0  0
M  CHG  2   6  -1   7   1
M  END
>  <CHROM.1>
110.36285475,171.15439398,163.47569135,5.50636484,16.48076700,-20.73713345
-2.19283025,0.35170416,0.36886023

>  <Name>
ligand

>  <RI>
0

>  <Rbt.Current_Directory>
/home/itssahil/PROJECTS/Mol_Feturizer/New_Systems/rnas/4P95

>  <Rbt.Executable>
rbdock ($Id: //depot/dev/client3/rdock/2013.1/src/exe/rbdock.cxx#4 $)

>  <Rbt.Library>
libRbt.so (2013.1, Build901 2013/11/27)

>  <Rbt.Parameter_File>
/export/apps/rDock/src/rDock_2013.1_src/data/scripts/dock_solv.prm

>  <Rbt.Receptor>
prm/blind_docking_100.prm

>  <SCORE>
-12.7309

>  <SCORE.INTER>
-11.5698

>  <SCORE.INTER.CONST>
1

>  <SCORE.INTER.POLAR>
0

>  <SCORE.INTER.ROT>
3

>  <SCORE.INTER.SOLV>
6.79555

>  <SCORE.INTER.VDW>
-15.5784

>  <SCORE.INTER.norm>
-0.964152

>  <SCORE.INTRA>
-1.1611

>  <SCORE.INTRA.DIHEDRAL>
2.87313

>  <SCORE.INTRA.DIHEDRAL.0>
0.283163

>  <SCORE.INTRA.POLAR>
0

>  <SCORE.INTRA.POLAR.0>
0

>  <SCORE.INTRA.REPUL>
0

>  <SCORE.INTRA.REPUL.0>
0

>  <SCORE.INTRA.SOLV>
0.0237464

>  <SCORE.INTRA.SOLV.lig_0>
-32.2894

>  <SCORE.INTRA.VDW>
-2.60953

>  <SCORE.INTRA.VDW.0>
2.0241

>  <SCORE.INTRA.norm>
-0.0967581

>  <SCORE.RESTR>
0

>  <SCORE.RESTR.CAVITY>
0

>  <SCORE.RESTR.norm>
0

>  <SCORE.SYSTEM>
0

>  <SCORE.SYSTEM.CONST>
0

>  <SCORE.SYSTEM.DIHEDRAL>
0

>  <SCORE.SYSTEM.SOLV>
0

>  <SCORE.SYSTEM.norm>
0

>  <SCORE.heavy>
12

>  <SCORE.norm>
-1.06091

>  <RMSD>
19.794

$$$$
ligand
 OpenBabel11021811513D
libRbt.so/2013.1/901 2013/11/27
 12 12  0  0  0  0  0  0  0  0999 V2000
    3.2087   13.0208  -21.2405 O   0  0  0  0  0  0  0  0  0  0  0  0
    7.4124   19.4232  -19.2169 O   0  0  0  0  0  0  0  0  0  0  0  0
    2.8298   13.9467  -20.2927 C   0  0  0  0  0  0  0  0  0  0  0  0
    5.9655   19.4833  -21.1788 O   0  0  0  0  0  0  0  0  0  0  0  0
    3.3868   15.2909  -20.5245 C   0  0  0  0  0  0  0  0  0  0  0  0
    8.1165   18.3587  -21.2991 O   0  5  0  0  0  0  0  0  0  0  0  0
    4.8386   15.2495  -20.7449 N   0  3  0  0  0  0  0  0  0  0  0  0
    5.1581   14.2908  -21.7713 C   0  0  0  0  0  0  0  0  0  0  0  0
    4.5532   12.9573  -21.4772 C   0  0  0  0  0  0  0  0  0  0  0  0
    5.3154   16.5551  -21.0889 C   0  0  0  0  0  0  0  0  0  0  0  0
    6.1564   17.1245  -19.9184 C   0  0  0  0  0  0  0  0  0  0  0  0
    6.9593   18.6609  -20.4194 S   0  0  1  0  0  0  0  0  0  0  0  0
  1  3  1  0  0  0  0
  1  9  1  0  0  0  0
  2 12  1  0  0  0  0
  3  5  1  0  0  0  0
  4 12  2  0  0  0  0
  5  7  1  0  0  0  0
  6 12  2  0  0  0  0
  7  8  1  0  0  0  0
  7 10  1  0  0  0  0
  8  9  1  0  0  0  0
 10 11  1  0  0  0  0
 12 11  1  1  0  0  0
M  CHG  2   6  -1   7   1
M  END
>  <CHROM.1>
109.72120423,171.94611275,162.65095610,5.51140579,16.48154129,-20.73110988
-2.20144263,0.40560432,0.40482942

>  <Name>
ligand

>  <RI>
0

>  <Rbt.Current_Directory>
/home/itssahil/PROJECTS/Mol_Feturizer/New_Systems/rnas/4P95

>  <Rbt.Executable>
rbdock ($Id: //depot/dev/client3/rdock/2013.1/src/exe/rbdock.cxx#4 $)

>  <Rbt.Library>
libRbt.so (2013.1, Build901 2013/11/27)

>  <Rbt.Parameter_File>
/export/apps/rDock/src/rDock_2013.1_src/data/scripts/dock_solv.prm

>  <Rbt.Receptor>
prm/blind_docking_60.prm

>  <SCORE>
-12.6728

>  <SCORE.INTER>
-11.5145

>  <SCORE.INTER.CONST>
1

>  <SCORE.INTER.POLAR>
0

>  <SCORE.INTER.ROT>
3

>  <SCORE.INTER.SOLV>
6.81599

>  <SCORE.INTER.VDW>
-15.5483

>  <SCORE.INTER.norm>
-0.959541

>  <SCORE.INTRA>
-1.15833

>  <SCORE.INTRA.DIHEDRAL>
2.86458

>  <SCORE.INTRA.DIHEDRAL.0>
0.283163

>  <SCORE.INTRA.POLAR>
0

>  <SCORE.INTRA.POLAR.0>
0

>  <SCORE.INTRA.REPUL>
0

>  <SCORE.INTRA.REPUL.0>
0

>  <SCORE.INTRA.SOLV>
0.0164296

>  <SCORE.INTRA.SOLV.lig_0>
-32.2894

>  <SCORE.INTRA.VDW>
-2.59883

>  <SCORE.INTRA.VDW.0>
2.0241

>  <SCORE.INTRA.norm>
-0.0965273

>  <SCORE.RESTR>
0

>  <SCORE.RESTR.CAVITY>
0

>  <SCORE.RESTR.norm>
0

>  <SCORE.SYSTEM>
0

>  <SCORE.SYSTEM.CONST>
0

>  <SCORE.SYSTEM.DIHEDRAL>
0

>  <SCORE.SYSTEM.SOLV>
0

>  <SCORE.SYSTEM.norm>
0

>  <SCORE.heavy>
12

>  <SCORE.norm>
-1.05607

>  <RMSD>
19.799

$$$$
ligand
 OpenBabel11021811513D
libRbt.so/2013.1/901 2013/11/27
 12 12  0  0  0  0  0  0  0  0999 V2000
   -0.1539   10.4931  -16.1153 O   0  0  0  0  0  0  0  0  0  0  0  0
    1.2684    6.1782  -14.7222 O   0  0  0  0  0  0  0  0  0  0  0  0
   -0.2978    9.1321  -16.2772 C   0  0  0  0  0  0  0  0  0  0  0  0
   -0.8046    5.3372  -13.7517 O   0  0  0  0  0  0  0  0  0  0  0  0
   -0.7078    8.4313  -15.0477 C   0  0  0  0  0  0  0  0  0  0  0  0
    1.3324    4.5522  -12.9010 O   0  5  0  0  0  0  0  0  0  0  0  0
    0.1423    8.7913  -13.9051 N   0  3  0  0  0  0  0  0  0  0  0  0
    0.2173   10.2237  -13.7734 C   0  0  0  0  0  0  0  0  0  0  0  0
    0.6266   10.8671  -15.0577 C   0  0  0  0  0  0  0  0  0  0  0  0
   -0.3671    8.1873  -12.7110 C   0  0  0  0  0  0  0  0  0  0  0  0
    0.5936    7.0624  -12.2490 C   0  0  0  0  0  0  0  0  0  0  0  0
    0.6116    5.7241  -13.4594 S   0  0  1  0  0  0  0  0  0  0  0  0
  1  3  1  0  0  0  0
  1  9  1  0  0  0  0
  2 12  1  0  0  0  0
  3  5  1  0  0  0  0
  4 12  2  0  0  0  0
  5  7  1  0  0  0  0
  6 12  2  0  0  0  0
  7  8  1  0  0  0  0
  7 10  1  0  0  0  0
  8  9  1  0  0  0  0
 10 11  1  0  0  0  0
 12 11  1  1  0  0  0
M  CHG  2   6  -1   7   1
M  END
>  <CHROM.1>
109.72868449,-65.62317998,68.75354927,0.25118091,7.65971618,-14.10728524
2.63705801,-1.43331200,0.66544136

>  <Name>
ligand

>  <RI>
0

>  <Rbt.Current_Directory>
/home/itssahil/PROJECTS/Mol_Feturizer/New_Systems/rnas/4P95

>  <Rbt.Executable>
rbdock ($Id: //depot/dev/client3/rdock/2013.1/src/exe/rbdock.cxx#4 $)

>  <Rbt.Library>
libRbt.so (2013.1, Build901 2013/11/27)

>  <Rbt.Parameter_File>
/export/apps/rDock/src/rDock_2013.1_src/data/scripts/dock_solv.prm

>  <Rbt.Receptor>
prm/blind_docking_60.prm

>  <SCORE>
-11.3589

>  <SCORE.INTER>
-8.91965

>  <SCORE.INTER.CONST>
1

>  <SCORE.INTER.POLAR>
0

>  <SCORE.INTER.ROT>
3

>  <SCORE.INTER.SOLV>
6.60849

>  <SCORE.INTER.VDW>
-13.7493

>  <SCORE.INTER.norm>
-0.743304

>  <SCORE.INTRA>
-2.43924

>  <SCORE.INTRA.DIHEDRAL>
2.31487

>  <SCORE.INTRA.DIHEDRAL.0>
0.283163

>  <SCORE.INTRA.POLAR>
0

>  <SCORE.INTRA.POLAR.0>
0

>  <SCORE.INTRA.REPUL>
0

>  <SCORE.INTRA.REPUL.0>
0

>  <SCORE.INTRA.SOLV>
-0.362

>  <SCORE.INTRA.SOLV.lig_0>
-32.2894

>  <SCORE.INTRA.VDW>
-3.41567

>  <SCORE.INTRA.VDW.0>
2.0241

>  <SCORE.INTRA.norm>
-0.20327

>  <SCORE.RESTR>
0

>  <SCORE.RESTR.CAVITY>
0

>  <SCORE.RESTR.norm>
0

>  <SCORE.SYSTEM>
0

>  <SCORE.SYSTEM.CONST>
0

>  <SCORE.SYSTEM.DIHEDRAL>
0

>  <SCORE.SYSTEM.SOLV>
0

>  <SCORE.SYSTEM.norm>
0

>  <SCORE.heavy>
12

>  <SCORE.norm>
-0.946574

>  <RMSD>
19.811

$$$$
ligand
 OpenBabel11021811513D
libRbt.so/2013.1/901 2013/11/27
 12 12  0  0  0  0  0  0  0  0999 V2000
   14.1370    4.2613  -11.8373 O   0  0  0  0  0  0  0  0  0  0  0  0
   11.6746   -0.1261  -16.9731 O   0  0  0  0  0  0  0  0  0  0  0  0
   14.0934    2.9884  -11.3109 C   0  0  0  0  0  0  0  0  0  0  0  0
   10.2594   -1.5338  -15.5723 O   0  0  0  0  0  0  0  0  0  0  0  0
   13.9842    1.9309  -12.3311 C   0  0  0  0  0  0  0  0  0  0  0  0
   12.6772   -1.7398  -15.4384 O   0  5  0  0  0  0  0  0  0  0  0  0
   12.8983    2.2009  -13.2828 N   0  3  0  0  0  0  0  0  0  0  0  0
   13.0278    3.5311  -13.8201 C   0  0  0  0  0  0  0  0  0  0  0  0
   13.1447    4.5478  -12.7323 C   0  0  0  0  0  0  0  0  0  0  0  0
   12.9093    1.2182  -14.3243 C   0  0  0  0  0  0  0  0  0  0  0  0
   11.5637    0.4496  -14.3254 C   0  0  0  0  0  0  0  0  0  0  0  0
   11.5555   -0.7878  -15.6388 S   0  0  1  0  0  0  0  0  0  0  0  0
  1  3  1  0  0  0  0
  1  9  1  0  0  0  0
  2 12  1  0  0  0  0
  3  5  1  0  0  0  0
  4 12  2  0  0  0  0
  5  7  1  0  0  0  0
  6 12  2  0  0  0  0
  7  8  1  0  0  0  0
  7 10  1  0  0  0  0
  8  9  1  0  0  0  0
 10 11  1  0  0  0  0
 12 11  1  1  0  0  0
M  CHG  2   6  -1   7   1
M  END
>  <CHROM.1>
119.58781318,179.67019782,-62.44843010,12.53857404,1.15882480,-14.16118649
0.83674357,-0.99735379,0.00620562

>  <Name>
ligand

>  <RI>
0

>  <Rbt.Current_Directory>
/home/itssahil/PROJECTS/Mol_Feturizer/New_Systems/rnas/4P95

>  <Rbt.Executable>
rbdock ($Id: //depot/dev/client3/rdock/2013.1/src/exe/rbdock.cxx#4 $)

>  <Rbt.Library>
libRbt.so (2013.1, Build901 2013/11/27)

>  <Rbt.Parameter_File>
/export/apps/rDock/src/rDock_2013.1_src/data/scripts/dock_solv.prm

>  <Rbt.Receptor>
prm/blind_docking_40.prm

>  <SCORE>
-10.3681

>  <SCORE.INTER>
-8.68738

>  <SCORE.INTER.CONST>
1

>  <SCORE.INTER.POLAR>
0

>  <SCORE.INTER.ROT>
3

>  <SCORE.INTER.SOLV>
6.70457

>  <SCORE.INTER.VDW>
-13.6264

>  <SCORE.INTER.norm>
-0.723949

>  <SCORE.INTRA>
-1.68076

>  <SCORE.INTRA.DIHEDRAL>
2.12294

>  <SCORE.INTRA.DIHEDRAL.0>
0.283163

>  <SCORE.INTRA.POLAR>
0

>  <SCORE.INTRA.POLAR.0>
0

>  <SCORE.INTRA.REPUL>
0

>  <SCORE.INTRA.REPUL.0>
0

>  <SCORE.INTRA.SOLV>
-0.0436844

>  <SCORE.INTRA.SOLV.lig_0>
-32.2894

>  <SCORE.INTRA.VDW>
-2.72039

>  <SCORE.INTRA.VDW.0>
2.0241

>  <SCORE.INTRA.norm>
-0.140064

>  <SCORE.RESTR>
0

>  <SCORE.RESTR.CAVITY>
0

>  <SCORE.RESTR.norm>
0

>  <SCORE.SYSTEM>
0

>  <SCORE.SYSTEM.CONST>
0

>  <SCORE.SYSTEM.DIHEDRAL>
0

>  <SCORE.SYSTEM.SOLV>
0

>  <SCORE.SYSTEM.norm>
0

>  <SCORE.heavy>
12

>  <SCORE.norm>
-0.864012

>  <RMSD>
19.858

$$$$
ligand
 OpenBabel11021811513D
libRbt.so/2013.1/901 2013/11/27
 12 12  0  0  0  0  0  0  0  0999 V2000
   10.7822   -2.2784  -15.8632 O   0  0  0  0  0  0  0  0  0  0  0  0
   12.9862    4.3694  -13.7948 O   0  0  0  0  0  0  0  0  0  0  0  0
   10.2297   -1.1008  -16.3184 C   0  0  0  0  0  0  0  0  0  0  0  0
   14.6902    2.7796  -13.0770 O   0  0  0  0  0  0  0  0  0  0  0  0
   11.0650    0.0840  -16.0548 C   0  0  0  0  0  0  0  0  0  0  0  0
   13.1896    3.7630  -11.4377 O   0  5  0  0  0  0  0  0  0  0  0  0
   11.4912    0.1497  -14.6505 N   0  3  0  0  0  0  0  0  0  0  0  0
   12.0916   -1.0983  -14.2547 C   0  0  0  0  0  0  0  0  0  0  0  0
   11.1963   -2.2539  -14.5611 C   0  0  0  0  0  0  0  0  0  0  0  0
   12.3990    1.2420  -14.4687 C   0  0  0  0  0  0  0  0  0  0  0  0
   12.1619    1.8869  -13.0796 C   0  0  0  0  0  0  0  0  0  0  0  0
   13.2964    3.2684  -12.8336 S   0  0  1  0  0  0  0  0  0  0  0  0
  1  3  1  0  0  0  0
  1  9  1  0  0  0  0
  2 12  1  0  0  0  0
  3  5  1  0  0  0  0
  4 12  2  0  0  0  0
  5  7  1  0  0  0  0
  6 12  2  0  0  0  0
  7  8  1  0  0  0  0
  7 10  1  0  0  0  0
  8  9  1  0  0  0  0
 10 11  1  0  0  0  0
 12 11  1  6  0  0  0
M  CHG  2   6  -1   7   1
M  END
>  <CHROM.1>
144.04212953,-179.91464789,66.06086251,12.27153086,1.17193319,-14.04597559
-2.41185834,-1.00708242,-0.24650712

>  <Name>
ligand

>  <RI>
0

>  <Rbt.Current_Directory>
/home/itssahil/PROJECTS/Mol_Feturizer/New_Systems/rnas/4P95

>  <Rbt.Executable>
rbdock ($Id: //depot/dev/client3/rdock/2013.1/src/exe/rbdock.cxx#4 $)

>  <Rbt.Library>
libRbt.so (2013.1, Build901 2013/11/27)

>  <Rbt.Parameter_File>
/export/apps/rDock/src/rDock_2013.1_src/data/scripts/dock_solv.prm

>  <Rbt.Receptor>
prm/blind_docking_80.prm

>  <SCORE>
-13.3802

>  <SCORE.INTER>
-11.2329

>  <SCORE.INTER.CONST>
1

>  <SCORE.INTER.POLAR>
0

>  <SCORE.INTER.ROT>
3

>  <SCORE.INTER.SOLV>
7.21148

>  <SCORE.INTER.VDW>
-15.4924

>  <SCORE.INTER.norm>
-0.936075

>  <SCORE.INTRA>
-2.14726

>  <SCORE.INTRA.DIHEDRAL>
1.3293

>  <SCORE.INTRA.DIHEDRAL.0>
0.283163

>  <SCORE.INTRA.POLAR>
0

>  <SCORE.INTRA.POLAR.0>
0

>  <SCORE.INTRA.REPUL>
0

>  <SCORE.INTRA.REPUL.0>
0

>  <SCORE.INTRA.SOLV>
-0.694679

>  <SCORE.INTRA.SOLV.lig_0>
-32.2894

>  <SCORE.INTRA.VDW>
-2.46457

>  <SCORE.INTRA.VDW.0>
2.0241

>  <SCORE.INTRA.norm>
-0.178938

>  <SCORE.RESTR>
0

>  <SCORE.RESTR.CAVITY>
0

>  <SCORE.RESTR.norm>
0

>  <SCORE.SYSTEM>
0

>  <SCORE.SYSTEM.CONST>
0

>  <SCORE.SYSTEM.DIHEDRAL>
0

>  <SCORE.SYSTEM.SOLV>
0

>  <SCORE.SYSTEM.norm>
0

>  <SCORE.heavy>
12

>  <SCORE.norm>
-1.11501

>  <RMSD>
19.888

$$$$
ligand
 OpenBabel11021811513D
libRbt.so/2013.1/901 2013/11/27
 12 12  0  0  0  0  0  0  0  0999 V2000
   10.7071   -2.2745  -15.8182 O   0  0  0  0  0  0  0  0  0  0  0  0
   12.9968    4.3750  -13.7682 O   0  0  0  0  0  0  0  0  0  0  0  0
   10.2694   -1.0812  -16.3509 C   0  0  0  0  0  0  0  0  0  0  0  0
   14.7008    2.7608  -13.1071 O   0  0  0  0  0  0  0  0  0  0  0  0
   11.1617    0.0559  -16.0646 C   0  0  0  0  0  0  0  0  0  0  0  0
   13.2406    3.7322  -11.4247 O   0  5  0  0  0  0  0  0  0  0  0  0
   11.4897    0.1458  -14.6356 N   0  3  0  0  0  0  0  0  0  0  0  0
   11.9746   -1.1230  -14.1562 C   0  0  0  0  0  0  0  0  0  0  0  0
   11.0276   -2.2285  -14.4905 C   0  0  0  0  0  0  0  0  0  0  0  0
   12.4538    1.1829  -14.4226 C   0  0  0  0  0  0  0  0  0  0  0  0
   12.1654    1.8890  -13.0735 C   0  0  0  0  0  0  0  0  0  0  0  0
   13.3162    3.2574  -12.8295 S   0  0  1  0  0  0  0  0  0  0  0  0
  1  3  1  0  0  0  0
  1  9  1  0  0  0  0
  2 12  1  0  0  0  0
  3  5  1  0  0  0  0
  4 12  2  0  0  0  0
  5  7  1  0  0  0  0
  6 12  2  0  0  0  0
  7  8  1  0  0  0  0
  7 10  1  0  0  0  0
  8  9  1  0  0  0  0
 10 11  1  0  0  0  0
 12 11  1  6  0  0  0
M  CHG  2   6  -1   7   1
M  END
>  <CHROM.1>
144.28086234,-176.96496936,71.08536045,12.26788398,1.16186741,-14.02681015
-2.55841516,-1.05867158,-0.41610553

>  <Name>
ligand

>  <RI>
0

>  <Rbt.Current_Directory>
/home/itssahil/PROJECTS/Mol_Feturizer/New_Systems/rnas/4P95

>  <Rbt.Executable>
rbdock ($Id: //depot/dev/client3/rdock/2013.1/src/exe/rbdock.cxx#4 $)

>  <Rbt.Library>
libRbt.so (2013.1, Build901 2013/11/27)

>  <Rbt.Parameter_File>
/export/apps/rDock/src/rDock_2013.1_src/data/scripts/dock_solv.prm

>  <Rbt.Receptor>
prm/blind_docking_40.prm

>  <SCORE>
-13.4694

>  <SCORE.INTER>
-11.4852

>  <SCORE.INTER.CONST>
1

>  <SCORE.INTER.POLAR>
0

>  <SCORE.INTER.ROT>
3

>  <SCORE.INTER.SOLV>
7.21263

>  <SCORE.INTER.VDW>
-15.661

>  <SCORE.INTER.norm>
-0.957099

>  <SCORE.INTRA>
-1.98421

>  <SCORE.INTRA.DIHEDRAL>
1.56951

>  <SCORE.INTRA.DIHEDRAL.0>
0.283163

>  <SCORE.INTRA.POLAR>
0

>  <SCORE.INTRA.POLAR.0>
0

>  <SCORE.INTRA.REPUL>
0

>  <SCORE.INTRA.REPUL.0>
0

>  <SCORE.INTRA.SOLV>
-0.676395

>  <SCORE.INTRA.SOLV.lig_0>
-32.2894

>  <SCORE.INTRA.VDW>
-2.43077

>  <SCORE.INTRA.VDW.0>
2.0241

>  <SCORE.INTRA.norm>
-0.165351

>  <SCORE.RESTR>
0

>  <SCORE.RESTR.CAVITY>
0

>  <SCORE.RESTR.norm>
0

>  <SCORE.SYSTEM>
0

>  <SCORE.SYSTEM.CONST>
0

>  <SCORE.SYSTEM.DIHEDRAL>
0

>  <SCORE.SYSTEM.SOLV>
0

>  <SCORE.SYSTEM.norm>
0

>  <SCORE.heavy>
12

>  <SCORE.norm>
-1.12245

>  <RMSD>
19.903

$$$$
ligand
 OpenBabel11021811513D
libRbt.so/2013.1/901 2013/11/27
 12 12  0  0  0  0  0  0  0  0999 V2000
   10.7169   -2.2595  -15.7886 O   0  0  0  0  0  0  0  0  0  0  0  0
   13.0038    4.3795  -13.7707 O   0  0  0  0  0  0  0  0  0  0  0  0
   10.2240   -1.0827  -16.3096 C   0  0  0  0  0  0  0  0  0  0  0  0
   14.6956    2.7714  -13.0649 O   0  0  0  0  0  0  0  0  0  0  0  0
   11.0843    0.0847  -16.0488 C   0  0  0  0  0  0  0  0  0  0  0  0
   13.2150    3.7684  -11.4156 O   0  5  0  0  0  0  0  0  0  0  0  0
   11.4484    0.1879  -14.6294 N   0  3  0  0  0  0  0  0  0  0  0  0
   11.9896   -1.0628  -14.1630 C   0  0  0  0  0  0  0  0  0  0  0  0
   11.0722   -2.2006  -14.4703 C   0  0  0  0  0  0  0  0  0  0  0  0
   12.3818    1.2578  -14.4437 C   0  0  0  0  0  0  0  0  0  0  0  0
   12.1582    1.9048  -13.0533 C   0  0  0  0  0  0  0  0  0  0  0  0
   13.3084    3.2742  -12.8126 S   0  0  1  0  0  0  0  0  0  0  0  0
  1  3  1  0  0  0  0
  1  9  1  0  0  0  0
  2 12  1  0  0  0  0
  3  5  1  0  0  0  0
  4 12  2  0  0  0  0
  5  7  1  0  0  0  0
  6 12  2  0  0  0  0
  7  8  1  0  0  0  0
  7 10  1  0  0  0  0
  8  9  1  0  0  0  0
 10 11  1  0  0  0  0
 12 11  1  6  0  0  0
M  CHG  2   6  -1   7   1
M  END
>  <CHROM.1>
147.41780108,-179.05244475,66.14700946,12.25217134,1.18802502,-14.01209978
-2.51202988,-1.03836621,-0.36105253

>  <Name>
ligand

>  <RI>
0

>  <Rbt.Current_Directory>
/home/itssahil/PROJECTS/Mol_Feturizer/New_Systems/rnas/4P95

>  <Rbt.Executable>
rbdock ($Id: //depot/dev/client3/rdock/2013.1/src/exe/rbdock.cxx#4 $)

>  <Rbt.Library>
libRbt.so (2013.1, Build901 2013/11/27)

>  <Rbt.Parameter_File>
/export/apps/rDock/src/rDock_2013.1_src/data/scripts/dock_solv.prm

>  <Rbt.Receptor>
prm/blind_docking_100.prm

>  <SCORE>
-13.4893

>  <SCORE.INTER>
-11.3149

>  <SCORE.INTER.CONST>
1

>  <SCORE.INTER.POLAR>
0

>  <SCORE.INTER.ROT>
3

>  <SCORE.INTER.SOLV>
7.27323

>  <SCORE.INTER.VDW>
-15.5677

>  <SCORE.INTER.norm>
-0.942912

>  <SCORE.INTRA>
-2.1744

>  <SCORE.INTRA.DIHEDRAL>
1.12691

>  <SCORE.INTRA.DIHEDRAL.0>
0.283163

>  <SCORE.INTRA.POLAR>
0

>  <SCORE.INTRA.POLAR.0>
0

>  <SCORE.INTRA.REPUL>
0

>  <SCORE.INTRA.REPUL.0>
0

>  <SCORE.INTRA.SOLV>
-0.693808

>  <SCORE.INTRA.SOLV.lig_0>
-32.2894

>  <SCORE.INTRA.VDW>
-2.39095

>  <SCORE.INTRA.VDW.0>
2.0241

>  <SCORE.INTRA.norm>
-0.1812

>  <SCORE.RESTR>
0

>  <SCORE.RESTR.CAVITY>
0

>  <SCORE.RESTR.norm>
0

>  <SCORE.SYSTEM>
0

>  <SCORE.SYSTEM.CONST>
0

>  <SCORE.SYSTEM.DIHEDRAL>
0

>  <SCORE.SYSTEM.SOLV>
0

>  <SCORE.SYSTEM.norm>
0

>  <SCORE.heavy>
12

>  <SCORE.norm>
-1.12411

>  <RMSD>
19.907

$$$$
ligand
 OpenBabel11021811513D
libRbt.so/2013.1/901 2013/11/27
 12 12  0  0  0  0  0  0  0  0999 V2000
   13.5173    4.6840  -11.8638 O   0  0  0  0  0  0  0  0  0  0  0  0
   10.3839   -0.3910  -15.8766 O   0  0  0  0  0  0  0  0  0  0  0  0
   13.2098    4.7376  -13.2062 C   0  0  0  0  0  0  0  0  0  0  0  0
   10.7908   -1.5834  -13.7887 O   0  0  0  0  0  0  0  0  0  0  0  0
   12.3423    3.6357  -13.6578 C   0  0  0  0  0  0  0  0  0  0  0  0
   12.1393   -2.0841  -15.7476 O   0  5  0  0  0  0  0  0  0  0  0  0
   12.8575    2.3268  -13.2341 N   0  3  0  0  0  0  0  0  0  0  0  0
   13.1207    2.3312  -11.8180 C   0  0  0  0  0  0  0  0  0  0  0  0
   13.9947    3.4789  -11.4309 C   0  0  0  0  0  0  0  0  0  0  0  0
   11.9228    1.3001  -13.5842 C   0  0  0  0  0  0  0  0  0  0  0  0
   12.6209    0.2488  -14.4837 C   0  0  0  0  0  0  0  0  0  0  0  0
   11.4348   -1.0051  -15.0100 S   0  0  1  0  0  0  0  0  0  0  0  0
  1  3  1  0  0  0  0
  1  9  1  0  0  0  0
  2 12  1  0  0  0  0
  3  5  1  0  0  0  0
  4 12  2  0  0  0  0
  5  7  1  0  0  0  0
  6 12  2  0  0  0  0
  7  8  1  0  0  0  0
  7 10  1  0  0  0  0
  8  9  1  0  0  0  0
 10 11  1  0  0  0  0
 12 11  1  1  0  0  0
M  CHG  2   6  -1   7   1
M  END
>  <CHROM.1>
122.89931386,-176.88176068,64.56939639,12.24860868,1.18960317,-13.79640278
0.81368915,-1.08194874,-0.19851170

>  <Name>
ligand

>  <RI>
0

>  <Rbt.Current_Directory>
/home/itssahil/PROJECTS/Mol_Feturizer/New_Systems/rnas/4P95

>  <Rbt.Executable>
rbdock ($Id: //depot/dev/client3/rdock/2013.1/src/exe/rbdock.cxx#4 $)

>  <Rbt.Library>
libRbt.so (2013.1, Build901 2013/11/27)

>  <Rbt.Parameter_File>
/export/apps/rDock/src/rDock_2013.1_src/data/scripts/dock_solv.prm

>  <Rbt.Receptor>
prm/blind_docking_60.prm

>  <SCORE>
-9.76562

>  <SCORE.INTER>
-7.81951

>  <SCORE.INTER.CONST>
1

>  <SCORE.INTER.POLAR>
0

>  <SCORE.INTER.ROT>
3

>  <SCORE.INTER.SOLV>
8.55578

>  <SCORE.INTER.VDW>
-13.6649

>  <SCORE.INTER.norm>
-0.651626

>  <SCORE.INTRA>
-1.9461

>  <SCORE.INTRA.DIHEDRAL>
2.19374

>  <SCORE.INTRA.DIHEDRAL.0>
0.283163

>  <SCORE.INTRA.POLAR>
0

>  <SCORE.INTRA.POLAR.0>
0

>  <SCORE.INTRA.REPUL>
0

>  <SCORE.INTRA.REPUL.0>
0

>  <SCORE.INTRA.SOLV>
-0.7038

>  <SCORE.INTRA.SOLV.lig_0>
-32.2894

>  <SCORE.INTRA.VDW>
-2.69107

>  <SCORE.INTRA.VDW.0>
2.0241

>  <SCORE.INTRA.norm>
-0.162175

>  <SCORE.RESTR>
0

>  <SCORE.RESTR.CAVITY>
0

>  <SCORE.RESTR.norm>
0

>  <SCORE.SYSTEM>
0

>  <SCORE.SYSTEM.CONST>
0

>  <SCORE.SYSTEM.DIHEDRAL>
0

>  <SCORE.SYSTEM.SOLV>
0

>  <SCORE.SYSTEM.norm>
0

>  <SCORE.heavy>
12

>  <SCORE.norm>
-0.813801

>  <RMSD>
20.040

$$$$
ligand
 OpenBabel11021811513D
libRbt.so/2013.1/901 2013/11/27
 12 12  0  0  0  0  0  0  0  0999 V2000
   10.3040   -1.8608  -15.7905 O   0  0  0  0  0  0  0  0  0  0  0  0
   12.0985    3.1740  -11.3609 O   0  0  0  0  0  0  0  0  0  0  0  0
   10.9552   -2.0222  -14.5867 C   0  0  0  0  0  0  0  0  0  0  0  0
   13.3150    4.2373  -13.1874 O   0  0  0  0  0  0  0  0  0  0  0  0
   11.1825   -0.7584  -13.8642 C   0  0  0  0  0  0  0  0  0  0  0  0
   14.5378    3.0793  -11.4352 O   0  5  0  0  0  0  0  0  0  0  0  0
   11.8012    0.2586  -14.7249 N   0  3  0  0  0  0  0  0  0  0  0  0
   11.0492    0.4010  -15.9452 C   0  0  0  0  0  0  0  0  0  0  0  0
   10.8479   -0.9178  -16.6167 C   0  0  0  0  0  0  0  0  0  0  0  0
   11.8879    1.5029  -14.0217 C   0  0  0  0  0  0  0  0  0  0  0  0
   13.2183    1.5580  -13.2287 C   0  0  0  0  0  0  0  0  0  0  0  0
   13.2958    3.0714  -12.2488 S   0  0  1  0  0  0  0  0  0  0  0  0
  1  3  1  0  0  0  0
  1  9  1  0  0  0  0
  2 12  1  0  0  0  0
  3  5  1  0  0  0  0
  4 12  2  0  0  0  0
  5  7  1  0  0  0  0
  6 12  2  0  0  0  0
  7  8  1  0  0  0  0
  7 10  1  0  0  0  0
  8  9  1  0  0  0  0
 10 11  1  0  0  0  0
 12 11  1  6  0  0  0
M  CHG  2   6  -1   7   1
M  END
>  <CHROM.1>
88.24789897,-176.24200813,55.37166498,12.17885594,1.21944365,-13.72297474
-3.12499378,-1.13856920,-0.89818881

>  <Name>
ligand

>  <RI>
0

>  <Rbt.Current_Directory>
/home/itssahil/PROJECTS/Mol_Feturizer/New_Systems/rnas/4P95

>  <Rbt.Executable>
rbdock ($Id: //depot/dev/client3/rdock/2013.1/src/exe/rbdock.cxx#4 $)

>  <Rbt.Library>
libRbt.so (2013.1, Build901 2013/11/27)

>  <Rbt.Parameter_File>
/export/apps/rDock/src/rDock_2013.1_src/data/scripts/dock_solv.prm

>  <Rbt.Receptor>
prm/blind_docking_20.prm

>  <SCORE>
-11.0467

>  <SCORE.INTER>
-9.03209

>  <SCORE.INTER.CONST>
1

>  <SCORE.INTER.POLAR>
0

>  <SCORE.INTER.ROT>
3

>  <SCORE.INTER.SOLV>
7.64242

>  <SCORE.INTER.VDW>
-14.1689

>  <SCORE.INTER.norm>
-0.752674

>  <SCORE.INTRA>
-2.23287

>  <SCORE.INTRA.DIHEDRAL>
0.969384

>  <SCORE.INTRA.DIHEDRAL.0>
0.283163

>  <SCORE.INTRA.POLAR>
0

>  <SCORE.INTRA.POLAR.0>
0

>  <SCORE.INTRA.REPUL>
0

>  <SCORE.INTRA.REPUL.0>
0

>  <SCORE.INTRA.SOLV>
-0.720663

>  <SCORE.INTRA.SOLV.lig_0>
-32.2894

>  <SCORE.INTRA.VDW>
-2.35723

>  <SCORE.INTRA.VDW.0>
2.0241

>  <SCORE.INTRA.norm>
-0.186072

>  <SCORE.RESTR>
0.218255

>  <SCORE.RESTR.CAVITY>
0.218255

>  <SCORE.RESTR.norm>
0.0181879

>  <SCORE.SYSTEM>
0

>  <SCORE.SYSTEM.CONST>
0

>  <SCORE.SYSTEM.DIHEDRAL>
0

>  <SCORE.SYSTEM.SOLV>
0

>  <SCORE.SYSTEM.norm>
0

>  <SCORE.heavy>
12

>  <SCORE.norm>
-0.920559

>  <RMSD>
20.087

$$$$
ligand
 OpenBabel11021811513D
libRbt.so/2013.1/901 2013/11/27
 12 12  0  0  0  0  0  0  0  0999 V2000
   -0.4753   10.9216  -15.9923 O   0  0  0  0  0  0  0  0  0  0  0  0
    2.2852    8.7087  -12.5976 O   0  0  0  0  0  0  0  0  0  0  0  0
   -0.2165    9.7780  -16.7165 C   0  0  0  0  0  0  0  0  0  0  0  0
    3.3518    6.5463  -12.2331 O   0  0  0  0  0  0  0  0  0  0  0  0
   -0.4715    8.5348  -15.9680 C   0  0  0  0  0  0  0  0  0  0  0  0
    1.3289    7.1158  -11.0124 O   0  5  0  0  0  0  0  0  0  0  0  0
    0.1812    8.5464  -14.6520 N   0  3  0  0  0  0  0  0  0  0  0  0
   -0.1626    9.7490  -13.9376 C   0  0  0  0  0  0  0  0  0  0  0  0
    0.1110   10.9662  -14.7586 C   0  0  0  0  0  0  0  0  0  0  0  0
   -0.1948    7.3792  -13.9128 C   0  0  0  0  0  0  0  0  0  0  0  0
    1.0624    6.5187  -13.6286 C   0  0  0  0  0  0  0  0  0  0  0  0
    2.0400    7.2637  -12.3074 S   0  0  1  0  0  0  0  0  0  0  0  0
  1  3  1  0  0  0  0
  1  9  1  0  0  0  0
  2 12  1  0  0  0  0
  3  5  1  0  0  0  0
  4 12  2  0  0  0  0
  5  7  1  0  0  0  0
  6 12  2  0  0  0  0
  7  8  1  0  0  0  0
  7 10  1  0  0  0  0
  8  9  1  0  0  0  0
 10 11  1  0  0  0  0
 12 11  1  6  0  0  0
M  CHG  2   6  -1   7   1
M  END
>  <CHROM.1>
117.31618657,75.87532317,-50.63464354,0.89370554,8.38007278,-13.78003265
-2.54446366,0.97089430,-3.14149155

>  <Name>
ligand

>  <RI>
0

>  <Rbt.Current_Directory>
/home/itssahil/PROJECTS/Mol_Feturizer/New_Systems/rnas/4P95

>  <Rbt.Executable>
rbdock ($Id: //depot/dev/client3/rdock/2013.1/src/exe/rbdock.cxx#4 $)

>  <Rbt.Library>
libRbt.so (2013.1, Build901 2013/11/27)

>  <Rbt.Parameter_File>
/export/apps/rDock/src/rDock_2013.1_src/data/scripts/dock_solv.prm

>  <Rbt.Receptor>
prm/blind_docking_60.prm

>  <SCORE>
-9.73477

>  <SCORE.INTER>
-8.49095

>  <SCORE.INTER.CONST>
1

>  <SCORE.INTER.POLAR>
0

>  <SCORE.INTER.ROT>
3

>  <SCORE.INTER.SOLV>
10.1755

>  <SCORE.INTER.VDW>
-14.6525

>  <SCORE.INTER.norm>
-0.707579

>  <SCORE.INTRA>
-1.24382

>  <SCORE.INTRA.DIHEDRAL>
3.25506

>  <SCORE.INTRA.DIHEDRAL.0>
0.283163

>  <SCORE.INTRA.POLAR>
0

>  <SCORE.INTRA.POLAR.0>
0

>  <SCORE.INTRA.REPUL>
0

>  <SCORE.INTRA.REPUL.0>
0

>  <SCORE.INTRA.SOLV>
0.708102

>  <SCORE.INTRA.SOLV.lig_0>
-32.2894

>  <SCORE.INTRA.VDW>
-3.2254

>  <SCORE.INTRA.VDW.0>
2.0241

>  <SCORE.INTRA.norm>
-0.103652

>  <SCORE.RESTR>
0

>  <SCORE.RESTR.CAVITY>
0

>  <SCORE.RESTR.norm>
0

>  <SCORE.SYSTEM>
0

>  <SCORE.SYSTEM.CONST>
0

>  <SCORE.SYSTEM.DIHEDRAL>
0

>  <SCORE.SYSTEM.SOLV>
0

>  <SCORE.SYSTEM.norm>
0

>  <SCORE.heavy>
12

>  <SCORE.norm>
-0.811231

>  <RMSD>
20.204

$$$$
ligand
 OpenBabel11021811513D
libRbt.so/2013.1/901 2013/11/27
 12 12  0  0  0  0  0  0  0  0999 V2000
    9.2287    8.4755  -15.7722 O   0  0  0  0  0  0  0  0  0  0  0  0
    6.7567    4.1074  -10.8481 O   0  0  0  0  0  0  0  0  0  0  0  0
    8.9860    8.8885  -14.4800 C   0  0  0  0  0  0  0  0  0  0  0  0
    4.6174    4.3320  -11.9968 O   0  0  0  0  0  0  0  0  0  0  0  0
    8.5193    7.8087  -13.5928 C   0  0  0  0  0  0  0  0  0  0  0  0
    5.0026    5.5292   -9.9172 O   0  5  0  0  0  0  0  0  0  0  0  0
    7.3986    7.0640  -14.1824 N   0  3  0  0  0  0  0  0  0  0  0  0
    7.7353    6.6321  -15.5146 C   0  0  0  0  0  0  0  0  0  0  0  0
    8.2098    7.7737  -16.3527 C   0  0  0  0  0  0  0  0  0  0  0  0
    7.0614    5.9512  -13.3467 C   0  0  0  0  0  0  0  0  0  0  0  0
    6.2570    6.4500  -12.1196 C   0  0  0  0  0  0  0  0  0  0  0  0
    5.6394    5.0463  -11.1686 S   0  0  1  0  0  0  0  0  0  0  0  0
  1  3  1  0  0  0  0
  1  9  1  0  0  0  0
  2 12  1  0  0  0  0
  3  5  1  0  0  0  0
  4 12  2  0  0  0  0
  5  7  1  0  0  0  0
  6 12  2  0  0  0  0
  7  8  1  0  0  0  0
  7 10  1  0  0  0  0
  8  9  1  0  0  0  0
 10 11  1  0  0  0  0
 12 11  1  6  0  0  0
M  CHG  2   6  -1   7   1
M  END
>  <CHROM.1>
77.06387993,172.66536689,52.21000530,6.95129967,6.33309270,-13.03235546,-0.65770890
0.88509906,1.40954302

>  <Name>
ligand

>  <RI>
0

>  <Rbt.Current_Directory>
/home/itssahil/PROJECTS/Mol_Feturizer/New_Systems/rnas/4P95

>  <Rbt.Executable>
rbdock ($Id: //depot/dev/client3/rdock/2013.1/src/exe/rbdock.cxx#4 $)

>  <Rbt.Library>
libRbt.so (2013.1, Build901 2013/11/27)

>  <Rbt.Parameter_File>
/export/apps/rDock/src/rDock_2013.1_src/data/scripts/dock_solv.prm

>  <Rbt.Receptor>
prm/blind_docking_60.prm

>  <SCORE>
-10.8275

>  <SCORE.INTER>
-8.82806

>  <SCORE.INTER.CONST>
1

>  <SCORE.INTER.POLAR>
0

>  <SCORE.INTER.ROT>
3

>  <SCORE.INTER.SOLV>
7.89866

>  <SCORE.INTER.VDW>
-14.1183

>  <SCORE.INTER.norm>
-0.735671

>  <SCORE.INTRA>
-1.99941

>  <SCORE.INTRA.DIHEDRAL>
0.54688

>  <SCORE.INTRA.DIHEDRAL.0>
0.283163

>  <SCORE.INTRA.POLAR>
0

>  <SCORE.INTRA.POLAR.0>
0

>  <SCORE.INTRA.REPUL>
0

>  <SCORE.INTRA.REPUL.0>
0

>  <SCORE.INTRA.SOLV>
-0.725197

>  <SCORE.INTRA.SOLV.lig_0>
-32.2894

>  <SCORE.INTRA.VDW>
-1.91025

>  <SCORE.INTRA.VDW.0>
2.0241

>  <SCORE.INTRA.norm>
-0.166617

>  <SCORE.RESTR>
0

>  <SCORE.RESTR.CAVITY>
0

>  <SCORE.RESTR.norm>
0

>  <SCORE.SYSTEM>
0

>  <SCORE.SYSTEM.CONST>
0

>  <SCORE.SYSTEM.DIHEDRAL>
0

>  <SCORE.SYSTEM.SOLV>
0

>  <SCORE.SYSTEM.norm>
0

>  <SCORE.heavy>
12

>  <SCORE.norm>
-0.902288

>  <RMSD>
20.212

$$$$
ligand
 OpenBabel11021811513D
libRbt.so/2013.1/901 2013/11/27
 12 12  0  0  0  0  0  0  0  0999 V2000
   -0.3839   10.7269  -15.9329 O   0  0  0  0  0  0  0  0  0  0  0  0
    2.3913    8.5760  -12.4178 O   0  0  0  0  0  0  0  0  0  0  0  0
   -0.0026    9.5730  -16.5828 C   0  0  0  0  0  0  0  0  0  0  0  0
    3.4836    6.4135  -12.1408 O   0  0  0  0  0  0  0  0  0  0  0  0
   -0.2592    8.3464  -15.8079 C   0  0  0  0  0  0  0  0  0  0  0  0
    1.5115    6.9473  -10.8247 O   0  5  0  0  0  0  0  0  0  0  0  0
    0.2713    8.4432  -14.4414 N   0  3  0  0  0  0  0  0  0  0  0  0
   -0.1966    9.6508  -13.8111 C   0  0  0  0  0  0  0  0  0  0  0  0
    0.0863   10.8498  -14.6556 C   0  0  0  0  0  0  0  0  0  0  0  0
   -0.1088    7.2854  -13.6894 C   0  0  0  0  0  0  0  0  0  0  0  0
    1.1372    6.3988  -13.4384 C   0  0  0  0  0  0  0  0  0  0  0  0
    2.1662    7.1242  -12.1456 S   0  0  1  0  0  0  0  0  0  0  0  0
  1  3  1  0  0  0  0
  1  9  1  0  0  0  0
  2 12  1  0  0  0  0
  3  5  1  0  0  0  0
  4 12  2  0  0  0  0
  5  7  1  0  0  0  0
  6 12  2  0  0  0  0
  7  8  1  0  0  0  0
  7 10  1  0  0  0  0
  8  9  1  0  0  0  0
 10 11  1  0  0  0  0
 12 11  1  6  0  0  0
M  CHG  2   6  -1   7   1
M  END
>  <CHROM.1>
109.08990774,75.91742598,-48.51185060,1.00136878,8.23846050,-13.62770552
-2.62647410,1.00141898,-3.04907578

>  <Name>
ligand

>  <RI>
0

>  <Rbt.Current_Directory>
/home/itssahil/PROJECTS/Mol_Feturizer/New_Systems/rnas/4P95

>  <Rbt.Executable>
rbdock ($Id: //depot/dev/client3/rdock/2013.1/src/exe/rbdock.cxx#4 $)

>  <Rbt.Library>
libRbt.so (2013.1, Build901 2013/11/27)

>  <Rbt.Parameter_File>
/export/apps/rDock/src/rDock_2013.1_src/data/scripts/dock_solv.prm

>  <Rbt.Receptor>
prm/blind_docking_80.prm

>  <SCORE>
-9.59892

>  <SCORE.INTER>
-8.21263

>  <SCORE.INTER.CONST>
1

>  <SCORE.INTER.POLAR>
0

>  <SCORE.INTER.ROT>
3

>  <SCORE.INTER.SOLV>
9.51593

>  <SCORE.INTER.VDW>
-14.2471

>  <SCORE.INTER.norm>
-0.684386

>  <SCORE.INTRA>
-1.38629

>  <SCORE.INTRA.DIHEDRAL>
3.21939

>  <SCORE.INTRA.DIHEDRAL.0>
0.283163

>  <SCORE.INTRA.POLAR>
0

>  <SCORE.INTRA.POLAR.0>
0

>  <SCORE.INTRA.REPUL>
0

>  <SCORE.INTRA.REPUL.0>
0

>  <SCORE.INTRA.SOLV>
0.538126

>  <SCORE.INTRA.SOLV.lig_0>
-32.2894

>  <SCORE.INTRA.VDW>
-3.26505

>  <SCORE.INTRA.VDW.0>
2.0241

>  <SCORE.INTRA.norm>
-0.115524

>  <SCORE.RESTR>
0

>  <SCORE.RESTR.CAVITY>
0

>  <SCORE.RESTR.norm>
0

>  <SCORE.SYSTEM>
0

>  <SCORE.SYSTEM.CONST>
0

>  <SCORE.SYSTEM.DIHEDRAL>
0

>  <SCORE.SYSTEM.SOLV>
0

>  <SCORE.SYSTEM.norm>
0

>  <SCORE.heavy>
12

>  <SCORE.norm>
-0.79991

>  <RMSD>
20.269

$$$$
ligand
 OpenBabel11021811513D
libRbt.so/2013.1/901 2013/11/27
 12 12  0  0  0  0  0  0  0  0999 V2000
   15.0212   -4.5591  -13.4360 O   0  0  0  0  0  0  0  0  0  0  0  0
    9.7454   -0.4898  -14.2783 O   0  0  0  0  0  0  0  0  0  0  0  0
   14.5970   -4.3505  -14.7305 C   0  0  0  0  0  0  0  0  0  0  0  0
   11.1182   -2.4278  -13.7252 O   0  0  0  0  0  0  0  0  0  0  0  0
   14.4992   -2.9270  -15.0977 C   0  0  0  0  0  0  0  0  0  0  0  0
   11.1650   -1.5186  -15.9785 O   0  5  0  0  0  0  0  0  0  0  0  0
   13.7330   -2.1593  -14.1070 N   0  3  0  0  0  0  0  0  0  0  0  0
   14.2533   -2.3955  -12.7848 C   0  0  0  0  0  0  0  0  0  0  0  0
   14.3349   -3.8565  -12.4857 C   0  0  0  0  0  0  0  0  0  0  0  0
   13.7700   -0.7664  -14.4371 C   0  0  0  0  0  0  0  0  0  0  0  0
   12.4207   -0.1073  -14.0541 C   0  0  0  0  0  0  0  0  0  0  0  0
   11.0480   -1.1735  -14.5391 S   0  0  1  0  0  0  0  0  0  0  0  0
  1  3  1  0  0  0  0
  1  9  1  0  0  0  0
  2 12  1  0  0  0  0
  3  5  1  0  0  0  0
  4 12  2  0  0  0  0
  5  7  1  0  0  0  0
  6 12  2  0  0  0  0
  7  8  1  0  0  0  0
  7 10  1  0  0  0  0
  8  9  1  0  0  0  0
 10 11  1  0  0  0  0
 12 11  1  1  0  0  0
M  CHG  2   6  -1   7   1
M  END
>  <CHROM.1>
145.38780803,-42.95331790,-175.14931923,12.74716432,-2.13061418,-14.18390463
0.64346630,0.15235986,3.02282560

>  <Name>
ligand

>  <RI>
0

>  <Rbt.Current_Directory>
/home/itssahil/PROJECTS/Mol_Feturizer/New_Systems/rnas/4P95

>  <Rbt.Executable>
rbdock ($Id: //depot/dev/client3/rdock/2013.1/src/exe/rbdock.cxx#4 $)

>  <Rbt.Library>
libRbt.so (2013.1, Build901 2013/11/27)

>  <Rbt.Parameter_File>
/export/apps/rDock/src/rDock_2013.1_src/data/scripts/dock_solv.prm

>  <Rbt.Receptor>
prm/blind_docking_80.prm

>  <SCORE>
-6.44486

>  <SCORE.INTER>
-6.14783

>  <SCORE.INTER.CONST>
1

>  <SCORE.INTER.POLAR>
0

>  <SCORE.INTER.ROT>
3

>  <SCORE.INTER.SOLV>
7.93757

>  <SCORE.INTER.VDW>
-12.3444

>  <SCORE.INTER.norm>
-0.512319

>  <SCORE.INTRA>
-0.297031

>  <SCORE.INTRA.DIHEDRAL>
2.23918

>  <SCORE.INTRA.DIHEDRAL.0>
0.283163

>  <SCORE.INTRA.POLAR>
0

>  <SCORE.INTRA.POLAR.0>
0

>  <SCORE.INTRA.REPUL>
0

>  <SCORE.INTRA.REPUL.0>
0

>  <SCORE.INTRA.SOLV>
3.59101

>  <SCORE.INTRA.SOLV.lig_0>
-32.2894

>  <SCORE.INTRA.VDW>
-3.21213

>  <SCORE.INTRA.VDW.0>
2.0241

>  <SCORE.INTRA.norm>
-0.0247526

>  <SCORE.RESTR>
0

>  <SCORE.RESTR.CAVITY>
0

>  <SCORE.RESTR.norm>
0

>  <SCORE.SYSTEM>
0

>  <SCORE.SYSTEM.CONST>
0

>  <SCORE.SYSTEM.DIHEDRAL>
0

>  <SCORE.SYSTEM.SOLV>
0

>  <SCORE.SYSTEM.norm>
0

>  <SCORE.heavy>
12

>  <SCORE.norm>
-0.537072

>  <RMSD>
20.303

$$$$
ligand
 OpenBabel11021811513D
libRbt.so/2013.1/901 2013/11/27
 12 12  0  0  0  0  0  0  0  0999 V2000
    9.2374    8.9312  -15.5686 O   0  0  0  0  0  0  0  0  0  0  0  0
    6.4610    4.1627  -11.0892 O   0  0  0  0  0  0  0  0  0  0  0  0
    8.8471    9.5757  -14.4146 C   0  0  0  0  0  0  0  0  0  0  0  0
    4.1625    4.2629  -11.8975 O   0  0  0  0  0  0  0  0  0  0  0  0
    8.4556    8.6587  -13.3298 C   0  0  0  0  0  0  0  0  0  0  0  0
    5.0135    6.0252  -10.4565 O   0  5  0  0  0  0  0  0  0  0  0  0
    7.4866    7.6540  -13.7875 N   0  3  0  0  0  0  0  0  0  0  0  0
    7.9752    6.9959  -14.9719 C   0  0  0  0  0  0  0  0  0  0  0  0
    8.3629    7.9842  -16.0225 C   0  0  0  0  0  0  0  0  0  0  0  0
    7.2312    6.7123  -12.7395 C   0  0  0  0  0  0  0  0  0  0  0  0
    5.8861    5.9909  -13.0078 C   0  0  0  0  0  0  0  0  0  0  0  0
    5.3682    5.0756  -11.5414 S   0  0  1  0  0  0  0  0  0  0  0  0
  1  3  1  0  0  0  0
  1  9  1  0  0  0  0
  2 12  1  0  0  0  0
  3  5  1  0  0  0  0
  4 12  2  0  0  0  0
  5  7  1  0  0  0  0
  6 12  2  0  0  0  0
  7  8  1  0  0  0  0
  7 10  1  0  0  0  0
  8  9  1  0  0  0  0
 10 11  1  0  0  0  0
 12 11  1  6  0  0  0
M  CHG  2   6  -1   7   1
M  END
>  <CHROM.1>
159.68729278,-167.66407830,-53.65311234,6.85188411,6.63204545,-13.03828955
0.29245653,-0.95029869,-1.98963756

>  <Name>
ligand

>  <RI>
0

>  <Rbt.Current_Directory>
/home/itssahil/PROJECTS/Mol_Feturizer/New_Systems/rnas/4P95

>  <Rbt.Executable>
rbdock ($Id: //depot/dev/client3/rdock/2013.1/src/exe/rbdock.cxx#4 $)

>  <Rbt.Library>
libRbt.so (2013.1, Build901 2013/11/27)

>  <Rbt.Parameter_File>
/export/apps/rDock/src/rDock_2013.1_src/data/scripts/dock_solv.prm

>  <Rbt.Receptor>
prm/blind_docking_40.prm

>  <SCORE>
-10.9245

>  <SCORE.INTER>
-9.38119

>  <SCORE.INTER.CONST>
1

>  <SCORE.INTER.POLAR>
0

>  <SCORE.INTER.ROT>
3

>  <SCORE.INTER.SOLV>
7.88202

>  <SCORE.INTER.VDW>
-14.4815

>  <SCORE.INTER.norm>
-0.781766

>  <SCORE.INTRA>
-1.54326

>  <SCORE.INTRA.DIHEDRAL>
0.952266

>  <SCORE.INTRA.DIHEDRAL.0>
0.283163

>  <SCORE.INTRA.POLAR>
0

>  <SCORE.INTRA.POLAR.0>
0

>  <SCORE.INTRA.REPUL>
0

>  <SCORE.INTRA.REPUL.0>
0

>  <SCORE.INTRA.SOLV>
-0.0878133

>  <SCORE.INTRA.SOLV.lig_0>
-32.2894

>  <SCORE.INTRA.VDW>
-1.97549

>  <SCORE.INTRA.VDW.0>
2.0241

>  <SCORE.INTRA.norm>
-0.128605

>  <SCORE.RESTR>
0

>  <SCORE.RESTR.CAVITY>
0

>  <SCORE.RESTR.norm>
0

>  <SCORE.SYSTEM>
0

>  <SCORE.SYSTEM.CONST>
0

>  <SCORE.SYSTEM.DIHEDRAL>
0

>  <SCORE.SYSTEM.SOLV>
0

>  <SCORE.SYSTEM.norm>
0

>  <SCORE.heavy>
12

>  <SCORE.norm>
-0.910371

>  <RMSD>
20.312

$$$$
ligand
 OpenBabel11021811513D
libRbt.so/2013.1/901 2013/11/27
 12 12  0  0  0  0  0  0  0  0999 V2000
   10.4472   19.6729  -20.4688 O   0  0  0  0  0  0  0  0  0  0  0  0
   13.1282   16.1210  -25.7611 O   0  0  0  0  0  0  0  0  0  0  0  0
   10.8955   18.3723  -20.5510 C   0  0  0  0  0  0  0  0  0  0  0  0
   11.4001   17.1918  -27.1078 O   0  0  0  0  0  0  0  0  0  0  0  0
   11.3706   17.9952  -21.8938 C   0  0  0  0  0  0  0  0  0  0  0  0
   11.2242   14.8269  -26.5763 O   0  5  0  0  0  0  0  0  0  0  0  0
   10.3920   18.3368  -22.9347 N   0  3  0  0  0  0  0  0  0  0  0  0
    9.9971   19.7166  -22.8119 C   0  0  0  0  0  0  0  0  0  0  0  0
    9.5387   20.0296  -21.4253 C   0  0  0  0  0  0  0  0  0  0  0  0
   10.9449   18.0693  -24.2282 C   0  0  0  0  0  0  0  0  0  0  0  0
   10.7271   16.5773  -24.5861 C   0  0  0  0  0  0  0  0  0  0  0  0
   11.6659   16.1496  -26.0667 S   0  0  1  0  0  0  0  0  0  0  0  0
  1  3  1  0  0  0  0
  1  9  1  0  0  0  0
  2 12  1  0  0  0  0
  3  5  1  0  0  0  0
  4 12  2  0  0  0  0
  5  7  1  0  0  0  0
  6 12  2  0  0  0  0
  7  8  1  0  0  0  0
  7 10  1  0  0  0  0
  8  9  1  0  0  0  0
 10 11  1  0  0  0  0
 12 11  1  1  0  0  0
M  CHG  2   6  -1   7   1
M  END
>  <CHROM.1>
84.82091092,-169.93338597,71.08764197,11.06485632,17.57326059,-23.97260190
-1.97002365,0.95126927,-1.81649519

>  <Name>
ligand

>  <RI>
0

>  <Rbt.Current_Directory>
/home/itssahil/PROJECTS/Mol_Feturizer/New_Systems/rnas/4P95

>  <Rbt.Executable>
rbdock ($Id: //depot/dev/client3/rdock/2013.1/src/exe/rbdock.cxx#4 $)

>  <Rbt.Library>
libRbt.so (2013.1, Build901 2013/11/27)

>  <Rbt.Parameter_File>
/export/apps/rDock/src/rDock_2013.1_src/data/scripts/dock_solv.prm

>  <Rbt.Receptor>
prm/blind_docking_80.prm

>  <SCORE>
-4.33518

>  <SCORE.INTER>
-2.47022

>  <SCORE.INTER.CONST>
1

>  <SCORE.INTER.POLAR>
0

>  <SCORE.INTER.ROT>
3

>  <SCORE.INTER.SOLV>
8.70311

>  <SCORE.INTER.VDW>
-10.1478

>  <SCORE.INTER.norm>
-0.205851

>  <SCORE.INTRA>
-1.86497

>  <SCORE.INTRA.DIHEDRAL>
1.37076

>  <SCORE.INTRA.DIHEDRAL.0>
0.283163

>  <SCORE.INTRA.POLAR>
0

>  <SCORE.INTRA.POLAR.0>
0

>  <SCORE.INTRA.REPUL>
0

>  <SCORE.INTRA.REPUL.0>
0

>  <SCORE.INTRA.SOLV>
-0.669432

>  <SCORE.INTRA.SOLV.lig_0>
-32.2894

>  <SCORE.INTRA.VDW>
-2.21563

>  <SCORE.INTRA.VDW.0>
2.0241

>  <SCORE.INTRA.norm>
-0.155414

>  <SCORE.RESTR>
0

>  <SCORE.RESTR.CAVITY>
0

>  <SCORE.RESTR.norm>
0

>  <SCORE.SYSTEM>
0

>  <SCORE.SYSTEM.CONST>
0

>  <SCORE.SYSTEM.DIHEDRAL>
0

>  <SCORE.SYSTEM.SOLV>
0

>  <SCORE.SYSTEM.norm>
0

>  <SCORE.heavy>
12

>  <SCORE.norm>
-0.361265

>  <RMSD>
20.339

$$$$
ligand
 OpenBabel11021811513D
libRbt.so/2013.1/901 2013/11/27
 12 12  0  0  0  0  0  0  0  0999 V2000
    1.5141    6.0579  -12.5171 O   0  0  0  0  0  0  0  0  0  0  0  0
    1.8072   10.3100  -14.5397 O   0  0  0  0  0  0  0  0  0  0  0  0
    1.5610    7.3983  -12.2000 C   0  0  0  0  0  0  0  0  0  0  0  0
   -0.1332   11.2639  -13.4121 O   0  0  0  0  0  0  0  0  0  0  0  0
    0.4139    8.1671  -12.7139 C   0  0  0  0  0  0  0  0  0  0  0  0
    0.5615   12.1409  -15.5695 O   0  5  0  0  0  0  0  0  0  0  0  0
    0.1868    7.9183  -14.1438 N   0  3  0  0  0  0  0  0  0  0  0  0
    0.1114    6.5022  -14.3958 C   0  0  0  0  0  0  0  0  0  0  0  0
    1.2984    5.7868  -13.8390 C   0  0  0  0  0  0  0  0  0  0  0  0
   -1.0071    8.5846  -14.5693 C   0  0  0  0  0  0  0  0  0  0  0  0
   -0.6410    9.7273  -15.5500 C   0  0  0  0  0  0  0  0  0  0  0  0
    0.4550   10.9121  -14.7430 S   0  0  1  0  0  0  0  0  0  0  0  0
  1  3  1  0  0  0  0
  1  9  1  0  0  0  0
  2 12  1  0  0  0  0
  3  5  1  0  0  0  0
  4 12  2  0  0  0  0
  5  7  1  0  0  0  0
  6 12  2  0  0  0  0
  7  8  1  0  0  0  0
  7 10  1  0  0  0  0
  8  9  1  0  0  0  0
 10 11  1  0  0  0  0
 12 11  1  6  0  0  0
M  CHG  2   6  -1   7   1
M  END
>  <CHROM.1>
112.63123377,-59.50568021,70.87017938,0.52285191,8.98266004,-14.08331398
-1.37108434,-0.84605476,-0.19095404

>  <Name>
ligand

>  <RI>
0

>  <Rbt.Current_Directory>
/home/itssahil/PROJECTS/Mol_Feturizer/New_Systems/rnas/4P95

>  <Rbt.Executable>
rbdock ($Id: //depot/dev/client3/rdock/2013.1/src/exe/rbdock.cxx#4 $)

>  <Rbt.Library>
libRbt.so (2013.1, Build901 2013/11/27)

>  <Rbt.Parameter_File>
/export/apps/rDock/src/rDock_2013.1_src/data/scripts/dock_solv.prm

>  <Rbt.Receptor>
prm/blind_docking_60.prm

>  <SCORE>
-10.0751

>  <SCORE.INTER>
-7.62811

>  <SCORE.INTER.CONST>
1

>  <SCORE.INTER.POLAR>
0

>  <SCORE.INTER.ROT>
3

>  <SCORE.INTER.SOLV>
14.6269

>  <SCORE.INTER.VDW>
-15.5611

>  <SCORE.INTER.norm>
-0.635676

>  <SCORE.INTRA>
-2.44699

>  <SCORE.INTRA.DIHEDRAL>
2.37253

>  <SCORE.INTRA.DIHEDRAL.0>
0.283163

>  <SCORE.INTRA.POLAR>
0

>  <SCORE.INTRA.POLAR.0>
0

>  <SCORE.INTRA.REPUL>
0

>  <SCORE.INTRA.REPUL.0>
0

>  <SCORE.INTRA.SOLV>
-0.236423

>  <SCORE.INTRA.SOLV.lig_0>
-32.2894

>  <SCORE.INTRA.VDW>
-3.51505

>  <SCORE.INTRA.VDW.0>
2.0241

>  <SCORE.INTRA.norm>
-0.203916

>  <SCORE.RESTR>
0

>  <SCORE.RESTR.CAVITY>
0

>  <SCORE.RESTR.norm>
0

>  <SCORE.SYSTEM>
0

>  <SCORE.SYSTEM.CONST>
0

>  <SCORE.SYSTEM.DIHEDRAL>
0

>  <SCORE.SYSTEM.SOLV>
0

>  <SCORE.SYSTEM.norm>
0

>  <SCORE.heavy>
12

>  <SCORE.norm>
-0.839592

>  <RMSD>
20.391

$$$$
ligand
 OpenBabel11021811513D
libRbt.so/2013.1/901 2013/11/27
 12 12  0  0  0  0  0  0  0  0999 V2000
   -0.2771   10.2579  -16.6353 O   0  0  0  0  0  0  0  0  0  0  0  0
    2.2785    7.6636  -10.6773 O   0  0  0  0  0  0  0  0  0  0  0  0
    0.2710    8.9944  -16.6846 C   0  0  0  0  0  0  0  0  0  0  0  0
    2.3468    8.7702  -12.8492 O   0  0  0  0  0  0  0  0  0  0  0  0
   -0.2279    8.0927  -15.6315 C   0  0  0  0  0  0  0  0  0  0  0  0
    1.8777    6.3890  -12.7217 O   0  5  0  0  0  0  0  0  0  0  0  0
   -0.1432    8.7086  -14.3006 N   0  3  0  0  0  0  0  0  0  0  0  0
   -0.7669   10.0069  -14.3133 C   0  0  0  0  0  0  0  0  0  0  0  0
   -0.2219   10.8613  -15.4104 C   0  0  0  0  0  0  0  0  0  0  0  0
   -0.7516    7.8510  -13.3286 C   0  0  0  0  0  0  0  0  0  0  0  0
   -0.0811    8.0738  -11.9493 C   0  0  0  0  0  0  0  0  0  0  0  0
    1.6809    7.6966  -12.0463 S   0  0  1  0  0  0  0  0  0  0  0  0
  1  3  1  0  0  0  0
  1  9  1  0  0  0  0
  2 12  1  0  0  0  0
  3  5  1  0  0  0  0
  4 12  2  0  0  0  0
  5  7  1  0  0  0  0
  6 12  2  0  0  0  0
  7  8  1  0  0  0  0
  7 10  1  0  0  0  0
  8  9  1  0  0  0  0
 10 11  1  0  0  0  0
 12 11  1  1  0  0  0
M  CHG  2   6  -1   7   1
M  END
>  <CHROM.1>
151.37386964,-60.08169349,-169.54306627,0.65156963,8.51469073,-13.68206265
-2.35802367,-0.96477172,1.37076789

>  <Name>
ligand

>  <RI>
0

>  <Rbt.Current_Directory>
/home/itssahil/PROJECTS/Mol_Feturizer/New_Systems/rnas/4P95

>  <Rbt.Executable>
rbdock ($Id: //depot/dev/client3/rdock/2013.1/src/exe/rbdock.cxx#4 $)

>  <Rbt.Library>
libRbt.so (2013.1, Build901 2013/11/27)

>  <Rbt.Parameter_File>
/export/apps/rDock/src/rDock_2013.1_src/data/scripts/dock_solv.prm

>  <Rbt.Receptor>
prm/blind_docking_100.prm

>  <SCORE>
-11.0222

>  <SCORE.INTER>
-9.79084

>  <SCORE.INTER.CONST>
1

>  <SCORE.INTER.POLAR>
0

>  <SCORE.INTER.ROT>
3

>  <SCORE.INTER.SOLV>
9.20068

>  <SCORE.INTER.VDW>
-15.1941

>  <SCORE.INTER.norm>
-0.815903

>  <SCORE.INTRA>
-1.2314

>  <SCORE.INTRA.DIHEDRAL>
1.05966

>  <SCORE.INTRA.DIHEDRAL.0>
0.283163

>  <SCORE.INTRA.POLAR>
0

>  <SCORE.INTRA.POLAR.0>
0

>  <SCORE.INTRA.REPUL>
0

>  <SCORE.INTRA.REPUL.0>
0

>  <SCORE.INTRA.SOLV>
2.68707

>  <SCORE.INTRA.SOLV.lig_0>
-32.2894

>  <SCORE.INTRA.VDW>
-3.10477

>  <SCORE.INTRA.VDW.0>
2.0241

>  <SCORE.INTRA.norm>
-0.102617

>  <SCORE.RESTR>
0

>  <SCORE.RESTR.CAVITY>
0

>  <SCORE.RESTR.norm>
0

>  <SCORE.SYSTEM>
0

>  <SCORE.SYSTEM.CONST>
0

>  <SCORE.SYSTEM.DIHEDRAL>
0

>  <SCORE.SYSTEM.SOLV>
0

>  <SCORE.SYSTEM.norm>
0

>  <SCORE.heavy>
12

>  <SCORE.norm>
-0.91852

>  <RMSD>
20.411

$$$$
ligand
 OpenBabel11021811513D
libRbt.so/2013.1/901 2013/11/27
 12 12  0  0  0  0  0  0  0  0999 V2000
    8.5147    7.5451  -16.0423 O   0  0  0  0  0  0  0  0  0  0  0  0
    6.2569    3.4646  -10.5514 O   0  0  0  0  0  0  0  0  0  0  0  0
    8.0340    8.3708  -15.0491 C   0  0  0  0  0  0  0  0  0  0  0  0
    4.2825    4.7701   -9.9652 O   0  0  0  0  0  0  0  0  0  0  0  0
    7.8995    7.7053  -13.7415 C   0  0  0  0  0  0  0  0  0  0  0  0
    6.4967    5.6421   -9.4718 O   0  5  0  0  0  0  0  0  0  0  0  0
    7.1635    6.4384  -13.8473 N   0  3  0  0  0  0  0  0  0  0  0  0
    7.7417    5.6122  -14.8757 C   0  0  0  0  0  0  0  0  0  0  0  0
    7.8579    6.3532  -16.1673 C   0  0  0  0  0  0  0  0  0  0  0  0
    7.1656    5.7680  -12.5820 C   0  0  0  0  0  0  0  0  0  0  0  0
    5.7135    5.6569  -12.0522 C   0  0  0  0  0  0  0  0  0  0  0  0
    5.7001    4.8466  -10.4399 S   0  0  1  0  0  0  0  0  0  0  0  0
  1  3  1  0  0  0  0
  1  9  1  0  0  0  0
  2 12  1  0  0  0  0
  3  5  1  0  0  0  0
  4 12  2  0  0  0  0
  5  7  1  0  0  0  0
  6 12  2  0  0  0  0
  7  8  1  0  0  0  0
  7 10  1  0  0  0  0
  8  9  1  0  0  0  0
 10 11  1  0  0  0  0
 12 11  1  6  0  0  0
M  CHG  2   6  -1   7   1
M  END
>  <CHROM.1>
116.33269825,-178.75363179,-60.95833078,6.76968091,5.87919512,-12.61390325
-0.17969680,1.15701402,0.64246317

>  <Name>
ligand

>  <RI>
0

>  <Rbt.Current_Directory>
/home/itssahil/PROJECTS/Mol_Feturizer/New_Systems/rnas/4P95

>  <Rbt.Executable>
rbdock ($Id: //depot/dev/client3/rdock/2013.1/src/exe/rbdock.cxx#4 $)

>  <Rbt.Library>
libRbt.so (2013.1, Build901 2013/11/27)

>  <Rbt.Parameter_File>
/export/apps/rDock/src/rDock_2013.1_src/data/scripts/dock_solv.prm

>  <Rbt.Receptor>
prm/blind_docking_20.prm

>  <SCORE>
-9.08745

>  <SCORE.INTER>
-7.39338

>  <SCORE.INTER.CONST>
1

>  <SCORE.INTER.POLAR>
0

>  <SCORE.INTER.ROT>
3

>  <SCORE.INTER.SOLV>
6.86626

>  <SCORE.INTER.VDW>
-12.8177

>  <SCORE.INTER.norm>
-0.616115

>  <SCORE.INTRA>
-1.69406

>  <SCORE.INTRA.DIHEDRAL>
2.1111

>  <SCORE.INTRA.DIHEDRAL.0>
0.283163

>  <SCORE.INTRA.POLAR>
0

>  <SCORE.INTRA.POLAR.0>
0

>  <SCORE.INTRA.REPUL>
0

>  <SCORE.INTRA.REPUL.0>
0

>  <SCORE.INTRA.SOLV>
-0.0582779

>  <SCORE.INTRA.SOLV.lig_0>
-32.2894

>  <SCORE.INTRA.VDW>
-2.72048

>  <SCORE.INTRA.VDW.0>
2.0241

>  <SCORE.INTRA.norm>
-0.141172

>  <SCORE.RESTR>
0

>  <SCORE.RESTR.CAVITY>
0

>  <SCORE.RESTR.norm>
0

>  <SCORE.SYSTEM>
0

>  <SCORE.SYSTEM.CONST>
0

>  <SCORE.SYSTEM.DIHEDRAL>
0

>  <SCORE.SYSTEM.SOLV>
0

>  <SCORE.SYSTEM.norm>
0

>  <SCORE.heavy>
12

>  <SCORE.norm>
-0.757287

>  <RMSD>
20.428

$$$$
ligand
 OpenBabel11021811513D
libRbt.so/2013.1/901 2013/11/27
 12 12  0  0  0  0  0  0  0  0999 V2000
   -0.8439   11.5080  -16.8039 O   0  0  0  0  0  0  0  0  0  0  0  0
    0.4767    7.6466  -11.1190 O   0  0  0  0  0  0  0  0  0  0  0  0
   -0.5517   10.2481  -17.2800 C   0  0  0  0  0  0  0  0  0  0  0  0
    2.8877    7.9793  -10.9674 O   0  0  0  0  0  0  0  0  0  0  0  0
   -0.4308    9.2303  -16.2216 C   0  0  0  0  0  0  0  0  0  0  0  0
    1.9915    6.3262  -12.5070 O   0  5  0  0  0  0  0  0  0  0  0  0
    0.4701    9.6657  -15.1461 N   0  3  0  0  0  0  0  0  0  0  0  0
    0.0842   10.9700  -14.6723 C   0  0  0  0  0  0  0  0  0  0  0  0
   -0.0296   11.9456  -15.7975 C   0  0  0  0  0  0  0  0  0  0  0  0
    0.4598    8.7048  -14.0846 C   0  0  0  0  0  0  0  0  0  0  0  0
    1.6976    8.9216  -13.1776 C   0  0  0  0  0  0  0  0  0  0  0  0
    1.7554    7.6568  -11.8918 S   0  0  1  0  0  0  0  0  0  0  0  0
  1  3  1  0  0  0  0
  1  9  1  0  0  0  0
  2 12  1  0  0  0  0
  3  5  1  0  0  0  0
  4 12  2  0  0  0  0
  5  7  1  0  0  0  0
  6 12  2  0  0  0  0
  7  8  1  0  0  0  0
  7 10  1  0  0  0  0
  8  9  1  0  0  0  0
 10 11  1  0  0  0  0
 12 11  1  6  0  0  0
M  CHG  2   6  -1   7   1
M  END
>  <CHROM.1>
162.67455121,-176.58428106,-55.33584969,0.78411140,9.05184618,-13.87792414
-2.66944318,1.14808134,-3.02818647

>  <Name>
ligand

>  <RI>
0

>  <Rbt.Current_Directory>
/home/itssahil/PROJECTS/Mol_Feturizer/New_Systems/rnas/4P95

>  <Rbt.Executable>
rbdock ($Id: //depot/dev/client3/rdock/2013.1/src/exe/rbdock.cxx#4 $)

>  <Rbt.Library>
libRbt.so (2013.1, Build901 2013/11/27)

>  <Rbt.Parameter_File>
/export/apps/rDock/src/rDock_2013.1_src/data/scripts/dock_solv.prm

>  <Rbt.Receptor>
prm/blind_docking_80.prm

>  <SCORE>
-11.5292

>  <SCORE.INTER>
-9.75161

>  <SCORE.INTER.CONST>
1

>  <SCORE.INTER.POLAR>
0

>  <SCORE.INTER.ROT>
3

>  <SCORE.INTER.SOLV>
10.2842

>  <SCORE.INTER.VDW>
-15.5291

>  <SCORE.INTER.norm>
-0.812634

>  <SCORE.INTRA>
-1.77759

>  <SCORE.INTRA.DIHEDRAL>
0.240113

>  <SCORE.INTRA.DIHEDRAL.0>
0.283163

>  <SCORE.INTRA.POLAR>
0

>  <SCORE.INTRA.POLAR.0>
0

>  <SCORE.INTRA.REPUL>
0

>  <SCORE.INTRA.REPUL.0>
0

>  <SCORE.INTRA.SOLV>
-0.110348

>  <SCORE.INTRA.SOLV.lig_0>
-32.2894

>  <SCORE.INTRA.VDW>
-1.84247

>  <SCORE.INTRA.VDW.0>
2.0241

>  <SCORE.INTRA.norm>
-0.148132

>  <SCORE.RESTR>
0

>  <SCORE.RESTR.CAVITY>
0

>  <SCORE.RESTR.norm>
0

>  <SCORE.SYSTEM>
0

>  <SCORE.SYSTEM.CONST>
0

>  <SCORE.SYSTEM.DIHEDRAL>
0

>  <SCORE.SYSTEM.SOLV>
0

>  <SCORE.SYSTEM.norm>
0

>  <SCORE.heavy>
12

>  <SCORE.norm>
-0.960766

>  <RMSD>
20.444

$$$$
ligand
 OpenBabel11021811513D
libRbt.so/2013.1/901 2013/11/27
 12 12  0  0  0  0  0  0  0  0999 V2000
   -0.8990   11.3337  -16.5647 O   0  0  0  0  0  0  0  0  0  0  0  0
    3.2152    7.9649  -10.8546 O   0  0  0  0  0  0  0  0  0  0  0  0
   -0.4887   10.1273  -17.0896 C   0  0  0  0  0  0  0  0  0  0  0  0
    2.6303    6.3704  -12.6045 O   0  0  0  0  0  0  0  0  0  0  0  0
   -0.2519    9.0899  -16.0704 C   0  0  0  0  0  0  0  0  0  0  0  0
    0.8951    7.2645  -11.1567 O   0  5  0  0  0  0  0  0  0  0  0  0
    0.6157    9.5753  -14.9890 N   0  3  0  0  0  0  0  0  0  0  0  0
    0.1076   10.8166  -14.4637 C   0  0  0  0  0  0  0  0  0  0  0  0
   -0.1187   11.8151  -15.5512 C   0  0  0  0  0  0  0  0  0  0  0  0
    0.7161    8.5812  -13.9632 C   0  0  0  0  0  0  0  0  0  0  0  0
    1.9081    8.9171  -13.0315 C   0  0  0  0  0  0  0  0  0  0  0  0
    2.1700    7.5785  -11.8500 S   0  0  1  0  0  0  0  0  0  0  0  0
  1  3  1  0  0  0  0
  1  9  1  0  0  0  0
  2 12  1  0  0  0  0
  3  5  1  0  0  0  0
  4 12  2  0  0  0  0
  5  7  1  0  0  0  0
  6 12  2  0  0  0  0
  7  8  1  0  0  0  0
  7 10  1  0  0  0  0
  8  9  1  0  0  0  0
 10 11  1  0  0  0  0
 12 11  1  6  0  0  0
M  CHG  2   6  -1   7   1
M  END
>  <CHROM.1>
164.68175265,-173.44864779,-173.65290722,1.01902792,8.94040992,-13.76498090
-2.88557571,1.10627915,-2.79084522

>  <Name>
ligand

>  <RI>
0

>  <Rbt.Current_Directory>
/home/itssahil/PROJECTS/Mol_Feturizer/New_Systems/rnas/4P95

>  <Rbt.Executable>
rbdock ($Id: //depot/dev/client3/rdock/2013.1/src/exe/rbdock.cxx#4 $)

>  <Rbt.Library>
libRbt.so (2013.1, Build901 2013/11/27)

>  <Rbt.Parameter_File>
/export/apps/rDock/src/rDock_2013.1_src/data/scripts/dock_solv.prm

>  <Rbt.Receptor>
prm/blind_docking_80.prm

>  <SCORE>
-10.2671

>  <SCORE.INTER>
-8.84794

>  <SCORE.INTER.CONST>
1

>  <SCORE.INTER.POLAR>
0

>  <SCORE.INTER.ROT>
3

>  <SCORE.INTER.SOLV>
12.3737

>  <SCORE.INTER.VDW>
-15.6232

>  <SCORE.INTER.norm>
-0.737329

>  <SCORE.INTRA>
-1.41915

>  <SCORE.INTRA.DIHEDRAL>
0.31745

>  <SCORE.INTRA.DIHEDRAL.0>
0.283163

>  <SCORE.INTRA.POLAR>
0

>  <SCORE.INTRA.POLAR.0>
0

>  <SCORE.INTRA.REPUL>
0

>  <SCORE.INTRA.REPUL.0>
0

>  <SCORE.INTRA.SOLV>
0.226898

>  <SCORE.INTRA.SOLV.lig_0>
-32.2894

>  <SCORE.INTRA.VDW>
-1.69133

>  <SCORE.INTRA.VDW.0>
2.0241

>  <SCORE.INTRA.norm>
-0.118263

>  <SCORE.RESTR>
0

>  <SCORE.RESTR.CAVITY>
0

>  <SCORE.RESTR.norm>
0

>  <SCORE.SYSTEM>
0

>  <SCORE.SYSTEM.CONST>
0

>  <SCORE.SYSTEM.DIHEDRAL>
0

>  <SCORE.SYSTEM.SOLV>
0

>  <SCORE.SYSTEM.norm>
0

>  <SCORE.heavy>
12

>  <SCORE.norm>
-0.855591

>  <RMSD>
20.458

$$$$
ligand
 OpenBabel11021811513D
libRbt.so/2013.1/901 2013/11/27
 12 12  0  0  0  0  0  0  0  0999 V2000
   11.9586   -2.3633  -14.9923 O   0  0  0  0  0  0  0  0  0  0  0  0
   13.4794    5.1617  -13.2620 O   0  0  0  0  0  0  0  0  0  0  0  0
   13.1523   -1.6804  -15.0817 C   0  0  0  0  0  0  0  0  0  0  0  0
   14.5144    3.4034  -11.9266 O   0  0  0  0  0  0  0  0  0  0  0  0
   13.2257   -0.5018  -14.2005 C   0  0  0  0  0  0  0  0  0  0  0  0
   12.1339    3.8418  -11.7090 O   0  5  0  0  0  0  0  0  0  0  0  0
   12.0499    0.3659  -14.3506 N   0  3  0  0  0  0  0  0  0  0  0  0
   10.8418   -0.4054  -14.2088 C   0  0  0  0  0  0  0  0  0  0  0  0
   10.8410   -1.5875  -15.1217 C   0  0  0  0  0  0  0  0  0  0  0  0
   12.1031    1.4268  -13.3904 C   0  0  0  0  0  0  0  0  0  0  0  0
   12.9565    2.5919  -13.9524 C   0  0  0  0  0  0  0  0  0  0  0  0
   13.2741    3.8100  -12.6595 S   0  0  1  0  0  0  0  0  0  0  0  0
  1  3  1  0  0  0  0
  1  9  1  0  0  0  0
  2 12  1  0  0  0  0
  3  5  1  0  0  0  0
  4 12  2  0  0  0  0
  5  7  1  0  0  0  0
  6 12  2  0  0  0  0
  7  8  1  0  0  0  0
  7 10  1  0  0  0  0
  8  9  1  0  0  0  0
 10 11  1  0  0  0  0
 12 11  1  6  0  0  0
M  CHG  2   6  -1   7   1
M  END
>  <CHROM.1>
85.27803371,-170.24016515,-152.72761879,12.63142272,1.47135219,-13.60665445
-1.80645266,-0.00160473,0.39152917

>  <Name>
ligand

>  <RI>
0

>  <Rbt.Current_Directory>
/home/itssahil/PROJECTS/Mol_Feturizer/New_Systems/rnas/4P95

>  <Rbt.Executable>
rbdock ($Id: //depot/dev/client3/rdock/2013.1/src/exe/rbdock.cxx#4 $)

>  <Rbt.Library>
libRbt.so (2013.1, Build901 2013/11/27)

>  <Rbt.Parameter_File>
/export/apps/rDock/src/rDock_2013.1_src/data/scripts/dock_solv.prm

>  <Rbt.Receptor>
prm/blind_docking_100.prm

>  <SCORE>
-8.44581

>  <SCORE.INTER>
-7.84914

>  <SCORE.INTER.CONST>
1

>  <SCORE.INTER.POLAR>
0

>  <SCORE.INTER.ROT>
3

>  <SCORE.INTER.SOLV>
7.08818

>  <SCORE.INTER.VDW>
-13.1955

>  <SCORE.INTER.norm>
-0.654095

>  <SCORE.INTRA>
-0.596669

>  <SCORE.INTRA.DIHEDRAL>
2.65289

>  <SCORE.INTRA.DIHEDRAL.0>
0.283163

>  <SCORE.INTRA.POLAR>
0

>  <SCORE.INTRA.POLAR.0>
0

>  <SCORE.INTRA.REPUL>
0

>  <SCORE.INTRA.REPUL.0>
0

>  <SCORE.INTRA.SOLV>
0.454337

>  <SCORE.INTRA.SOLV.lig_0>
-32.2894

>  <SCORE.INTRA.VDW>
-2.15028

>  <SCORE.INTRA.VDW.0>
2.0241

>  <SCORE.INTRA.norm>
-0.0497224

>  <SCORE.RESTR>
0

>  <SCORE.RESTR.CAVITY>
0

>  <SCORE.RESTR.norm>
0

>  <SCORE.SYSTEM>
0

>  <SCORE.SYSTEM.CONST>
0

>  <SCORE.SYSTEM.DIHEDRAL>
0

>  <SCORE.SYSTEM.SOLV>
0

>  <SCORE.SYSTEM.norm>
0

>  <SCORE.heavy>
12

>  <SCORE.norm>
-0.703817

>  <RMSD>
20.477

$$$$
ligand
 OpenBabel11021811513D
libRbt.so/2013.1/901 2013/11/27
 12 12  0  0  0  0  0  0  0  0999 V2000
   -0.3454   11.3441  -16.8191 O   0  0  0  0  0  0  0  0  0  0  0  0
    0.8328    7.0242  -10.3310 O   0  0  0  0  0  0  0  0  0  0  0  0
   -0.3159   11.7346  -15.4978 C   0  0  0  0  0  0  0  0  0  0  0  0
    2.7395    8.0577  -11.4456 O   0  0  0  0  0  0  0  0  0  0  0  0
    0.4706   10.8367  -14.6340 C   0  0  0  0  0  0  0  0  0  0  0  0
    1.7291    6.0580  -12.3871 O   0  5  0  0  0  0  0  0  0  0  0  0
    0.0846    9.4307  -14.8134 N   0  3  0  0  0  0  0  0  0  0  0  0
    0.1118    9.0824  -16.2108 C   0  0  0  0  0  0  0  0  0  0  0  0
   -0.6952   10.0393  -17.0255 C   0  0  0  0  0  0  0  0  0  0  0  0
    0.9554    8.5867  -14.0520 C   0  0  0  0  0  0  0  0  0  0  0  0
    0.3583    8.3666  -12.6390 C   0  0  0  0  0  0  0  0  0  0  0  0
    1.4536    7.3213  -11.6571 S   0  0  1  0  0  0  0  0  0  0  0  0
  1  3  1  0  0  0  0
  1  9  1  0  0  0  0
  2 12  1  0  0  0  0
  3  5  1  0  0  0  0
  4 12  2  0  0  0  0
  5  7  1  0  0  0  0
  6 12  2  0  0  0  0
  7  8  1  0  0  0  0
  7 10  1  0  0  0  0
  8  9  1  0  0  0  0
 10 11  1  0  0  0  0
 12 11  1  6  0  0  0
M  CHG  2   6  -1   7   1
M  END
>  <CHROM.1>
90.80360835,-179.28830630,-175.80429542,0.71819848,8.79987850,-13.69621453
-2.84916232,1.26168812,-2.80950217

>  <Name>
ligand

>  <RI>
0

>  <Rbt.Current_Directory>
/home/itssahil/PROJECTS/Mol_Feturizer/New_Systems/rnas/4P95

>  <Rbt.Executable>
rbdock ($Id: //depot/dev/client3/rdock/2013.1/src/exe/rbdock.cxx#4 $)

>  <Rbt.Library>
libRbt.so (2013.1, Build901 2013/11/27)

>  <Rbt.Parameter_File>
/export/apps/rDock/src/rDock_2013.1_src/data/scripts/dock_solv.prm

>  <Rbt.Receptor>
prm/blind_docking_100.prm

>  <SCORE>
-11.3096

>  <SCORE.INTER>
-9.56027

>  <SCORE.INTER.CONST>
1

>  <SCORE.INTER.POLAR>
0

>  <SCORE.INTER.ROT>
3

>  <SCORE.INTER.SOLV>
8.68567

>  <SCORE.INTER.VDW>
-14.8687

>  <SCORE.INTER.norm>
-0.796689

>  <SCORE.INTRA>
-1.74933

>  <SCORE.INTRA.DIHEDRAL>
1.09846

>  <SCORE.INTRA.DIHEDRAL.0>
0.283163

>  <SCORE.INTRA.POLAR>
0

>  <SCORE.INTRA.POLAR.0>
0

>  <SCORE.INTRA.REPUL>
0

>  <SCORE.INTRA.REPUL.0>
0

>  <SCORE.INTRA.SOLV>
0.222972

>  <SCORE.INTRA.SOLV.lig_0>
-32.2894

>  <SCORE.INTRA.VDW>
-2.41004

>  <SCORE.INTRA.VDW.0>
2.0241

>  <SCORE.INTRA.norm>
-0.145777

>  <SCORE.RESTR>
0

>  <SCORE.RESTR.CAVITY>
0

>  <SCORE.RESTR.norm>
0

>  <SCORE.SYSTEM>
0

>  <SCORE.SYSTEM.CONST>
0

>  <SCORE.SYSTEM.DIHEDRAL>
0

>  <SCORE.SYSTEM.SOLV>
0

>  <SCORE.SYSTEM.norm>
0

>  <SCORE.heavy>
12

>  <SCORE.norm>
-0.942466

>  <RMSD>
20.512

$$$$
ligand
 OpenBabel11021811513D
libRbt.so/2013.1/901 2013/11/27
 12 12  0  0  0  0  0  0  0  0999 V2000
    9.2083    8.9625  -15.6519 O   0  0  0  0  0  0  0  0  0  0  0  0
    5.5325    4.2547  -11.5444 O   0  0  0  0  0  0  0  0  0  0  0  0
    8.7532    9.4867  -14.4613 C   0  0  0  0  0  0  0  0  0  0  0  0
    4.4649    5.9739  -10.1838 O   0  0  0  0  0  0  0  0  0  0  0  0
    8.3491    8.4630  -13.4816 C   0  0  0  0  0  0  0  0  0  0  0  0
    6.8610    5.6085  -10.0060 O   0  5  0  0  0  0  0  0  0  0  0  0
    7.4308    7.4782  -14.0687 N   0  3  0  0  0  0  0  0  0  0  0  0
    7.9856    6.9460  -15.2868 C   0  0  0  0  0  0  0  0  0  0  0  0
    8.3823    8.0374  -16.2260 C   0  0  0  0  0  0  0  0  0  0  0  0
    7.1648    6.4371  -13.1223 C   0  0  0  0  0  0  0  0  0  0  0  0
    5.9646    6.8426  -12.2298 C   0  0  0  0  0  0  0  0  0  0  0  0
    5.7054    5.6093  -10.9383 S   0  0  1  0  0  0  0  0  0  0  0  0
  1  3  1  0  0  0  0
  1  9  1  0  0  0  0
  2 12  1  0  0  0  0
  3  5  1  0  0  0  0
  4 12  2  0  0  0  0
  5  7  1  0  0  0  0
  6 12  2  0  0  0  0
  7  8  1  0  0  0  0
  7 10  1  0  0  0  0
  8  9  1  0  0  0  0
 10 11  1  0  0  0  0
 12 11  1  6  0  0  0
M  CHG  2   6  -1   7   1
M  END
>  <CHROM.1>
87.74215260,-175.06669876,-55.37653636,6.99029550,6.84553764,-12.84832761
-0.41468534,1.00591497,1.07087624

>  <Name>
ligand

>  <RI>
0

>  <Rbt.Current_Directory>
/home/itssahil/PROJECTS/Mol_Feturizer/New_Systems/rnas/4P95

>  <Rbt.Executable>
rbdock ($Id: //depot/dev/client3/rdock/2013.1/src/exe/rbdock.cxx#4 $)

>  <Rbt.Library>
libRbt.so (2013.1, Build901 2013/11/27)

>  <Rbt.Parameter_File>
/export/apps/rDock/src/rDock_2013.1_src/data/scripts/dock_solv.prm

>  <Rbt.Receptor>
prm/blind_docking_60.prm

>  <SCORE>
-9.80547

>  <SCORE.INTER>
-7.92465

>  <SCORE.INTER.CONST>
1

>  <SCORE.INTER.POLAR>
0

>  <SCORE.INTER.ROT>
3

>  <SCORE.INTER.SOLV>
6.35706

>  <SCORE.INTER.VDW>
-13.0021

>  <SCORE.INTER.norm>
-0.660387

>  <SCORE.INTRA>
-1.88082

>  <SCORE.INTRA.DIHEDRAL>
1.00696

>  <SCORE.INTRA.DIHEDRAL.0>
0.283163

>  <SCORE.INTRA.POLAR>
0

>  <SCORE.INTRA.POLAR.0>
0

>  <SCORE.INTRA.REPUL>
0

>  <SCORE.INTRA.REPUL.0>
0

>  <SCORE.INTRA.SOLV>
-0.0577578

>  <SCORE.INTRA.SOLV.lig_0>
-32.2894

>  <SCORE.INTRA.VDW>
-2.35542

>  <SCORE.INTRA.VDW.0>
2.0241

>  <SCORE.INTRA.norm>
-0.156735

>  <SCORE.RESTR>
0

>  <SCORE.RESTR.CAVITY>
0

>  <SCORE.RESTR.norm>
0

>  <SCORE.SYSTEM>
0

>  <SCORE.SYSTEM.CONST>
0

>  <SCORE.SYSTEM.DIHEDRAL>
0

>  <SCORE.SYSTEM.SOLV>
0

>  <SCORE.SYSTEM.norm>
0

>  <SCORE.heavy>
12

>  <SCORE.norm>
-0.817122

>  <RMSD>
20.533

$$$$
ligand
 OpenBabel11021811513D
libRbt.so/2013.1/901 2013/11/27
 12 12  0  0  0  0  0  0  0  0999 V2000
    8.5488    7.4780  -15.9823 O   0  0  0  0  0  0  0  0  0  0  0  0
    5.9949    6.1437   -9.3773 O   0  0  0  0  0  0  0  0  0  0  0  0
    8.0859    8.4395  -15.1103 C   0  0  0  0  0  0  0  0  0  0  0  0
    6.7925    3.9578  -10.1070 O   0  0  0  0  0  0  0  0  0  0  0  0
    7.9389    7.9589  -13.7252 C   0  0  0  0  0  0  0  0  0  0  0  0
    4.4050    4.4024  -10.0137 O   0  5  0  0  0  0  0  0  0  0  0  0
    7.1772    6.7044  -13.6608 N   0  3  0  0  0  0  0  0  0  0  0  0
    7.7377    5.7357  -14.5675 C   0  0  0  0  0  0  0  0  0  0  0  0
    7.8678    6.2936  -15.9469 C   0  0  0  0  0  0  0  0  0  0  0  0
    7.1669    6.2107  -12.3168 C   0  0  0  0  0  0  0  0  0  0  0  0
    5.7955    5.5541  -12.0167 C   0  0  0  0  0  0  0  0  0  0  0  0
    5.7342    4.9986  -10.3010 S   0  0  1  0  0  0  0  0  0  0  0  0
  1  3  1  0  0  0  0
  1  9  1  0  0  0  0
  2 12  1  0  0  0  0
  3  5  1  0  0  0  0
  4 12  2  0  0  0  0
  5  7  1  0  0  0  0
  6 12  2  0  0  0  0
  7  8  1  0  0  0  0
  7 10  1  0  0  0  0
  8  9  1  0  0  0  0
 10 11  1  0  0  0  0
 12 11  1  6  0  0  0
M  CHG  2   6  -1   7   1
M  END
>  <CHROM.1>
143.82419181,-177.20535908,57.08916643,6.80501632,6.02202627,-12.47552248
0.20311548,-1.15728425,-2.48625694

>  <Name>
ligand

>  <RI>
0

>  <Rbt.Current_Directory>
/home/itssahil/PROJECTS/Mol_Feturizer/New_Systems/rnas/4P95

>  <Rbt.Executable>
rbdock ($Id: //depot/dev/client3/rdock/2013.1/src/exe/rbdock.cxx#4 $)

>  <Rbt.Library>
libRbt.so (2013.1, Build901 2013/11/27)

>  <Rbt.Parameter_File>
/export/apps/rDock/src/rDock_2013.1_src/data/scripts/dock_solv.prm

>  <Rbt.Receptor>
prm/blind_docking_20.prm

>  <SCORE>
-8.88555

>  <SCORE.INTER>
-6.65869

>  <SCORE.INTER.CONST>
1

>  <SCORE.INTER.POLAR>
0

>  <SCORE.INTER.ROT>
3

>  <SCORE.INTER.SOLV>
7.92542

>  <SCORE.INTER.VDW>
-12.6809

>  <SCORE.INTER.norm>
-0.55489

>  <SCORE.INTRA>
-2.22687

>  <SCORE.INTRA.DIHEDRAL>
1.27301

>  <SCORE.INTRA.DIHEDRAL.0>
0.283163

>  <SCORE.INTRA.POLAR>
0

>  <SCORE.INTRA.POLAR.0>
0

>  <SCORE.INTRA.REPUL>
0

>  <SCORE.INTRA.REPUL.0>
0

>  <SCORE.INTRA.SOLV>
-0.72033

>  <SCORE.INTRA.SOLV.lig_0>
-32.2894

>  <SCORE.INTRA.VDW>
-2.50321

>  <SCORE.INTRA.VDW.0>
2.0241

>  <SCORE.INTRA.norm>
-0.185572

>  <SCORE.RESTR>
0

>  <SCORE.RESTR.CAVITY>
0

>  <SCORE.RESTR.norm>
0

>  <SCORE.SYSTEM>
0

>  <SCORE.SYSTEM.CONST>
0

>  <SCORE.SYSTEM.DIHEDRAL>
0

>  <SCORE.SYSTEM.SOLV>
0

>  <SCORE.SYSTEM.norm>
0

>  <SCORE.heavy>
12

>  <SCORE.norm>
-0.740463

>  <RMSD>
20.613

$$$$
ligand
 OpenBabel11021811513D
libRbt.so/2013.1/901 2013/11/27
 12 12  0  0  0  0  0  0  0  0999 V2000
   -0.3654   10.0838  -16.6318 O   0  0  0  0  0  0  0  0  0  0  0  0
    3.2413    8.1516  -10.7063 O   0  0  0  0  0  0  0  0  0  0  0  0
   -0.3003   10.9862  -15.5922 C   0  0  0  0  0  0  0  0  0  0  0  0
    3.1179    6.2154  -12.1837 O   0  0  0  0  0  0  0  0  0  0  0  0
    0.6689   10.6138  -14.5468 C   0  0  0  0  0  0  0  0  0  0  0  0
    1.8074    6.2582  -10.1374 O   0  5  0  0  0  0  0  0  0  0  0  0
    0.4824    9.2273  -14.0987 N   0  3  0  0  0  0  0  0  0  0  0  0
    0.4618    8.3376  -15.2313 C   0  0  0  0  0  0  0  0  0  0  0  0
   -0.5329    8.7814  -16.2532 C   0  0  0  0  0  0  0  0  0  0  0  0
    1.5197    8.8703  -13.1784 C   0  0  0  0  0  0  0  0  0  0  0  0
    0.9778    7.8307  -12.1649 C   0  0  0  0  0  0  0  0  0  0  0  0
    2.3420    7.0877  -11.2467 S   0  0  1  0  0  0  0  0  0  0  0  0
  1  3  1  0  0  0  0
  1  9  1  0  0  0  0
  2 12  1  0  0  0  0
  3  5  1  0  0  0  0
  4 12  2  0  0  0  0
  5  7  1  0  0  0  0
  6 12  2  0  0  0  0
  7  8  1  0  0  0  0
  7 10  1  0  0  0  0
  8  9  1  0  0  0  0
 10 11  1  0  0  0  0
 12 11  1  6  0  0  0
M  CHG  2   6  -1   7   1
M  END
>  <CHROM.1>
149.46832401,167.02476999,49.60388239,1.26586577,8.36745177,-13.24456424
2.69533525,-1.08347331,0.06028584

>  <Name>
ligand

>  <RI>
0

>  <Rbt.Current_Directory>
/home/itssahil/PROJECTS/Mol_Feturizer/New_Systems/rnas/4P95

>  <Rbt.Executable>
rbdock ($Id: //depot/dev/client3/rdock/2013.1/src/exe/rbdock.cxx#4 $)

>  <Rbt.Library>
libRbt.so (2013.1, Build901 2013/11/27)

>  <Rbt.Parameter_File>
/export/apps/rDock/src/rDock_2013.1_src/data/scripts/dock_solv.prm

>  <Rbt.Receptor>
prm/blind_docking_60.prm

>  <SCORE>
-11.5193

>  <SCORE.INTER>
-9.65501

>  <SCORE.INTER.CONST>
1

>  <SCORE.INTER.POLAR>
0

>  <SCORE.INTER.ROT>
3

>  <SCORE.INTER.SOLV>
8.66514

>  <SCORE.INTER.VDW>
-14.9251

>  <SCORE.INTER.norm>
-0.804584

>  <SCORE.INTRA>
-1.86432

>  <SCORE.INTRA.DIHEDRAL>
1.72133

>  <SCORE.INTRA.DIHEDRAL.0>
0.283163

>  <SCORE.INTRA.POLAR>
0

>  <SCORE.INTRA.POLAR.0>
0

>  <SCORE.INTRA.REPUL>
0

>  <SCORE.INTRA.REPUL.0>
0

>  <SCORE.INTRA.SOLV>
-0.721158

>  <SCORE.INTRA.SOLV.lig_0>
-32.2894

>  <SCORE.INTRA.VDW>
-2.3644

>  <SCORE.INTRA.VDW.0>
2.0241

>  <SCORE.INTRA.norm>
-0.15536

>  <SCORE.RESTR>
0

>  <SCORE.RESTR.CAVITY>
0

>  <SCORE.RESTR.norm>
0

>  <SCORE.SYSTEM>
0

>  <SCORE.SYSTEM.CONST>
0

>  <SCORE.SYSTEM.DIHEDRAL>
0

>  <SCORE.SYSTEM.SOLV>
0

>  <SCORE.SYSTEM.norm>
0

>  <SCORE.heavy>
12

>  <SCORE.norm>
-0.959944

>  <RMSD>
20.671

$$$$
ligand
 OpenBabel11021811513D
libRbt.so/2013.1/901 2013/11/27
 12 12  0  0  0  0  0  0  0  0999 V2000
    8.1654    8.3746  -15.7311 O   0  0  0  0  0  0  0  0  0  0  0  0
    6.0334    3.5538  -10.7899 O   0  0  0  0  0  0  0  0  0  0  0  0
    8.0759    7.0180  -15.9572 C   0  0  0  0  0  0  0  0  0  0  0  0
    5.5458    5.7087   -9.7580 O   0  0  0  0  0  0  0  0  0  0  0  0
    7.2952    6.2992  -14.9351 C   0  0  0  0  0  0  0  0  0  0  0  0
    7.4319    4.3929   -8.9721 O   0  5  0  0  0  0  0  0  0  0  0  0
    7.7405    6.6310  -13.5751 N   0  3  0  0  0  0  0  0  0  0  0  0
    7.7743    8.0600  -13.3981 C   0  0  0  0  0  0  0  0  0  0  0  0
    8.5716    8.7224  -14.4735 C   0  0  0  0  0  0  0  0  0  0  0  0
    6.8771    6.0104  -12.6161 C   0  0  0  0  0  0  0  0  0  0  0  0
    7.6949    5.6200  -11.3589 C   0  0  0  0  0  0  0  0  0  0  0  0
    6.6377    4.7707  -10.1685 S   0  0  1  0  0  0  0  0  0  0  0  0
  1  3  1  0  0  0  0
  1  9  1  0  0  0  0
  2 12  1  0  0  0  0
  3  5  1  0  0  0  0
  4 12  2  0  0  0  0
  5  7  1  0  0  0  0
  6 12  2  0  0  0  0
  7  8  1  0  0  0  0
  7 10  1  0  0  0  0
  8  9  1  0  0  0  0
 10 11  1  0  0  0  0
 12 11  1  6  0  0  0
M  CHG  2   6  -1   7   1
M  END
>  <CHROM.1>
146.66084760,-177.51236770,58.14124495,7.23550932,6.09412261,-12.36037846
-0.83367138,1.20255358,1.41522361

>  <Name>
ligand

>  <RI>
0

>  <Rbt.Current_Directory>
/home/itssahil/PROJECTS/Mol_Feturizer/New_Systems/rnas/4P95

>  <Rbt.Executable>
rbdock ($Id: //depot/dev/client3/rdock/2013.1/src/exe/rbdock.cxx#4 $)

>  <Rbt.Library>
libRbt.so (2013.1, Build901 2013/11/27)

>  <Rbt.Parameter_File>
/export/apps/rDock/src/rDock_2013.1_src/data/scripts/dock_solv.prm

>  <Rbt.Receptor>
prm/blind_docking_100.prm

>  <SCORE>
-9.12804

>  <SCORE.INTER>
-6.86749

>  <SCORE.INTER.CONST>
1

>  <SCORE.INTER.POLAR>
0

>  <SCORE.INTER.ROT>
3

>  <SCORE.INTER.SOLV>
6.96224

>  <SCORE.INTER.VDW>
-12.4991

>  <SCORE.INTER.norm>
-0.572291

>  <SCORE.INTRA>
-2.26055

>  <SCORE.INTRA.DIHEDRAL>
1.08356

>  <SCORE.INTRA.DIHEDRAL.0>
0.283163

>  <SCORE.INTRA.POLAR>
0

>  <SCORE.INTRA.POLAR.0>
0

>  <SCORE.INTRA.REPUL>
0

>  <SCORE.INTRA.REPUL.0>
0

>  <SCORE.INTRA.SOLV>
-0.717284

>  <SCORE.INTRA.SOLV.lig_0>
-32.2894

>  <SCORE.INTRA.VDW>
-2.44369

>  <SCORE.INTRA.VDW.0>
2.0241

>  <SCORE.INTRA.norm>
-0.188379

>  <SCORE.RESTR>
0

>  <SCORE.RESTR.CAVITY>
0

>  <SCORE.RESTR.norm>
0

>  <SCORE.SYSTEM>
0

>  <SCORE.SYSTEM.CONST>
0

>  <SCORE.SYSTEM.DIHEDRAL>
0

>  <SCORE.SYSTEM.SOLV>
0

>  <SCORE.SYSTEM.norm>
0

>  <SCORE.heavy>
12

>  <SCORE.norm>
-0.76067

>  <RMSD>
20.733

$$$$
ligand
 OpenBabel11021811513D
libRbt.so/2013.1/901 2013/11/27
 12 12  0  0  0  0  0  0  0  0999 V2000
   -0.2441    9.9371  -16.6272 O   0  0  0  0  0  0  0  0  0  0  0  0
    1.5760    6.5999   -9.7086 O   0  0  0  0  0  0  0  0  0  0  0  0
    0.0246   10.8825  -15.6611 C   0  0  0  0  0  0  0  0  0  0  0  0
    3.2298    8.0834  -10.7138 O   0  0  0  0  0  0  0  0  0  0  0  0
    0.9669   10.4192  -14.6275 C   0  0  0  0  0  0  0  0  0  0  0  0
    2.7868    5.9140  -11.7156 O   0  5  0  0  0  0  0  0  0  0  0  0
    0.5699    9.1192  -14.0703 N   0  3  0  0  0  0  0  0  0  0  0  0
    0.3423    8.1724  -15.1317 C   0  0  0  0  0  0  0  0  0  0  0  0
   -0.6117    8.7118  -16.1463 C   0  0  0  0  0  0  0  0  0  0  0  0
    1.5756    8.6509  -13.1650 C   0  0  0  0  0  0  0  0  0  0  0  0
    0.9109    7.8248  -12.0348 C   0  0  0  0  0  0  0  0  0  0  0  0
    2.1745    7.0605  -10.9978 S   0  0  1  0  0  0  0  0  0  0  0  0
  1  3  1  0  0  0  0
  1  9  1  0  0  0  0
  2 12  1  0  0  0  0
  3  5  1  0  0  0  0
  4 12  2  0  0  0  0
  5  7  1  0  0  0  0
  6 12  2  0  0  0  0
  7  8  1  0  0  0  0
  7 10  1  0  0  0  0
  8  9  1  0  0  0  0
 10 11  1  0  0  0  0
 12 11  1  6  0  0  0
M  CHG  2   6  -1   7   1
M  END
>  <CHROM.1>
147.87616194,173.18344720,163.89125235,1.23709691,8.28599340,-13.11332534
2.38287191,-1.03442378,-0.32177941

>  <Name>
ligand

>  <RI>
0

>  <Rbt.Current_Directory>
/home/itssahil/PROJECTS/Mol_Feturizer/New_Systems/rnas/4P95

>  <Rbt.Executable>
rbdock ($Id: //depot/dev/client3/rdock/2013.1/src/exe/rbdock.cxx#4 $)

>  <Rbt.Library>
libRbt.so (2013.1, Build901 2013/11/27)

>  <Rbt.Parameter_File>
/export/apps/rDock/src/rDock_2013.1_src/data/scripts/dock_solv.prm

>  <Rbt.Receptor>
prm/blind_docking_60.prm

>  <SCORE>
-10.6514

>  <SCORE.INTER>
-9.1881

>  <SCORE.INTER.CONST>
1

>  <SCORE.INTER.POLAR>
0

>  <SCORE.INTER.ROT>
3

>  <SCORE.INTER.SOLV>
8.87064

>  <SCORE.INTER.VDW>
-14.6823

>  <SCORE.INTER.norm>
-0.765675

>  <SCORE.INTRA>
-1.46333

>  <SCORE.INTRA.DIHEDRAL>
1.71009

>  <SCORE.INTRA.DIHEDRAL.0>
0.283163

>  <SCORE.INTRA.POLAR>
0

>  <SCORE.INTRA.POLAR.0>
0

>  <SCORE.INTRA.REPUL>
0

>  <SCORE.INTRA.REPUL.0>
0

>  <SCORE.INTRA.SOLV>
0.0596179

>  <SCORE.INTRA.SOLV.lig_0>
-32.2894

>  <SCORE.INTRA.VDW>
-2.34819

>  <SCORE.INTRA.VDW.0>
2.0241

>  <SCORE.INTRA.norm>
-0.121944

>  <SCORE.RESTR>
0

>  <SCORE.RESTR.CAVITY>
0

>  <SCORE.RESTR.norm>
0

>  <SCORE.SYSTEM>
0

>  <SCORE.SYSTEM.CONST>
0

>  <SCORE.SYSTEM.DIHEDRAL>
0

>  <SCORE.SYSTEM.SOLV>
0

>  <SCORE.SYSTEM.norm>
0

>  <SCORE.heavy>
12

>  <SCORE.norm>
-0.88762

>  <RMSD>
20.741

$$$$
ligand
 OpenBabel11021811513D
libRbt.so/2013.1/901 2013/11/27
 12 12  0  0  0  0  0  0  0  0999 V2000
    8.5994    8.7715  -15.4299 O   0  0  0  0  0  0  0  0  0  0  0  0
    7.6498    5.1646   -9.6910 O   0  0  0  0  0  0  0  0  0  0  0  0
    8.0495    9.2282  -14.2516 C   0  0  0  0  0  0  0  0  0  0  0  0
    6.1312    3.6411  -10.8397 O   0  0  0  0  0  0  0  0  0  0  0  0
    7.9410    8.1919  -13.2099 C   0  0  0  0  0  0  0  0  0  0  0  0
    5.2399    5.3221   -9.3278 O   0  5  0  0  0  0  0  0  0  0  0  0
    7.2941    6.9743  -13.7166 N   0  3  0  0  0  0  0  0  0  0  0  0
    7.9420    6.5337  -14.9253 C   0  0  0  0  0  0  0  0  0  0  0  0
    8.0267    7.6358  -15.9297 C   0  0  0  0  0  0  0  0  0  0  0  0
    7.3230    5.9545  -12.7119 C   0  0  0  0  0  0  0  0  0  0  0  0
    6.1560    6.1750  -11.7163 C   0  0  0  0  0  0  0  0  0  0  0  0
    6.3027    5.0360  -10.3244 S   0  0  1  0  0  0  0  0  0  0  0  0
  1  3  1  0  0  0  0
  1  9  1  0  0  0  0
  2 12  1  0  0  0  0
  3  5  1  0  0  0  0
  4 12  2  0  0  0  0
  5  7  1  0  0  0  0
  6 12  2  0  0  0  0
  7  8  1  0  0  0  0
  7 10  1  0  0  0  0
  8  9  1  0  0  0  0
 10 11  1  0  0  0  0
 12 11  1  6  0  0  0
M  CHG  2   6  -1   7   1
M  END
>  <CHROM.1>
82.13203668,-172.52606958,54.33089269,7.12313214,6.37794837,-12.39980627
-0.16274817,1.24972812,0.76622528

>  <Name>
ligand

>  <RI>
0

>  <Rbt.Current_Directory>
/home/itssahil/PROJECTS/Mol_Feturizer/New_Systems/rnas/4P95

>  <Rbt.Executable>
rbdock ($Id: //depot/dev/client3/rdock/2013.1/src/exe/rbdock.cxx#4 $)

>  <Rbt.Library>
libRbt.so (2013.1, Build901 2013/11/27)

>  <Rbt.Parameter_File>
/export/apps/rDock/src/rDock_2013.1_src/data/scripts/dock_solv.prm

>  <Rbt.Receptor>
prm/blind_docking_20.prm

>  <SCORE>
-8.81176

>  <SCORE.INTER>
-6.70062

>  <SCORE.INTER.CONST>
1

>  <SCORE.INTER.POLAR>
0

>  <SCORE.INTER.ROT>
3

>  <SCORE.INTER.SOLV>
6.78889

>  <SCORE.INTER.VDW>
-12.33

>  <SCORE.INTER.norm>
-0.558385

>  <SCORE.INTRA>
-2.12787

>  <SCORE.INTRA.DIHEDRAL>
0.77261

>  <SCORE.INTRA.DIHEDRAL.0>
0.283163

>  <SCORE.INTRA.POLAR>
0

>  <SCORE.INTRA.POLAR.0>
0

>  <SCORE.INTRA.REPUL>
0

>  <SCORE.INTRA.REPUL.0>
0

>  <SCORE.INTRA.SOLV>
-0.719554

>  <SCORE.INTRA.SOLV.lig_0>
-32.2894

>  <SCORE.INTRA.VDW>
-2.15439

>  <SCORE.INTRA.VDW.0>
2.0241

>  <SCORE.INTRA.norm>
-0.177322

>  <SCORE.RESTR>
0.0167257

>  <SCORE.RESTR.CAVITY>
0.0167257

>  <SCORE.RESTR.norm>
0.00139381

>  <SCORE.SYSTEM>
0

>  <SCORE.SYSTEM.CONST>
0

>  <SCORE.SYSTEM.DIHEDRAL>
0

>  <SCORE.SYSTEM.SOLV>
0

>  <SCORE.SYSTEM.norm>
0

>  <SCORE.heavy>
12

>  <SCORE.norm>
-0.734313

>  <RMSD>
20.790

$$$$
ligand
 OpenBabel11021811513D
libRbt.so/2013.1/901 2013/11/27
 12 12  0  0  0  0  0  0  0  0999 V2000
    8.0539    7.5106  -16.3072 O   0  0  0  0  0  0  0  0  0  0  0  0
    8.4082    8.8602  -10.2423 O   0  0  0  0  0  0  0  0  0  0  0  0
    7.8618    6.2264  -15.8453 C   0  0  0  0  0  0  0  0  0  0  0  0
    9.8850    7.7840  -11.8569 O   0  0  0  0  0  0  0  0  0  0  0  0
    7.1213    6.1611  -14.5731 C   0  0  0  0  0  0  0  0  0  0  0  0
    9.7555    6.9324   -9.5844 O   0  5  0  0  0  0  0  0  0  0  0  0
    7.6933    7.0602  -13.5620 N   0  3  0  0  0  0  0  0  0  0  0  0
    7.8307    8.3893  -14.0997 C   0  0  0  0  0  0  0  0  0  0  0  0
    8.5799    8.3784  -15.3918 C   0  0  0  0  0  0  0  0  0  0  0  0
    6.8715    7.0581  -12.3893 C   0  0  0  0  0  0  0  0  0  0  0  0
    7.6585    6.4390  -11.2065 C   0  0  0  0  0  0  0  0  0  0  0  0
    8.9795    7.5534  -10.6875 S   0  0  1  0  0  0  0  0  0  0  0  0
  1  3  1  0  0  0  0
  1  9  1  0  0  0  0
  2 12  1  0  0  0  0
  3  5  1  0  0  0  0
  4 12  2  0  0  0  0
  5  7  1  0  0  0  0
  6 12  2  0  0  0  0
  7  8  1  0  0  0  0
  7 10  1  0  0  0  0
  8  9  1  0  0  0  0
 10 11  1  0  0  0  0
 12 11  1  6  0  0  0
M  CHG  2   6  -1   7   1
M  END
>  <CHROM.1>
114.32216987,70.13999919,60.37857292,8.32756310,7.39712204,-12.72615568,-1.91057469
0.83509323,1.75462182

>  <Name>
ligand

>  <RI>
0

>  <Rbt.Current_Directory>
/home/itssahil/PROJECTS/Mol_Feturizer/New_Systems/rnas/4P95

>  <Rbt.Executable>
rbdock ($Id: //depot/dev/client3/rdock/2013.1/src/exe/rbdock.cxx#4 $)

>  <Rbt.Library>
libRbt.so (2013.1, Build901 2013/11/27)

>  <Rbt.Parameter_File>
/export/apps/rDock/src/rDock_2013.1_src/data/scripts/dock_solv.prm

>  <Rbt.Receptor>
prm/blind_docking_20.prm

>  <SCORE>
-9.71756

>  <SCORE.INTER>
-7.61842

>  <SCORE.INTER.CONST>
1

>  <SCORE.INTER.POLAR>
0

>  <SCORE.INTER.ROT>
3

>  <SCORE.INTER.SOLV>
7.19878

>  <SCORE.INTER.VDW>
-13.0785

>  <SCORE.INTER.norm>
-0.634869

>  <SCORE.INTRA>
-2.09914

>  <SCORE.INTRA.DIHEDRAL>
2.46447

>  <SCORE.INTRA.DIHEDRAL.0>
0.283163

>  <SCORE.INTRA.POLAR>
0

>  <SCORE.INTRA.POLAR.0>
0

>  <SCORE.INTRA.REPUL>
0

>  <SCORE.INTRA.REPUL.0>
0

>  <SCORE.INTRA.SOLV>
0.083261

>  <SCORE.INTRA.SOLV.lig_0>
-32.2894

>  <SCORE.INTRA.VDW>
-3.373

>  <SCORE.INTRA.VDW.0>
2.0241

>  <SCORE.INTRA.norm>
-0.174928

>  <SCORE.RESTR>
0

>  <SCORE.RESTR.CAVITY>
0

>  <SCORE.RESTR.norm>
0

>  <SCORE.SYSTEM>
0

>  <SCORE.SYSTEM.CONST>
0

>  <SCORE.SYSTEM.DIHEDRAL>
0

>  <SCORE.SYSTEM.SOLV>
0

>  <SCORE.SYSTEM.norm>
0

>  <SCORE.heavy>
12

>  <SCORE.norm>
-0.809797

>  <RMSD>
20.920

$$$$
ligand
 OpenBabel11021811513D
libRbt.so/2013.1/901 2013/11/27
 12 12  0  0  0  0  0  0  0  0999 V2000
   -1.0514    9.9527  -14.4147 O   0  0  0  0  0  0  0  0  0  0  0  0
    4.8846    6.9683  -12.1018 O   0  0  0  0  0  0  0  0  0  0  0  0
    0.0156   10.5048  -13.7394 C   0  0  0  0  0  0  0  0  0  0  0  0
    3.4180    5.0553  -11.7331 O   0  0  0  0  0  0  0  0  0  0  0  0
    1.1099    9.5517  -13.4840 C   0  0  0  0  0  0  0  0  0  0  0  0
    4.2413    6.3292   -9.8342 O   0  5  0  0  0  0  0  0  0  0  0  0
    0.6196    8.3086  -12.8739 N   0  3  0  0  0  0  0  0  0  0  0  0
   -0.4669    7.7689  -13.6504 C   0  0  0  0  0  0  0  0  0  0  0  0
   -1.5319    8.7908  -13.8793 C   0  0  0  0  0  0  0  0  0  0  0  0
    1.6924    7.3672  -12.7597 C   0  0  0  0  0  0  0  0  0  0  0  0
    2.3286    7.4753  -11.3507 C   0  0  0  0  0  0  0  0  0  0  0  0
    3.7893    6.4210  -11.2455 S   0  0  1  0  0  0  0  0  0  0  0  0
  1  3  1  0  0  0  0
  1  9  1  0  0  0  0
  2 12  1  0  0  0  0
  3  5  1  0  0  0  0
  4 12  2  0  0  0  0
  5  7  1  0  0  0  0
  6 12  2  0  0  0  0
  7  8  1  0  0  0  0
  7 10  1  0  0  0  0
  8  9  1  0  0  0  0
 10 11  1  0  0  0  0
 12 11  1  6  0  0  0
M  CHG  2   6  -1   7   1
M  END
>  <CHROM.1>
94.40605934,-174.11652070,69.13073626,1.84420737,7.70705946,-12.44106122
-2.49553470,0.39042432,2.88633199

>  <Name>
ligand

>  <RI>
0

>  <Rbt.Current_Directory>
/home/itssahil/PROJECTS/Mol_Feturizer/New_Systems/rnas/4P95

>  <Rbt.Executable>
rbdock ($Id: //depot/dev/client3/rdock/2013.1/src/exe/rbdock.cxx#4 $)

>  <Rbt.Library>
libRbt.so (2013.1, Build901 2013/11/27)

>  <Rbt.Parameter_File>
/export/apps/rDock/src/rDock_2013.1_src/data/scripts/dock_solv.prm

>  <Rbt.Receptor>
prm/blind_docking_20.prm

>  <SCORE>
-8.57847

>  <SCORE.INTER>
-6.56147

>  <SCORE.INTER.CONST>
1

>  <SCORE.INTER.POLAR>
0

>  <SCORE.INTER.ROT>
3

>  <SCORE.INTER.SOLV>
6.33099

>  <SCORE.INTER.VDW>
-12.0846

>  <SCORE.INTER.norm>
-0.546789

>  <SCORE.INTRA>
-2.01699

>  <SCORE.INTRA.DIHEDRAL>
1.62189

>  <SCORE.INTRA.DIHEDRAL.0>
0.283163

>  <SCORE.INTRA.POLAR>
0

>  <SCORE.INTRA.POLAR.0>
0

>  <SCORE.INTRA.REPUL>
0

>  <SCORE.INTRA.REPUL.0>
0

>  <SCORE.INTRA.SOLV>
-0.681516

>  <SCORE.INTRA.SOLV.lig_0>
-32.2894

>  <SCORE.INTRA.VDW>
-2.48718

>  <SCORE.INTRA.VDW.0>
2.0241

>  <SCORE.INTRA.norm>
-0.168083

>  <SCORE.RESTR>
0

>  <SCORE.RESTR.CAVITY>
0

>  <SCORE.RESTR.norm>
0

>  <SCORE.SYSTEM>
0

>  <SCORE.SYSTEM.CONST>
0

>  <SCORE.SYSTEM.DIHEDRAL>
0

>  <SCORE.SYSTEM.SOLV>
0

>  <SCORE.SYSTEM.norm>
0

>  <SCORE.heavy>
12

>  <SCORE.norm>
-0.714872

>  <RMSD>
21.024

$$$$
ligand
 OpenBabel11021811513D
libRbt.so/2013.1/901 2013/11/27
 12 12  0  0  0  0  0  0  0  0999 V2000
   -1.1481    9.1194  -15.2762 O   0  0  0  0  0  0  0  0  0  0  0  0
    3.6948    8.1691   -9.9060 O   0  0  0  0  0  0  0  0  0  0  0  0
   -1.3172    9.6404  -14.0116 C   0  0  0  0  0  0  0  0  0  0  0  0
    4.7472    7.4563  -11.9871 O   0  0  0  0  0  0  0  0  0  0  0  0
   -0.0853    9.6402  -13.2033 C   0  0  0  0  0  0  0  0  0  0  0  0
    4.0117    5.7932  -10.3747 O   0  5  0  0  0  0  0  0  0  0  0  0
    0.5680    8.3245  -13.2044 N   0  3  0  0  0  0  0  0  0  0  0  0
    0.7463    7.8595  -14.5560 C   0  0  0  0  0  0  0  0  0  0  0  0
   -0.5378    7.8973  -15.3179 C   0  0  0  0  0  0  0  0  0  0  0  0
    1.8200    8.4030  -12.5141 C   0  0  0  0  0  0  0  0  0  0  0  0
    2.1023    7.0576  -11.7987 C   0  0  0  0  0  0  0  0  0  0  0  0
    3.7034    7.1187  -10.9686 S   0  0  1  0  0  0  0  0  0  0  0  0
  1  3  1  0  0  0  0
  1  9  1  0  0  0  0
  2 12  1  0  0  0  0
  3  5  1  0  0  0  0
  4 12  2  0  0  0  0
  5  7  1  0  0  0  0
  6 12  2  0  0  0  0
  7  8  1  0  0  0  0
  7 10  1  0  0  0  0
  8  9  1  0  0  0  0
 10 11  1  0  0  0  0
 12 11  1  6  0  0  0
M  CHG  2   6  -1   7   1
M  END
>  <CHROM.1>
147.15270640,178.10582427,62.82448546,1.78060085,7.93789975,-12.55800164
-2.84338019,-0.68919504,0.90680090

>  <Name>
ligand

>  <RI>
0

>  <Rbt.Current_Directory>
/home/itssahil/PROJECTS/Mol_Feturizer/New_Systems/rnas/4P95

>  <Rbt.Executable>
rbdock ($Id: //depot/dev/client3/rdock/2013.1/src/exe/rbdock.cxx#4 $)

>  <Rbt.Library>
libRbt.so (2013.1, Build901 2013/11/27)

>  <Rbt.Parameter_File>
/export/apps/rDock/src/rDock_2013.1_src/data/scripts/dock_solv.prm

>  <Rbt.Receptor>
prm/blind_docking_20.prm

>  <SCORE>
-10.7094

>  <SCORE.INTER>
-8.48113

>  <SCORE.INTER.CONST>
1

>  <SCORE.INTER.POLAR>
0

>  <SCORE.INTER.ROT>
3

>  <SCORE.INTER.SOLV>
7.58786

>  <SCORE.INTER.VDW>
-13.7834

>  <SCORE.INTER.norm>
-0.706761

>  <SCORE.INTRA>
-2.2283

>  <SCORE.INTRA.DIHEDRAL>
1.07001

>  <SCORE.INTRA.DIHEDRAL.0>
0.283163

>  <SCORE.INTRA.POLAR>
0

>  <SCORE.INTRA.POLAR.0>
0

>  <SCORE.INTRA.REPUL>
0

>  <SCORE.INTRA.REPUL.0>
0

>  <SCORE.INTRA.SOLV>
-0.70381

>  <SCORE.INTRA.SOLV.lig_0>
-32.2894

>  <SCORE.INTRA.VDW>
-2.4114

>  <SCORE.INTRA.VDW.0>
2.0241

>  <SCORE.INTRA.norm>
-0.185692

>  <SCORE.RESTR>
0

>  <SCORE.RESTR.CAVITY>
0

>  <SCORE.RESTR.norm>
0

>  <SCORE.SYSTEM>
0

>  <SCORE.SYSTEM.CONST>
0

>  <SCORE.SYSTEM.DIHEDRAL>
0

>  <SCORE.SYSTEM.SOLV>
0

>  <SCORE.SYSTEM.norm>
0

>  <SCORE.heavy>
12

>  <SCORE.norm>
-0.892453

>  <RMSD>
21.040

$$$$
ligand
 OpenBabel11021811513D
libRbt.so/2013.1/901 2013/11/27
 12 12  0  0  0  0  0  0  0  0999 V2000
   -1.2743    9.4716  -15.1406 O   0  0  0  0  0  0  0  0  0  0  0  0
    3.5861    8.2115   -9.9357 O   0  0  0  0  0  0  0  0  0  0  0  0
   -1.4262    9.6320  -13.7803 C   0  0  0  0  0  0  0  0  0  0  0  0
    4.6824    7.4078  -11.9603 O   0  0  0  0  0  0  0  0  0  0  0  0
   -0.1611    9.5433  -13.0303 C   0  0  0  0  0  0  0  0  0  0  0  0
    3.8429    5.8147  -10.3282 O   0  5  0  0  0  0  0  0  0  0  0  0
    0.6030    8.3411  -13.3894 N   0  3  0  0  0  0  0  0  0  0  0  0
    0.7550    8.2577  -14.8193 C   0  0  0  0  0  0  0  0  0  0  0  0
   -0.5631    8.3658  -15.5134 C   0  0  0  0  0  0  0  0  0  0  0  0
    1.8756    8.3602  -12.7334 C   0  0  0  0  0  0  0  0  0  0  0  0
    2.0216    7.0958  -11.8492 C   0  0  0  0  0  0  0  0  0  0  0  0
    3.5960    7.1316  -10.9682 S   0  0  1  0  0  0  0  0  0  0  0  0
  1  3  1  0  0  0  0
  1  9  1  0  0  0  0
  2 12  1  0  0  0  0
  3  5  1  0  0  0  0
  4 12  2  0  0  0  0
  5  7  1  0  0  0  0
  6 12  2  0  0  0  0
  7  8  1  0  0  0  0
  7 10  1  0  0  0  0
  8  9  1  0  0  0  0
 10 11  1  0  0  0  0
 12 11  1  6  0  0  0
M  CHG  2   6  -1   7   1
M  END
>  <CHROM.1>
121.54080778,-177.98745588,69.02234940,1.71045120,8.02615880,-12.57994780
2.66526800,0.61573055,-1.91608303

>  <Name>
ligand

>  <RI>
0

>  <Rbt.Current_Directory>
/home/itssahil/PROJECTS/Mol_Feturizer/New_Systems/rnas/4P95

>  <Rbt.Executable>
rbdock ($Id: //depot/dev/client3/rdock/2013.1/src/exe/rbdock.cxx#4 $)

>  <Rbt.Library>
libRbt.so (2013.1, Build901 2013/11/27)

>  <Rbt.Parameter_File>
/export/apps/rDock/src/rDock_2013.1_src/data/scripts/dock_solv.prm

>  <Rbt.Receptor>
prm/blind_docking_20.prm

>  <SCORE>
-9.94996

>  <SCORE.INTER>
-8.10596

>  <SCORE.INTER.CONST>
1

>  <SCORE.INTER.POLAR>
0

>  <SCORE.INTER.ROT>
3

>  <SCORE.INTER.SOLV>
7.77232

>  <SCORE.INTER.VDW>
-13.5947

>  <SCORE.INTER.norm>
-0.675497

>  <SCORE.INTRA>
-1.844

>  <SCORE.INTRA.DIHEDRAL>
2.34698

>  <SCORE.INTRA.DIHEDRAL.0>
0.283163

>  <SCORE.INTRA.POLAR>
0

>  <SCORE.INTRA.POLAR.0>
0

>  <SCORE.INTRA.REPUL>
0

>  <SCORE.INTRA.REPUL.0>
0

>  <SCORE.INTRA.SOLV>
-0.688317

>  <SCORE.INTRA.SOLV.lig_0>
-32.2894

>  <SCORE.INTRA.VDW>
-2.67333

>  <SCORE.INTRA.VDW.0>
2.0241

>  <SCORE.INTRA.norm>
-0.153667

>  <SCORE.RESTR>
0

>  <SCORE.RESTR.CAVITY>
0

>  <SCORE.RESTR.norm>
0

>  <SCORE.SYSTEM>
0

>  <SCORE.SYSTEM.CONST>
0

>  <SCORE.SYSTEM.DIHEDRAL>
0

>  <SCORE.SYSTEM.SOLV>
0

>  <SCORE.SYSTEM.norm>
0

>  <SCORE.heavy>
12

>  <SCORE.norm>
-0.829163

>  <RMSD>
21.051

$$$$
ligand
 OpenBabel11021811513D
libRbt.so/2013.1/901 2013/11/27
 12 12  0  0  0  0  0  0  0  0999 V2000
   -1.2331   10.2114  -14.8569 O   0  0  0  0  0  0  0  0  0  0  0  0
    3.5285    8.1915  -10.0544 O   0  0  0  0  0  0  0  0  0  0  0  0
   -1.4328    9.1709  -13.9755 C   0  0  0  0  0  0  0  0  0  0  0  0
    4.7886    7.4531  -12.0071 O   0  0  0  0  0  0  0  0  0  0  0  0
   -0.3093    8.9606  -13.0459 C   0  0  0  0  0  0  0  0  0  0  0  0
    3.6393    5.8190  -10.6233 O   0  5  0  0  0  0  0  0  0  0  0  0
    0.9762    8.8817  -13.7524 N   0  3  0  0  0  0  0  0  0  0  0  0
    1.1340   10.0167  -14.6251 C   0  0  0  0  0  0  0  0  0  0  0  0
   -0.0440   10.1752  -15.5295 C   0  0  0  0  0  0  0  0  0  0  0  0
    2.0473    8.8034  -12.8054 C   0  0  0  0  0  0  0  0  0  0  0  0
    2.1170    7.3704  -12.2195 C   0  0  0  0  0  0  0  0  0  0  0  0
    3.5745    7.1981  -11.1695 S   0  0  1  0  0  0  0  0  0  0  0  0
  1  3  1  0  0  0  0
  1  9  1  0  0  0  0
  2 12  1  0  0  0  0
  3  5  1  0  0  0  0
  4 12  2  0  0  0  0
  5  7  1  0  0  0  0
  6 12  2  0  0  0  0
  7  8  1  0  0  0  0
  7 10  1  0  0  0  0
  8  9  1  0  0  0  0
 10 11  1  0  0  0  0
 12 11  1  6  0  0  0
M  CHG  2   6  -1   7   1
M  END
>  <CHROM.1>
76.54532931,173.48308540,59.03700260,1.79742061,8.37368212,-12.68822527,2.33428504
0.01530137,-0.93723172

>  <Name>
ligand

>  <RI>
0

>  <Rbt.Current_Directory>
/home/itssahil/PROJECTS/Mol_Feturizer/New_Systems/rnas/4P95

>  <Rbt.Executable>
rbdock ($Id: //depot/dev/client3/rdock/2013.1/src/exe/rbdock.cxx#4 $)

>  <Rbt.Library>
libRbt.so (2013.1, Build901 2013/11/27)

>  <Rbt.Parameter_File>
/export/apps/rDock/src/rDock_2013.1_src/data/scripts/dock_solv.prm

>  <Rbt.Receptor>
prm/blind_docking_20.prm

>  <SCORE>
-10.3873

>  <SCORE.INTER>
-8.32251

>  <SCORE.INTER.CONST>
1

>  <SCORE.INTER.POLAR>
0

>  <SCORE.INTER.ROT>
3

>  <SCORE.INTER.SOLV>
8.57984

>  <SCORE.INTER.VDW>
-14.0083

>  <SCORE.INTER.norm>
-0.693542

>  <SCORE.INTRA>
-2.06476

>  <SCORE.INTRA.DIHEDRAL>
0.35594

>  <SCORE.INTRA.DIHEDRAL.0>
0.283163

>  <SCORE.INTRA.POLAR>
0

>  <SCORE.INTRA.POLAR.0>
0

>  <SCORE.INTRA.REPUL>
0

>  <SCORE.INTRA.REPUL.0>
0

>  <SCORE.INTRA.SOLV>
-0.711535

>  <SCORE.INTRA.SOLV.lig_0>
-32.2894

>  <SCORE.INTRA.VDW>
-1.88696

>  <SCORE.INTRA.VDW.0>
2.0241

>  <SCORE.INTRA.norm>
-0.172063

>  <SCORE.RESTR>
0

>  <SCORE.RESTR.CAVITY>
0

>  <SCORE.RESTR.norm>
0

>  <SCORE.SYSTEM>
0

>  <SCORE.SYSTEM.CONST>
0

>  <SCORE.SYSTEM.DIHEDRAL>
0

>  <SCORE.SYSTEM.SOLV>
0

>  <SCORE.SYSTEM.norm>
0

>  <SCORE.heavy>
12

>  <SCORE.norm>
-0.865606

>  <RMSD>
21.055

$$$$
ligand
 OpenBabel11021811513D
libRbt.so/2013.1/901 2013/11/27
 12 12  0  0  0  0  0  0  0  0999 V2000
    8.2720    7.9547  -15.9491 O   0  0  0  0  0  0  0  0  0  0  0  0
   10.4279    5.6612  -12.3662 O   0  0  0  0  0  0  0  0  0  0  0  0
    8.0577    6.8302  -15.1818 C   0  0  0  0  0  0  0  0  0  0  0  0
    8.7408    5.4992  -10.6129 O   0  0  0  0  0  0  0  0  0  0  0  0
    7.8787    7.1189  -13.7481 C   0  0  0  0  0  0  0  0  0  0  0  0
   11.0870    5.7100  -10.0151 O   0  5  0  0  0  0  0  0  0  0  0  0
    8.9489    7.9796  -13.2270 N   0  3  0  0  0  0  0  0  0  0  0  0
    9.0917    9.1505  -14.0536 C   0  0  0  0  0  0  0  0  0  0  0  0
    9.2576    8.7837  -15.4919 C   0  0  0  0  0  0  0  0  0  0  0  0
    8.6684    8.3355  -11.8687 C   0  0  0  0  0  0  0  0  0  0  0  0
    9.8553    7.9122  -10.9666 C   0  0  0  0  0  0  0  0  0  0  0  0
   10.0490    6.1183  -10.9951 S   0  0  1  0  0  0  0  0  0  0  0  0
  1  3  1  0  0  0  0
  1  9  1  0  0  0  0
  2 12  1  0  0  0  0
  3  5  1  0  0  0  0
  4 12  2  0  0  0  0
  5  7  1  0  0  0  0
  6 12  2  0  0  0  0
  7  8  1  0  0  0  0
  7 10  1  0  0  0  0
  8  9  1  0  0  0  0
 10 11  1  0  0  0  0
 12 11  1  1  0  0  0
M  CHG  2   6  -1   7   1
M  END
>  <CHROM.1>
123.63033168,-63.24688080,64.76046772,9.29170509,7.10634066,-12.67272159
2.60683477,-1.20298010,-0.11908369

>  <Name>
ligand

>  <RI>
0

>  <Rbt.Current_Directory>
/home/itssahil/PROJECTS/Mol_Feturizer/New_Systems/rnas/4P95

>  <Rbt.Executable>
rbdock ($Id: //depot/dev/client3/rdock/2013.1/src/exe/rbdock.cxx#4 $)

>  <Rbt.Library>
libRbt.so (2013.1, Build901 2013/11/27)

>  <Rbt.Parameter_File>
/export/apps/rDock/src/rDock_2013.1_src/data/scripts/dock_solv.prm

>  <Rbt.Receptor>
prm/blind_docking_60.prm

>  <SCORE>
-9.88854

>  <SCORE.INTER>
-7.23386

>  <SCORE.INTER.CONST>
1

>  <SCORE.INTER.POLAR>
0

>  <SCORE.INTER.ROT>
3

>  <SCORE.INTER.SOLV>
8.11789

>  <SCORE.INTER.VDW>
-13.1285

>  <SCORE.INTER.norm>
-0.602822

>  <SCORE.INTRA>
-2.65467

>  <SCORE.INTRA.DIHEDRAL>
2.19137

>  <SCORE.INTRA.DIHEDRAL.0>
0.283163

>  <SCORE.INTRA.POLAR>
0

>  <SCORE.INTRA.POLAR.0>
0

>  <SCORE.INTRA.REPUL>
0

>  <SCORE.INTRA.REPUL.0>
0

>  <SCORE.INTRA.SOLV>
-0.376266

>  <SCORE.INTRA.SOLV.lig_0>
-32.2894

>  <SCORE.INTRA.VDW>
-3.56223

>  <SCORE.INTRA.VDW.0>
2.0241

>  <SCORE.INTRA.norm>
-0.221223

>  <SCORE.RESTR>
0

>  <SCORE.RESTR.CAVITY>
0

>  <SCORE.RESTR.norm>
0

>  <SCORE.SYSTEM>
0

>  <SCORE.SYSTEM.CONST>
0

>  <SCORE.SYSTEM.DIHEDRAL>
0

>  <SCORE.SYSTEM.SOLV>
0

>  <SCORE.SYSTEM.norm>
0

>  <SCORE.heavy>
12

>  <SCORE.norm>
-0.824045

>  <RMSD>
21.064

$$$$
ligand
 OpenBabel11021811513D
libRbt.so/2013.1/901 2013/11/27
 12 12  0  0  0  0  0  0  0  0999 V2000
   -0.2859    9.3058  -15.3153 O   0  0  0  0  0  0  0  0  0  0  0  0
    2.8164    7.2698   -9.2581 O   0  0  0  0  0  0  0  0  0  0  0  0
    0.0105    7.9636  -15.4150 C   0  0  0  0  0  0  0  0  0  0  0  0
    5.1411    7.4768   -9.9647 O   0  0  0  0  0  0  0  0  0  0  0  0
    0.4477    7.3595  -14.1442 C   0  0  0  0  0  0  0  0  0  0  0  0
    3.8285    5.5599  -10.6780 O   0  5  0  0  0  0  0  0  0  0  0  0
    1.5150    8.1419  -13.5066 N   0  3  0  0  0  0  0  0  0  0  0  0
    1.1229    9.5239  -13.4015 C   0  0  0  0  0  0  0  0  0  0  0  0
    0.6822   10.0660  -14.7216 C   0  0  0  0  0  0  0  0  0  0  0  0
    1.8199    7.5907  -12.2208 C   0  0  0  0  0  0  0  0  0  0  0  0
    3.2852    7.9288  -11.8465 C   0  0  0  0  0  0  0  0  0  0  0  0
    3.7778    7.0120  -10.3723 S   0  0  1  0  0  0  0  0  0  0  0  0
  1  3  1  0  0  0  0
  1  9  1  0  0  0  0
  2 12  1  0  0  0  0
  3  5  1  0  0  0  0
  4 12  2  0  0  0  0
  5  7  1  0  0  0  0
  6 12  2  0  0  0  0
  7  8  1  0  0  0  0
  7 10  1  0  0  0  0
  8  9  1  0  0  0  0
 10 11  1  0  0  0  0
 12 11  1  6  0  0  0
M  CHG  2   6  -1   7   1
M  END
>  <CHROM.1>
153.67411809,-170.31919445,-54.62866883,2.21231661,7.82613177,-12.31475785
-2.73786603,0.87852721,3.03642174

>  <Name>
ligand

>  <RI>
0

>  <Rbt.Current_Directory>
/home/itssahil/PROJECTS/Mol_Feturizer/New_Systems/rnas/4P95

>  <Rbt.Executable>
rbdock ($Id: //depot/dev/client3/rdock/2013.1/src/exe/rbdock.cxx#4 $)

>  <Rbt.Library>
libRbt.so (2013.1, Build901 2013/11/27)

>  <Rbt.Parameter_File>
/export/apps/rDock/src/rDock_2013.1_src/data/scripts/dock_solv.prm

>  <Rbt.Receptor>
prm/blind_docking_20.prm

>  <SCORE>
-9.15016

>  <SCORE.INTER>
-7.40125

>  <SCORE.INTER.CONST>
1

>  <SCORE.INTER.POLAR>
0

>  <SCORE.INTER.ROT>
3

>  <SCORE.INTER.SOLV>
8.10573

>  <SCORE.INTER.VDW>
-13.2361

>  <SCORE.INTER.norm>
-0.616771

>  <SCORE.INTRA>
-1.74891

>  <SCORE.INTRA.DIHEDRAL>
1.05717

>  <SCORE.INTRA.DIHEDRAL.0>
0.283163

>  <SCORE.INTRA.POLAR>
0

>  <SCORE.INTRA.POLAR.0>
0

>  <SCORE.INTRA.REPUL>
0

>  <SCORE.INTRA.REPUL.0>
0

>  <SCORE.INTRA.SOLV>
-0.0959104

>  <SCORE.INTRA.SOLV.lig_0>
-32.2894

>  <SCORE.INTRA.VDW>
-2.22954

>  <SCORE.INTRA.VDW.0>
2.0241

>  <SCORE.INTRA.norm>
-0.145743

>  <SCORE.RESTR>
0

>  <SCORE.RESTR.CAVITY>
0

>  <SCORE.RESTR.norm>
0

>  <SCORE.SYSTEM>
0

>  <SCORE.SYSTEM.CONST>
0

>  <SCORE.SYSTEM.DIHEDRAL>
0

>  <SCORE.SYSTEM.SOLV>
0

>  <SCORE.SYSTEM.norm>
0

>  <SCORE.heavy>
12

>  <SCORE.norm>
-0.762513

>  <RMSD>
21.142

$$$$
ligand
 OpenBabel11021811513D
libRbt.so/2013.1/901 2013/11/27
 12 12  0  0  0  0  0  0  0  0999 V2000
    7.8706    7.4095  -15.3289 O   0  0  0  0  0  0  0  0  0  0  0  0
   10.8788    5.5246  -12.1069 O   0  0  0  0  0  0  0  0  0  0  0  0
    8.1681    6.2923  -14.5789 C   0  0  0  0  0  0  0  0  0  0  0  0
    9.3499    5.1826  -10.2383 O   0  0  0  0  0  0  0  0  0  0  0  0
    8.1597    6.5369  -13.1259 C   0  0  0  0  0  0  0  0  0  0  0  0
   11.6980    5.6387   -9.8090 O   0  5  0  0  0  0  0  0  0  0  0  0
    8.9693    7.7084  -12.7652 N   0  3  0  0  0  0  0  0  0  0  0  0
    8.5800    8.8451  -13.5595 C   0  0  0  0  0  0  0  0  0  0  0  0
    8.6004    8.5222  -15.0176 C   0  0  0  0  0  0  0  0  0  0  0  0
    8.8317    7.9822  -11.3665 C   0  0  0  0  0  0  0  0  0  0  0  0
   10.1760    7.7003  -10.6487 C   0  0  0  0  0  0  0  0  0  0  0  0
   10.5545    5.9369  -10.7079 S   0  0  1  0  0  0  0  0  0  0  0  0
  1  3  1  0  0  0  0
  1  9  1  0  0  0  0
  2 12  1  0  0  0  0
  3  5  1  0  0  0  0
  4 12  2  0  0  0  0
  5  7  1  0  0  0  0
  6 12  2  0  0  0  0
  7  8  1  0  0  0  0
  7 10  1  0  0  0  0
  8  9  1  0  0  0  0
 10 11  1  0  0  0  0
 12 11  1  1  0  0  0
M  CHG  2   6  -1   7   1
M  END
>  <CHROM.1>
112.08297690,-66.40086960,69.09027838,9.46001717,6.80609570,-12.25409116
3.08363913,-1.07443570,0.36463119

>  <Name>
ligand

>  <RI>
0

>  <Rbt.Current_Directory>
/home/itssahil/PROJECTS/Mol_Feturizer/New_Systems/rnas/4P95

>  <Rbt.Executable>
rbdock ($Id: //depot/dev/client3/rdock/2013.1/src/exe/rbdock.cxx#4 $)

>  <Rbt.Library>
libRbt.so (2013.1, Build901 2013/11/27)

>  <Rbt.Parameter_File>
/export/apps/rDock/src/rDock_2013.1_src/data/scripts/dock_solv.prm

>  <Rbt.Receptor>
prm/blind_docking_20.prm

>  <SCORE>
-9.09484

>  <SCORE.INTER>
-6.64263

>  <SCORE.INTER.CONST>
1

>  <SCORE.INTER.POLAR>
0

>  <SCORE.INTER.ROT>
3

>  <SCORE.INTER.SOLV>
7.02388

>  <SCORE.INTER.VDW>
-12.3697

>  <SCORE.INTER.norm>
-0.553552

>  <SCORE.INTRA>
-2.45265

>  <SCORE.INTRA.DIHEDRAL>
2.42482

>  <SCORE.INTRA.DIHEDRAL.0>
0.283163

>  <SCORE.INTRA.POLAR>
0

>  <SCORE.INTRA.POLAR.0>
0

>  <SCORE.INTRA.REPUL>
0

>  <SCORE.INTRA.REPUL.0>
0

>  <SCORE.INTRA.SOLV>
-0.363368

>  <SCORE.INTRA.SOLV.lig_0>
-32.2894

>  <SCORE.INTRA.VDW>
-3.48338

>  <SCORE.INTRA.VDW.0>
2.0241

>  <SCORE.INTRA.norm>
-0.204387

>  <SCORE.RESTR>
0.000442827

>  <SCORE.RESTR.CAVITY>
0.000442827

>  <SCORE.RESTR.norm>
3.69022e-05

>  <SCORE.SYSTEM>
0

>  <SCORE.SYSTEM.CONST>
0

>  <SCORE.SYSTEM.DIHEDRAL>
0

>  <SCORE.SYSTEM.SOLV>
0

>  <SCORE.SYSTEM.norm>
0

>  <SCORE.heavy>
12

>  <SCORE.norm>
-0.757903

>  <RMSD>
21.371

$$$$
ligand
 OpenBabel11021811513D
libRbt.so/2013.1/901 2013/11/27
 12 12  0  0  0  0  0  0  0  0999 V2000
    6.5884   19.4348  -21.7592 O   0  0  0  0  0  0  0  0  0  0  0  0
    8.0853   14.8419  -16.7864 O   0  0  0  0  0  0  0  0  0  0  0  0
    7.1885   18.3486  -22.3586 C   0  0  0  0  0  0  0  0  0  0  0  0
   10.2606   15.6641  -16.0526 O   0  0  0  0  0  0  0  0  0  0  0  0
    7.3894   17.2078  -21.4480 C   0  0  0  0  0  0  0  0  0  0  0  0
   10.1217   14.1249  -17.9283 O   0  5  0  0  0  0  0  0  0  0  0  0
    8.0464   17.6157  -20.1990 N   0  3  0  0  0  0  0  0  0  0  0  0
    7.3463   18.7279  -19.6096 C   0  0  0  0  0  0  0  0  0  0  0  0
    7.1690   19.8403  -20.5904 C   0  0  0  0  0  0  0  0  0  0  0  0
    8.1076   16.5053  -19.2970 C   0  0  0  0  0  0  0  0  0  0  0  0
    9.3306   16.6667  -18.3590 C   0  0  0  0  0  0  0  0  0  0  0  0
    9.4473   15.2551  -17.2409 S   0  0  1  0  0  0  0  0  0  0  0  0
  1  3  1  0  0  0  0
  1  9  1  0  0  0  0
  2 12  1  0  0  0  0
  3  5  1  0  0  0  0
  4 12  2  0  0  0  0
  5  7  1  0  0  0  0
  6 12  2  0  0  0  0
  7  8  1  0  0  0  0
  7 10  1  0  0  0  0
  8  9  1  0  0  0  0
 10 11  1  0  0  0  0
 12 11  1  6  0  0  0
M  CHG  2   6  -1   7   1
M  END
>  <CHROM.1>
152.03814723,-178.62278103,-39.13014876,8.38793547,16.81480399,-19.06336335
3.04171790,1.15979965,-2.31467795

>  <Name>
ligand

>  <RI>
0

>  <Rbt.Current_Directory>
/home/itssahil/PROJECTS/Mol_Feturizer/New_Systems/rnas/4P95

>  <Rbt.Executable>
rbdock ($Id: //depot/dev/client3/rdock/2013.1/src/exe/rbdock.cxx#4 $)

>  <Rbt.Library>
libRbt.so (2013.1, Build901 2013/11/27)

>  <Rbt.Parameter_File>
/export/apps/rDock/src/rDock_2013.1_src/data/scripts/dock_solv.prm

>  <Rbt.Receptor>
prm/blind_docking_80.prm

>  <SCORE>
-7.17941

>  <SCORE.INTER>
-5.72645

>  <SCORE.INTER.CONST>
1

>  <SCORE.INTER.POLAR>
0

>  <SCORE.INTER.ROT>
3

>  <SCORE.INTER.SOLV>
10.9708

>  <SCORE.INTER.VDW>
-13.0746

>  <SCORE.INTER.norm>
-0.477204

>  <SCORE.INTRA>
-1.45295

>  <SCORE.INTRA.DIHEDRAL>
1.75734

>  <SCORE.INTRA.DIHEDRAL.0>
0.283163

>  <SCORE.INTRA.POLAR>
0

>  <SCORE.INTRA.POLAR.0>
0

>  <SCORE.INTRA.REPUL>
0

>  <SCORE.INTRA.REPUL.0>
0

>  <SCORE.INTRA.SOLV>
-0.276838

>  <SCORE.INTRA.SOLV.lig_0>
-32.2894

>  <SCORE.INTRA.VDW>
-2.1932

>  <SCORE.INTRA.VDW.0>
2.0241

>  <SCORE.INTRA.norm>
-0.12108

>  <SCORE.RESTR>
0

>  <SCORE.RESTR.CAVITY>
0

>  <SCORE.RESTR.norm>
0

>  <SCORE.SYSTEM>
0

>  <SCORE.SYSTEM.CONST>
0

>  <SCORE.SYSTEM.DIHEDRAL>
0

>  <SCORE.SYSTEM.SOLV>
0

>  <SCORE.SYSTEM.norm>
0

>  <SCORE.heavy>
12

>  <SCORE.norm>
-0.598284

>  <RMSD>
21.516

$$$$
ligand
 OpenBabel11021811513D
libRbt.so/2013.1/901 2013/11/27
 12 12  0  0  0  0  0  0  0  0999 V2000
    8.3432    8.0314  -16.5920 O   0  0  0  0  0  0  0  0  0  0  0  0
    8.4073    9.5799   -9.6316 O   0  0  0  0  0  0  0  0  0  0  0  0
    8.0271    6.9120  -15.8529 C   0  0  0  0  0  0  0  0  0  0  0  0
   10.2444    8.1425   -8.9209 O   0  0  0  0  0  0  0  0  0  0  0  0
    7.7462    7.2001  -14.4355 C   0  0  0  0  0  0  0  0  0  0  0  0
    8.0821    7.1663   -9.4483 O   0  5  0  0  0  0  0  0  0  0  0  0
    8.8033    8.0171  -13.8248 N   0  3  0  0  0  0  0  0  0  0  0  0
    9.0546    9.1858  -14.6283 C   0  0  0  0  0  0  0  0  0  0  0  0
    9.3198    8.8202  -16.0519 C   0  0  0  0  0  0  0  0  0  0  0  0
    8.4297    8.3766  -12.4901 C   0  0  0  0  0  0  0  0  0  0  0  0
    9.5836    8.0256  -11.5169 C   0  0  0  0  0  0  0  0  0  0  0  0
    9.0430    8.2394   -9.8086 S   0  0  1  0  0  0  0  0  0  0  0  0
  1  3  1  0  0  0  0
  1  9  1  0  0  0  0
  2 12  1  0  0  0  0
  3  5  1  0  0  0  0
  4 12  2  0  0  0  0
  5  7  1  0  0  0  0
  6 12  2  0  0  0  0
  7  8  1  0  0  0  0
  7 10  1  0  0  0  0
  8  9  1  0  0  0  0
 10 11  1  0  0  0  0
 12 11  1  6  0  0  0
M  CHG  2   6  -1   7   1
M  END
>  <CHROM.1>
128.96065891,-171.56277825,-50.11324205,8.78405905,8.15411612,-12.42629086
1.72816685,-0.97026146,-1.48140857

>  <Name>
ligand

>  <RI>
0

>  <Rbt.Current_Directory>
/home/itssahil/PROJECTS/Mol_Feturizer/New_Systems/rnas/4P95

>  <Rbt.Executable>
rbdock ($Id: //depot/dev/client3/rdock/2013.1/src/exe/rbdock.cxx#4 $)

>  <Rbt.Library>
libRbt.so (2013.1, Build901 2013/11/27)

>  <Rbt.Parameter_File>
/export/apps/rDock/src/rDock_2013.1_src/data/scripts/dock_solv.prm

>  <Rbt.Receptor>
prm/blind_docking_80.prm

>  <SCORE>
-11.7008

>  <SCORE.INTER>
-10.1861

>  <SCORE.INTER.CONST>
1

>  <SCORE.INTER.POLAR>
0

>  <SCORE.INTER.ROT>
3

>  <SCORE.INTER.SOLV>
8.46541

>  <SCORE.INTER.VDW>
-15.2126

>  <SCORE.INTER.norm>
-0.848845

>  <SCORE.INTRA>
-1.51462

>  <SCORE.INTRA.DIHEDRAL>
2.48651

>  <SCORE.INTRA.DIHEDRAL.0>
0.283163

>  <SCORE.INTRA.POLAR>
0

>  <SCORE.INTRA.POLAR.0>
0

>  <SCORE.INTRA.REPUL>
0

>  <SCORE.INTRA.REPUL.0>
0

>  <SCORE.INTRA.SOLV>
-0.170751

>  <SCORE.INTRA.SOLV.lig_0>
-32.2894

>  <SCORE.INTRA.VDW>
-2.6725

>  <SCORE.INTRA.VDW.0>
2.0241

>  <SCORE.INTRA.norm>
-0.126218

>  <SCORE.RESTR>
0

>  <SCORE.RESTR.CAVITY>
0

>  <SCORE.RESTR.norm>
0

>  <SCORE.SYSTEM>
0

>  <SCORE.SYSTEM.CONST>
0

>  <SCORE.SYSTEM.DIHEDRAL>
0

>  <SCORE.SYSTEM.SOLV>
0

>  <SCORE.SYSTEM.norm>
0

>  <SCORE.heavy>
12

>  <SCORE.norm>
-0.975063

>  <RMSD>
21.597

$$$$
ligand
 OpenBabel11021811513D
libRbt.so/2013.1/901 2013/11/27
 12 12  0  0  0  0  0  0  0  0999 V2000
    7.7953    8.1888  -15.4253 O   0  0  0  0  0  0  0  0  0  0  0  0
    9.1014    4.2850   -9.6555 O   0  0  0  0  0  0  0  0  0  0  0  0
    8.0885    6.8458  -15.3256 C   0  0  0  0  0  0  0  0  0  0  0  0
    9.4881    6.4807   -8.6676 O   0  0  0  0  0  0  0  0  0  0  0  0
    8.1090    6.3472  -13.9393 C   0  0  0  0  0  0  0  0  0  0  0  0
   11.3701    5.0091   -9.1137 O   0  5  0  0  0  0  0  0  0  0  0  0
    8.9426    7.1876  -13.0694 N   0  3  0  0  0  0  0  0  0  0  0  0
    8.5572    8.5697  -13.1962 C   0  0  0  0  0  0  0  0  0  0  0  0
    8.5475    9.0025  -14.6256 C   0  0  0  0  0  0  0  0  0  0  0  0
    8.8333    6.7416  -11.7131 C   0  0  0  0  0  0  0  0  0  0  0  0
   10.2023    6.1938  -11.2361 C   0  0  0  0  0  0  0  0  0  0  0  0
   10.0380    5.4478   -9.6012 S   0  0  1  0  0  0  0  0  0  0  0  0
  1  3  1  0  0  0  0
  1  9  1  0  0  0  0
  2 12  1  0  0  0  0
  3  5  1  0  0  0  0
  4 12  2  0  0  0  0
  5  7  1  0  0  0  0
  6 12  2  0  0  0  0
  7  8  1  0  0  0  0
  7 10  1  0  0  0  0
  8  9  1  0  0  0  0
 10 11  1  0  0  0  0
 12 11  1  6  0  0  0
M  CHG  2   6  -1   7   1
M  END
>  <CHROM.1>
114.51873204,-173.27617860,62.33517209,9.19173034,6.54762806,-11.83827528
2.54977873,-1.19026842,-0.18096250

>  <Name>
ligand

>  <RI>
0

>  <Rbt.Current_Directory>
/home/itssahil/PROJECTS/Mol_Feturizer/New_Systems/rnas/4P95

>  <Rbt.Executable>
rbdock ($Id: //depot/dev/client3/rdock/2013.1/src/exe/rbdock.cxx#4 $)

>  <Rbt.Library>
libRbt.so (2013.1, Build901 2013/11/27)

>  <Rbt.Parameter_File>
/export/apps/rDock/src/rDock_2013.1_src/data/scripts/dock_solv.prm

>  <Rbt.Receptor>
prm/blind_docking_20.prm

>  <SCORE>
-7.50285

>  <SCORE.INTER>
-5.58629

>  <SCORE.INTER.CONST>
1

>  <SCORE.INTER.POLAR>
0

>  <SCORE.INTER.ROT>
3

>  <SCORE.INTER.SOLV>
5.55483

>  <SCORE.INTER.VDW>
-11.1758

>  <SCORE.INTER.norm>
-0.465524

>  <SCORE.INTRA>
-1.91656

>  <SCORE.INTRA.DIHEDRAL>
2.27634

>  <SCORE.INTRA.DIHEDRAL.0>
0.283163

>  <SCORE.INTRA.POLAR>
0

>  <SCORE.INTRA.POLAR.0>
0

>  <SCORE.INTRA.REPUL>
0

>  <SCORE.INTRA.REPUL.0>
0

>  <SCORE.INTRA.SOLV>
-0.708306

>  <SCORE.INTRA.SOLV.lig_0>
-32.2894

>  <SCORE.INTRA.VDW>
-2.70058

>  <SCORE.INTRA.VDW.0>
2.0241

>  <SCORE.INTRA.norm>
-0.159714

>  <SCORE.RESTR>
0

>  <SCORE.RESTR.CAVITY>
0

>  <SCORE.RESTR.norm>
0

>  <SCORE.SYSTEM>
0

>  <SCORE.SYSTEM.CONST>
0

>  <SCORE.SYSTEM.DIHEDRAL>
0

>  <SCORE.SYSTEM.SOLV>
0

>  <SCORE.SYSTEM.norm>
0

>  <SCORE.heavy>
12

>  <SCORE.norm>
-0.625237

>  <RMSD>
21.607

$$$$
ligand
 OpenBabel11021811513D
libRbt.so/2013.1/901 2013/11/27
 12 12  0  0  0  0  0  0  0  0999 V2000
    7.7869    7.4570  -16.0670 O   0  0  0  0  0  0  0  0  0  0  0  0
   10.9239    8.1418   -8.9047 O   0  0  0  0  0  0  0  0  0  0  0  0
    7.9554    6.1872  -15.5585 C   0  0  0  0  0  0  0  0  0  0  0  0
    9.6715    6.0772   -9.2444 O   0  0  0  0  0  0  0  0  0  0  0  0
    7.8982    6.1278  -14.0875 C   0  0  0  0  0  0  0  0  0  0  0  0
    8.4890    8.1945   -9.0866 O   0  5  0  0  0  0  0  0  0  0  0  0
    8.7835    7.1220  -13.4663 N   0  3  0  0  0  0  0  0  0  0  0  0
    8.5273    8.4281  -14.0168 C   0  0  0  0  0  0  0  0  0  0  0  0
    8.5903    8.4113  -15.5089 C   0  0  0  0  0  0  0  0  0  0  0  0
    8.6025    7.1137  -12.0459 C   0  0  0  0  0  0  0  0  0  0  0  0
    9.8564    7.7135  -11.3605 C   0  0  0  0  0  0  0  0  0  0  0  0
    9.7299    7.5373   -9.5691 S   0  0  1  0  0  0  0  0  0  0  0  0
  1  3  1  0  0  0  0
  1  9  1  0  0  0  0
  2 12  1  0  0  0  0
  3  5  1  0  0  0  0
  4 12  2  0  0  0  0
  5  7  1  0  0  0  0
  6 12  2  0  0  0  0
  7  8  1  0  0  0  0
  7 10  1  0  0  0  0
  8  9  1  0  0  0  0
 10 11  1  0  0  0  0
 12 11  1  6  0  0  0
M  CHG  2   6  -1   7   1
M  END
>  <CHROM.1>
158.18447914,-173.46695801,-178.75928417,8.99104267,7.39466975,-12.08147993
-2.36585894,1.18228072,2.28279367

>  <Name>
ligand

>  <RI>
0

>  <Rbt.Current_Directory>
/home/itssahil/PROJECTS/Mol_Feturizer/New_Systems/rnas/4P95

>  <Rbt.Executable>
rbdock ($Id: //depot/dev/client3/rdock/2013.1/src/exe/rbdock.cxx#4 $)

>  <Rbt.Library>
libRbt.so (2013.1, Build901 2013/11/27)

>  <Rbt.Parameter_File>
/export/apps/rDock/src/rDock_2013.1_src/data/scripts/dock_solv.prm

>  <Rbt.Receptor>
prm/blind_docking_20.prm

>  <SCORE>
-8.69763

>  <SCORE.INTER>
-7.01281

>  <SCORE.INTER.CONST>
1

>  <SCORE.INTER.POLAR>
0

>  <SCORE.INTER.ROT>
3

>  <SCORE.INTER.SOLV>
9.47018

>  <SCORE.INTER.VDW>
-13.4319

>  <SCORE.INTER.norm>
-0.5844

>  <SCORE.INTRA>
-1.68482

>  <SCORE.INTRA.DIHEDRAL>
0.526165

>  <SCORE.INTRA.DIHEDRAL.0>
0.283163

>  <SCORE.INTRA.POLAR>
0

>  <SCORE.INTRA.POLAR.0>
0

>  <SCORE.INTRA.REPUL>
0

>  <SCORE.INTRA.REPUL.0>
0

>  <SCORE.INTRA.SOLV>
0.173539

>  <SCORE.INTRA.SOLV.lig_0>
-32.2894

>  <SCORE.INTRA.VDW>
-2.03467

>  <SCORE.INTRA.VDW.0>
2.0241

>  <SCORE.INTRA.norm>
-0.140402

>  <SCORE.RESTR>
0

>  <SCORE.RESTR.CAVITY>
0

>  <SCORE.RESTR.norm>
0

>  <SCORE.SYSTEM>
0

>  <SCORE.SYSTEM.CONST>
0

>  <SCORE.SYSTEM.DIHEDRAL>
0

>  <SCORE.SYSTEM.SOLV>
0

>  <SCORE.SYSTEM.norm>
0

>  <SCORE.heavy>
12

>  <SCORE.norm>
-0.724802

>  <RMSD>
21.652

$$$$
ligand
 OpenBabel11021811513D
libRbt.so/2013.1/901 2013/11/27
 12 12  0  0  0  0  0  0  0  0999 V2000
    7.7882    7.2336  -15.9566 O   0  0  0  0  0  0  0  0  0  0  0  0
    8.6177    6.4478   -8.9327 O   0  0  0  0  0  0  0  0  0  0  0  0
    7.9744    6.0340  -15.3042 C   0  0  0  0  0  0  0  0  0  0  0  0
    9.4416    8.7341   -9.1339 O   0  0  0  0  0  0  0  0  0  0  0  0
    7.9192    6.1454  -13.8361 C   0  0  0  0  0  0  0  0  0  0  0  0
   11.0048    6.9192   -8.7224 O   0  5  0  0  0  0  0  0  0  0  0  0
    8.7914    7.2169  -13.3369 N   0  3  0  0  0  0  0  0  0  0  0  0
    8.5170    8.4466  -14.0350 C   0  0  0  0  0  0  0  0  0  0  0  0
    8.5790    8.2571  -15.5152 C   0  0  0  0  0  0  0  0  0  0  0  0
    8.6117    7.3716  -11.9248 C   0  0  0  0  0  0  0  0  0  0  0  0
    9.9545    7.1030  -11.1993 C   0  0  0  0  0  0  0  0  0  0  0  0
    9.7479    7.2965   -9.4171 S   0  0  1  0  0  0  0  0  0  0  0  0
  1  3  1  0  0  0  0
  1  9  1  0  0  0  0
  2 12  1  0  0  0  0
  3  5  1  0  0  0  0
  4 12  2  0  0  0  0
  5  7  1  0  0  0  0
  6 12  2  0  0  0  0
  7  8  1  0  0  0  0
  7 10  1  0  0  0  0
  8  9  1  0  0  0  0
 10 11  1  0  0  0  0
 12 11  1  6  0  0  0
M  CHG  2   6  -1   7   1
M  END
>  <CHROM.1>
119.28474875,179.89605944,53.46053284,9.00209554,7.27257379,-11.94603247
-2.36691798,1.18478060,2.31208302

>  <Name>
ligand

>  <RI>
0

>  <Rbt.Current_Directory>
/home/itssahil/PROJECTS/Mol_Feturizer/New_Systems/rnas/4P95

>  <Rbt.Executable>
rbdock ($Id: //depot/dev/client3/rdock/2013.1/src/exe/rbdock.cxx#4 $)

>  <Rbt.Library>
libRbt.so (2013.1, Build901 2013/11/27)

>  <Rbt.Parameter_File>
/export/apps/rDock/src/rDock_2013.1_src/data/scripts/dock_solv.prm

>  <Rbt.Receptor>
prm/blind_docking_20.prm

>  <SCORE>
-8.564

>  <SCORE.INTER>
-6.59322

>  <SCORE.INTER.CONST>
1

>  <SCORE.INTER.POLAR>
0

>  <SCORE.INTER.ROT>
3

>  <SCORE.INTER.SOLV>
8.01935

>  <SCORE.INTER.VDW>
-12.6686

>  <SCORE.INTER.norm>
-0.549435

>  <SCORE.INTRA>
-1.97078

>  <SCORE.INTRA.DIHEDRAL>
2.19928

>  <SCORE.INTRA.DIHEDRAL.0>
0.283163

>  <SCORE.INTRA.POLAR>
0

>  <SCORE.INTRA.POLAR.0>
0

>  <SCORE.INTRA.REPUL>
0

>  <SCORE.INTRA.REPUL.0>
0

>  <SCORE.INTRA.SOLV>
-0.731196

>  <SCORE.INTRA.SOLV.lig_0>
-32.2894

>  <SCORE.INTRA.VDW>
-2.70482

>  <SCORE.INTRA.VDW.0>
2.0241

>  <SCORE.INTRA.norm>
-0.164231

>  <SCORE.RESTR>
0

>  <SCORE.RESTR.CAVITY>
0

>  <SCORE.RESTR.norm>
0

>  <SCORE.SYSTEM>
0

>  <SCORE.SYSTEM.CONST>
0

>  <SCORE.SYSTEM.DIHEDRAL>
0

>  <SCORE.SYSTEM.SOLV>
0

>  <SCORE.SYSTEM.norm>
0

>  <SCORE.heavy>
12

>  <SCORE.norm>
-0.713666

>  <RMSD>
21.720

$$$$
ligand
 OpenBabel11021811513D
libRbt.so/2013.1/901 2013/11/27
 12 12  0  0  0  0  0  0  0  0999 V2000
    7.7916    7.2498  -16.0375 O   0  0  0  0  0  0  0  0  0  0  0  0
    8.6482    9.2600   -9.3221 O   0  0  0  0  0  0  0  0  0  0  0  0
    7.9858    6.0551  -15.3786 C   0  0  0  0  0  0  0  0  0  0  0  0
   10.8100    8.2439   -8.8315 O   0  0  0  0  0  0  0  0  0  0  0  0
    7.8711    6.1631  -13.9136 C   0  0  0  0  0  0  0  0  0  0  0  0
    8.8137    6.8598   -8.9024 O   0  5  0  0  0  0  0  0  0  0  0  0
    8.6932    7.2578  -13.3811 N   0  3  0  0  0  0  0  0  0  0  0  0
    8.4118    8.4803  -14.0891 C   0  0  0  0  0  0  0  0  0  0  0  0
    8.5360    8.2943  -15.5658 C   0  0  0  0  0  0  0  0  0  0  0  0
    8.4551    7.4058  -11.9769 C   0  0  0  0  0  0  0  0  0  0  0  0
    9.7867    7.7403  -11.2582 C   0  0  0  0  0  0  0  0  0  0  0  0
    9.4884    8.0379   -9.5035 S   0  0  1  0  0  0  0  0  0  0  0  0
  1  3  1  0  0  0  0
  1  9  1  0  0  0  0
  2 12  1  0  0  0  0
  3  5  1  0  0  0  0
  4 12  2  0  0  0  0
  5  7  1  0  0  0  0
  6 12  2  0  0  0  0
  7  8  1  0  0  0  0
  7 10  1  0  0  0  0
  8  9  1  0  0  0  0
 10 11  1  0  0  0  0
 12 11  1  6  0  0  0
M  CHG  2   6  -1   7   1
M  END
>  <CHROM.1>
141.77508581,176.27326170,-65.20236622,8.85041894,7.64204256,-12.01869181
-2.36688435,1.23780785,2.18959013

>  <Name>
ligand

>  <RI>
0

>  <Rbt.Current_Directory>
/home/itssahil/PROJECTS/Mol_Feturizer/New_Systems/rnas/4P95

>  <Rbt.Executable>
rbdock ($Id: //depot/dev/client3/rdock/2013.1/src/exe/rbdock.cxx#4 $)

>  <Rbt.Library>
libRbt.so (2013.1, Build901 2013/11/27)

>  <Rbt.Parameter_File>
/export/apps/rDock/src/rDock_2013.1_src/data/scripts/dock_solv.prm

>  <Rbt.Receptor>
prm/blind_docking_20.prm

>  <SCORE>
-11.1578

>  <SCORE.INTER>
-9.34675

>  <SCORE.INTER.CONST>
1

>  <SCORE.INTER.POLAR>
0

>  <SCORE.INTER.ROT>
3

>  <SCORE.INTER.SOLV>
7.78091

>  <SCORE.INTER.VDW>
-14.4248

>  <SCORE.INTER.norm>
-0.778896

>  <SCORE.INTRA>
-1.81138

>  <SCORE.INTRA.DIHEDRAL>
1.45576

>  <SCORE.INTRA.DIHEDRAL.0>
0.283163

>  <SCORE.INTRA.POLAR>
0

>  <SCORE.INTRA.POLAR.0>
0

>  <SCORE.INTRA.REPUL>
0

>  <SCORE.INTRA.REPUL.0>
0

>  <SCORE.INTRA.SOLV>
-0.0121043

>  <SCORE.INTRA.SOLV.lig_0>
-32.2894

>  <SCORE.INTRA.VDW>
-2.53321

>  <SCORE.INTRA.VDW.0>
2.0241

>  <SCORE.INTRA.norm>
-0.150948

>  <SCORE.RESTR>
0.000277563

>  <SCORE.RESTR.CAVITY>
0.000277563

>  <SCORE.RESTR.norm>
2.31302e-05

>  <SCORE.SYSTEM>
0

>  <SCORE.SYSTEM.CONST>
0

>  <SCORE.SYSTEM.DIHEDRAL>
0

>  <SCORE.SYSTEM.SOLV>
0

>  <SCORE.SYSTEM.norm>
0

>  <SCORE.heavy>
12

>  <SCORE.norm>
-0.92982

>  <RMSD>
21.776

$$$$
ligand
 OpenBabel11021811513D
libRbt.so/2013.1/901 2013/11/27
 12 12  0  0  0  0  0  0  0  0999 V2000
    7.7646    6.8954  -15.9608 O   0  0  0  0  0  0  0  0  0  0  0  0
    8.7327    9.2789   -9.2734 O   0  0  0  0  0  0  0  0  0  0  0  0
    8.0262    5.7741  -15.2035 C   0  0  0  0  0  0  0  0  0  0  0  0
   10.8758    8.2064   -8.8225 O   0  0  0  0  0  0  0  0  0  0  0  0
    7.9209    6.0040  -13.7520 C   0  0  0  0  0  0  0  0  0  0  0  0
    8.8457    6.8715   -8.8781 O   0  5  0  0  0  0  0  0  0  0  0  0
    8.6914    7.1809  -13.3285 N   0  3  0  0  0  0  0  0  0  0  0  0
    8.3408    8.3211  -14.1358 C   0  0  0  0  0  0  0  0  0  0  0  0
    8.4595    8.0131  -15.5925 C   0  0  0  0  0  0  0  0  0  0  0  0
    8.4601    7.4390  -11.9392 C   0  0  0  0  0  0  0  0  0  0  0  0
    9.8071    7.7508  -11.2391 C   0  0  0  0  0  0  0  0  0  0  0  0
    9.5404    8.0387   -9.4778 S   0  0  1  0  0  0  0  0  0  0  0  0
  1  3  1  0  0  0  0
  1  9  1  0  0  0  0
  2 12  1  0  0  0  0
  3  5  1  0  0  0  0
  4 12  2  0  0  0  0
  5  7  1  0  0  0  0
  6 12  2  0  0  0  0
  7  8  1  0  0  0  0
  7 10  1  0  0  0  0
  8  9  1  0  0  0  0
 10 11  1  0  0  0  0
 12 11  1  6  0  0  0
M  CHG  2   6  -1   7   1
M  END
>  <CHROM.1>
135.63882538,-178.60010442,-65.85716446,8.86937673,7.54643995,-11.97446356
-2.49367947,1.25954258,2.27805926

>  <Name>
ligand

>  <RI>
0

>  <Rbt.Current_Directory>
/home/itssahil/PROJECTS/Mol_Feturizer/New_Systems/rnas/4P95

>  <Rbt.Executable>
rbdock ($Id: //depot/dev/client3/rdock/2013.1/src/exe/rbdock.cxx#4 $)

>  <Rbt.Library>
libRbt.so (2013.1, Build901 2013/11/27)

>  <Rbt.Parameter_File>
/export/apps/rDock/src/rDock_2013.1_src/data/scripts/dock_solv.prm

>  <Rbt.Receptor>
prm/blind_docking_20.prm

>  <SCORE>
-10.971

>  <SCORE.INTER>
-9.23109

>  <SCORE.INTER.CONST>
1

>  <SCORE.INTER.POLAR>
0

>  <SCORE.INTER.ROT>
3

>  <SCORE.INTER.SOLV>
8.01776

>  <SCORE.INTER.VDW>
-14.4266

>  <SCORE.INTER.norm>
-0.769258

>  <SCORE.INTRA>
-1.74004

>  <SCORE.INTRA.DIHEDRAL>
1.75639

>  <SCORE.INTRA.DIHEDRAL.0>
0.283163

>  <SCORE.INTRA.POLAR>
0

>  <SCORE.INTRA.POLAR.0>
0

>  <SCORE.INTRA.REPUL>
0

>  <SCORE.INTRA.REPUL.0>
0

>  <SCORE.INTRA.SOLV>
0.0233562

>  <SCORE.INTRA.SOLV.lig_0>
-32.2894

>  <SCORE.INTRA.VDW>
-2.62991

>  <SCORE.INTRA.VDW.0>
2.0241

>  <SCORE.INTRA.norm>
-0.145003

>  <SCORE.RESTR>
8.4765e-05

>  <SCORE.RESTR.CAVITY>
8.4765e-05

>  <SCORE.RESTR.norm>
7.06375e-06

>  <SCORE.SYSTEM>
0

>  <SCORE.SYSTEM.CONST>
0

>  <SCORE.SYSTEM.DIHEDRAL>
0

>  <SCORE.SYSTEM.SOLV>
0

>  <SCORE.SYSTEM.norm>
0

>  <SCORE.heavy>
12

>  <SCORE.norm>
-0.914254

>  <RMSD>
21.793

$$$$
ligand
 OpenBabel11021811513D
libRbt.so/2013.1/901 2013/11/27
 12 12  0  0  0  0  0  0  0  0999 V2000
    7.7584    7.2385  -16.0024 O   0  0  0  0  0  0  0  0  0  0  0  0
    8.6724    9.2883   -9.2763 O   0  0  0  0  0  0  0  0  0  0  0  0
    7.8908    6.0410  -15.3332 C   0  0  0  0  0  0  0  0  0  0  0  0
   10.8228    8.2306   -8.8251 O   0  0  0  0  0  0  0  0  0  0  0  0
    7.7855    6.1680  -13.8691 C   0  0  0  0  0  0  0  0  0  0  0  0
    8.8044    6.8789   -8.8998 O   0  5  0  0  0  0  0  0  0  0  0  0
    8.6656    7.2224  -13.3481 N   0  3  0  0  0  0  0  0  0  0  0  0
    8.4475    8.4517  -14.0664 C   0  0  0  0  0  0  0  0  0  0  0  0
    8.5581    8.2463  -15.5417 C   0  0  0  0  0  0  0  0  0  0  0  0
    8.4390    7.3952  -11.9448 C   0  0  0  0  0  0  0  0  0  0  0  0
    9.7681    7.7852  -11.2497 C   0  0  0  0  0  0  0  0  0  0  0  0
    9.4916    8.0567   -9.4872 S   0  0  1  0  0  0  0  0  0  0  0  0
  1  3  1  0  0  0  0
  1  9  1  0  0  0  0
  2 12  1  0  0  0  0
  3  5  1  0  0  0  0
  4 12  2  0  0  0  0
  5  7  1  0  0  0  0
  6 12  2  0  0  0  0
  7  8  1  0  0  0  0
  7 10  1  0  0  0  0
  8  9  1  0  0  0  0
 10 11  1  0  0  0  0
 12 11  1  6  0  0  0
M  CHG  2   6  -1   7   1
M  END
>  <CHROM.1>
146.59857132,178.27464970,-68.79610717,8.83714001,7.64076034,-11.99340502
-2.28274522,1.19422771,2.09008753

>  <Name>
ligand

>  <RI>
0

>  <Rbt.Current_Directory>
/home/itssahil/PROJECTS/Mol_Feturizer/New_Systems/rnas/4P95

>  <Rbt.Executable>
rbdock ($Id: //depot/dev/client3/rdock/2013.1/src/exe/rbdock.cxx#4 $)

>  <Rbt.Library>
libRbt.so (2013.1, Build901 2013/11/27)

>  <Rbt.Parameter_File>
/export/apps/rDock/src/rDock_2013.1_src/data/scripts/dock_solv.prm

>  <Rbt.Receptor>
prm/blind_docking_20.prm

>  <SCORE>
-11.1579

>  <SCORE.INTER>
-9.35609

>  <SCORE.INTER.CONST>
1

>  <SCORE.INTER.POLAR>
0

>  <SCORE.INTER.ROT>
3

>  <SCORE.INTER.SOLV>
7.86566

>  <SCORE.INTER.VDW>
-14.4593

>  <SCORE.INTER.norm>
-0.779674

>  <SCORE.INTRA>
-1.80177

>  <SCORE.INTRA.DIHEDRAL>
1.23166

>  <SCORE.INTRA.DIHEDRAL.0>
0.283163

>  <SCORE.INTRA.POLAR>
0

>  <SCORE.INTRA.POLAR.0>
0

>  <SCORE.INTRA.REPUL>
0

>  <SCORE.INTRA.REPUL.0>
0

>  <SCORE.INTRA.SOLV>
0.055428

>  <SCORE.INTRA.SOLV.lig_0>
-32.2894

>  <SCORE.INTRA.VDW>
-2.44531

>  <SCORE.INTRA.VDW.0>
2.0241

>  <SCORE.INTRA.norm>
-0.150148

>  <SCORE.RESTR>
0

>  <SCORE.RESTR.CAVITY>
0

>  <SCORE.RESTR.norm>
0

>  <SCORE.SYSTEM>
0

>  <SCORE.SYSTEM.CONST>
0

>  <SCORE.SYSTEM.DIHEDRAL>
0

>  <SCORE.SYSTEM.SOLV>
0

>  <SCORE.SYSTEM.norm>
0

>  <SCORE.heavy>
12

>  <SCORE.norm>
-0.929822

>  <RMSD>
21.794

$$$$
ligand
 OpenBabel11021811513D
libRbt.so/2013.1/901 2013/11/27
 12 12  0  0  0  0  0  0  0  0999 V2000
    7.7561    7.2551  -16.0097 O   0  0  0  0  0  0  0  0  0  0  0  0
    8.7134    9.2524   -9.2504 O   0  0  0  0  0  0  0  0  0  0  0  0
    7.9101    6.0658  -15.3306 C   0  0  0  0  0  0  0  0  0  0  0  0
   10.8676    8.1888   -8.8322 O   0  0  0  0  0  0  0  0  0  0  0  0
    7.8090    6.2041  -13.8672 C   0  0  0  0  0  0  0  0  0  0  0  0
    8.8494    6.8373   -8.9140 O   0  5  0  0  0  0  0  0  0  0  0  0
    8.6748    7.2767  -13.3593 N   0  3  0  0  0  0  0  0  0  0  0  0
    8.4345    8.4960  -14.0875 C   0  0  0  0  0  0  0  0  0  0  0  0
    8.5420    8.2793  -15.5613 C   0  0  0  0  0  0  0  0  0  0  0  0
    8.4515    7.4583  -11.9566 C   0  0  0  0  0  0  0  0  0  0  0  0
    9.7953    7.7822  -11.2559 C   0  0  0  0  0  0  0  0  0  0  0  0
    9.5316    8.0249   -9.4873 S   0  0  1  0  0  0  0  0  0  0  0  0
  1  3  1  0  0  0  0
  1  9  1  0  0  0  0
  2 12  1  0  0  0  0
  3  5  1  0  0  0  0
  4 12  2  0  0  0  0
  5  7  1  0  0  0  0
  6 12  2  0  0  0  0
  7  8  1  0  0  0  0
  7 10  1  0  0  0  0
  8  9  1  0  0  0  0
 10 11  1  0  0  0  0
 12 11  1  6  0  0  0
M  CHG  2   6  -1   7   1
M  END
>  <CHROM.1>
142.83887530,179.64306589,-66.54084134,8.85884767,7.64527076,-11.99836212
-2.31682524,1.19979073,2.13726602

>  <Name>
ligand

>  <RI>
0

>  <Rbt.Current_Directory>
/home/itssahil/PROJECTS/Mol_Feturizer/New_Systems/rnas/4P95

>  <Rbt.Executable>
rbdock ($Id: //depot/dev/client3/rdock/2013.1/src/exe/rbdock.cxx#4 $)

>  <Rbt.Library>
libRbt.so (2013.1, Build901 2013/11/27)

>  <Rbt.Parameter_File>
/export/apps/rDock/src/rDock_2013.1_src/data/scripts/dock_solv.prm

>  <Rbt.Receptor>
prm/blind_docking_20.prm

>  <SCORE>
-11.1394

>  <SCORE.INTER>
-9.31277

>  <SCORE.INTER.CONST>
1

>  <SCORE.INTER.POLAR>
0

>  <SCORE.INTER.ROT>
3

>  <SCORE.INTER.SOLV>
7.69649

>  <SCORE.INTER.VDW>
-14.374

>  <SCORE.INTER.norm>
-0.776064

>  <SCORE.INTRA>
-1.82696

>  <SCORE.INTRA.DIHEDRAL>
1.37486

>  <SCORE.INTRA.DIHEDRAL.0>
0.283163

>  <SCORE.INTRA.POLAR>
0

>  <SCORE.INTRA.POLAR.0>
0

>  <SCORE.INTRA.REPUL>
0

>  <SCORE.INTRA.REPUL.0>
0

>  <SCORE.INTRA.SOLV>
0.0260018

>  <SCORE.INTRA.SOLV.lig_0>
-32.2894

>  <SCORE.INTRA.VDW>
-2.52739

>  <SCORE.INTRA.VDW.0>
2.0241

>  <SCORE.INTRA.norm>
-0.152247

>  <SCORE.RESTR>
0.000346256

>  <SCORE.RESTR.CAVITY>
0.000346256

>  <SCORE.RESTR.norm>
2.88547e-05

>  <SCORE.SYSTEM>
0

>  <SCORE.SYSTEM.CONST>
0

>  <SCORE.SYSTEM.DIHEDRAL>
0

>  <SCORE.SYSTEM.SOLV>
0

>  <SCORE.SYSTEM.norm>
0

>  <SCORE.heavy>
12

>  <SCORE.norm>
-0.928282

>  <RMSD>
21.794

$$$$
ligand
 OpenBabel11021811513D
libRbt.so/2013.1/901 2013/11/27
 12 12  0  0  0  0  0  0  0  0999 V2000
    7.7530    7.4069  -15.8630 O   0  0  0  0  0  0  0  0  0  0  0  0
    8.9665    9.0326   -9.1091 O   0  0  0  0  0  0  0  0  0  0  0  0
    7.8947    6.1793  -15.2528 C   0  0  0  0  0  0  0  0  0  0  0  0
   11.2028    8.1012   -8.8301 O   0  0  0  0  0  0  0  0  0  0  0  0
    7.8673    6.2447  -13.7811 C   0  0  0  0  0  0  0  0  0  0  0  0
    9.2713    6.6262   -8.8249 O   0  5  0  0  0  0  0  0  0  0  0  0
    8.7946    7.2592  -13.2625 N   0  3  0  0  0  0  0  0  0  0  0  0
    8.5655    8.5222  -13.9160 C   0  0  0  0  0  0  0  0  0  0  0  0
    8.5961    8.3788  -15.4023 C   0  0  0  0  0  0  0  0  0  0  0  0
    8.6439    7.3752  -11.8433 C   0  0  0  0  0  0  0  0  0  0  0  0
   10.0231    7.6634  -11.1979 C   0  0  0  0  0  0  0  0  0  0  0  0
    9.8448    7.8629   -9.4133 S   0  0  1  0  0  0  0  0  0  0  0  0
  1  3  1  0  0  0  0
  1  9  1  0  0  0  0
  2 12  1  0  0  0  0
  3  5  1  0  0  0  0
  4 12  2  0  0  0  0
  5  7  1  0  0  0  0
  6 12  2  0  0  0  0
  7  8  1  0  0  0  0
  7 10  1  0  0  0  0
  8  9  1  0  0  0  0
 10 11  1  0  0  0  0
 12 11  1  6  0  0  0
M  CHG  2   6  -1   7   1
M  END
>  <CHROM.1>
144.72869213,178.28290204,-62.11210488,9.04895070,7.59270086,-11.89984652
-2.36635683,1.14703895,2.21828975

>  <Name>
ligand

>  <RI>
0

>  <Rbt.Current_Directory>
/home/itssahil/PROJECTS/Mol_Feturizer/New_Systems/rnas/4P95

>  <Rbt.Executable>
rbdock ($Id: //depot/dev/client3/rdock/2013.1/src/exe/rbdock.cxx#4 $)

>  <Rbt.Library>
libRbt.so (2013.1, Build901 2013/11/27)

>  <Rbt.Parameter_File>
/export/apps/rDock/src/rDock_2013.1_src/data/scripts/dock_solv.prm

>  <Rbt.Receptor>
prm/blind_docking_20.prm

>  <SCORE>
-10.8461

>  <SCORE.INTER>
-8.9375

>  <SCORE.INTER.CONST>
1

>  <SCORE.INTER.POLAR>
0

>  <SCORE.INTER.ROT>
3

>  <SCORE.INTER.SOLV>
7.48495

>  <SCORE.INTER.VDW>
-14.0533

>  <SCORE.INTER.norm>
-0.744792

>  <SCORE.INTRA>
-1.90862

>  <SCORE.INTRA.DIHEDRAL>
1.19241

>  <SCORE.INTRA.DIHEDRAL.0>
0.283163

>  <SCORE.INTRA.POLAR>
0

>  <SCORE.INTRA.POLAR.0>
0

>  <SCORE.INTRA.REPUL>
0

>  <SCORE.INTRA.REPUL.0>
0

>  <SCORE.INTRA.SOLV>
-0.0447871

>  <SCORE.INTRA.SOLV.lig_0>
-32.2894

>  <SCORE.INTRA.VDW>
-2.48243

>  <SCORE.INTRA.VDW.0>
2.0241

>  <SCORE.INTRA.norm>
-0.159051

>  <SCORE.RESTR>
0

>  <SCORE.RESTR.CAVITY>
0

>  <SCORE.RESTR.norm>
0

>  <SCORE.SYSTEM>
0

>  <SCORE.SYSTEM.CONST>
0

>  <SCORE.SYSTEM.DIHEDRAL>
0

>  <SCORE.SYSTEM.SOLV>
0

>  <SCORE.SYSTEM.norm>
0

>  <SCORE.heavy>
12

>  <SCORE.norm>
-0.903843

>  <RMSD>
21.891

$$$$
ligand
 OpenBabel11021811513D
libRbt.so/2013.1/901 2013/11/27
 12 12  0  0  0  0  0  0  0  0999 V2000
    7.8307    7.1265  -15.8820 O   0  0  0  0  0  0  0  0  0  0  0  0
    9.1132    9.1317   -9.1561 O   0  0  0  0  0  0  0  0  0  0  0  0
    8.1214    6.0079  -15.1313 C   0  0  0  0  0  0  0  0  0  0  0  0
   11.2224    7.9648   -8.7871 O   0  0  0  0  0  0  0  0  0  0  0  0
    8.0784    6.2447  -13.6777 C   0  0  0  0  0  0  0  0  0  0  0  0
    9.1388    6.7141   -8.8110 O   0  5  0  0  0  0  0  0  0  0  0  0
    8.8691    7.4214  -13.2928 N   0  3  0  0  0  0  0  0  0  0  0  0
    8.4874    8.5589  -14.0898 C   0  0  0  0  0  0  0  0  0  0  0  0
    8.5433    8.2440  -15.5487 C   0  0  0  0  0  0  0  0  0  0  0  0
    8.6978    7.6864  -11.8961 C   0  0  0  0  0  0  0  0  0  0  0  0
   10.0700    7.6023  -11.1808 C   0  0  0  0  0  0  0  0  0  0  0  0
    9.8638    7.8645   -9.4074 S   0  0  1  0  0  0  0  0  0  0  0  0
  1  3  1  0  0  0  0
  1  9  1  0  0  0  0
  2 12  1  0  0  0  0
  3  5  1  0  0  0  0
  4 12  2  0  0  0  0
  5  7  1  0  0  0  0
  6 12  2  0  0  0  0
  7  8  1  0  0  0  0
  7 10  1  0  0  0  0
  8  9  1  0  0  0  0
 10 11  1  0  0  0  0
 12 11  1  6  0  0  0
M  CHG  2   6  -1   7   1
M  END
>  <CHROM.1>
119.80275317,-177.60435796,-52.81384909,9.09608855,7.58433086,-11.91128529
2.58150660,-1.23316445,-0.70199266

>  <Name>
ligand

>  <RI>
0

>  <Rbt.Current_Directory>
/home/itssahil/PROJECTS/Mol_Feturizer/New_Systems/rnas/4P95

>  <Rbt.Executable>
rbdock ($Id: //depot/dev/client3/rdock/2013.1/src/exe/rbdock.cxx#4 $)

>  <Rbt.Library>
libRbt.so (2013.1, Build901 2013/11/27)

>  <Rbt.Parameter_File>
/export/apps/rDock/src/rDock_2013.1_src/data/scripts/dock_solv.prm

>  <Rbt.Receptor>
prm/blind_docking_20.prm

>  <SCORE>
-10.4878

>  <SCORE.INTER>
-8.84795

>  <SCORE.INTER.CONST>
1

>  <SCORE.INTER.POLAR>
0

>  <SCORE.INTER.ROT>
3

>  <SCORE.INTER.SOLV>
7.49484

>  <SCORE.INTER.VDW>
-13.9969

>  <SCORE.INTER.norm>
-0.737329

>  <SCORE.INTRA>
-1.63984

>  <SCORE.INTRA.DIHEDRAL>
2.28674

>  <SCORE.INTRA.DIHEDRAL.0>
0.283163

>  <SCORE.INTRA.POLAR>
0

>  <SCORE.INTRA.POLAR.0>
0

>  <SCORE.INTRA.REPUL>
0

>  <SCORE.INTRA.REPUL.0>
0

>  <SCORE.INTRA.SOLV>
-0.144168

>  <SCORE.INTRA.SOLV.lig_0>
-32.2894

>  <SCORE.INTRA.VDW>
-2.71113

>  <SCORE.INTRA.VDW.0>
2.0241

>  <SCORE.INTRA.norm>
-0.136654

>  <SCORE.RESTR>
0

>  <SCORE.RESTR.CAVITY>
0

>  <SCORE.RESTR.norm>
0

>  <SCORE.SYSTEM>
0

>  <SCORE.SYSTEM.CONST>
0

>  <SCORE.SYSTEM.DIHEDRAL>
0

>  <SCORE.SYSTEM.SOLV>
0

>  <SCORE.SYSTEM.norm>
0

>  <SCORE.heavy>
12

>  <SCORE.norm>
-0.873983

>  <RMSD>
21.898

$$$$
ligand
 OpenBabel11021811513D
libRbt.so/2013.1/901 2013/11/27
 12 12  0  0  0  0  0  0  0  0999 V2000
    7.7296    6.9593  -15.8181 O   0  0  0  0  0  0  0  0  0  0  0  0
    9.0199    9.1242   -9.1320 O   0  0  0  0  0  0  0  0  0  0  0  0
    7.9801    5.8585  -15.0276 C   0  0  0  0  0  0  0  0  0  0  0  0
   11.2052    8.0923   -8.8059 O   0  0  0  0  0  0  0  0  0  0  0  0
    7.9537    6.1501  -13.5836 C   0  0  0  0  0  0  0  0  0  0  0  0
    9.2038    6.7137   -8.7850 O   0  5  0  0  0  0  0  0  0  0  0  0
    8.7917    7.3082  -13.2453 N   0  3  0  0  0  0  0  0  0  0  0  0
    8.4507    8.4297  -14.0825 C   0  0  0  0  0  0  0  0  0  0  0  0
    8.4870    8.0594  -15.5289 C   0  0  0  0  0  0  0  0  0  0  0  0
    8.6378    7.6310  -11.8588 C   0  0  0  0  0  0  0  0  0  0  0  0
   10.0282    7.6528  -11.1747 C   0  0  0  0  0  0  0  0  0  0  0  0
    9.8429    7.9057   -9.3976 S   0  0  1  0  0  0  0  0  0  0  0  0
  1  3  1  0  0  0  0
  1  9  1  0  0  0  0
  2 12  1  0  0  0  0
  3  5  1  0  0  0  0
  4 12  2  0  0  0  0
  5  7  1  0  0  0  0
  6 12  2  0  0  0  0
  7  8  1  0  0  0  0
  7 10  1  0  0  0  0
  8  9  1  0  0  0  0
 10 11  1  0  0  0  0
 12 11  1  6  0  0  0
M  CHG  2   6  -1   7   1
M  END
>  <CHROM.1>
125.20510971,-174.74482134,-53.53855712,9.04171013,7.53841231,-11.87902780
2.50696484,-1.19814006,-0.81980127

>  <Name>
ligand

>  <RI>
0

>  <Rbt.Current_Directory>
/home/itssahil/PROJECTS/Mol_Feturizer/New_Systems/rnas/4P95

>  <Rbt.Executable>
rbdock ($Id: //depot/dev/client3/rdock/2013.1/src/exe/rbdock.cxx#4 $)

>  <Rbt.Library>
libRbt.so (2013.1, Build901 2013/11/27)

>  <Rbt.Parameter_File>
/export/apps/rDock/src/rDock_2013.1_src/data/scripts/dock_solv.prm

>  <Rbt.Receptor>
prm/blind_docking_20.prm

>  <SCORE>
-10.4923

>  <SCORE.INTER>
-8.86189

>  <SCORE.INTER.CONST>
1

>  <SCORE.INTER.POLAR>
0

>  <SCORE.INTER.ROT>
3

>  <SCORE.INTER.SOLV>
7.79517

>  <SCORE.INTER.VDW>
-14.1063

>  <SCORE.INTER.norm>
-0.73849

>  <SCORE.INTRA>
-1.63043

>  <SCORE.INTRA.DIHEDRAL>
2.27906

>  <SCORE.INTRA.DIHEDRAL.0>
0.283163

>  <SCORE.INTRA.POLAR>
0

>  <SCORE.INTRA.POLAR.0>
0

>  <SCORE.INTRA.REPUL>
0

>  <SCORE.INTRA.REPUL.0>
0

>  <SCORE.INTRA.SOLV>
-0.136422

>  <SCORE.INTRA.SOLV.lig_0>
-32.2894

>  <SCORE.INTRA.VDW>
-2.70175

>  <SCORE.INTRA.VDW.0>
2.0241

>  <SCORE.INTRA.norm>
-0.135869

>  <SCORE.RESTR>
0

>  <SCORE.RESTR.CAVITY>
0

>  <SCORE.RESTR.norm>
0

>  <SCORE.SYSTEM>
0

>  <SCORE.SYSTEM.CONST>
0

>  <SCORE.SYSTEM.DIHEDRAL>
0

>  <SCORE.SYSTEM.SOLV>
0

>  <SCORE.SYSTEM.norm>
0

>  <SCORE.heavy>
12

>  <SCORE.norm>
-0.874359

>  <RMSD>
21.900

$$$$
ligand
 OpenBabel11021811513D
libRbt.so/2013.1/901 2013/11/27
 12 12  0  0  0  0  0  0  0  0999 V2000
    7.8110    7.3975  -15.7711 O   0  0  0  0  0  0  0  0  0  0  0  0
    9.0326    8.9862   -9.0475 O   0  0  0  0  0  0  0  0  0  0  0  0
    8.0448    6.1641  -15.2025 C   0  0  0  0  0  0  0  0  0  0  0  0
   11.2978    8.1290   -8.7633 O   0  0  0  0  0  0  0  0  0  0  0  0
    8.0328    6.1811  -13.7293 C   0  0  0  0  0  0  0  0  0  0  0  0
    9.4140    6.5938   -8.7387 O   0  5  0  0  0  0  0  0  0  0  0  0
    8.8954    7.2402  -13.1887 N   0  3  0  0  0  0  0  0  0  0  0  0
    8.5713    8.5044  -13.7984 C   0  0  0  0  0  0  0  0  0  0  0  0
    8.5916    8.4104  -15.2888 C   0  0  0  0  0  0  0  0  0  0  0  0
    8.7562    7.3009  -11.7649 C   0  0  0  0  0  0  0  0  0  0  0  0
   10.1285    7.6293  -11.1239 C   0  0  0  0  0  0  0  0  0  0  0  0
    9.9471    7.8417   -9.3412 S   0  0  1  0  0  0  0  0  0  0  0  0
  1  3  1  0  0  0  0
  1  9  1  0  0  0  0
  2 12  1  0  0  0  0
  3  5  1  0  0  0  0
  4 12  2  0  0  0  0
  5  7  1  0  0  0  0
  6 12  2  0  0  0  0
  7  8  1  0  0  0  0
  7 10  1  0  0  0  0
  8  9  1  0  0  0  0
 10 11  1  0  0  0  0
 12 11  1  6  0  0  0
M  CHG  2   6  -1   7   1
M  END
>  <CHROM.1>
143.36791216,175.43450877,-61.70325705,9.14151587,7.57034361,-11.82231507
-2.51357967,1.19319396,2.37761901

>  <Name>
ligand

>  <RI>
0

>  <Rbt.Current_Directory>
/home/itssahil/PROJECTS/Mol_Feturizer/New_Systems/rnas/4P95

>  <Rbt.Executable>
rbdock ($Id: //depot/dev/client3/rdock/2013.1/src/exe/rbdock.cxx#4 $)

>  <Rbt.Library>
libRbt.so (2013.1, Build901 2013/11/27)

>  <Rbt.Parameter_File>
/export/apps/rDock/src/rDock_2013.1_src/data/scripts/dock_solv.prm

>  <Rbt.Receptor>
prm/blind_docking_20.prm

>  <SCORE>
-10.7457

>  <SCORE.INTER>
-8.87926

>  <SCORE.INTER.CONST>
1

>  <SCORE.INTER.POLAR>
0

>  <SCORE.INTER.ROT>
3

>  <SCORE.INTER.SOLV>
7.61181

>  <SCORE.INTER.VDW>
-14.0568

>  <SCORE.INTER.norm>
-0.739938

>  <SCORE.INTRA>
-1.86639

>  <SCORE.INTRA.DIHEDRAL>
1.3399

>  <SCORE.INTRA.DIHEDRAL.0>
0.283163

>  <SCORE.INTRA.POLAR>
0

>  <SCORE.INTRA.POLAR.0>
0

>  <SCORE.INTRA.REPUL>
0

>  <SCORE.INTRA.REPUL.0>
0

>  <SCORE.INTRA.SOLV>
-0.0482667

>  <SCORE.INTRA.SOLV.lig_0>
-32.2894

>  <SCORE.INTRA.VDW>
-2.51221

>  <SCORE.INTRA.VDW.0>
2.0241

>  <SCORE.INTRA.norm>
-0.155533

>  <SCORE.RESTR>
0

>  <SCORE.RESTR.CAVITY>
0

>  <SCORE.RESTR.norm>
0

>  <SCORE.SYSTEM>
0

>  <SCORE.SYSTEM.CONST>
0

>  <SCORE.SYSTEM.DIHEDRAL>
0

>  <SCORE.SYSTEM.SOLV>
0

>  <SCORE.SYSTEM.norm>
0

>  <SCORE.heavy>
12

>  <SCORE.norm>
-0.895471

>  <RMSD>
21.972

$$$$
ligand
 OpenBabel11021811513D
libRbt.so/2013.1/901 2013/11/27
 12 12  0  0  0  0  0  0  0  0999 V2000
    7.7407    7.0319  -15.7552 O   0  0  0  0  0  0  0  0  0  0  0  0
    9.0755    9.1325   -9.0711 O   0  0  0  0  0  0  0  0  0  0  0  0
    8.1143    5.9292  -15.0178 C   0  0  0  0  0  0  0  0  0  0  0  0
   11.2616    8.0992   -8.7550 O   0  0  0  0  0  0  0  0  0  0  0  0
    8.0944    6.1577  -13.5623 C   0  0  0  0  0  0  0  0  0  0  0  0
    9.2588    6.7231   -8.7164 O   0  5  0  0  0  0  0  0  0  0  0  0
    8.8254    7.3767  -13.1913 N   0  3  0  0  0  0  0  0  0  0  0  0
    8.3587    8.4931  -13.9726 C   0  0  0  0  0  0  0  0  0  0  0  0
    8.3959    8.1874  -15.4341 C   0  0  0  0  0  0  0  0  0  0  0  0
    8.6743    7.6262  -11.7894 C   0  0  0  0  0  0  0  0  0  0  0  0
   10.0692    7.6524  -11.1146 C   0  0  0  0  0  0  0  0  0  0  0  0
    9.8954    7.9121   -9.3374 S   0  0  1  0  0  0  0  0  0  0  0  0
  1  3  1  0  0  0  0
  1  9  1  0  0  0  0
  2 12  1  0  0  0  0
  3  5  1  0  0  0  0
  4 12  2  0  0  0  0
  5  7  1  0  0  0  0
  6 12  2  0  0  0  0
  7  8  1  0  0  0  0
  7 10  1  0  0  0  0
  8  9  1  0  0  0  0
 10 11  1  0  0  0  0
 12 11  1  6  0  0  0
M  CHG  2   6  -1   7   1
M  END
>  <CHROM.1>
121.14098422,-178.15294654,-53.68129225,9.07968777,7.57150025,-11.81874124
2.77346999,-1.24499992,-0.52551262

>  <Name>
ligand

>  <RI>
0

>  <Rbt.Current_Directory>
/home/itssahil/PROJECTS/Mol_Feturizer/New_Systems/rnas/4P95

>  <Rbt.Executable>
rbdock ($Id: //depot/dev/client3/rdock/2013.1/src/exe/rbdock.cxx#4 $)

>  <Rbt.Library>
libRbt.so (2013.1, Build901 2013/11/27)

>  <Rbt.Parameter_File>
/export/apps/rDock/src/rDock_2013.1_src/data/scripts/dock_solv.prm

>  <Rbt.Receptor>
prm/blind_docking_20.prm

>  <SCORE>
-10.507

>  <SCORE.INTER>
-8.84723

>  <SCORE.INTER.CONST>
1

>  <SCORE.INTER.POLAR>
0

>  <SCORE.INTER.ROT>
3

>  <SCORE.INTER.SOLV>
7.73299

>  <SCORE.INTER.VDW>
-14.0758

>  <SCORE.INTER.norm>
-0.737269

>  <SCORE.INTRA>
-1.65976

>  <SCORE.INTRA.DIHEDRAL>
2.23994

>  <SCORE.INTRA.DIHEDRAL.0>
0.283163

>  <SCORE.INTRA.POLAR>
0

>  <SCORE.INTRA.POLAR.0>
0

>  <SCORE.INTRA.REPUL>
0

>  <SCORE.INTRA.REPUL.0>
0

>  <SCORE.INTRA.SOLV>
-0.135336

>  <SCORE.INTRA.SOLV.lig_0>
-32.2894

>  <SCORE.INTRA.VDW>
-2.71206

>  <SCORE.INTRA.VDW.0>
2.0241

>  <SCORE.INTRA.norm>
-0.138313

>  <SCORE.RESTR>
0

>  <SCORE.RESTR.CAVITY>
0

>  <SCORE.RESTR.norm>
0

>  <SCORE.SYSTEM>
0

>  <SCORE.SYSTEM.CONST>
0

>  <SCORE.SYSTEM.DIHEDRAL>
0

>  <SCORE.SYSTEM.SOLV>
0

>  <SCORE.SYSTEM.norm>
0

>  <SCORE.heavy>
12

>  <SCORE.norm>
-0.875582

>  <RMSD>
21.972

$$$$
ligand
 OpenBabel11021811513D
libRbt.so/2013.1/901 2013/11/27
 12 12  0  0  0  0  0  0  0  0999 V2000
    7.8252    7.7289  -14.8880 O   0  0  0  0  0  0  0  0  0  0  0  0
   11.6706    7.8375  -10.0872 O   0  0  0  0  0  0  0  0  0  0  0  0
    7.6083    6.6946  -14.0035 C   0  0  0  0  0  0  0  0  0  0  0  0
   10.8356    6.0273  -11.4916 O   0  0  0  0  0  0  0  0  0  0  0  0
    7.6202    7.1133  -12.5909 C   0  0  0  0  0  0  0  0  0  0  0  0
   11.0623    5.6902   -9.0955 O   0  5  0  0  0  0  0  0  0  0  0  0
    8.8111    7.9106  -12.2681 N   0  3  0  0  0  0  0  0  0  0  0  0
    8.9542    8.9927  -13.2079 C   0  0  0  0  0  0  0  0  0  0  0  0
    8.9222    8.4973  -14.6165 C   0  0  0  0  0  0  0  0  0  0  0  0
    8.7193    8.3994  -10.9253 C   0  0  0  0  0  0  0  0  0  0  0  0
    9.0278    7.2493   -9.9333 C   0  0  0  0  0  0  0  0  0  0  0  0
   10.7268    6.6809  -10.1493 S   0  0  1  0  0  0  0  0  0  0  0  0
  1  3  1  0  0  0  0
  1  9  1  0  0  0  0
  2 12  1  0  0  0  0
  3  5  1  0  0  0  0
  4 12  2  0  0  0  0
  5  7  1  0  0  0  0
  6 12  2  0  0  0  0
  7  8  1  0  0  0  0
  7 10  1  0  0  0  0
  8  9  1  0  0  0  0
 10 11  1  0  0  0  0
 12 11  1  1  0  0  0
M  CHG  2   6  -1   7   1
M  END
>  <CHROM.1>
76.01992373,63.47054841,52.08127943,9.48839348,7.31125901,-11.74971466,2.50284734
-0.84196560,-0.49869520

>  <Name>
ligand

>  <RI>
0

>  <Rbt.Current_Directory>
/home/itssahil/PROJECTS/Mol_Feturizer/New_Systems/rnas/4P95

>  <Rbt.Executable>
rbdock ($Id: //depot/dev/client3/rdock/2013.1/src/exe/rbdock.cxx#4 $)

>  <Rbt.Library>
libRbt.so (2013.1, Build901 2013/11/27)

>  <Rbt.Parameter_File>
/export/apps/rDock/src/rDock_2013.1_src/data/scripts/dock_solv.prm

>  <Rbt.Receptor>
prm/blind_docking_20.prm

>  <SCORE>
-8.85172

>  <SCORE.INTER>
-6.42062

>  <SCORE.INTER.CONST>
1

>  <SCORE.INTER.POLAR>
0

>  <SCORE.INTER.ROT>
3

>  <SCORE.INTER.SOLV>
5.71609

>  <SCORE.INTER.VDW>
-11.7858

>  <SCORE.INTER.norm>
-0.535052

>  <SCORE.INTRA>
-2.4311

>  <SCORE.INTRA.DIHEDRAL>
0.343451

>  <SCORE.INTRA.DIHEDRAL.0>
0.283163

>  <SCORE.INTRA.POLAR>
0

>  <SCORE.INTRA.POLAR.0>
0

>  <SCORE.INTRA.REPUL>
0

>  <SCORE.INTRA.REPUL.0>
0

>  <SCORE.INTRA.SOLV>
0.0849333

>  <SCORE.INTRA.SOLV.lig_0>
-32.2894

>  <SCORE.INTRA.VDW>
-2.64529

>  <SCORE.INTRA.VDW.0>
2.0241

>  <SCORE.INTRA.norm>
-0.202592

>  <SCORE.RESTR>
0

>  <SCORE.RESTR.CAVITY>
0

>  <SCORE.RESTR.norm>
0

>  <SCORE.SYSTEM>
0

>  <SCORE.SYSTEM.CONST>
0

>  <SCORE.SYSTEM.DIHEDRAL>
0

>  <SCORE.SYSTEM.SOLV>
0

>  <SCORE.SYSTEM.norm>
0

>  <SCORE.heavy>
12

>  <SCORE.norm>
-0.737644

>  <RMSD>
21.983

$$$$
ligand
 OpenBabel11021811513D
libRbt.so/2013.1/901 2013/11/27
 12 12  0  0  0  0  0  0  0  0999 V2000
    6.8134    6.5851  -14.8643 O   0  0  0  0  0  0  0  0  0  0  0  0
   10.0270    8.5774   -9.0289 O   0  0  0  0  0  0  0  0  0  0  0  0
    6.7607    5.8340  -13.7100 C   0  0  0  0  0  0  0  0  0  0  0  0
   12.1611    7.8919   -9.9894 O   0  0  0  0  0  0  0  0  0  0  0  0
    7.4676    6.4486  -12.5727 C   0  0  0  0  0  0  0  0  0  0  0  0
   11.0668    6.4761   -8.3449 O   0  5  0  0  0  0  0  0  0  0  0  0
    8.8310    6.8584  -12.9347 N   0  3  0  0  0  0  0  0  0  0  0  0
    8.8067    7.6690  -14.1251 C   0  0  0  0  0  0  0  0  0  0  0  0
    8.0662    6.9901  -15.2303 C   0  0  0  0  0  0  0  0  0  0  0  0
    9.4337    7.5605  -11.8419 C   0  0  0  0  0  0  0  0  0  0  0  0
    9.9987    6.5415  -10.8201 C   0  0  0  0  0  0  0  0  0  0  0  0
   10.8400    7.4073   -9.4789 S   0  0  1  0  0  0  0  0  0  0  0  0
  1  3  1  0  0  0  0
  1  9  1  0  0  0  0
  2 12  1  0  0  0  0
  3  5  1  0  0  0  0
  4 12  2  0  0  0  0
  5  7  1  0  0  0  0
  6 12  2  0  0  0  0
  7  8  1  0  0  0  0
  7 10  1  0  0  0  0
  8  9  1  0  0  0  0
 10 11  1  0  0  0  0
 12 11  1  6  0  0  0
M  CHG  2   6  -1   7   1
M  END
>  <CHROM.1>
82.16036582,176.99131042,43.97080795,9.37632585,7.11403494,-11.63072364,2.29467251
-0.54929216,-1.29331718

>  <Name>
ligand

>  <RI>
0

>  <Rbt.Current_Directory>
/home/itssahil/PROJECTS/Mol_Feturizer/New_Systems/rnas/4P95

>  <Rbt.Executable>
rbdock ($Id: //depot/dev/client3/rdock/2013.1/src/exe/rbdock.cxx#4 $)

>  <Rbt.Library>
libRbt.so (2013.1, Build901 2013/11/27)

>  <Rbt.Parameter_File>
/export/apps/rDock/src/rDock_2013.1_src/data/scripts/dock_solv.prm

>  <Rbt.Receptor>
prm/blind_docking_20.prm

>  <SCORE>
-9.28731

>  <SCORE.INTER>
-7.36126

>  <SCORE.INTER.CONST>
1

>  <SCORE.INTER.POLAR>
0

>  <SCORE.INTER.ROT>
3

>  <SCORE.INTER.SOLV>
7.85196

>  <SCORE.INTER.VDW>
-13.1248

>  <SCORE.INTER.norm>
-0.613438

>  <SCORE.INTRA>
-1.92605

>  <SCORE.INTRA.DIHEDRAL>
1.08884

>  <SCORE.INTRA.DIHEDRAL.0>
0.283163

>  <SCORE.INTRA.POLAR>
0

>  <SCORE.INTRA.POLAR.0>
0

>  <SCORE.INTRA.REPUL>
0

>  <SCORE.INTRA.REPUL.0>
0

>  <SCORE.INTRA.SOLV>
-0.733738

>  <SCORE.INTRA.SOLV.lig_0>
-32.2894

>  <SCORE.INTRA.VDW>
-2.1036

>  <SCORE.INTRA.VDW.0>
2.0241

>  <SCORE.INTRA.norm>
-0.160504

>  <SCORE.RESTR>
0

>  <SCORE.RESTR.CAVITY>
0

>  <SCORE.RESTR.norm>
0

>  <SCORE.SYSTEM>
0

>  <SCORE.SYSTEM.CONST>
0

>  <SCORE.SYSTEM.DIHEDRAL>
0

>  <SCORE.SYSTEM.SOLV>
0

>  <SCORE.SYSTEM.norm>
0

>  <SCORE.heavy>
12

>  <SCORE.norm>
-0.773942

>  <RMSD>
22.010

$$$$
ligand
 OpenBabel11021811513D
libRbt.so/2013.1/901 2013/11/27
 12 12  0  0  0  0  0  0  0  0999 V2000
    6.2085    6.0522  -13.9421 O   0  0  0  0  0  0  0  0  0  0  0  0
   11.6233    8.3134   -8.6593 O   0  0  0  0  0  0  0  0  0  0  0  0
    7.3122    6.6017  -14.5579 C   0  0  0  0  0  0  0  0  0  0  0  0
   12.4906    7.0603  -10.5629 O   0  0  0  0  0  0  0  0  0  0  0  0
    8.5624    6.4220  -13.7992 C   0  0  0  0  0  0  0  0  0  0  0  0
   11.1023    5.9408   -8.9119 O   0  5  0  0  0  0  0  0  0  0  0  0
    8.4149    6.8375  -12.3979 N   0  3  0  0  0  0  0  0  0  0  0  0
    7.2670    6.1978  -11.8082 C   0  0  0  0  0  0  0  0  0  0  0  0
    6.0411    6.4117  -12.6343 C   0  0  0  0  0  0  0  0  0  0  0  0
    9.6097    6.5297  -11.6714 C   0  0  0  0  0  0  0  0  0  0  0  0
    9.8714    7.6320  -10.6139 C   0  0  0  0  0  0  0  0  0  0  0  0
   11.3285    7.2190   -9.6328 S   0  0  1  0  0  0  0  0  0  0  0  0
  1  3  1  0  0  0  0
  1  9  1  0  0  0  0
  2 12  1  0  0  0  0
  3  5  1  0  0  0  0
  4 12  2  0  0  0  0
  5  7  1  0  0  0  0
  6 12  2  0  0  0  0
  7  8  1  0  0  0  0
  7 10  1  0  0  0  0
  8  9  1  0  0  0  0
 10 11  1  0  0  0  0
 12 11  1  6  0  0  0
M  CHG  2   6  -1   7   1
M  END
>  <CHROM.1>
144.49172723,177.19562927,177.13151622,9.40364805,6.81300066,-11.37276479
2.42413134,-0.16377162,-1.60595741

>  <Name>
ligand

>  <RI>
0

>  <Rbt.Current_Directory>
/home/itssahil/PROJECTS/Mol_Feturizer/New_Systems/rnas/4P95

>  <Rbt.Executable>
rbdock ($Id: //depot/dev/client3/rdock/2013.1/src/exe/rbdock.cxx#4 $)

>  <Rbt.Library>
libRbt.so (2013.1, Build901 2013/11/27)

>  <Rbt.Parameter_File>
/export/apps/rDock/src/rDock_2013.1_src/data/scripts/dock_solv.prm

>  <Rbt.Receptor>
prm/blind_docking_20.prm

>  <SCORE>
-8.41934

>  <SCORE.INTER>
-6.62593

>  <SCORE.INTER.CONST>
1

>  <SCORE.INTER.POLAR>
0

>  <SCORE.INTER.ROT>
3

>  <SCORE.INTER.SOLV>
6.93357

>  <SCORE.INTER.VDW>
-12.3285

>  <SCORE.INTER.norm>
-0.552161

>  <SCORE.INTRA>
-1.79341

>  <SCORE.INTRA.DIHEDRAL>
1.23217

>  <SCORE.INTRA.DIHEDRAL.0>
0.283163

>  <SCORE.INTRA.POLAR>
0

>  <SCORE.INTRA.POLAR.0>
0

>  <SCORE.INTRA.REPUL>
0

>  <SCORE.INTRA.REPUL.0>
0

>  <SCORE.INTRA.SOLV>
0.147804

>  <SCORE.INTRA.SOLV.lig_0>
-32.2894

>  <SCORE.INTRA.VDW>
-2.48339

>  <SCORE.INTRA.VDW.0>
2.0241

>  <SCORE.INTRA.norm>
-0.149451

>  <SCORE.RESTR>
0

>  <SCORE.RESTR.CAVITY>
0

>  <SCORE.RESTR.norm>
0

>  <SCORE.SYSTEM>
0

>  <SCORE.SYSTEM.CONST>
0

>  <SCORE.SYSTEM.DIHEDRAL>
0

>  <SCORE.SYSTEM.SOLV>
0

>  <SCORE.SYSTEM.norm>
0

>  <SCORE.heavy>
12

>  <SCORE.norm>
-0.701612

>  <RMSD>
22.137

$$$$
ligand
 OpenBabel11021811513D
libRbt.so/2013.1/901 2013/11/27
 12 12  0  0  0  0  0  0  0  0999 V2000
    7.3062    8.5183  -14.6260 O   0  0  0  0  0  0  0  0  0  0  0  0
   12.5817    7.7938   -9.9301 O   0  0  0  0  0  0  0  0  0  0  0  0
    7.9380    9.4758  -13.8623 C   0  0  0  0  0  0  0  0  0  0  0  0
   11.3718    5.7195   -9.5058 O   0  0  0  0  0  0  0  0  0  0  0  0
    9.0425    8.9446  -13.0445 C   0  0  0  0  0  0  0  0  0  0  0  0
   11.2668    7.5309   -7.8888 O   0  5  0  0  0  0  0  0  0  0  0  0
    8.6304    7.7662  -12.2702 N   0  3  0  0  0  0  0  0  0  0  0  0
    8.0134    6.7940  -13.1355 C   0  0  0  0  0  0  0  0  0  0  0  0
    6.9128    7.4034  -13.9405 C   0  0  0  0  0  0  0  0  0  0  0  0
    9.7621    7.2110  -11.5909 C   0  0  0  0  0  0  0  0  0  0  0  0
    9.8820    7.8440  -10.1814 C   0  0  0  0  0  0  0  0  0  0  0  0
   11.3430    7.2065   -9.3358 S   0  0  1  0  0  0  0  0  0  0  0  0
  1  3  1  0  0  0  0
  1  9  1  0  0  0  0
  2 12  1  0  0  0  0
  3  5  1  0  0  0  0
  4 12  2  0  0  0  0
  5  7  1  0  0  0  0
  6 12  2  0  0  0  0
  7  8  1  0  0  0  0
  7 10  1  0  0  0  0
  8  9  1  0  0  0  0
 10 11  1  0  0  0  0
 12 11  1  6  0  0  0
M  CHG  2   6  -1   7   1
M  END
>  <CHROM.1>
91.06886590,-177.66147277,73.08785450,9.72084412,7.62773385,-11.35257854
-2.64394541,0.78510000,2.71506372

>  <Name>
ligand

>  <RI>
0

>  <Rbt.Current_Directory>
/home/itssahil/PROJECTS/Mol_Feturizer/New_Systems/rnas/4P95

>  <Rbt.Executable>
rbdock ($Id: //depot/dev/client3/rdock/2013.1/src/exe/rbdock.cxx#4 $)

>  <Rbt.Library>
libRbt.so (2013.1, Build901 2013/11/27)

>  <Rbt.Parameter_File>
/export/apps/rDock/src/rDock_2013.1_src/data/scripts/dock_solv.prm

>  <Rbt.Receptor>
prm/blind_docking_20.prm

>  <SCORE>
-9.24972

>  <SCORE.INTER>
-7.29077

>  <SCORE.INTER.CONST>
1

>  <SCORE.INTER.POLAR>
0

>  <SCORE.INTER.ROT>
3

>  <SCORE.INTER.SOLV>
9.49073

>  <SCORE.INTER.VDW>
-13.6241

>  <SCORE.INTER.norm>
-0.607565

>  <SCORE.INTRA>
-1.95894

>  <SCORE.INTRA.DIHEDRAL>
1.5233

>  <SCORE.INTRA.DIHEDRAL.0>
0.283163

>  <SCORE.INTRA.POLAR>
0

>  <SCORE.INTRA.POLAR.0>
0

>  <SCORE.INTRA.REPUL>
0

>  <SCORE.INTRA.REPUL.0>
0

>  <SCORE.INTRA.SOLV>
-0.666042

>  <SCORE.INTRA.SOLV.lig_0>
-32.2894

>  <SCORE.INTRA.VDW>
-2.38757

>  <SCORE.INTRA.VDW.0>
2.0241

>  <SCORE.INTRA.norm>
-0.163245

>  <SCORE.RESTR>
0

>  <SCORE.RESTR.CAVITY>
0

>  <SCORE.RESTR.norm>
0

>  <SCORE.SYSTEM>
0

>  <SCORE.SYSTEM.CONST>
0

>  <SCORE.SYSTEM.DIHEDRAL>
0

>  <SCORE.SYSTEM.SOLV>
0

>  <SCORE.SYSTEM.norm>
0

>  <SCORE.heavy>
12

>  <SCORE.norm>
-0.77081

>  <RMSD>
22.471

$$$$
ligand
 OpenBabel11021811513D
libRbt.so/2013.1/901 2013/11/27
 12 12  0  0  0  0  0  0  0  0999 V2000
    7.2543    8.5205  -14.5335 O   0  0  0  0  0  0  0  0  0  0  0  0
   11.3450    8.2234   -8.7230 O   0  0  0  0  0  0  0  0  0  0  0  0
    7.1269    7.2470  -14.0224 C   0  0  0  0  0  0  0  0  0  0  0  0
   12.4882    6.1067   -9.1225 O   0  0  0  0  0  0  0  0  0  0  0  0
    7.6109    7.1155  -12.6370 C   0  0  0  0  0  0  0  0  0  0  0  0
   10.1741    6.1077   -8.3798 O   0  5  0  0  0  0  0  0  0  0  0  0
    8.9610    7.6714  -12.4756 N   0  3  0  0  0  0  0  0  0  0  0  0
    9.0111    9.0137  -12.9956 C   0  0  0  0  0  0  0  0  0  0  0  0
    8.4964    9.0737  -14.3964 C   0  0  0  0  0  0  0  0  0  0  0  0
    9.3391    7.6362  -11.0949 C   0  0  0  0  0  0  0  0  0  0  0  0
   10.6477    6.8211  -10.9369 C   0  0  0  0  0  0  0  0  0  0  0  0
   11.1759    6.8215   -9.2114 S   0  0  1  0  0  0  0  0  0  0  0  0
  1  3  1  0  0  0  0
  1  9  1  0  0  0  0
  2 12  1  0  0  0  0
  3  5  1  0  0  0  0
  4 12  2  0  0  0  0
  5  7  1  0  0  0  0
  6 12  2  0  0  0  0
  7  8  1  0  0  0  0
  7 10  1  0  0  0  0
  8  9  1  0  0  0  0
 10 11  1  0  0  0  0
 12 11  1  6  0  0  0
M  CHG  2   6  -1   7   1
M  END
>  <CHROM.1>
122.37929185,177.73767115,-56.68370294,9.66210044,7.45227539,-11.27238750
-2.34752656,0.62813877,2.38301229

>  <Name>
ligand

>  <RI>
0

>  <Rbt.Current_Directory>
/home/itssahil/PROJECTS/Mol_Feturizer/New_Systems/rnas/4P95

>  <Rbt.Executable>
rbdock ($Id: //depot/dev/client3/rdock/2013.1/src/exe/rbdock.cxx#4 $)

>  <Rbt.Library>
libRbt.so (2013.1, Build901 2013/11/27)

>  <Rbt.Parameter_File>
/export/apps/rDock/src/rDock_2013.1_src/data/scripts/dock_solv.prm

>  <Rbt.Receptor>
prm/blind_docking_20.prm

>  <SCORE>
-8.58477

>  <SCORE.INTER>
-6.89356

>  <SCORE.INTER.CONST>
1

>  <SCORE.INTER.POLAR>
0

>  <SCORE.INTER.ROT>
3

>  <SCORE.INTER.SOLV>
5.31521

>  <SCORE.INTER.VDW>
-11.9674

>  <SCORE.INTER.norm>
-0.574463

>  <SCORE.INTRA>
-1.69121

>  <SCORE.INTRA.DIHEDRAL>
2.15441

>  <SCORE.INTRA.DIHEDRAL.0>
0.283163

>  <SCORE.INTRA.POLAR>
0

>  <SCORE.INTRA.POLAR.0>
0

>  <SCORE.INTRA.REPUL>
0

>  <SCORE.INTRA.REPUL.0>
0

>  <SCORE.INTRA.SOLV>
-0.104126

>  <SCORE.INTRA.SOLV.lig_0>
-32.2894

>  <SCORE.INTRA.VDW>
-2.71636

>  <SCORE.INTRA.VDW.0>
2.0241

>  <SCORE.INTRA.norm>
-0.140934

>  <SCORE.RESTR>
0

>  <SCORE.RESTR.CAVITY>
0

>  <SCORE.RESTR.norm>
0

>  <SCORE.SYSTEM>
0

>  <SCORE.SYSTEM.CONST>
0

>  <SCORE.SYSTEM.DIHEDRAL>
0

>  <SCORE.SYSTEM.SOLV>
0

>  <SCORE.SYSTEM.norm>
0

>  <SCORE.heavy>
12

>  <SCORE.norm>
-0.715398

>  <RMSD>
22.474

$$$$
ligand
 OpenBabel11021811513D
libRbt.so/2013.1/901 2013/11/27
 12 12  0  0  0  0  0  0  0  0999 V2000
    7.5538    8.4565  -14.9117 O   0  0  0  0  0  0  0  0  0  0  0  0
   12.1003    7.9967   -9.5270 O   0  0  0  0  0  0  0  0  0  0  0  0
    7.9776    9.4460  -14.0511 C   0  0  0  0  0  0  0  0  0  0  0  0
   11.0127    5.8365   -9.2152 O   0  0  0  0  0  0  0  0  0  0  0  0
    8.9962    8.9940  -13.0873 C   0  0  0  0  0  0  0  0  0  0  0  0
   10.5564    7.6528   -7.6662 O   0  5  0  0  0  0  0  0  0  0  0  0
    8.5866    7.7634  -12.3974 N   0  3  0  0  0  0  0  0  0  0  0  0
    8.1936    6.7633  -13.3566 C   0  0  0  0  0  0  0  0  0  0  0  0
    7.1697    7.2932  -14.3061 C   0  0  0  0  0  0  0  0  0  0  0  0
    9.6543    7.2935  -11.5669 C   0  0  0  0  0  0  0  0  0  0  0  0
    9.4606    7.8251  -10.1242 C   0  0  0  0  0  0  0  0  0  0  0  0
   10.8451    7.3182   -9.0837 S   0  0  1  0  0  0  0  0  0  0  0  0
  1  3  1  0  0  0  0
  1  9  1  0  0  0  0
  2 12  1  0  0  0  0
  3  5  1  0  0  0  0
  4 12  2  0  0  0  0
  5  7  1  0  0  0  0
  6 12  2  0  0  0  0
  7  8  1  0  0  0  0
  7 10  1  0  0  0  0
  8  9  1  0  0  0  0
 10 11  1  0  0  0  0
 12 11  1  6  0  0  0
M  CHG  2   6  -1   7   1
M  END
>  <CHROM.1>
94.61228521,-176.89981442,66.96610283,9.52101899,7.67312041,-11.32145106
-2.66840096,0.95984746,2.75951253

>  <Name>
ligand

>  <RI>
0

>  <Rbt.Current_Directory>
/home/itssahil/PROJECTS/Mol_Feturizer/New_Systems/rnas/4P95

>  <Rbt.Executable>
rbdock ($Id: //depot/dev/client3/rdock/2013.1/src/exe/rbdock.cxx#4 $)

>  <Rbt.Library>
libRbt.so (2013.1, Build901 2013/11/27)

>  <Rbt.Parameter_File>
/export/apps/rDock/src/rDock_2013.1_src/data/scripts/dock_solv.prm

>  <Rbt.Receptor>
prm/blind_docking_80.prm

>  <SCORE>
-8.52338

>  <SCORE.INTER>
-6.40464

>  <SCORE.INTER.CONST>
1

>  <SCORE.INTER.POLAR>
0

>  <SCORE.INTER.ROT>
3

>  <SCORE.INTER.SOLV>
10.0391

>  <SCORE.INTER.VDW>
-13.2161

>  <SCORE.INTER.norm>
-0.53372

>  <SCORE.INTRA>
-2.11908

>  <SCORE.INTRA.DIHEDRAL>
1.45061

>  <SCORE.INTRA.DIHEDRAL.0>
0.283163

>  <SCORE.INTRA.POLAR>
0

>  <SCORE.INTRA.POLAR.0>
0

>  <SCORE.INTRA.REPUL>
0

>  <SCORE.INTRA.REPUL.0>
0

>  <SCORE.INTRA.SOLV>
-0.690546

>  <SCORE.INTRA.SOLV.lig_0>
-32.2894

>  <SCORE.INTRA.VDW>
-2.49912

>  <SCORE.INTRA.VDW.0>
2.0241

>  <SCORE.INTRA.norm>
-0.17659

>  <SCORE.RESTR>
0.000349281

>  <SCORE.RESTR.CAVITY>
0.000349281

>  <SCORE.RESTR.norm>
2.91067e-05

>  <SCORE.SYSTEM>
0

>  <SCORE.SYSTEM.CONST>
0

>  <SCORE.SYSTEM.DIHEDRAL>
0

>  <SCORE.SYSTEM.SOLV>
0

>  <SCORE.SYSTEM.norm>
0

>  <SCORE.heavy>
12

>  <SCORE.norm>
-0.710281

>  <RMSD>
22.487

$$$$
ligand
 OpenBabel11021811513D
libRbt.so/2013.1/901 2013/11/27
 12 12  0  0  0  0  0  0  0  0999 V2000
    7.4528    8.5500  -14.6485 O   0  0  0  0  0  0  0  0  0  0  0  0
   11.7311    8.1821   -8.1517 O   0  0  0  0  0  0  0  0  0  0  0  0
    8.0572    9.4904  -13.8425 C   0  0  0  0  0  0  0  0  0  0  0  0
   12.5783    7.3398  -10.2775 O   0  0  0  0  0  0  0  0  0  0  0  0
    9.1171    8.9368  -12.9817 C   0  0  0  0  0  0  0  0  0  0  0  0
   11.1644    5.9261   -8.8960 O   0  5  0  0  0  0  0  0  0  0  0  0
    8.6581    7.7521  -12.2444 N   0  3  0  0  0  0  0  0  0  0  0  0
    8.0731    6.7982  -13.1514 C   0  0  0  0  0  0  0  0  0  0  0  0
    7.0171    7.4298  -13.9981 C   0  0  0  0  0  0  0  0  0  0  0  0
    9.7513    7.1761  -11.5210 C   0  0  0  0  0  0  0  0  0  0  0  0
    9.9710    7.9608  -10.2028 C   0  0  0  0  0  0  0  0  0  0  0  0
   11.4173    7.3225   -9.3328 S   0  0  1  0  0  0  0  0  0  0  0  0
  1  3  1  0  0  0  0
  1  9  1  0  0  0  0
  2 12  1  0  0  0  0
  3  5  1  0  0  0  0
  4 12  2  0  0  0  0
  5  7  1  0  0  0  0
  6 12  2  0  0  0  0
  7  8  1  0  0  0  0
  7 10  1  0  0  0  0
  8  9  1  0  0  0  0
 10 11  1  0  0  0  0
 12 11  1  6  0  0  0
M  CHG  2   6  -1   7   1
M  END
>  <CHROM.1>
80.96560272,-176.04839144,173.02712990,9.79955548,7.69036131,-11.34796408
-2.67424536,0.80082939,2.73058064

>  <Name>
ligand

>  <RI>
0

>  <Rbt.Current_Directory>
/home/itssahil/PROJECTS/Mol_Feturizer/New_Systems/rnas/4P95

>  <Rbt.Executable>
rbdock ($Id: //depot/dev/client3/rdock/2013.1/src/exe/rbdock.cxx#4 $)

>  <Rbt.Library>
libRbt.so (2013.1, Build901 2013/11/27)

>  <Rbt.Parameter_File>
/export/apps/rDock/src/rDock_2013.1_src/data/scripts/dock_solv.prm

>  <Rbt.Receptor>
prm/blind_docking_20.prm

>  <SCORE>
-10.4628

>  <SCORE.INTER>
-8.73236

>  <SCORE.INTER.CONST>
1

>  <SCORE.INTER.POLAR>
0

>  <SCORE.INTER.ROT>
3

>  <SCORE.INTER.SOLV>
7.05267

>  <SCORE.INTER.VDW>
-13.7725

>  <SCORE.INTER.norm>
-0.727697

>  <SCORE.INTRA>
-1.7304

>  <SCORE.INTRA.DIHEDRAL>
0.590694

>  <SCORE.INTRA.DIHEDRAL.0>
0.283163

>  <SCORE.INTRA.POLAR>
0

>  <SCORE.INTRA.POLAR.0>
0

>  <SCORE.INTRA.REPUL>
0

>  <SCORE.INTRA.REPUL.0>
0

>  <SCORE.INTRA.SOLV>
0.111491

>  <SCORE.INTRA.SOLV.lig_0>
-32.2894

>  <SCORE.INTRA.VDW>
-2.08149

>  <SCORE.INTRA.VDW.0>
2.0241

>  <SCORE.INTRA.norm>
-0.1442

>  <SCORE.RESTR>
0

>  <SCORE.RESTR.CAVITY>
0

>  <SCORE.RESTR.norm>
0

>  <SCORE.SYSTEM>
0

>  <SCORE.SYSTEM.CONST>
0

>  <SCORE.SYSTEM.DIHEDRAL>
0

>  <SCORE.SYSTEM.SOLV>
0

>  <SCORE.SYSTEM.norm>
0

>  <SCORE.heavy>
12

>  <SCORE.norm>
-0.871897

>  <RMSD>
22.505

$$$$
ligand
 OpenBabel11021811513D
libRbt.so/2013.1/901 2013/11/27
 12 12  0  0  0  0  0  0  0  0999 V2000
   17.4796   12.6376  -17.5957 O   0  0  0  0  0  0  0  0  0  0  0  0
   10.9365   15.4788  -16.1591 O   0  0  0  0  0  0  0  0  0  0  0  0
   17.0883   13.0554  -16.3421 C   0  0  0  0  0  0  0  0  0  0  0  0
   10.6167   13.9550  -18.0359 O   0  0  0  0  0  0  0  0  0  0  0  0
   15.6277   13.1733  -16.1881 C   0  0  0  0  0  0  0  0  0  0  0  0
   10.6398   16.3547  -18.4195 O   0  5  0  0  0  0  0  0  0  0  0  0
   15.0262   13.9590  -17.2739 N   0  3  0  0  0  0  0  0  0  0  0  0
   15.4475   13.4448  -18.5517 C   0  0  0  0  0  0  0  0  0  0  0  0
   16.9354   13.3420  -18.6326 C   0  0  0  0  0  0  0  0  0  0  0  0
   13.5995   13.9417  -17.1534 C   0  0  0  0  0  0  0  0  0  0  0  0
   13.0028   15.1690  -17.8879 C   0  0  0  0  0  0  0  0  0  0  0  0
   11.2221   15.2556  -17.6086 S   0  0  1  0  0  0  0  0  0  0  0  0
  1  3  1  0  0  0  0
  1  9  1  0  0  0  0
  2 12  1  0  0  0  0
  3  5  1  0  0  0  0
  4 12  2  0  0  0  0
  5  7  1  0  0  0  0
  6 12  2  0  0  0  0
  7  8  1  0  0  0  0
  7 10  1  0  0  0  0
  8  9  1  0  0  0  0
 10 11  1  0  0  0  0
 12 11  1  6  0  0  0
M  CHG  2   6  -1   7   1
M  END
>  <CHROM.1>
157.33019199,-174.36225414,63.93180069,13.65042901,14.26882233,-17.50129635
-0.07662884,0.36657129,-1.44511994

>  <Name>
ligand

>  <RI>
0

>  <Rbt.Current_Directory>
/home/itssahil/PROJECTS/Mol_Feturizer/New_Systems/rnas/4P95

>  <Rbt.Executable>
rbdock ($Id: //depot/dev/client3/rdock/2013.1/src/exe/rbdock.cxx#4 $)

>  <Rbt.Library>
libRbt.so (2013.1, Build901 2013/11/27)

>  <Rbt.Parameter_File>
/export/apps/rDock/src/rDock_2013.1_src/data/scripts/dock_solv.prm

>  <Rbt.Receptor>
prm/blind_docking_60.prm

>  <SCORE>
-11.7984

>  <SCORE.INTER>
-9.66583

>  <SCORE.INTER.CONST>
1

>  <SCORE.INTER.POLAR>
0

>  <SCORE.INTER.ROT>
3

>  <SCORE.INTER.SOLV>
6.62349

>  <SCORE.INTER.VDW>
-14.2517

>  <SCORE.INTER.norm>
-0.805486

>  <SCORE.INTRA>
-2.13254

>  <SCORE.INTRA.DIHEDRAL>
0.576742

>  <SCORE.INTRA.DIHEDRAL.0>
0.283163

>  <SCORE.INTRA.POLAR>
0

>  <SCORE.INTRA.POLAR.0>
0

>  <SCORE.INTRA.REPUL>
0

>  <SCORE.INTRA.REPUL.0>
0

>  <SCORE.INTRA.SOLV>
-0.699239

>  <SCORE.INTRA.SOLV.lig_0>
-32.2894

>  <SCORE.INTRA.VDW>
-2.0713

>  <SCORE.INTRA.VDW.0>
2.0241

>  <SCORE.INTRA.norm>
-0.177712

>  <SCORE.RESTR>
0

>  <SCORE.RESTR.CAVITY>
0

>  <SCORE.RESTR.norm>
0

>  <SCORE.SYSTEM>
0

>  <SCORE.SYSTEM.CONST>
0

>  <SCORE.SYSTEM.DIHEDRAL>
0

>  <SCORE.SYSTEM.SOLV>
0

>  <SCORE.SYSTEM.norm>
0

>  <SCORE.heavy>
12

>  <SCORE.norm>
-0.983198

>  <RMSD>
22.610

$$$$
ligand
 OpenBabel11021811513D
libRbt.so/2013.1/901 2013/11/27
 12 12  0  0  0  0  0  0  0  0999 V2000
    7.1105    8.3202  -14.3372 O   0  0  0  0  0  0  0  0  0  0  0  0
   11.3115    7.8568   -7.6167 O   0  0  0  0  0  0  0  0  0  0  0  0
    7.8337    9.3902  -13.8562 C   0  0  0  0  0  0  0  0  0  0  0  0
   12.5164    7.8710   -9.7367 O   0  0  0  0  0  0  0  0  0  0  0  0
    9.0165    8.9980  -13.0701 C   0  0  0  0  0  0  0  0  0  0  0  0
   11.2907    5.8853   -9.0580 O   0  5  0  0  0  0  0  0  0  0  0  0
    8.6804    8.0136  -12.0328 N   0  3  0  0  0  0  0  0  0  0  0  0
    7.9605    6.9083  -12.6113 C   0  0  0  0  0  0  0  0  0  0  0  0
    6.7838    7.3795  -13.4012 C   0  0  0  0  0  0  0  0  0  0  0  0
    9.8745    7.5691  -11.3795 C   0  0  0  0  0  0  0  0  0  0  0  0
    9.8428    8.0020   -9.8917 C   0  0  0  0  0  0  0  0  0  0  0  0
   11.2962    7.3698   -9.0291 S   0  0  1  0  0  0  0  0  0  0  0  0
  1  3  1  0  0  0  0
  1  9  1  0  0  0  0
  2 12  1  0  0  0  0
  3  5  1  0  0  0  0
  4 12  2  0  0  0  0
  5  7  1  0  0  0  0
  6 12  2  0  0  0  0
  7  8  1  0  0  0  0
  7 10  1  0  0  0  0
  8  9  1  0  0  0  0
 10 11  1  0  0  0  0
 12 11  1  6  0  0  0
M  CHG  2   6  -1   7   1
M  END
>  <CHROM.1>
115.52305302,176.80142118,176.47484493,9.67495707,7.74455695,-11.07423474
2.52614647,-0.69667779,-0.64336522

>  <Name>
ligand

>  <RI>
0

>  <Rbt.Current_Directory>
/home/itssahil/PROJECTS/Mol_Feturizer/New_Systems/rnas/4P95

>  <Rbt.Executable>
rbdock ($Id: //depot/dev/client3/rdock/2013.1/src/exe/rbdock.cxx#4 $)

>  <Rbt.Library>
libRbt.so (2013.1, Build901 2013/11/27)

>  <Rbt.Parameter_File>
/export/apps/rDock/src/rDock_2013.1_src/data/scripts/dock_solv.prm

>  <Rbt.Receptor>
prm/blind_docking_20.prm

>  <SCORE>
-9.76187

>  <SCORE.INTER>
-8.21337

>  <SCORE.INTER.CONST>
1

>  <SCORE.INTER.POLAR>
0

>  <SCORE.INTER.ROT>
3

>  <SCORE.INTER.SOLV>
7.29132

>  <SCORE.INTER.VDW>
-13.506

>  <SCORE.INTER.norm>
-0.684447

>  <SCORE.INTRA>
-1.5485

>  <SCORE.INTRA.DIHEDRAL>
2.15566

>  <SCORE.INTRA.DIHEDRAL.0>
0.283163

>  <SCORE.INTRA.POLAR>
0

>  <SCORE.INTRA.POLAR.0>
0

>  <SCORE.INTRA.REPUL>
0

>  <SCORE.INTRA.REPUL.0>
0

>  <SCORE.INTRA.SOLV>
0.13614

>  <SCORE.INTRA.SOLV.lig_0>
-32.2894

>  <SCORE.INTRA.VDW>
-2.6944

>  <SCORE.INTRA.VDW.0>
2.0241

>  <SCORE.INTRA.norm>
-0.129042

>  <SCORE.RESTR>
0

>  <SCORE.RESTR.CAVITY>
0

>  <SCORE.RESTR.norm>
0

>  <SCORE.SYSTEM>
0

>  <SCORE.SYSTEM.CONST>
0

>  <SCORE.SYSTEM.DIHEDRAL>
0

>  <SCORE.SYSTEM.SOLV>
0

>  <SCORE.SYSTEM.norm>
0

>  <SCORE.heavy>
12

>  <SCORE.norm>
-0.813489

>  <RMSD>
22.740

$$$$
ligand
 OpenBabel11021811513D
libRbt.so/2013.1/901 2013/11/27
 12 12  0  0  0  0  0  0  0  0999 V2000
   13.0067   17.3845  -15.3029 O   0  0  0  0  0  0  0  0  0  0  0  0
   17.6000   12.5342  -17.4760 O   0  0  0  0  0  0  0  0  0  0  0  0
   13.4998   17.7972  -16.5218 C   0  0  0  0  0  0  0  0  0  0  0  0
   15.4505   12.3137  -16.3459 O   0  0  0  0  0  0  0  0  0  0  0  0
   13.5432   16.7275  -17.5341 C   0  0  0  0  0  0  0  0  0  0  0  0
   16.7769   14.3262  -16.0353 O   0  5  0  0  0  0  0  0  0  0  0  0
   14.2023   15.5185  -17.0226 N   0  3  0  0  0  0  0  0  0  0  0  0
   13.6131   15.1240  -15.7689 C   0  0  0  0  0  0  0  0  0  0  0  0
   13.5923   16.2580  -14.7971 C   0  0  0  0  0  0  0  0  0  0  0  0
   14.1106   14.4681  -17.9914 C   0  0  0  0  0  0  0  0  0  0  0  0
   15.5350   14.0234  -18.4097 C   0  0  0  0  0  0  0  0  0  0  0  0
   16.3890   13.2736  -17.0080 S   0  0  1  0  0  0  0  0  0  0  0  0
  1  3  1  0  0  0  0
  1  9  1  0  0  0  0
  2 12  1  0  0  0  0
  3  5  1  0  0  0  0
  4 12  2  0  0  0  0
  5  7  1  0  0  0  0
  6 12  2  0  0  0  0
  7  8  1  0  0  0  0
  7 10  1  0  0  0  0
  8  9  1  0  0  0  0
 10 11  1  0  0  0  0
 12 11  1  6  0  0  0
M  CHG  2   6  -1   7   1
M  END
>  <CHROM.1>
119.84340914,65.54558746,165.39483883,14.96424653,14.78656718,-16.69845215
-2.89040859,0.87467801,-1.62351786

>  <Name>
ligand

>  <RI>
0

>  <Rbt.Current_Directory>
/home/itssahil/PROJECTS/Mol_Feturizer/New_Systems/rnas/4P95

>  <Rbt.Executable>
rbdock ($Id: //depot/dev/client3/rdock/2013.1/src/exe/rbdock.cxx#4 $)

>  <Rbt.Library>
libRbt.so (2013.1, Build901 2013/11/27)

>  <Rbt.Parameter_File>
/export/apps/rDock/src/rDock_2013.1_src/data/scripts/dock_solv.prm

>  <Rbt.Receptor>
prm/blind_docking_60.prm

>  <SCORE>
-8.47233

>  <SCORE.INTER>
-8.39408

>  <SCORE.INTER.CONST>
1

>  <SCORE.INTER.POLAR>
0

>  <SCORE.INTER.ROT>
3

>  <SCORE.INTER.SOLV>
3.52897

>  <SCORE.INTER.VDW>
-12.3724

>  <SCORE.INTER.norm>
-0.699507

>  <SCORE.INTRA>
-0.0782993

>  <SCORE.INTRA.DIHEDRAL>
2.68665

>  <SCORE.INTRA.DIHEDRAL.0>
0.283163

>  <SCORE.INTRA.POLAR>
0

>  <SCORE.INTRA.POLAR.0>
0

>  <SCORE.INTRA.REPUL>
0

>  <SCORE.INTRA.REPUL.0>
0

>  <SCORE.INTRA.SOLV>
4.2357

>  <SCORE.INTRA.SOLV.lig_0>
-32.2894

>  <SCORE.INTRA.VDW>
-3.53947

>  <SCORE.INTRA.VDW.0>
2.0241

>  <SCORE.INTRA.norm>
-0.00652494

>  <SCORE.RESTR>
4.98472e-05

>  <SCORE.RESTR.CAVITY>
4.98472e-05

>  <SCORE.RESTR.norm>
4.15393e-06

>  <SCORE.SYSTEM>
0

>  <SCORE.SYSTEM.CONST>
0

>  <SCORE.SYSTEM.DIHEDRAL>
0

>  <SCORE.SYSTEM.SOLV>
0

>  <SCORE.SYSTEM.norm>
0

>  <SCORE.heavy>
12

>  <SCORE.norm>
-0.706028

>  <RMSD>
23.552

$$$$
ligand
 OpenBabel11021811513D
libRbt.so/2013.1/901 2013/11/27
 12 12  0  0  0  0  0  0  0  0999 V2000
   17.0136   12.8582  -18.3725 O   0  0  0  0  0  0  0  0  0  0  0  0
   12.1126   16.0085  -15.9884 O   0  0  0  0  0  0  0  0  0  0  0  0
   17.2863   13.0937  -17.0423 C   0  0  0  0  0  0  0  0  0  0  0  0
   14.5241   16.2680  -16.2416 O   0  0  0  0  0  0  0  0  0  0  0  0
   16.1279   12.8850  -16.1561 C   0  0  0  0  0  0  0  0  0  0  0  0
   13.4525   16.9136  -14.1580 O   0  5  0  0  0  0  0  0  0  0  0  0
   14.9371   13.5977  -16.6375 N   0  3  0  0  0  0  0  0  0  0  0  0
   14.6908   13.2765  -18.0199 C   0  0  0  0  0  0  0  0  0  0  0  0
   15.9083   13.5006  -18.8555 C   0  0  0  0  0  0  0  0  0  0  0  0
   13.8091   13.2670  -15.8199 C   0  0  0  0  0  0  0  0  0  0  0  0
   13.7073   14.2738  -14.6461 C   0  0  0  0  0  0  0  0  0  0  0  0
   13.4257   15.9401  -15.2788 S   0  0  1  0  0  0  0  0  0  0  0  0
  1  3  1  0  0  0  0
  1  9  1  0  0  0  0
  2 12  1  0  0  0  0
  3  5  1  0  0  0  0
  4 12  2  0  0  0  0
  5  7  1  0  0  0  0
  6 12  2  0  0  0  0
  7  8  1  0  0  0  0
  7 10  1  0  0  0  0
  8  9  1  0  0  0  0
 10 11  1  0  0  0  0
 12 11  1  1  0  0  0
M  CHG  2   6  -1   7   1
M  END
>  <CHROM.1>
90.43735697,62.70602054,63.61440163,14.60740347,14.52201228,-16.31743171
0.43356832,0.83049528,-1.41179261

>  <Name>
ligand

>  <RI>
0

>  <Rbt.Current_Directory>
/home/itssahil/PROJECTS/Mol_Feturizer/New_Systems/rnas/4P95

>  <Rbt.Executable>
rbdock ($Id: //depot/dev/client3/rdock/2013.1/src/exe/rbdock.cxx#4 $)

>  <Rbt.Library>
libRbt.so (2013.1, Build901 2013/11/27)

>  <Rbt.Parameter_File>
/export/apps/rDock/src/rDock_2013.1_src/data/scripts/dock_solv.prm

>  <Rbt.Receptor>
prm/blind_docking_60.prm

>  <SCORE>
-11.3277

>  <SCORE.INTER>
-8.89405

>  <SCORE.INTER.CONST>
1

>  <SCORE.INTER.POLAR>
0

>  <SCORE.INTER.ROT>
3

>  <SCORE.INTER.SOLV>
11.4992

>  <SCORE.INTER.VDW>
-15.3624

>  <SCORE.INTER.norm>
-0.741171

>  <SCORE.INTRA>
-2.43365

>  <SCORE.INTRA.DIHEDRAL>
1.08829

>  <SCORE.INTRA.DIHEDRAL.0>
0.283163

>  <SCORE.INTRA.POLAR>
0

>  <SCORE.INTRA.POLAR.0>
0

>  <SCORE.INTRA.REPUL>
0

>  <SCORE.INTRA.REPUL.0>
0

>  <SCORE.INTRA.SOLV>
0.259564

>  <SCORE.INTRA.SOLV.lig_0>
-32.2894

>  <SCORE.INTRA.VDW>
-3.10757

>  <SCORE.INTRA.VDW.0>
2.0241

>  <SCORE.INTRA.norm>
-0.202804

>  <SCORE.RESTR>
0

>  <SCORE.RESTR.CAVITY>
0

>  <SCORE.RESTR.norm>
0

>  <SCORE.SYSTEM>
0

>  <SCORE.SYSTEM.CONST>
0

>  <SCORE.SYSTEM.DIHEDRAL>
0

>  <SCORE.SYSTEM.SOLV>
0

>  <SCORE.SYSTEM.norm>
0

>  <SCORE.heavy>
12

>  <SCORE.norm>
-0.943975

>  <RMSD>
23.733

$$$$
ligand
 OpenBabel11021811513D
libRbt.so/2013.1/901 2013/11/27
 12 12  0  0  0  0  0  0  0  0999 V2000
    8.1631    2.1003   -5.0419 O   0  0  0  0  0  0  0  0  0  0  0  0
    5.0426    4.3876  -11.9025 O   0  0  0  0  0  0  0  0  0  0  0  0
    9.1191    2.0422   -6.0329 C   0  0  0  0  0  0  0  0  0  0  0  0
    7.3546    5.0703  -11.5353 O   0  0  0  0  0  0  0  0  0  0  0  0
    8.9039    3.0145   -7.1188 C   0  0  0  0  0  0  0  0  0  0  0  0
    5.5717    6.1029  -10.2465 O   0  5  0  0  0  0  0  0  0  0  0  0
    7.5301    2.9596   -7.6361 N   0  3  0  0  0  0  0  0  0  0  0  0
    6.5867    3.0632   -6.5527 C   0  0  0  0  0  0  0  0  0  0  0  0
    6.8713    2.0575   -5.4858 C   0  0  0  0  0  0  0  0  0  0  0  0
    7.3310    4.0016   -8.5979 C   0  0  0  0  0  0  0  0  0  0  0  0
    6.2421    3.5691   -9.6123 C   0  0  0  0  0  0  0  0  0  0  0  0
    6.0305    4.8391  -10.8766 S   0  0  1  0  0  0  0  0  0  0  0  0
  1  3  1  0  0  0  0
  1  9  1  0  0  0  0
  2 12  1  0  0  0  0
  3  5  1  0  0  0  0
  4 12  2  0  0  0  0
  5  7  1  0  0  0  0
  6 12  2  0  0  0  0
  7  8  1  0  0  0  0
  7 10  1  0  0  0  0
  8  9  1  0  0  0  0
 10 11  1  0  0  0  0
 12 11  1  1  0  0  0
M  CHG  2   6  -1   7   1
M  END
>  <CHROM.1>
152.24849706,-177.44286849,176.50452860,6.94488928,3.74881338,-8.67048675
1.22860180,-0.08408661,2.00796847

>  <Name>
ligand

>  <RI>
0

>  <Rbt.Current_Directory>
/home/itssahil/PROJECTS/Mol_Feturizer/New_Systems/rnas/4P95

>  <Rbt.Executable>
rbdock ($Id: //depot/dev/client3/rdock/2013.1/src/exe/rbdock.cxx#4 $)

>  <Rbt.Library>
libRbt.so (2013.1, Build901 2013/11/27)

>  <Rbt.Parameter_File>
/export/apps/rDock/src/rDock_2013.1_src/data/scripts/dock_solv.prm

>  <Rbt.Receptor>
prm/blind_docking_80.prm

>  <SCORE>
-5.76598

>  <SCORE.INTER>
-3.93018

>  <SCORE.INTER.CONST>
1

>  <SCORE.INTER.POLAR>
0

>  <SCORE.INTER.ROT>
3

>  <SCORE.INTER.SOLV>
4.57453

>  <SCORE.INTER.VDW>
-9.74496

>  <SCORE.INTER.norm>
-0.327515

>  <SCORE.INTRA>
-1.8358

>  <SCORE.INTRA.DIHEDRAL>
0.751833

>  <SCORE.INTRA.DIHEDRAL.0>
0.283163

>  <SCORE.INTRA.POLAR>
0

>  <SCORE.INTRA.POLAR.0>
0

>  <SCORE.INTRA.REPUL>
0

>  <SCORE.INTRA.REPUL.0>
0

>  <SCORE.INTRA.SOLV>
0.136107

>  <SCORE.INTRA.SOLV.lig_0>
-32.2894

>  <SCORE.INTRA.VDW>
-2.27977

>  <SCORE.INTRA.VDW.0>
2.0241

>  <SCORE.INTRA.norm>
-0.152983

>  <SCORE.RESTR>
0

>  <SCORE.RESTR.CAVITY>
0

>  <SCORE.RESTR.norm>
0

>  <SCORE.SYSTEM>
0

>  <SCORE.SYSTEM.CONST>
0

>  <SCORE.SYSTEM.DIHEDRAL>
0

>  <SCORE.SYSTEM.SOLV>
0

>  <SCORE.SYSTEM.norm>
0

>  <SCORE.heavy>
12

>  <SCORE.norm>
-0.480498

>  <RMSD>
24.003

$$$$
ligand
 OpenBabel11021811513D
libRbt.so/2013.1/901 2013/11/27
 12 12  0  0  0  0  0  0  0  0999 V2000
   13.2950    8.7861   -4.5739 O   0  0  0  0  0  0  0  0  0  0  0  0
    9.9508    7.5534  -11.6637 O   0  0  0  0  0  0  0  0  0  0  0  0
   12.0247    8.2522   -4.6018 C   0  0  0  0  0  0  0  0  0  0  0  0
    9.6960    5.8296   -9.9577 O   0  0  0  0  0  0  0  0  0  0  0  0
   11.7510    7.4419   -5.8015 C   0  0  0  0  0  0  0  0  0  0  0  0
   11.8460    6.1418  -11.0470 O   0  5  0  0  0  0  0  0  0  0  0  0
   12.1055    8.1564   -7.0351 N   0  3  0  0  0  0  0  0  0  0  0  0
   13.4549    8.6533   -6.9512 C   0  0  0  0  0  0  0  0  0  0  0  0
   13.6630    9.4542   -5.7078 C   0  0  0  0  0  0  0  0  0  0  0  0
   11.9419    7.2895   -8.1630 C   0  0  0  0  0  0  0  0  0  0  0  0
   11.0950    8.0037   -9.2467 C   0  0  0  0  0  0  0  0  0  0  0  0
   10.6344    6.8376  -10.5444 S   0  0  1  0  0  0  0  0  0  0  0  0
  1  3  1  0  0  0  0
  1  9  1  0  0  0  0
  2 12  1  0  0  0  0
  3  5  1  0  0  0  0
  4 12  2  0  0  0  0
  5  7  1  0  0  0  0
  6 12  2  0  0  0  0
  7  8  1  0  0  0  0
  7 10  1  0  0  0  0
  8  9  1  0  0  0  0
 10 11  1  0  0  0  0
 12 11  1  1  0  0  0
M  CHG  2   6  -1   7   1
M  END
>  <CHROM.1>
129.67738263,-170.14554637,-173.67529846,11.65701070,7.59458196,-8.23858607
1.07532021,0.64084733,1.55138857

>  <Name>
ligand

>  <RI>
0

>  <Rbt.Current_Directory>
/home/itssahil/PROJECTS/Mol_Feturizer/New_Systems/rnas/4P95

>  <Rbt.Executable>
rbdock ($Id: //depot/dev/client3/rdock/2013.1/src/exe/rbdock.cxx#4 $)

>  <Rbt.Library>
libRbt.so (2013.1, Build901 2013/11/27)

>  <Rbt.Parameter_File>
/export/apps/rDock/src/rDock_2013.1_src/data/scripts/dock_solv.prm

>  <Rbt.Receptor>
prm/blind_docking_20.prm

>  <SCORE>
-8.50624

>  <SCORE.INTER>
-7.15441

>  <SCORE.INTER.CONST>
1

>  <SCORE.INTER.POLAR>
0

>  <SCORE.INTER.ROT>
3

>  <SCORE.INTER.SOLV>
9.70835

>  <SCORE.INTER.VDW>
-13.6057

>  <SCORE.INTER.norm>
-0.596201

>  <SCORE.INTRA>
-1.35183

>  <SCORE.INTRA.DIHEDRAL>
2.40862

>  <SCORE.INTRA.DIHEDRAL.0>
0.283163

>  <SCORE.INTRA.POLAR>
0

>  <SCORE.INTRA.POLAR.0>
0

>  <SCORE.INTRA.REPUL>
0

>  <SCORE.INTRA.REPUL.0>
0

>  <SCORE.INTRA.SOLV>
0.207727

>  <SCORE.INTRA.SOLV.lig_0>
-32.2894

>  <SCORE.INTRA.VDW>
-2.66

>  <SCORE.INTRA.VDW.0>
2.0241

>  <SCORE.INTRA.norm>
-0.112652

>  <SCORE.RESTR>
0

>  <SCORE.RESTR.CAVITY>
0

>  <SCORE.RESTR.norm>
0

>  <SCORE.SYSTEM>
0

>  <SCORE.SYSTEM.CONST>
0

>  <SCORE.SYSTEM.DIHEDRAL>
0

>  <SCORE.SYSTEM.SOLV>
0

>  <SCORE.SYSTEM.norm>
0

>  <SCORE.heavy>
12

>  <SCORE.norm>
-0.708853

>  <RMSD>
26.140

$$$$
ligand
 OpenBabel11021811513D
libRbt.so/2013.1/901 2013/11/27
 12 12  0  0  0  0  0  0  0  0999 V2000
   13.3749    8.9339   -4.4205 O   0  0  0  0  0  0  0  0  0  0  0  0
   12.2457    6.5076  -11.0287 O   0  0  0  0  0  0  0  0  0  0  0  0
   12.1129    8.3833   -4.4799 C   0  0  0  0  0  0  0  0  0  0  0  0
   10.0695    7.5183  -11.4637 O   0  0  0  0  0  0  0  0  0  0  0  0
   11.8849    7.5570   -5.6783 C   0  0  0  0  0  0  0  0  0  0  0  0
   10.2343    5.5961   -9.9857 O   0  5  0  0  0  0  0  0  0  0  0  0
   12.2665    8.2632   -6.9086 N   0  3  0  0  0  0  0  0  0  0  0  0
   13.6063    8.7785   -6.7906 C   0  0  0  0  0  0  0  0  0  0  0  0
   13.7676    9.5949   -5.5504 C   0  0  0  0  0  0  0  0  0  0  0  0
   12.1471    7.3825   -8.0313 C   0  0  0  0  0  0  0  0  0  0  0  0
   11.1179    7.9601   -9.0357 C   0  0  0  0  0  0  0  0  0  0  0  0
   10.9155    6.8371  -10.4336 S   0  0  1  0  0  0  0  0  0  0  0  0
  1  3  1  0  0  0  0
  1  9  1  0  0  0  0
  2 12  1  0  0  0  0
  3  5  1  0  0  0  0
  4 12  2  0  0  0  0
  5  7  1  0  0  0  0
  6 12  2  0  0  0  0
  7  8  1  0  0  0  0
  7 10  1  0  0  0  0
  8  9  1  0  0  0  0
 10 11  1  0  0  0  0
 12 11  1  1  0  0  0
M  CHG  2   6  -1   7   1
M  END
>  <CHROM.1>
119.45994832,-178.22076707,-52.63551850,11.85963816,7.66292625,-8.11743047
1.11671677,0.64587156,1.50543205

>  <Name>
ligand

>  <RI>
0

>  <Rbt.Current_Directory>
/home/itssahil/PROJECTS/Mol_Feturizer/New_Systems/rnas/4P95

>  <Rbt.Executable>
rbdock ($Id: //depot/dev/client3/rdock/2013.1/src/exe/rbdock.cxx#4 $)

>  <Rbt.Library>
libRbt.so (2013.1, Build901 2013/11/27)

>  <Rbt.Parameter_File>
/export/apps/rDock/src/rDock_2013.1_src/data/scripts/dock_solv.prm

>  <Rbt.Receptor>
prm/blind_docking_20.prm

>  <SCORE>
-10.5492

>  <SCORE.INTER>
-8.90784

>  <SCORE.INTER.CONST>
1

>  <SCORE.INTER.POLAR>
0

>  <SCORE.INTER.ROT>
3

>  <SCORE.INTER.SOLV>
6.85519

>  <SCORE.INTER.VDW>
-13.8236

>  <SCORE.INTER.norm>
-0.74232

>  <SCORE.INTRA>
-1.64139

>  <SCORE.INTRA.DIHEDRAL>
2.28467

>  <SCORE.INTRA.DIHEDRAL.0>
0.283163

>  <SCORE.INTRA.POLAR>
0

>  <SCORE.INTRA.POLAR.0>
0

>  <SCORE.INTRA.REPUL>
0

>  <SCORE.INTRA.REPUL.0>
0

>  <SCORE.INTRA.SOLV>
-0.146029

>  <SCORE.INTRA.SOLV.lig_0>
-32.2894

>  <SCORE.INTRA.VDW>
-2.71071

>  <SCORE.INTRA.VDW.0>
2.0241

>  <SCORE.INTRA.norm>
-0.136782

>  <SCORE.RESTR>
0

>  <SCORE.RESTR.CAVITY>
0

>  <SCORE.RESTR.norm>
0

>  <SCORE.SYSTEM>
0

>  <SCORE.SYSTEM.CONST>
0

>  <SCORE.SYSTEM.DIHEDRAL>
0

>  <SCORE.SYSTEM.SOLV>
0

>  <SCORE.SYSTEM.norm>
0

>  <SCORE.heavy>
12

>  <SCORE.norm>
-0.879102

>  <RMSD>
26.321

$$$$
ligand
 OpenBabel11021811513D
libRbt.so/2013.1/901 2013/11/27
 12 12  0  0  0  0  0  0  0  0999 V2000
   13.3892    8.8411   -4.4045 O   0  0  0  0  0  0  0  0  0  0  0  0
   12.2474    6.4888  -10.9920 O   0  0  0  0  0  0  0  0  0  0  0  0
   12.1490    8.2423   -4.3546 C   0  0  0  0  0  0  0  0  0  0  0  0
   10.1508    7.6291  -11.4925 O   0  0  0  0  0  0  0  0  0  0  0  0
   11.8483    7.4079   -5.5311 C   0  0  0  0  0  0  0  0  0  0  0  0
   10.1484    5.6795  -10.0415 O   0  5  0  0  0  0  0  0  0  0  0  0
   12.0928    8.1282   -6.7878 N   0  3  0  0  0  0  0  0  0  0  0  0
   13.4172    8.6946   -6.7862 C   0  0  0  0  0  0  0  0  0  0  0  0
   13.6555    9.5167   -5.5623 C   0  0  0  0  0  0  0  0  0  0  0  0
   11.9090    7.2435   -7.8987 C   0  0  0  0  0  0  0  0  0  0  0  0
   11.1274    7.9748   -9.0194 C   0  0  0  0  0  0  0  0  0  0  0  0
   10.9159    6.8856  -10.4424 S   0  0  1  0  0  0  0  0  0  0  0  0
  1  3  1  0  0  0  0
  1  9  1  0  0  0  0
  2 12  1  0  0  0  0
  3  5  1  0  0  0  0
  4 12  2  0  0  0  0
  5  7  1  0  0  0  0
  6 12  2  0  0  0  0
  7  8  1  0  0  0  0
  7 10  1  0  0  0  0
  8  9  1  0  0  0  0
 10 11  1  0  0  0  0
 12 11  1  1  0  0  0
M  CHG  2   6  -1   7   1
M  END
>  <CHROM.1>
137.40474657,178.83000515,-60.93049492,11.80983321,7.62636140,-8.08293406
-1.10544687,-0.71821820,-1.56783633

>  <Name>
ligand

>  <RI>
0

>  <Rbt.Current_Directory>
/home/itssahil/PROJECTS/Mol_Feturizer/New_Systems/rnas/4P95

>  <Rbt.Executable>
rbdock ($Id: //depot/dev/client3/rdock/2013.1/src/exe/rbdock.cxx#4 $)

>  <Rbt.Library>
libRbt.so (2013.1, Build901 2013/11/27)

>  <Rbt.Parameter_File>
/export/apps/rDock/src/rDock_2013.1_src/data/scripts/dock_solv.prm

>  <Rbt.Receptor>
prm/blind_docking_20.prm

>  <SCORE>
-10.7118

>  <SCORE.INTER>
-8.86519

>  <SCORE.INTER.CONST>
1

>  <SCORE.INTER.POLAR>
0

>  <SCORE.INTER.ROT>
3

>  <SCORE.INTER.SOLV>
6.98146

>  <SCORE.INTER.VDW>
-13.8373

>  <SCORE.INTER.norm>
-0.738766

>  <SCORE.INTRA>
-1.84665

>  <SCORE.INTRA.DIHEDRAL>
1.60046

>  <SCORE.INTRA.DIHEDRAL.0>
0.283163

>  <SCORE.INTRA.POLAR>
0

>  <SCORE.INTRA.POLAR.0>
0

>  <SCORE.INTRA.REPUL>
0

>  <SCORE.INTRA.REPUL.0>
0

>  <SCORE.INTRA.SOLV>
-0.0584192

>  <SCORE.INTRA.SOLV.lig_0>
-32.2894

>  <SCORE.INTRA.VDW>
-2.61767

>  <SCORE.INTRA.VDW.0>
2.0241

>  <SCORE.INTRA.norm>
-0.153887

>  <SCORE.RESTR>
0

>  <SCORE.RESTR.CAVITY>
0

>  <SCORE.RESTR.norm>
0

>  <SCORE.SYSTEM>
0

>  <SCORE.SYSTEM.CONST>
0

>  <SCORE.SYSTEM.DIHEDRAL>
0

>  <SCORE.SYSTEM.SOLV>
0

>  <SCORE.SYSTEM.norm>
0

>  <SCORE.heavy>
12

>  <SCORE.norm>
-0.892653

>  <RMSD>
26.328

$$$$
ligand
 OpenBabel11021811513D
libRbt.so/2013.1/901 2013/11/27
 12 12  0  0  0  0  0  0  0  0999 V2000
   13.4123    8.9526   -4.4252 O   0  0  0  0  0  0  0  0  0  0  0  0
   12.2770    6.4835  -11.0310 O   0  0  0  0  0  0  0  0  0  0  0  0
   12.1461    8.4113   -4.4802 C   0  0  0  0  0  0  0  0  0  0  0  0
   10.1034    7.5021  -11.4609 O   0  0  0  0  0  0  0  0  0  0  0  0
   11.9123    7.5756   -5.6709 C   0  0  0  0  0  0  0  0  0  0  0  0
   10.2688    5.5980   -9.9598 O   0  5  0  0  0  0  0  0  0  0  0  0
   12.3002    8.2671   -6.9076 N   0  3  0  0  0  0  0  0  0  0  0  0
   13.6440    8.7730   -6.7935 C   0  0  0  0  0  0  0  0  0  0  0  0
   13.8108    9.5998   -5.5609 C   0  0  0  0  0  0  0  0  0  0  0  0
   12.1746    7.3768   -8.0220 C   0  0  0  0  0  0  0  0  0  0  0  0
   11.1748    7.9685   -9.0476 C   0  0  0  0  0  0  0  0  0  0  0  0
   10.9538    6.8289  -10.4292 S   0  0  1  0  0  0  0  0  0  0  0  0
  1  3  1  0  0  0  0
  1  9  1  0  0  0  0
  2 12  1  0  0  0  0
  3  5  1  0  0  0  0
  4 12  2  0  0  0  0
  5  7  1  0  0  0  0
  6 12  2  0  0  0  0
  7  8  1  0  0  0  0
  7 10  1  0  0  0  0
  8  9  1  0  0  0  0
 10 11  1  0  0  0  0
 12 11  1  1  0  0  0
M  CHG  2   6  -1   7   1
M  END
>  <CHROM.1>
120.73396138,-177.76522764,-54.43870644,11.89600243,7.66373490,-8.11549253
1.11970271,0.63943185,1.49698570

>  <Name>
ligand

>  <RI>
0

>  <Rbt.Current_Directory>
/home/itssahil/PROJECTS/Mol_Feturizer/New_Systems/rnas/4P95

>  <Rbt.Executable>
rbdock ($Id: //depot/dev/client3/rdock/2013.1/src/exe/rbdock.cxx#4 $)

>  <Rbt.Library>
libRbt.so (2013.1, Build901 2013/11/27)

>  <Rbt.Parameter_File>
/export/apps/rDock/src/rDock_2013.1_src/data/scripts/dock_solv.prm

>  <Rbt.Receptor>
prm/blind_docking_20.prm

>  <SCORE>
-10.5572

>  <SCORE.INTER>
-8.89115

>  <SCORE.INTER.CONST>
1

>  <SCORE.INTER.POLAR>
0

>  <SCORE.INTER.ROT>
3

>  <SCORE.INTER.SOLV>
6.7948

>  <SCORE.INTER.VDW>
-13.7924

>  <SCORE.INTER.norm>
-0.740929

>  <SCORE.INTRA>
-1.6661

>  <SCORE.INTRA.DIHEDRAL>
2.2244

>  <SCORE.INTRA.DIHEDRAL.0>
0.283163

>  <SCORE.INTRA.POLAR>
0

>  <SCORE.INTRA.POLAR.0>
0

>  <SCORE.INTRA.REPUL>
0

>  <SCORE.INTRA.REPUL.0>
0

>  <SCORE.INTRA.SOLV>
-0.127573

>  <SCORE.INTRA.SOLV.lig_0>
-32.2894

>  <SCORE.INTRA.VDW>
-2.71451

>  <SCORE.INTRA.VDW.0>
2.0241

>  <SCORE.INTRA.norm>
-0.138842

>  <SCORE.RESTR>
0

>  <SCORE.RESTR.CAVITY>
0

>  <SCORE.RESTR.norm>
0

>  <SCORE.SYSTEM>
0

>  <SCORE.SYSTEM.CONST>
0

>  <SCORE.SYSTEM.DIHEDRAL>
0

>  <SCORE.SYSTEM.SOLV>
0

>  <SCORE.SYSTEM.norm>
0

>  <SCORE.heavy>
12

>  <SCORE.norm>
-0.879771

>  <RMSD>
26.333

$$$$
ligand
 OpenBabel11021811513D
libRbt.so/2013.1/901 2013/11/27
 12 12  0  0  0  0  0  0  0  0999 V2000
   13.4138    8.9495   -4.3828 O   0  0  0  0  0  0  0  0  0  0  0  0
   12.3435    6.6002  -11.0197 O   0  0  0  0  0  0  0  0  0  0  0  0
   12.1599    8.3906   -4.5046 C   0  0  0  0  0  0  0  0  0  0  0  0
   10.0978    7.4711  -11.4001 O   0  0  0  0  0  0  0  0  0  0  0  0
   11.9841    7.5967   -5.7333 C   0  0  0  0  0  0  0  0  0  0  0  0
   10.4152    5.5359   -9.9646 O   0  5  0  0  0  0  0  0  0  0  0  0
   12.4046    8.3403   -6.9283 N   0  3  0  0  0  0  0  0  0  0  0  0
   13.7345    8.8628   -6.7459 C   0  0  0  0  0  0  0  0  0  0  0  0
   13.8422    9.6452   -5.4783 C   0  0  0  0  0  0  0  0  0  0  0  0
   12.3351    7.4908   -8.0788 C   0  0  0  0  0  0  0  0  0  0  0  0
   11.1551    7.9349   -8.9800 C   0  0  0  0  0  0  0  0  0  0  0  0
   11.0045    6.8282  -10.3974 S   0  0  1  0  0  0  0  0  0  0  0  0
  1  3  1  0  0  0  0
  1  9  1  0  0  0  0
  2 12  1  0  0  0  0
  3  5  1  0  0  0  0
  4 12  2  0  0  0  0
  5  7  1  0  0  0  0
  6 12  2  0  0  0  0
  7  8  1  0  0  0  0
  7 10  1  0  0  0  0
  8  9  1  0  0  0  0
 10 11  1  0  0  0  0
 12 11  1  1  0  0  0
M  CHG  2   6  -1   7   1
M  END
>  <CHROM.1>
108.86857074,-177.40081300,-46.78860825,11.95424410,7.68620186,-8.09879271
1.11919444,0.63930606,1.49017455

>  <Name>
ligand

>  <RI>
0

>  <Rbt.Current_Directory>
/home/itssahil/PROJECTS/Mol_Feturizer/New_Systems/rnas/4P95

>  <Rbt.Executable>
rbdock ($Id: //depot/dev/client3/rdock/2013.1/src/exe/rbdock.cxx#4 $)

>  <Rbt.Library>
libRbt.so (2013.1, Build901 2013/11/27)

>  <Rbt.Parameter_File>
/export/apps/rDock/src/rDock_2013.1_src/data/scripts/dock_solv.prm

>  <Rbt.Receptor>
prm/blind_docking_20.prm

>  <SCORE>
-10.5471

>  <SCORE.INTER>
-9.0026

>  <SCORE.INTER.CONST>
1

>  <SCORE.INTER.POLAR>
0

>  <SCORE.INTER.ROT>
3

>  <SCORE.INTER.SOLV>
6.69631

>  <SCORE.INTER.VDW>
-13.8338

>  <SCORE.INTER.norm>
-0.750217

>  <SCORE.INTRA>
-1.54447

>  <SCORE.INTRA.DIHEDRAL>
2.43605

>  <SCORE.INTRA.DIHEDRAL.0>
0.283163

>  <SCORE.INTRA.POLAR>
0

>  <SCORE.INTRA.POLAR.0>
0

>  <SCORE.INTRA.REPUL>
0

>  <SCORE.INTRA.REPUL.0>
0

>  <SCORE.INTRA.SOLV>
-0.203646

>  <SCORE.INTRA.SOLV.lig_0>
-32.2894

>  <SCORE.INTRA.VDW>
-2.66067

>  <SCORE.INTRA.VDW.0>
2.0241

>  <SCORE.INTRA.norm>
-0.128706

>  <SCORE.RESTR>
0

>  <SCORE.RESTR.CAVITY>
0

>  <SCORE.RESTR.norm>
0

>  <SCORE.SYSTEM>
0

>  <SCORE.SYSTEM.CONST>
0

>  <SCORE.SYSTEM.DIHEDRAL>
0

>  <SCORE.SYSTEM.SOLV>
0

>  <SCORE.SYSTEM.norm>
0

>  <SCORE.heavy>
12

>  <SCORE.norm>
-0.878923

>  <RMSD>
26.370

$$$$
ligand
 OpenBabel11021811513D
libRbt.so/2013.1/901 2013/11/27
 12 12  0  0  0  0  0  0  0  0999 V2000
   13.4717    8.9456   -4.4190 O   0  0  0  0  0  0  0  0  0  0  0  0
   12.2910    6.5331  -10.9448 O   0  0  0  0  0  0  0  0  0  0  0  0
   12.2864    8.2480   -4.3305 C   0  0  0  0  0  0  0  0  0  0  0  0
   10.1634    7.6150  -11.4441 O   0  0  0  0  0  0  0  0  0  0  0  0
   12.0067    7.4072   -5.5077 C   0  0  0  0  0  0  0  0  0  0  0  0
   10.2129    5.6520  -10.0121 O   0  5  0  0  0  0  0  0  0  0  0  0
   12.1423    8.1609   -6.7613 N   0  3  0  0  0  0  0  0  0  0  0  0
   13.4160    8.8323   -6.8020 C   0  0  0  0  0  0  0  0  0  0  0  0
   13.6364    9.6552   -5.5753 C   0  0  0  0  0  0  0  0  0  0  0  0
   11.9857    7.2786   -7.8781 C   0  0  0  0  0  0  0  0  0  0  0  0
   11.1182    7.9655   -8.9632 C   0  0  0  0  0  0  0  0  0  0  0  0
   10.9458    6.8844  -10.3977 S   0  0  1  0  0  0  0  0  0  0  0  0
  1  3  1  0  0  0  0
  1  9  1  0  0  0  0
  2 12  1  0  0  0  0
  3  5  1  0  0  0  0
  4 12  2  0  0  0  0
  5  7  1  0  0  0  0
  6 12  2  0  0  0  0
  7  8  1  0  0  0  0
  7 10  1  0  0  0  0
  8  9  1  0  0  0  0
 10 11  1  0  0  0  0
 12 11  1  1  0  0  0
M  CHG  2   6  -1   7   1
M  END
>  <CHROM.1>
138.09060147,178.52704823,-57.66943891,11.85983332,7.65953428,-8.05761983
-1.05343553,-0.79916566,-1.51514897

>  <Name>
ligand

>  <RI>
0

>  <Rbt.Current_Directory>
/home/itssahil/PROJECTS/Mol_Feturizer/New_Systems/rnas/4P95

>  <Rbt.Executable>
rbdock ($Id: //depot/dev/client3/rdock/2013.1/src/exe/rbdock.cxx#4 $)

>  <Rbt.Library>
libRbt.so (2013.1, Build901 2013/11/27)

>  <Rbt.Parameter_File>
/export/apps/rDock/src/rDock_2013.1_src/data/scripts/dock_solv.prm

>  <Rbt.Receptor>
prm/blind_docking_20.prm

>  <SCORE>
-10.6665

>  <SCORE.INTER>
-8.82576

>  <SCORE.INTER.CONST>
1

>  <SCORE.INTER.POLAR>
0

>  <SCORE.INTER.ROT>
3

>  <SCORE.INTER.SOLV>
6.90928

>  <SCORE.INTER.VDW>
-13.7869

>  <SCORE.INTER.norm>
-0.73548

>  <SCORE.INTRA>
-1.84075

>  <SCORE.INTRA.DIHEDRAL>
1.58985

>  <SCORE.INTRA.DIHEDRAL.0>
0.283163

>  <SCORE.INTRA.POLAR>
0

>  <SCORE.INTRA.POLAR.0>
0

>  <SCORE.INTRA.REPUL>
0

>  <SCORE.INTRA.REPUL.0>
0

>  <SCORE.INTRA.SOLV>
-0.0912607

>  <SCORE.INTRA.SOLV.lig_0>
-32.2894

>  <SCORE.INTRA.VDW>
-2.59005

>  <SCORE.INTRA.VDW.0>
2.0241

>  <SCORE.INTRA.norm>
-0.153396

>  <SCORE.RESTR>
0

>  <SCORE.RESTR.CAVITY>
0

>  <SCORE.RESTR.norm>
0

>  <SCORE.SYSTEM>
0

>  <SCORE.SYSTEM.CONST>
0

>  <SCORE.SYSTEM.DIHEDRAL>
0

>  <SCORE.SYSTEM.SOLV>
0

>  <SCORE.SYSTEM.norm>
0

>  <SCORE.heavy>
12

>  <SCORE.norm>
-0.888876

>  <RMSD>
26.376

$$$$
ligand
 OpenBabel11021811513D
libRbt.so/2013.1/901 2013/11/27
 12 12  0  0  0  0  0  0  0  0999 V2000
   12.9414    8.7572   -4.5695 O   0  0  0  0  0  0  0  0  0  0  0  0
    9.7394    7.9209   -7.9673 O   0  0  0  0  0  0  0  0  0  0  0  0
   11.8939    7.9495   -4.9564 C   0  0  0  0  0  0  0  0  0  0  0  0
   10.3745    5.6911   -8.7229 O   0  0  0  0  0  0  0  0  0  0  0  0
   12.1335    7.2386   -6.2245 C   0  0  0  0  0  0  0  0  0  0  0  0
    9.3442    7.2459  -10.2809 O   0  5  0  0  0  0  0  0  0  0  0  0
   12.5833    8.1504   -7.2847 N   0  3  0  0  0  0  0  0  0  0  0  0
   13.7007    8.9344   -6.8248 C   0  0  0  0  0  0  0  0  0  0  0  0
   13.3914    9.6161   -5.5324 C   0  0  0  0  0  0  0  0  0  0  0  0
   12.9230    7.4022   -8.4574 C   0  0  0  0  0  0  0  0  0  0  0  0
   11.9066    7.7159   -9.5844 C   0  0  0  0  0  0  0  0  0  0  0  0
   10.2640    7.1298   -9.1212 S   0  0  1  0  0  0  0  0  0  0  0  0
  1  3  1  0  0  0  0
  1  9  1  0  0  0  0
  2 12  1  0  0  0  0
  3  5  1  0  0  0  0
  4 12  2  0  0  0  0
  5  7  1  0  0  0  0
  6 12  2  0  0  0  0
  7  8  1  0  0  0  0
  7 10  1  0  0  0  0
  8  9  1  0  0  0  0
 10 11  1  0  0  0  0
 12 11  1  6  0  0  0
M  CHG  2   6  -1   7   1
M  END
>  <CHROM.1>
112.29169397,-65.16158857,67.05705378,11.57937810,7.73262157,-7.63198360
0.91136919,0.41205712,1.45993063

>  <Name>
ligand

>  <RI>
0

>  <Rbt.Current_Directory>
/home/itssahil/PROJECTS/Mol_Feturizer/New_Systems/rnas/4P95

>  <Rbt.Executable>
rbdock ($Id: //depot/dev/client3/rdock/2013.1/src/exe/rbdock.cxx#4 $)

>  <Rbt.Library>
libRbt.so (2013.1, Build901 2013/11/27)

>  <Rbt.Parameter_File>
/export/apps/rDock/src/rDock_2013.1_src/data/scripts/dock_solv.prm

>  <Rbt.Receptor>
prm/blind_docking_20.prm

>  <SCORE>
-9.44473

>  <SCORE.INTER>
-6.93394

>  <SCORE.INTER.CONST>
1

>  <SCORE.INTER.POLAR>
0

>  <SCORE.INTER.ROT>
3

>  <SCORE.INTER.SOLV>
5.723

>  <SCORE.INTER.VDW>
-12.1303

>  <SCORE.INTER.norm>
-0.577829

>  <SCORE.INTRA>
-2.51078

>  <SCORE.INTRA.DIHEDRAL>
2.29117

>  <SCORE.INTRA.DIHEDRAL.0>
0.283163

>  <SCORE.INTRA.POLAR>
0

>  <SCORE.INTRA.POLAR.0>
0

>  <SCORE.INTRA.REPUL>
0

>  <SCORE.INTRA.REPUL.0>
0

>  <SCORE.INTRA.SOLV>
-0.381245

>  <SCORE.INTRA.SOLV.lig_0>
-32.2894

>  <SCORE.INTRA.VDW>
-3.46575

>  <SCORE.INTRA.VDW.0>
2.0241

>  <SCORE.INTRA.norm>
-0.209232

>  <SCORE.RESTR>
0

>  <SCORE.RESTR.CAVITY>
0

>  <SCORE.RESTR.norm>
0

>  <SCORE.SYSTEM>
0

>  <SCORE.SYSTEM.CONST>
0

>  <SCORE.SYSTEM.DIHEDRAL>
0

>  <SCORE.SYSTEM.SOLV>
0

>  <SCORE.SYSTEM.norm>
0

>  <SCORE.heavy>
12

>  <SCORE.norm>
-0.787061

>  <RMSD>
26.628

$$$$
ligand
 OpenBabel11021811513D
libRbt.so/2013.1/901 2013/11/27
 12 12  0  0  0  0  0  0  0  0999 V2000
   12.9041    9.4663   -5.2417 O   0  0  0  0  0  0  0  0  0  0  0  0
   10.0957    2.4604   -7.3820 O   0  0  0  0  0  0  0  0  0  0  0  0
   13.6022    9.0668   -6.3607 C   0  0  0  0  0  0  0  0  0  0  0  0
   11.0735    3.7158   -9.2298 O   0  0  0  0  0  0  0  0  0  0  0  0
   12.8371    8.1708   -7.2455 C   0  0  0  0  0  0  0  0  0  0  0  0
    8.9872    4.4636   -8.2324 O   0  5  0  0  0  0  0  0  0  0  0  0
   12.2412    7.0509   -6.5048 N   0  3  0  0  0  0  0  0  0  0  0  0
   11.4977    7.5429   -5.3736 C   0  0  0  0  0  0  0  0  0  0  0  0
   12.3300    8.4512   -4.5292 C   0  0  0  0  0  0  0  0  0  0  0  0
   11.4075    6.2801   -7.3772 C   0  0  0  0  0  0  0  0  0  0  0  0
   11.2428    4.8491   -6.8056 C   0  0  0  0  0  0  0  0  0  0  0  0
   10.2988    3.8258   -7.9536 S   0  0  1  0  0  0  0  0  0  0  0  0
  1  3  1  0  0  0  0
  1  9  1  0  0  0  0
  2 12  1  0  0  0  0
  3  5  1  0  0  0  0
  4 12  2  0  0  0  0
  5  7  1  0  0  0  0
  6 12  2  0  0  0  0
  7  8  1  0  0  0  0
  7 10  1  0  0  0  0
  8  9  1  0  0  0  0
 10 11  1  0  0  0  0
 12 11  1  1  0  0  0
M  CHG  2   6  -1   7   1
M  END
>  <CHROM.1>
157.59811647,-175.72346758,-177.92376153,11.39593291,5.99993682,-6.98239338
0.85126685,0.88582768,1.03473144

>  <Name>
ligand

>  <RI>
0

>  <Rbt.Current_Directory>
/home/itssahil/PROJECTS/Mol_Feturizer/New_Systems/rnas/4P95

>  <Rbt.Executable>
rbdock ($Id: //depot/dev/client3/rdock/2013.1/src/exe/rbdock.cxx#4 $)

>  <Rbt.Library>
libRbt.so (2013.1, Build901 2013/11/27)

>  <Rbt.Parameter_File>
/export/apps/rDock/src/rDock_2013.1_src/data/scripts/dock_solv.prm

>  <Rbt.Receptor>
prm/blind_docking_20.prm

>  <SCORE>
-7.12995

>  <SCORE.INTER>
-5.39668

>  <SCORE.INTER.CONST>
1

>  <SCORE.INTER.POLAR>
0

>  <SCORE.INTER.ROT>
3

>  <SCORE.INTER.SOLV>
4.77055

>  <SCORE.INTER.VDW>
-10.788

>  <SCORE.INTER.norm>
-0.449724

>  <SCORE.INTRA>
-1.73327

>  <SCORE.INTRA.DIHEDRAL>
0.477567

>  <SCORE.INTRA.DIHEDRAL.0>
0.283163

>  <SCORE.INTRA.POLAR>
0

>  <SCORE.INTRA.POLAR.0>
0

>  <SCORE.INTRA.REPUL>
0

>  <SCORE.INTRA.REPUL.0>
0

>  <SCORE.INTRA.SOLV>
0.179656

>  <SCORE.INTRA.SOLV.lig_0>
-32.2894

>  <SCORE.INTRA.VDW>
-2.06188

>  <SCORE.INTRA.VDW.0>
2.0241

>  <SCORE.INTRA.norm>
-0.144439

>  <SCORE.RESTR>
0

>  <SCORE.RESTR.CAVITY>
0

>  <SCORE.RESTR.norm>
0

>  <SCORE.SYSTEM>
0

>  <SCORE.SYSTEM.CONST>
0

>  <SCORE.SYSTEM.DIHEDRAL>
0

>  <SCORE.SYSTEM.SOLV>
0

>  <SCORE.SYSTEM.norm>
0

>  <SCORE.heavy>
12

>  <SCORE.norm>
-0.594162

>  <RMSD>
26.720

$$$$
ligand
 OpenBabel11021811513D
libRbt.so/2013.1/901 2013/11/27
 12 12  0  0  0  0  0  0  0  0999 V2000
   10.8391    6.7813  -11.2155 O   0  0  0  0  0  0  0  0  0  0  0  0
   12.0668    7.9355   -3.4643 O   0  0  0  0  0  0  0  0  0  0  0  0
    9.9513    7.4321  -10.3862 C   0  0  0  0  0  0  0  0  0  0  0  0
   12.8015    9.6440   -5.0415 O   0  0  0  0  0  0  0  0  0  0  0  0
   10.5936    8.0961   -9.2384 C   0  0  0  0  0  0  0  0  0  0  0  0
   14.0540    7.5715   -4.8365 O   0  5  0  0  0  0  0  0  0  0  0  0
   11.4985    7.1892   -8.5197 N   0  3  0  0  0  0  0  0  0  0  0  0
   12.4202    6.5745   -9.4402 C   0  0  0  0  0  0  0  0  0  0  0  0
   11.7019    5.9322  -10.5814 C   0  0  0  0  0  0  0  0  0  0  0  0
   12.1926    7.9076   -7.4938 C   0  0  0  0  0  0  0  0  0  0  0  0
   11.6770    7.4543   -6.1045 C   0  0  0  0  0  0  0  0  0  0  0  0
   12.6960    8.1707   -4.7989 S   0  0  1  0  0  0  0  0  0  0  0  0
  1  3  1  0  0  0  0
  1  9  1  0  0  0  0
  2 12  1  0  0  0  0
  3  5  1  0  0  0  0
  4 12  2  0  0  0  0
  5  7  1  0  0  0  0
  6 12  2  0  0  0  0
  7  8  1  0  0  0  0
  7 10  1  0  0  0  0
  8  9  1  0  0  0  0
 10 11  1  0  0  0  0
 12 11  1  6  0  0  0
M  CHG  2   6  -1   7   1
M  END
>  <CHROM.1>
109.83727082,171.98148079,170.12580992,11.97370811,7.63168454,-7.27478850
-1.92378088,-0.61223107,1.13257902

>  <Name>
ligand

>  <RI>
0

>  <Rbt.Current_Directory>
/home/itssahil/PROJECTS/Mol_Feturizer/New_Systems/rnas/4P95

>  <Rbt.Executable>
rbdock ($Id: //depot/dev/client3/rdock/2013.1/src/exe/rbdock.cxx#4 $)

>  <Rbt.Library>
libRbt.so (2013.1, Build901 2013/11/27)

>  <Rbt.Parameter_File>
/export/apps/rDock/src/rDock_2013.1_src/data/scripts/dock_solv.prm

>  <Rbt.Receptor>
prm/blind_docking_20.prm

>  <SCORE>
-9.40922

>  <SCORE.INTER>
-8.01122

>  <SCORE.INTER.CONST>
1

>  <SCORE.INTER.POLAR>
0

>  <SCORE.INTER.ROT>
3

>  <SCORE.INTER.SOLV>
5.87595

>  <SCORE.INTER.VDW>
-12.8995

>  <SCORE.INTER.norm>
-0.667601

>  <SCORE.INTRA>
-1.398

>  <SCORE.INTRA.DIHEDRAL>
2.4277

>  <SCORE.INTRA.DIHEDRAL.0>
0.283163

>  <SCORE.INTRA.POLAR>
0

>  <SCORE.INTRA.POLAR.0>
0

>  <SCORE.INTRA.REPUL>
0

>  <SCORE.INTRA.REPUL.0>
0

>  <SCORE.INTRA.SOLV>
0.0806185

>  <SCORE.INTRA.SOLV.lig_0>
-32.2894

>  <SCORE.INTRA.VDW>
-2.65216

>  <SCORE.INTRA.VDW.0>
2.0241

>  <SCORE.INTRA.norm>
-0.1165

>  <SCORE.RESTR>
0

>  <SCORE.RESTR.CAVITY>
0

>  <SCORE.RESTR.norm>
0

>  <SCORE.SYSTEM>
0

>  <SCORE.SYSTEM.CONST>
0

>  <SCORE.SYSTEM.DIHEDRAL>
0

>  <SCORE.SYSTEM.SOLV>
0

>  <SCORE.SYSTEM.norm>
0

>  <SCORE.heavy>
12

>  <SCORE.norm>
-0.784101

>  <RMSD>
26.795

$$$$
ligand
 OpenBabel11021811513D
libRbt.so/2013.1/901 2013/11/27
 12 12  0  0  0  0  0  0  0  0999 V2000
   10.0479    7.1381  -10.3212 O   0  0  0  0  0  0  0  0  0  0  0  0
   12.1372    8.1103   -3.4038 O   0  0  0  0  0  0  0  0  0  0  0  0
    9.3379    6.3862   -9.4103 C   0  0  0  0  0  0  0  0  0  0  0  0
   12.9550    9.6500   -5.1089 O   0  0  0  0  0  0  0  0  0  0  0  0
    9.5615    6.7883   -8.0106 C   0  0  0  0  0  0  0  0  0  0  0  0
   14.4623    8.0057   -4.1440 O   0  5  0  0  0  0  0  0  0  0  0  0
   10.9924    6.8834   -7.6921 N   0  3  0  0  0  0  0  0  0  0  0  0
   11.6630    7.7120   -8.6608 C   0  0  0  0  0  0  0  0  0  0  0  0
   11.3833    7.2541  -10.0547 C   0  0  0  0  0  0  0  0  0  0  0  0
   11.1621    7.3959   -6.3659 C   0  0  0  0  0  0  0  0  0  0  0  0
   12.6044    7.1056   -5.8790 C   0  0  0  0  0  0  0  0  0  0  0  0
   13.0619    8.2582   -4.5681 S   0  0  1  0  0  0  0  0  0  0  0  0
  1  3  1  0  0  0  0
  1  9  1  0  0  0  0
  2 12  1  0  0  0  0
  3  5  1  0  0  0  0
  4 12  2  0  0  0  0
  5  7  1  0  0  0  0
  6 12  2  0  0  0  0
  7  8  1  0  0  0  0
  7 10  1  0  0  0  0
  8  9  1  0  0  0  0
 10 11  1  0  0  0  0
 12 11  1  6  0  0  0
M  CHG  2   6  -1   7   1
M  END
>  <CHROM.1>
163.29178610,157.31871179,60.64339527,11.78051828,7.64962883,-6.69564568
-2.13450052,0.43231197,1.56543548

>  <Name>
ligand

>  <RI>
0

>  <Rbt.Current_Directory>
/home/itssahil/PROJECTS/Mol_Feturizer/New_Systems/rnas/4P95

>  <Rbt.Executable>
rbdock ($Id: //depot/dev/client3/rdock/2013.1/src/exe/rbdock.cxx#4 $)

>  <Rbt.Library>
libRbt.so (2013.1, Build901 2013/11/27)

>  <Rbt.Parameter_File>
/export/apps/rDock/src/rDock_2013.1_src/data/scripts/dock_solv.prm

>  <Rbt.Receptor>
prm/blind_docking_20.prm

>  <SCORE>
-7.09371

>  <SCORE.INTER>
-5.83325

>  <SCORE.INTER.CONST>
1

>  <SCORE.INTER.POLAR>
0

>  <SCORE.INTER.ROT>
3

>  <SCORE.INTER.SOLV>
7.54998

>  <SCORE.INTER.VDW>
-12.0055

>  <SCORE.INTER.norm>
-0.486104

>  <SCORE.INTRA>
-1.26047

>  <SCORE.INTRA.DIHEDRAL>
1.8297

>  <SCORE.INTRA.DIHEDRAL.0>
0.283163

>  <SCORE.INTRA.POLAR>
0

>  <SCORE.INTRA.POLAR.0>
0

>  <SCORE.INTRA.REPUL>
0

>  <SCORE.INTRA.REPUL.0>
0

>  <SCORE.INTRA.SOLV>
-0.641987

>  <SCORE.INTRA.SOLV.lig_0>
-32.2894

>  <SCORE.INTRA.VDW>
-1.85432

>  <SCORE.INTRA.VDW.0>
2.0241

>  <SCORE.INTRA.norm>
-0.105039

>  <SCORE.RESTR>
0

>  <SCORE.RESTR.CAVITY>
0

>  <SCORE.RESTR.norm>
0

>  <SCORE.SYSTEM>
0

>  <SCORE.SYSTEM.CONST>
0

>  <SCORE.SYSTEM.DIHEDRAL>
0

>  <SCORE.SYSTEM.SOLV>
0

>  <SCORE.SYSTEM.norm>
0

>  <SCORE.heavy>
12

>  <SCORE.norm>
-0.591143

>  <RMSD>
27.231

$$$$
ligand
 OpenBabel11021811513D
libRbt.so/2013.1/901 2013/11/27
 12 12  0  0  0  0  0  0  0  0999 V2000
   12.0345    6.7983  -10.7853 O   0  0  0  0  0  0  0  0  0  0  0  0
   12.3495    7.1143   -2.8704 O   0  0  0  0  0  0  0  0  0  0  0  0
   10.8771    7.2109  -10.1612 C   0  0  0  0  0  0  0  0  0  0  0  0
   11.6181    9.1340   -4.0247 O   0  0  0  0  0  0  0  0  0  0  0  0
   11.1108    7.9065   -8.8836 C   0  0  0  0  0  0  0  0  0  0  0  0
   13.9457    8.4467   -4.1518 O   0  5  0  0  0  0  0  0  0  0  0  0
   12.0030    7.1424   -8.0014 N   0  3  0  0  0  0  0  0  0  0  0  0
   13.2053    6.7777   -8.7059 C   0  0  0  0  0  0  0  0  0  0  0  0
   12.8931    6.0885   -9.9937 C   0  0  0  0  0  0  0  0  0  0  0  0
   12.3015    7.9093   -6.8297 C   0  0  0  0  0  0  0  0  0  0  0  0
   12.1582    7.0130   -5.5736 C   0  0  0  0  0  0  0  0  0  0  0  0
   12.5445    7.9598   -4.0868 S   0  0  1  0  0  0  0  0  0  0  0  0
  1  3  1  0  0  0  0
  1  9  1  0  0  0  0
  2 12  1  0  0  0  0
  3  5  1  0  0  0  0
  4 12  2  0  0  0  0
  5  7  1  0  0  0  0
  6 12  2  0  0  0  0
  7  8  1  0  0  0  0
  7 10  1  0  0  0  0
  8  9  1  0  0  0  0
 10 11  1  0  0  0  0
 12 11  1  6  0  0  0
M  CHG  2   6  -1   7   1
M  END
>  <CHROM.1>
134.19167526,179.52518175,177.54781794,12.28997045,7.52189145,-6.67167461
-1.68157510,-0.52350303,1.33134358

>  <Name>
ligand

>  <RI>
0

>  <Rbt.Current_Directory>
/home/itssahil/PROJECTS/Mol_Feturizer/New_Systems/rnas/4P95

>  <Rbt.Executable>
rbdock ($Id: //depot/dev/client3/rdock/2013.1/src/exe/rbdock.cxx#4 $)

>  <Rbt.Library>
libRbt.so (2013.1, Build901 2013/11/27)

>  <Rbt.Parameter_File>
/export/apps/rDock/src/rDock_2013.1_src/data/scripts/dock_solv.prm

>  <Rbt.Receptor>
prm/blind_docking_20.prm

>  <SCORE>
-9.40683

>  <SCORE.INTER>
-7.72988

>  <SCORE.INTER.CONST>
1

>  <SCORE.INTER.POLAR>
0

>  <SCORE.INTER.ROT>
3

>  <SCORE.INTER.SOLV>
9.56837

>  <SCORE.INTER.VDW>
-13.9427

>  <SCORE.INTER.norm>
-0.644156

>  <SCORE.INTRA>
-1.67932

>  <SCORE.INTRA.DIHEDRAL>
1.75954

>  <SCORE.INTRA.DIHEDRAL.0>
0.283163

>  <SCORE.INTRA.POLAR>
0

>  <SCORE.INTRA.POLAR.0>
0

>  <SCORE.INTRA.REPUL>
0

>  <SCORE.INTRA.REPUL.0>
0

>  <SCORE.INTRA.SOLV>
0.140878

>  <SCORE.INTRA.SOLV.lig_0>
-32.2894

>  <SCORE.INTRA.VDW>
-2.62953

>  <SCORE.INTRA.VDW.0>
2.0241

>  <SCORE.INTRA.norm>
-0.139943

>  <SCORE.RESTR>
0.00236284

>  <SCORE.RESTR.CAVITY>
0.00236284

>  <SCORE.RESTR.norm>
0.000196903

>  <SCORE.SYSTEM>
0

>  <SCORE.SYSTEM.CONST>
0

>  <SCORE.SYSTEM.DIHEDRAL>
0

>  <SCORE.SYSTEM.SOLV>
0

>  <SCORE.SYSTEM.norm>
0

>  <SCORE.heavy>
12

>  <SCORE.norm>
-0.783903

>  <RMSD>
27.427

$$$$
ligand
 OpenBabel11021811513D
libRbt.so/2013.1/901 2013/11/27
 12 12  0  0  0  0  0  0  0  0999 V2000
   13.4479    6.7225   -2.8994 O   0  0  0  0  0  0  0  0  0  0  0  0
   11.1103    8.0950  -10.3629 O   0  0  0  0  0  0  0  0  0  0  0  0
   12.9281    7.9507   -3.2466 C   0  0  0  0  0  0  0  0  0  0  0  0
    9.4494    8.3039   -8.5897 O   0  0  0  0  0  0  0  0  0  0  0  0
   11.9538    7.8890   -4.3502 C   0  0  0  0  0  0  0  0  0  0  0  0
   10.2411    6.1029   -9.2491 O   0  5  0  0  0  0  0  0  0  0  0  0
   12.4767    7.1364   -5.4983 N   0  3  0  0  0  0  0  0  0  0  0  0
   12.9674    5.8521   -5.0688 C   0  0  0  0  0  0  0  0  0  0  0  0
   13.9394    5.9900   -3.9432 C   0  0  0  0  0  0  0  0  0  0  0  0
   11.4559    6.9950   -6.4924 C   0  0  0  0  0  0  0  0  0  0  0  0
   11.9305    7.6423   -7.8180 C   0  0  0  0  0  0  0  0  0  0  0  0
   10.6339    7.5232   -9.0673 S   0  0  1  0  0  0  0  0  0  0  0  0
  1  3  1  0  0  0  0
  1  9  1  0  0  0  0
  2 12  1  0  0  0  0
  3  5  1  0  0  0  0
  4 12  2  0  0  0  0
  5  7  1  0  0  0  0
  6 12  2  0  0  0  0
  7  8  1  0  0  0  0
  7 10  1  0  0  0  0
  8  9  1  0  0  0  0
 10 11  1  0  0  0  0
 12 11  1  1  0  0  0
M  CHG  2   6  -1   7   1
M  END
>  <CHROM.1>
120.51750905,-178.08752404,-177.62320855,11.72917866,7.22010074,-6.68816186
0.78280989,-0.92150026,1.01667022

>  <Name>
ligand

>  <RI>
0

>  <Rbt.Current_Directory>
/home/itssahil/PROJECTS/Mol_Feturizer/New_Systems/rnas/4P95

>  <Rbt.Executable>
rbdock ($Id: //depot/dev/client3/rdock/2013.1/src/exe/rbdock.cxx#4 $)

>  <Rbt.Library>
libRbt.so (2013.1, Build901 2013/11/27)

>  <Rbt.Parameter_File>
/export/apps/rDock/src/rDock_2013.1_src/data/scripts/dock_solv.prm

>  <Rbt.Receptor>
prm/blind_docking_20.prm

>  <SCORE>
-9.23653

>  <SCORE.INTER>
-7.7046

>  <SCORE.INTER.CONST>
1

>  <SCORE.INTER.POLAR>
0

>  <SCORE.INTER.ROT>
3

>  <SCORE.INTER.SOLV>
5.3793

>  <SCORE.INTER.VDW>
-12.5295

>  <SCORE.INTER.norm>
-0.64205

>  <SCORE.INTRA>
-1.53193

>  <SCORE.INTRA.DIHEDRAL>
2.14825

>  <SCORE.INTRA.DIHEDRAL.0>
0.283163

>  <SCORE.INTRA.POLAR>
0

>  <SCORE.INTRA.POLAR.0>
0

>  <SCORE.INTRA.REPUL>
0

>  <SCORE.INTRA.REPUL.0>
0

>  <SCORE.INTRA.SOLV>
0.186947

>  <SCORE.INTRA.SOLV.lig_0>
-32.2894

>  <SCORE.INTRA.VDW>
-2.69953

>  <SCORE.INTRA.VDW.0>
2.0241

>  <SCORE.INTRA.norm>
-0.127661

>  <SCORE.RESTR>
0

>  <SCORE.RESTR.CAVITY>
0

>  <SCORE.RESTR.norm>
0

>  <SCORE.SYSTEM>
0

>  <SCORE.SYSTEM.CONST>
0

>  <SCORE.SYSTEM.DIHEDRAL>
0

>  <SCORE.SYSTEM.SOLV>
0

>  <SCORE.SYSTEM.norm>
0

>  <SCORE.heavy>
12

>  <SCORE.norm>
-0.769711

>  <RMSD>
27.542

$$$$
ligand
 OpenBabel11021811513D
libRbt.so/2013.1/901 2013/11/27
 12 12  0  0  0  0  0  0  0  0999 V2000
   13.6654    6.8572   -2.8517 O   0  0  0  0  0  0  0  0  0  0  0  0
   12.4992    7.8715   -9.6097 O   0  0  0  0  0  0  0  0  0  0  0  0
   13.7050    5.8787   -3.8214 C   0  0  0  0  0  0  0  0  0  0  0  0
   10.2180    8.5379   -9.0631 O   0  0  0  0  0  0  0  0  0  0  0  0
   13.4193    6.3793   -5.1774 C   0  0  0  0  0  0  0  0  0  0  0  0
   10.6376    6.3468  -10.0273 O   0  5  0  0  0  0  0  0  0  0  0  0
   12.1894    7.1817   -5.2149 N   0  3  0  0  0  0  0  0  0  0  0  0
   12.2329    8.2054   -4.2026 C   0  0  0  0  0  0  0  0  0  0  0  0
   12.5374    7.6287   -2.8589 C   0  0  0  0  0  0  0  0  0  0  0  0
   12.0189    7.7492   -6.5185 C   0  0  0  0  0  0  0  0  0  0  0  0
   11.3390    6.7134   -7.4494 C   0  0  0  0  0  0  0  0  0  0  0  0
   11.1748    7.3879   -9.1151 S   0  0  1  0  0  0  0  0  0  0  0  0
  1  3  1  0  0  0  0
  1  9  1  0  0  0  0
  2 12  1  0  0  0  0
  3  5  1  0  0  0  0
  4 12  2  0  0  0  0
  5  7  1  0  0  0  0
  6 12  2  0  0  0  0
  7  8  1  0  0  0  0
  7 10  1  0  0  0  0
  8  9  1  0  0  0  0
 10 11  1  0  0  0  0
 12 11  1  1  0  0  0
M  CHG  2   6  -1   7   1
M  END
>  <CHROM.1>
83.79506637,-177.77517899,53.36598072,12.03162464,7.25010403,-6.64837180
-1.02453315,0.87873856,-1.93353383

>  <Name>
ligand

>  <RI>
0

>  <Rbt.Current_Directory>
/home/itssahil/PROJECTS/Mol_Feturizer/New_Systems/rnas/4P95

>  <Rbt.Executable>
rbdock ($Id: //depot/dev/client3/rdock/2013.1/src/exe/rbdock.cxx#4 $)

>  <Rbt.Library>
libRbt.so (2013.1, Build901 2013/11/27)

>  <Rbt.Parameter_File>
/export/apps/rDock/src/rDock_2013.1_src/data/scripts/dock_solv.prm

>  <Rbt.Receptor>
prm/blind_docking_20.prm

>  <SCORE>
-11.4052

>  <SCORE.INTER>
-9.18821

>  <SCORE.INTER.CONST>
1

>  <SCORE.INTER.POLAR>
0

>  <SCORE.INTER.ROT>
3

>  <SCORE.INTER.SOLV>
7.11242

>  <SCORE.INTER.VDW>
-14.0963

>  <SCORE.INTER.norm>
-0.765684

>  <SCORE.INTRA>
-2.21699

>  <SCORE.INTRA.DIHEDRAL>
0.707622

>  <SCORE.INTRA.DIHEDRAL.0>
0.283163

>  <SCORE.INTRA.POLAR>
0

>  <SCORE.INTRA.POLAR.0>
0

>  <SCORE.INTRA.REPUL>
0

>  <SCORE.INTRA.REPUL.0>
0

>  <SCORE.INTRA.SOLV>
-0.72373

>  <SCORE.INTRA.SOLV.lig_0>
-32.2894

>  <SCORE.INTRA.VDW>
-2.20893

>  <SCORE.INTRA.VDW.0>
2.0241

>  <SCORE.INTRA.norm>
-0.184749

>  <SCORE.RESTR>
0

>  <SCORE.RESTR.CAVITY>
0

>  <SCORE.RESTR.norm>
0

>  <SCORE.SYSTEM>
0

>  <SCORE.SYSTEM.CONST>
0

>  <SCORE.SYSTEM.DIHEDRAL>
0

>  <SCORE.SYSTEM.SOLV>
0

>  <SCORE.SYSTEM.norm>
0

>  <SCORE.heavy>
12

>  <SCORE.norm>
-0.950433

>  <RMSD>
27.653

$$$$
ligand
 OpenBabel11021811513D
libRbt.so/2013.1/901 2013/11/27
 12 12  0  0  0  0  0  0  0  0999 V2000
   13.6651    6.8473   -2.8528 O   0  0  0  0  0  0  0  0  0  0  0  0
   12.4729    7.8723   -9.5957 O   0  0  0  0  0  0  0  0  0  0  0  0
   13.7059    5.8716   -3.8253 C   0  0  0  0  0  0  0  0  0  0  0  0
   10.1939    8.5558   -9.0616 O   0  0  0  0  0  0  0  0  0  0  0  0
   13.4187    6.3755   -5.1797 C   0  0  0  0  0  0  0  0  0  0  0  0
   10.6029    6.3589  -10.0169 O   0  5  0  0  0  0  0  0  0  0  0  0
   12.1873    7.1758   -5.2144 N   0  3  0  0  0  0  0  0  0  0  0  0
   12.2296    8.1968   -4.1993 C   0  0  0  0  0  0  0  0  0  0  0  0
   12.5358    7.6169   -2.8573 C   0  0  0  0  0  0  0  0  0  0  0  0
   12.0153    7.7466   -6.5164 C   0  0  0  0  0  0  0  0  0  0  0  0
   11.2953    6.7289   -7.4370 C   0  0  0  0  0  0  0  0  0  0  0  0
   11.1432    7.3992   -9.1055 S   0  0  1  0  0  0  0  0  0  0  0  0
  1  3  1  0  0  0  0
  1  9  1  0  0  0  0
  2 12  1  0  0  0  0
  3  5  1  0  0  0  0
  4 12  2  0  0  0  0
  5  7  1  0  0  0  0
  6 12  2  0  0  0  0
  7  8  1  0  0  0  0
  7 10  1  0  0  0  0
  8  9  1  0  0  0  0
 10 11  1  0  0  0  0
 12 11  1  1  0  0  0
M  CHG  2   6  -1   7   1
M  END
>  <CHROM.1>
85.61814865,-177.18071556,51.71462691,12.01547428,7.25190841,-6.64377328
-1.01765549,0.87492083,-1.93430366

>  <Name>
ligand

>  <RI>
0

>  <Rbt.Current_Directory>
/home/itssahil/PROJECTS/Mol_Feturizer/New_Systems/rnas/4P95

>  <Rbt.Executable>
rbdock ($Id: //depot/dev/client3/rdock/2013.1/src/exe/rbdock.cxx#4 $)

>  <Rbt.Library>
libRbt.so (2013.1, Build901 2013/11/27)

>  <Rbt.Parameter_File>
/export/apps/rDock/src/rDock_2013.1_src/data/scripts/dock_solv.prm

>  <Rbt.Receptor>
prm/blind_docking_20.prm

>  <SCORE>
-11.4325

>  <SCORE.INTER>
-9.24172

>  <SCORE.INTER.CONST>
1

>  <SCORE.INTER.POLAR>
0

>  <SCORE.INTER.ROT>
3

>  <SCORE.INTER.SOLV>
7.09333

>  <SCORE.INTER.VDW>
-14.1256

>  <SCORE.INTER.norm>
-0.770143

>  <SCORE.INTRA>
-2.19078

>  <SCORE.INTRA.DIHEDRAL>
0.884513

>  <SCORE.INTRA.DIHEDRAL.0>
0.283163

>  <SCORE.INTRA.POLAR>
0

>  <SCORE.INTRA.POLAR.0>
0

>  <SCORE.INTRA.REPUL>
0

>  <SCORE.INTRA.REPUL.0>
0

>  <SCORE.INTRA.SOLV>
-0.726542

>  <SCORE.INTRA.SOLV.lig_0>
-32.2894

>  <SCORE.INTRA.VDW>
-2.26977

>  <SCORE.INTRA.VDW.0>
2.0241

>  <SCORE.INTRA.norm>
-0.182565

>  <SCORE.RESTR>
0

>  <SCORE.RESTR.CAVITY>
0

>  <SCORE.RESTR.norm>
0

>  <SCORE.SYSTEM>
0

>  <SCORE.SYSTEM.CONST>
0

>  <SCORE.SYSTEM.DIHEDRAL>
0

>  <SCORE.SYSTEM.SOLV>
0

>  <SCORE.SYSTEM.norm>
0

>  <SCORE.heavy>
12

>  <SCORE.norm>
-0.952708

>  <RMSD>
27.654

$$$$
ligand
 OpenBabel11021811513D
libRbt.so/2013.1/901 2013/11/27
 12 12  0  0  0  0  0  0  0  0999 V2000
   13.6679    6.8607   -2.8258 O   0  0  0  0  0  0  0  0  0  0  0  0
   12.6352    7.8508   -9.6204 O   0  0  0  0  0  0  0  0  0  0  0  0
   13.7036    5.8746   -3.7879 C   0  0  0  0  0  0  0  0  0  0  0  0
   10.3555    8.5354   -9.0902 O   0  0  0  0  0  0  0  0  0  0  0  0
   13.4447    6.3700   -5.1512 C   0  0  0  0  0  0  0  0  0  0  0  0
   10.7647    6.3402  -10.0496 O   0  5  0  0  0  0  0  0  0  0  0  0
   12.2295    7.1931   -5.2111 N   0  3  0  0  0  0  0  0  0  0  0  0
   12.2772    8.2234   -4.2056 C   0  0  0  0  0  0  0  0  0  0  0  0
   12.5537    7.6515   -2.8538 C   0  0  0  0  0  0  0  0  0  0  0  0
   12.0864    7.7538   -6.5209 C   0  0  0  0  0  0  0  0  0  0  0  0
   11.4512    6.7037   -7.4672 C   0  0  0  0  0  0  0  0  0  0  0  0
   11.3038    7.3779   -9.1345 S   0  0  1  0  0  0  0  0  0  0  0  0
  1  3  1  0  0  0  0
  1  9  1  0  0  0  0
  2 12  1  0  0  0  0
  3  5  1  0  0  0  0
  4 12  2  0  0  0  0
  5  7  1  0  0  0  0
  6 12  2  0  0  0  0
  7  8  1  0  0  0  0
  7 10  1  0  0  0  0
  8  9  1  0  0  0  0
 10 11  1  0  0  0  0
 12 11  1  1  0  0  0
M  CHG  2   6  -1   7   1
M  END
>  <CHROM.1>
81.62373898,-178.48334793,55.38752086,12.10810936,7.24870742,-6.65113929
-1.04362212,0.90188025,-1.92796183

>  <Name>
ligand

>  <RI>
0

>  <Rbt.Current_Directory>
/home/itssahil/PROJECTS/Mol_Feturizer/New_Systems/rnas/4P95

>  <Rbt.Executable>
rbdock ($Id: //depot/dev/client3/rdock/2013.1/src/exe/rbdock.cxx#4 $)

>  <Rbt.Library>
libRbt.so (2013.1, Build901 2013/11/27)

>  <Rbt.Parameter_File>
/export/apps/rDock/src/rDock_2013.1_src/data/scripts/dock_solv.prm

>  <Rbt.Receptor>
prm/blind_docking_20.prm

>  <SCORE>
-11.4809

>  <SCORE.INTER>
-9.25583

>  <SCORE.INTER.CONST>
1

>  <SCORE.INTER.POLAR>
0

>  <SCORE.INTER.ROT>
3

>  <SCORE.INTER.SOLV>
7.25024

>  <SCORE.INTER.VDW>
-14.1873

>  <SCORE.INTER.norm>
-0.771319

>  <SCORE.INTRA>
-2.22504

>  <SCORE.INTRA.DIHEDRAL>
0.519897

>  <SCORE.INTRA.DIHEDRAL.0>
0.283163

>  <SCORE.INTRA.POLAR>
0

>  <SCORE.INTRA.POLAR.0>
0

>  <SCORE.INTRA.REPUL>
0

>  <SCORE.INTRA.REPUL.0>
0

>  <SCORE.INTRA.SOLV>
-0.71975

>  <SCORE.INTRA.SOLV.lig_0>
-32.2894

>  <SCORE.INTRA.VDW>
-2.12512

>  <SCORE.INTRA.VDW.0>
2.0241

>  <SCORE.INTRA.norm>
-0.18542

>  <SCORE.RESTR>
0

>  <SCORE.RESTR.CAVITY>
0

>  <SCORE.RESTR.norm>
0

>  <SCORE.SYSTEM>
0

>  <SCORE.SYSTEM.CONST>
0

>  <SCORE.SYSTEM.DIHEDRAL>
0

>  <SCORE.SYSTEM.SOLV>
0

>  <SCORE.SYSTEM.norm>
0

>  <SCORE.heavy>
12

>  <SCORE.norm>
-0.956739

>  <RMSD>
27.669

$$$$
ligand
 OpenBabel11021811513D
libRbt.so/2013.1/901 2013/11/27
 12 12  0  0  0  0  0  0  0  0999 V2000
   10.0777    7.1561   -9.6562 O   0  0  0  0  0  0  0  0  0  0  0  0
   12.5108    7.8133   -2.6916 O   0  0  0  0  0  0  0  0  0  0  0  0
   11.2555    7.8462   -9.4667 C   0  0  0  0  0  0  0  0  0  0  0  0
   14.5305    8.8493   -3.5826 O   0  0  0  0  0  0  0  0  0  0  0  0
   11.9107    7.5538   -8.1797 C   0  0  0  0  0  0  0  0  0  0  0  0
   14.0413    6.5238   -4.0913 O   0  5  0  0  0  0  0  0  0  0  0  0
   10.9782    7.6799   -7.0516 N   0  3  0  0  0  0  0  0  0  0  0  0
    9.7895    6.9054   -7.3006 C   0  0  0  0  0  0  0  0  0  0  0  0
    9.1865    7.2452   -8.6241 C   0  0  0  0  0  0  0  0  0  0  0  0
   11.6215    7.2668   -5.8409 C   0  0  0  0  0  0  0  0  0  0  0  0
   12.5562    8.3968   -5.3395 C   0  0  0  0  0  0  0  0  0  0  0  0
   13.4404    7.8617   -3.8603 S   0  0  1  0  0  0  0  0  0  0  0  0
  1  3  1  0  0  0  0
  1  9  1  0  0  0  0
  2 12  1  0  0  0  0
  3  5  1  0  0  0  0
  4 12  2  0  0  0  0
  5  7  1  0  0  0  0
  6 12  2  0  0  0  0
  7  8  1  0  0  0  0
  7 10  1  0  0  0  0
  8  9  1  0  0  0  0
 10 11  1  0  0  0  0
 12 11  1  6  0  0  0
M  CHG  2   6  -1   7   1
M  END
>  <CHROM.1>
77.93697741,-177.09756033,-72.48981021,12.01419088,7.61634650,-6.02695886
-2.16439822,0.28265164,1.65329980

>  <Name>
ligand

>  <RI>
0

>  <Rbt.Current_Directory>
/home/itssahil/PROJECTS/Mol_Feturizer/New_Systems/rnas/4P95

>  <Rbt.Executable>
rbdock ($Id: //depot/dev/client3/rdock/2013.1/src/exe/rbdock.cxx#4 $)

>  <Rbt.Library>
libRbt.so (2013.1, Build901 2013/11/27)

>  <Rbt.Parameter_File>
/export/apps/rDock/src/rDock_2013.1_src/data/scripts/dock_solv.prm

>  <Rbt.Receptor>
prm/blind_docking_20.prm

>  <SCORE>
-9.85816

>  <SCORE.INTER>
-8.33785

>  <SCORE.INTER.CONST>
1

>  <SCORE.INTER.POLAR>
0

>  <SCORE.INTER.ROT>
3

>  <SCORE.INTER.SOLV>
7.10474

>  <SCORE.INTER.VDW>
-13.5268

>  <SCORE.INTER.norm>
-0.694821

>  <SCORE.INTRA>
-1.52031

>  <SCORE.INTRA.DIHEDRAL>
0.632712

>  <SCORE.INTRA.DIHEDRAL.0>
0.283163

>  <SCORE.INTRA.POLAR>
0

>  <SCORE.INTRA.POLAR.0>
0

>  <SCORE.INTRA.REPUL>
0

>  <SCORE.INTRA.REPUL.0>
0

>  <SCORE.INTRA.SOLV>
0.203965

>  <SCORE.INTRA.SOLV.lig_0>
-32.2894

>  <SCORE.INTRA.VDW>
-1.93865

>  <SCORE.INTRA.VDW.0>
2.0241

>  <SCORE.INTRA.norm>
-0.126692

>  <SCORE.RESTR>
0

>  <SCORE.RESTR.CAVITY>
0

>  <SCORE.RESTR.norm>
0

>  <SCORE.SYSTEM>
0

>  <SCORE.SYSTEM.CONST>
0

>  <SCORE.SYSTEM.DIHEDRAL>
0

>  <SCORE.SYSTEM.SOLV>
0

>  <SCORE.SYSTEM.norm>
0

>  <SCORE.heavy>
12

>  <SCORE.norm>
-0.821513

>  <RMSD>
27.887

$$$$
ligand
 OpenBabel11021811513D
libRbt.so/2013.1/901 2013/11/27
 12 12  0  0  0  0  0  0  0  0999 V2000
   13.7548    6.9174   -2.9797 O   0  0  0  0  0  0  0  0  0  0  0  0
   11.1074    4.3896   -6.1477 O   0  0  0  0  0  0  0  0  0  0  0  0
   13.7575    5.9084   -3.9183 C   0  0  0  0  0  0  0  0  0  0  0  0
   11.8776    5.1089   -8.3468 O   0  0  0  0  0  0  0  0  0  0  0  0
   13.2980    6.3395   -5.2502 C   0  0  0  0  0  0  0  0  0  0  0  0
    9.5408    4.5287   -8.0161 O   0  5  0  0  0  0  0  0  0  0  0  0
   12.0201    7.0607   -5.1795 N   0  3  0  0  0  0  0  0  0  0  0  0
   12.1014    8.1217   -4.2087 C   0  0  0  0  0  0  0  0  0  0  0  0
   12.5834    7.6153   -2.8889 C   0  0  0  0  0  0  0  0  0  0  0  0
   11.6760    7.5677   -6.4736 C   0  0  0  0  0  0  0  0  0  0  0  0
   10.3881    6.8689   -6.9781 C   0  0  0  0  0  0  0  0  0  0  0  0
   10.7338    5.1444   -7.3818 S   0  0  1  0  0  0  0  0  0  0  0  0
  1  3  1  0  0  0  0
  1  9  1  0  0  0  0
  2 12  1  0  0  0  0
  3  5  1  0  0  0  0
  4 12  2  0  0  0  0
  5  7  1  0  0  0  0
  6 12  2  0  0  0  0
  7  8  1  0  0  0  0
  7 10  1  0  0  0  0
  8  9  1  0  0  0  0
 10 11  1  0  0  0  0
 12 11  1  1  0  0  0
M  CHG  2   6  -1   7   1
M  END
>  <CHROM.1>
114.84308598,-70.35650447,65.29734944,11.78110758,6.14732404,-5.83797071
-0.79784096,0.80385657,-2.65965895

>  <Name>
ligand

>  <RI>
0

>  <Rbt.Current_Directory>
/home/itssahil/PROJECTS/Mol_Feturizer/New_Systems/rnas/4P95

>  <Rbt.Executable>
rbdock ($Id: //depot/dev/client3/rdock/2013.1/src/exe/rbdock.cxx#4 $)

>  <Rbt.Library>
libRbt.so (2013.1, Build901 2013/11/27)

>  <Rbt.Parameter_File>
/export/apps/rDock/src/rDock_2013.1_src/data/scripts/dock_solv.prm

>  <Rbt.Receptor>
prm/blind_docking_20.prm

>  <SCORE>
-9.5582

>  <SCORE.INTER>
-7.18332

>  <SCORE.INTER.CONST>
1

>  <SCORE.INTER.POLAR>
0

>  <SCORE.INTER.ROT>
3

>  <SCORE.INTER.SOLV>
5.44923

>  <SCORE.INTER.VDW>
-12.2053

>  <SCORE.INTER.norm>
-0.59861

>  <SCORE.INTRA>
-2.37489

>  <SCORE.INTRA.DIHEDRAL>
2.57257

>  <SCORE.INTRA.DIHEDRAL.0>
0.283163

>  <SCORE.INTRA.POLAR>
0

>  <SCORE.INTRA.POLAR.0>
0

>  <SCORE.INTRA.REPUL>
0

>  <SCORE.INTRA.REPUL.0>
0

>  <SCORE.INTRA.SOLV>
-0.440572

>  <SCORE.INTRA.SOLV.lig_0>
-32.2894

>  <SCORE.INTRA.VDW>
-3.44089

>  <SCORE.INTRA.VDW.0>
2.0241

>  <SCORE.INTRA.norm>
-0.197907

>  <SCORE.RESTR>
0

>  <SCORE.RESTR.CAVITY>
0

>  <SCORE.RESTR.norm>
0

>  <SCORE.SYSTEM>
0

>  <SCORE.SYSTEM.CONST>
0

>  <SCORE.SYSTEM.DIHEDRAL>
0

>  <SCORE.SYSTEM.SOLV>
0

>  <SCORE.SYSTEM.norm>
0

>  <SCORE.heavy>
12

>  <SCORE.norm>
-0.796517

>  <RMSD>
27.958

$$$$
ligand
 OpenBabel11021811513D
libRbt.so/2013.1/901 2013/11/27
 12 12  0  0  0  0  0  0  0  0999 V2000
   14.7721    8.8991   -3.9791 O   0  0  0  0  0  0  0  0  0  0  0  0
    8.5503    7.2339   -7.1523 O   0  0  0  0  0  0  0  0  0  0  0  0
   14.3723    9.4418   -5.1811 C   0  0  0  0  0  0  0  0  0  0  0  0
    9.5545    5.0277   -6.8867 O   0  0  0  0  0  0  0  0  0  0  0  0
   13.0074    9.0548   -5.5789 C   0  0  0  0  0  0  0  0  0  0  0  0
    9.4887    6.0678   -9.0821 O   0  5  0  0  0  0  0  0  0  0  0  0
   12.8093    7.6010   -5.5059 N   0  3  0  0  0  0  0  0  0  0  0  0
   13.2115    7.1090   -4.2133 C   0  0  0  0  0  0  0  0  0  0  0  0
   14.5977    7.5480   -3.8717 C   0  0  0  0  0  0  0  0  0  0  0  0
   11.4400    7.2829   -5.7782 C   0  0  0  0  0  0  0  0  0  0  0  0
   11.2526    7.0611   -7.3005 C   0  0  0  0  0  0  0  0  0  0  0  0
    9.6375    6.3258   -7.6275 S   0  0  1  0  0  0  0  0  0  0  0  0
  1  3  1  0  0  0  0
  1  9  1  0  0  0  0
  2 12  1  0  0  0  0
  3  5  1  0  0  0  0
  4 12  2  0  0  0  0
  5  7  1  0  0  0  0
  6 12  2  0  0  0  0
  7  8  1  0  0  0  0
  7 10  1  0  0  0  0
  8  9  1  0  0  0  0
 10 11  1  0  0  0  0
 12 11  1  1  0  0  0
M  CHG  2   6  -1   7   1
M  END
>  <CHROM.1>
89.72563148,168.09677354,60.72938041,11.62901081,7.26553862,-6.19401374,0.01825485
-0.69618036,-0.56781924

>  <Name>
ligand

>  <RI>
0

>  <Rbt.Current_Directory>
/home/itssahil/PROJECTS/Mol_Feturizer/New_Systems/rnas/4P95

>  <Rbt.Executable>
rbdock ($Id: //depot/dev/client3/rdock/2013.1/src/exe/rbdock.cxx#4 $)

>  <Rbt.Library>
libRbt.so (2013.1, Build901 2013/11/27)

>  <Rbt.Parameter_File>
/export/apps/rDock/src/rDock_2013.1_src/data/scripts/dock_solv.prm

>  <Rbt.Receptor>
prm/blind_docking_20.prm

>  <SCORE>
-8.34227

>  <SCORE.INTER>
-6.32915

>  <SCORE.INTER.CONST>
1

>  <SCORE.INTER.POLAR>
0

>  <SCORE.INTER.ROT>
3

>  <SCORE.INTER.SOLV>
4.01013

>  <SCORE.INTER.VDW>
-11.1561

>  <SCORE.INTER.norm>
-0.527429

>  <SCORE.INTRA>
-2.01312

>  <SCORE.INTRA.DIHEDRAL>
1.4945

>  <SCORE.INTRA.DIHEDRAL.0>
0.283163

>  <SCORE.INTRA.POLAR>
0

>  <SCORE.INTRA.POLAR.0>
0

>  <SCORE.INTRA.REPUL>
0

>  <SCORE.INTRA.REPUL.0>
0

>  <SCORE.INTRA.SOLV>
-0.70986

>  <SCORE.INTRA.SOLV.lig_0>
-32.2894

>  <SCORE.INTRA.VDW>
-2.40543

>  <SCORE.INTRA.VDW.0>
2.0241

>  <SCORE.INTRA.norm>
-0.16776

>  <SCORE.RESTR>
0

>  <SCORE.RESTR.CAVITY>
0

>  <SCORE.RESTR.norm>
0

>  <SCORE.SYSTEM>
0

>  <SCORE.SYSTEM.CONST>
0

>  <SCORE.SYSTEM.DIHEDRAL>
0

>  <SCORE.SYSTEM.SOLV>
0

>  <SCORE.SYSTEM.norm>
0

>  <SCORE.heavy>
12

>  <SCORE.norm>
-0.695189

>  <RMSD>
27.959

$$$$
ligand
 OpenBabel11021811513D
libRbt.so/2013.1/901 2013/11/27
 12 12  0  0  0  0  0  0  0  0999 V2000
    9.9041    7.1896   -9.3761 O   0  0  0  0  0  0  0  0  0  0  0  0
   12.5589    7.8467   -2.0055 O   0  0  0  0  0  0  0  0  0  0  0  0
   11.0896    7.8886   -9.3038 C   0  0  0  0  0  0  0  0  0  0  0  0
   14.2927    8.5552   -3.5670 O   0  0  0  0  0  0  0  0  0  0  0  0
   11.9201    7.5242   -8.1425 C   0  0  0  0  0  0  0  0  0  0  0  0
   13.5516    6.2407   -3.5547 O   0  5  0  0  0  0  0  0  0  0  0  0
   11.1520    7.5565   -6.8907 N   0  3  0  0  0  0  0  0  0  0  0  0
    9.9483    6.7771   -7.0261 C   0  0  0  0  0  0  0  0  0  0  0  0
    9.1639    7.1923   -8.2274 C   0  0  0  0  0  0  0  0  0  0  0  0
   11.9613    7.0765   -5.8114 C   0  0  0  0  0  0  0  0  0  0  0  0
   11.8764    8.0651   -4.6210 C   0  0  0  0  0  0  0  0  0  0  0  0
   13.1163    7.6491   -3.3776 S   0  0  1  0  0  0  0  0  0  0  0  0
  1  3  1  0  0  0  0
  1  9  1  0  0  0  0
  2 12  1  0  0  0  0
  3  5  1  0  0  0  0
  4 12  2  0  0  0  0
  5  7  1  0  0  0  0
  6 12  2  0  0  0  0
  7  8  1  0  0  0  0
  7 10  1  0  0  0  0
  8  9  1  0  0  0  0
 10 11  1  0  0  0  0
 12 11  1  6  0  0  0
M  CHG  2   6  -1   7   1
M  END
>  <CHROM.1>
131.18812602,-169.45685650,-141.67649637,11.87693906,7.48046798,-5.69365715
-2.09192579,0.28946365,1.67453468

>  <Name>
ligand

>  <RI>
0

>  <Rbt.Current_Directory>
/home/itssahil/PROJECTS/Mol_Feturizer/New_Systems/rnas/4P95

>  <Rbt.Executable>
rbdock ($Id: //depot/dev/client3/rdock/2013.1/src/exe/rbdock.cxx#4 $)

>  <Rbt.Library>
libRbt.so (2013.1, Build901 2013/11/27)

>  <Rbt.Parameter_File>
/export/apps/rDock/src/rDock_2013.1_src/data/scripts/dock_solv.prm

>  <Rbt.Receptor>
prm/blind_docking_20.prm

>  <SCORE>
-9.33986

>  <SCORE.INTER>
-9.68364

>  <SCORE.INTER.CONST>
1

>  <SCORE.INTER.POLAR>
0

>  <SCORE.INTER.ROT>
3

>  <SCORE.INTER.SOLV>
10.5579

>  <SCORE.INTER.VDW>
-15.575

>  <SCORE.INTER.norm>
-0.80697

>  <SCORE.INTRA>
0.343779

>  <SCORE.INTRA.DIHEDRAL>
4.90227

>  <SCORE.INTRA.DIHEDRAL.0>
0.283163

>  <SCORE.INTRA.POLAR>
0

>  <SCORE.INTRA.POLAR.0>
0

>  <SCORE.INTRA.REPUL>
0

>  <SCORE.INTRA.REPUL.0>
0

>  <SCORE.INTRA.SOLV>
0.527218

>  <SCORE.INTRA.SOLV.lig_0>
-32.2894

>  <SCORE.INTRA.VDW>
-2.37097

>  <SCORE.INTRA.VDW.0>
2.0241

>  <SCORE.INTRA.norm>
0.0286482

>  <SCORE.RESTR>
0

>  <SCORE.RESTR.CAVITY>
0

>  <SCORE.RESTR.norm>
0

>  <SCORE.SYSTEM>
0

>  <SCORE.SYSTEM.CONST>
0

>  <SCORE.SYSTEM.DIHEDRAL>
0

>  <SCORE.SYSTEM.SOLV>
0

>  <SCORE.SYSTEM.norm>
0

>  <SCORE.heavy>
12

>  <SCORE.norm>
-0.778322

>  <RMSD>
28.122

$$$$
ligand
 OpenBabel11021811513D
libRbt.so/2013.1/901 2013/11/27
 12 12  0  0  0  0  0  0  0  0999 V2000
   15.4180    9.1642   -4.1918 O   0  0  0  0  0  0  0  0  0  0  0  0
   11.5163    8.2353   -8.5409 O   0  0  0  0  0  0  0  0  0  0  0  0
   14.8732    9.7538   -5.3121 C   0  0  0  0  0  0  0  0  0  0  0  0
   11.5744    5.8291   -8.9323 O   0  0  0  0  0  0  0  0  0  0  0  0
   13.4383    9.4703   -5.4899 C   0  0  0  0  0  0  0  0  0  0  0  0
   13.5304    6.9528   -8.0281 O   0  5  0  0  0  0  0  0  0  0  0  0
   13.1500    8.0330   -5.3943 N   0  3  0  0  0  0  0  0  0  0  0  0
   13.7152    7.4924   -4.1847 C   0  0  0  0  0  0  0  0  0  0  0  0
   15.1659    7.8270   -4.0654 C   0  0  0  0  0  0  0  0  0  0  0  0
   11.7356    7.8165   -5.4472 C   0  0  0  0  0  0  0  0  0  0  0  0
   11.4304    6.6105   -6.3714 C   0  0  0  0  0  0  0  0  0  0  0  0
   12.0458    6.9322   -8.0369 S   0  0  1  0  0  0  0  0  0  0  0  0
  1  3  1  0  0  0  0
  1  9  1  0  0  0  0
  2 12  1  0  0  0  0
  3  5  1  0  0  0  0
  4 12  2  0  0  0  0
  5  7  1  0  0  0  0
  6 12  2  0  0  0  0
  7  8  1  0  0  0  0
  7 10  1  0  0  0  0
  8  9  1  0  0  0  0
 10 11  1  0  0  0  0
 12 11  1  1  0  0  0
M  CHG  2   6  -1   7   1
M  END
>  <CHROM.1>
136.93967461,-59.81226101,-53.25552855,13.02687618,7.74642156,-6.39108469
-0.63438181,-0.80482115,-1.27590921

>  <Name>
ligand

>  <RI>
0

>  <Rbt.Current_Directory>
/home/itssahil/PROJECTS/Mol_Feturizer/New_Systems/rnas/4P95

>  <Rbt.Executable>
rbdock ($Id: //depot/dev/client3/rdock/2013.1/src/exe/rbdock.cxx#4 $)

>  <Rbt.Library>
libRbt.so (2013.1, Build901 2013/11/27)

>  <Rbt.Parameter_File>
/export/apps/rDock/src/rDock_2013.1_src/data/scripts/dock_solv.prm

>  <Rbt.Receptor>
prm/blind_docking_20.prm

>  <SCORE>
-6.53746

>  <SCORE.INTER>
-5.97165

>  <SCORE.INTER.CONST>
1

>  <SCORE.INTER.POLAR>
0

>  <SCORE.INTER.ROT>
3

>  <SCORE.INTER.SOLV>
3.59648

>  <SCORE.INTER.VDW>
-10.7799

>  <SCORE.INTER.norm>
-0.497637

>  <SCORE.INTRA>
-0.565809

>  <SCORE.INTRA.DIHEDRAL>
1.75363

>  <SCORE.INTRA.DIHEDRAL.0>
0.283163

>  <SCORE.INTRA.POLAR>
0

>  <SCORE.INTRA.POLAR.0>
0

>  <SCORE.INTRA.REPUL>
0

>  <SCORE.INTRA.REPUL.0>
0

>  <SCORE.INTRA.SOLV>
4.02252

>  <SCORE.INTRA.SOLV.lig_0>
-32.2894

>  <SCORE.INTRA.VDW>
-3.45388

>  <SCORE.INTRA.VDW.0>
2.0241

>  <SCORE.INTRA.norm>
-0.0471507

>  <SCORE.RESTR>
0

>  <SCORE.RESTR.CAVITY>
0

>  <SCORE.RESTR.norm>
0

>  <SCORE.SYSTEM>
0

>  <SCORE.SYSTEM.CONST>
0

>  <SCORE.SYSTEM.DIHEDRAL>
0

>  <SCORE.SYSTEM.SOLV>
0

>  <SCORE.SYSTEM.norm>
0

>  <SCORE.heavy>
12

>  <SCORE.norm>
-0.544788

>  <RMSD>
28.221

$$$$
