@<TRIPOS>MOLECULE
4P95_rdock.pdb
 4076 4527 0 0 0
SMALL
GASTEIGER

@<TRIPOS>ATOM
      1  C5'        8.9000    8.4220  -20.9800 C.3     1  C1          0.2141
      2  O5'        8.0920    7.2860  -20.6800 O.3     1  C1         -0.2176
      3  C4'        8.0620    9.6380  -21.2910 C.3     1  C1          0.1802
      4  O4'        7.3550    9.4210  -22.5420 O.3     1  C1         -0.3306
      5  C3'        6.9950    9.9750  -20.2510 C.3     1  C1          0.1861
      6  O3'        6.8300   11.3880  -20.1690 O.3     1  C1         -0.3112
      7  C2'        5.7360    9.3510  -20.8390 C.3     1  C1          0.2309
      8  O2'        4.5280    9.9430  -20.4070 O.3     1  C1         -0.2156
      9  C1'        5.9600    9.5470  -22.3370 C.3     1  C1          0.2420
     10  N1         5.2850    8.5360  -23.1630 N.ar    1  C1         -0.2535
     11  C2         4.4190    8.9500  -24.1780 C.ar    1  C1          0.3532
     12  O2         4.2440   10.1620  -24.3710 O.2     1  C1         -0.2443
     13  N3         3.8000    8.0100  -24.9310 N.ar    1  C1         -0.1739
     14  C4         4.0020    6.7090  -24.7090 C.ar    1  C1          0.1759
     15  N4         3.3590    5.8350  -25.4880 N.pl3   1  C1         -0.1070
     16  C5         4.8770    6.2570  -23.6770 C.ar    1  C1          0.0566
     17  C6         5.4850    7.1970  -22.9360 C.ar    1  C1          0.0850
     18  P          7.5670   12.2260  -19.0140 P.3     2  A2          0.2141
     19  C5'        6.7500   10.8740  -16.9100 C.3     2  A2          0.1812
     20  O5'        6.6420   12.0310  -17.7330 O.3     2  A2         -0.3114
     21  C4'        5.4430   10.5720  -16.2230 C.3     2  A2          0.1773
     22  O4'        5.0090   11.7620  -15.5200 O.3     2  A2         -0.3307
     23  C3'        4.2980   10.1860  -17.1480 C.3     2  A2          0.1860
     24  O3'        3.4410    9.2680  -16.4690 O.3     2  A2         -0.3112
     25  C2'        3.5890   11.5200  -17.3880 C.3     2  A2          0.2309
     26  O2'        2.2210   11.4090  -17.7070 O.3     2  A2         -0.2156
     27  C1'        3.7920   12.2450  -16.0570 C.3     2  A2          0.2408
     28  N1         2.8850   16.9740  -14.1430 N.ar    2  A2         -0.2040
     29  C2         2.4980   15.7600  -13.7320 C.ar    2  A2          0.2016
     30  N3         2.7560   14.5680  -14.2690 N.ar    2  A2         -0.2048
     31  C4         3.5140   14.6920  -15.3720 C.ar    2  A2          0.1692
     32  C5         3.9880   15.8740  -15.9190 C.ar    2  A2          0.1518
     33  C6         3.6500   17.0680  -15.2560 C.ar    2  A2          0.1919
     34  N6         4.0390   18.2810  -15.6640 N.pl3   2  A2         -0.1054
     35  N7         4.7370   15.6260  -17.0610 N.ar    2  A2         -0.2193
     36  C8         4.7030   14.3210  -17.1770 C.ar    2  A2          0.1816
     37  N9         3.9720   13.6910  -16.1990 N.ar    2  A2         -0.2693
     38  OP1        7.4870   13.6600  -19.4100 O.2     2  A2         -0.5172
     39  OP2        8.8760   11.5910  -18.7080 O.co2   2  A2         -0.4373
     40  P          3.9510    7.7700  -16.1550 P.3     3  U3          0.2141
     41  C5'        2.7320    6.7000  -18.2160 C.3     3  U3          0.1812
     42  O5'        2.8400    6.8400  -16.8030 O.3     3  U3         -0.3114
     43  C4'        2.7540    5.2480  -18.6180 C.3     3  U3          0.1773
     44  O4'        1.7220    5.0030  -19.6130 O.3     3  U3         -0.3307
     45  C3'        4.0670    4.7580  -19.2230 C.3     3  U3          0.1860
     46  O3'        4.3430    3.4390  -18.7630 O.3     3  U3         -0.3112
     47  C2'        3.7800    4.7390  -20.7230 C.3     3  U3          0.2309
     48  O2'        4.5430    3.7990  -21.4490 O.3     3  U3         -0.2156
     49  C1'        2.2860    4.4050  -20.7600 C.3     3  U3          0.2420
     50  N1         1.5670    4.9220  -21.9410 N.ar    3  U3         -0.2534
     51  C2         1.5590    6.2880  -22.2190 C.ar    3  U3          0.3546
     52  O2         2.1230    7.1340  -21.5490 O.2     3  U3         -0.2443
     53  N3         0.8510    6.6590  -23.3390 N.ar    3  U3         -0.1530
     54  C4         0.1590    5.8350  -24.2020 C.ar    3  U3          0.2846
     55  O4        -0.4240    6.3270  -25.1710 O.2     3  U3         -0.2650
     56  C5         0.2070    4.4460  -23.8560 C.ar    3  U3          0.0814
     57  C6         0.8870    4.0550  -22.7700 C.ar    3  U3          0.0870
     58  OP1        3.9130    7.5610  -14.6870 O.3     3  U3         -0.4373
     59  OP2        5.2130    7.5050  -16.8920 O.co2   3  U3         -0.5172
     60  P          5.8490    3.0280  -18.3880 P.3     4  C4          0.2141
     61  C5'        5.3790    3.5580  -15.8650 C.3     4  C4          0.1812
     62  O5'        5.7690    2.6180  -16.8530 O.3     4  C4         -0.3114
     63  C4'        4.9700    2.8630  -14.5930 C.3     4  C4          0.1773
     64  O4'        3.8870    1.9350  -14.8780 O.3     4  C4         -0.3307
     65  C3'        6.0330    1.9880  -13.9470 C.3     4  C4          0.1860
     66  O3'        6.9810    2.7140  -13.1840 O.3     4  C4         -0.3112
     67  C2'        5.1990    1.0150  -13.1310 C.3     4  C4          0.2309
     68  O2'        4.7020    1.6540  -11.9670 O.3     4  C4         -0.2156
     69  C1'        4.0240    0.7770  -14.0780 C.3     4  C4          0.2420
     70  N1         4.2610   -0.3820  -14.9700 N.ar    4  C4         -0.2535
     71  C2         4.1830   -1.6860  -14.4590 C.ar    4  C4          0.3532
     72  O2         3.9120   -1.8630  -13.2600 O.2     4  C4         -0.2443
     73  N3         4.4090   -2.7320  -15.2880 N.ar    4  C4         -0.1739
     74  C4         4.6960   -2.5200  -16.5740 C.ar    4  C4          0.1759
     75  N4         4.9070   -3.5840  -17.3530 N.pl3   4  C4         -0.1070
     76  C5         4.7820   -1.2080  -17.1230 C.ar    4  C4          0.0566
     77  C6         4.5590   -0.1840  -16.2910 C.ar    4  C4          0.0850
     78  OP1        6.7110    4.2370  -18.4920 O.3     4  C4         -0.4373
     79  OP2        6.1730    1.8050  -19.1740 O.co2   4  C4         -0.5172
     80  P          8.5360    2.3040  -13.2370 P.3     5  C5          0.2141
     81  C5'        8.0700    1.0950  -10.9620 C.3     5  C5          0.1812
     82  O5'        8.6300    1.0470  -12.2650 O.3     5  C5         -0.3114
     83  C4'        8.0810   -0.2610  -10.3060 C.3     5  C5          0.1773
     84  O4'        7.1210   -1.1400  -10.9500 O.3     5  C5         -0.3307
     85  C3'        9.3830   -1.0380  -10.3880 C.3     5  C5          0.1860
     86  O3'       10.3650   -0.5880   -9.4720 O.3     5  C5         -0.3112
     87  C2'        8.9200   -2.4660  -10.1390 C.3     5  C5          0.2309
     88  O2'        8.6650   -2.6690   -8.7580 O.3     5  C5         -0.2156
     89  C1'        7.5800   -2.4770  -10.8750 C.3     5  C5          0.2420
     90  N1         7.7010   -3.0350  -12.2410 N.ar    5  C5         -0.2535
     91  C2         7.7970   -4.4220  -12.3760 C.ar    5  C5          0.3532
     92  O2         7.7770   -5.1230  -11.3560 O.2     5  C5         -0.2443
     93  N3         7.9090   -4.9680  -13.6080 N.ar    5  C5         -0.1739
     94  C4         7.9260   -4.1810  -14.6850 C.ar    5  C5          0.1759
     95  N4         8.0390   -4.7640  -15.8820 N.pl3   5  C5         -0.1070
     96  C5         7.8300   -2.7630  -14.5820 C.ar    5  C5          0.0566
     97  C6         7.7220   -2.2380  -13.3520 C.ar    5  C5          0.0850
     98  OP1        9.3430    3.4040  -12.6450 O.3     5  C5         -0.4373
     99  OP2        8.8330    1.8210  -14.6110 O.co2   5  C5         -0.5172
    100  P         11.9250   -0.7470   -9.8260 P.3     6  G6          0.2141
    101  C5'       11.8580   -2.9050   -8.3470 C.3     6  G6          0.1812
    102  O5'       12.2170   -2.2900   -9.5730 O.3     6  G6         -0.3114
    103  C4'       12.0160   -4.4010   -8.4160 C.3     6  G6          0.1773
    104  O4'       10.9830   -4.9910   -9.2460 O.3     6  G6         -0.3307
    105  C3'       13.3000   -4.9040   -9.0410 C.3     6  G6          0.1860
    106  O3'       14.4140   -4.7960   -8.1790 O.3     6  G6         -0.3112
    107  C2'       12.9360   -6.3350   -9.4100 C.3     6  G6          0.2309
    108  O2'       12.9450   -7.1660   -8.2590 O.3     6  G6         -0.2156
    109  C1'       11.4870   -6.1610   -9.8640 C.3     6  G6          0.2408
    110  N1        11.5430   -8.5980  -14.3280 N.ar    6  G6         -0.1709
    111  C2        11.6600   -9.0970  -13.0540 C.ar    6  G6          0.2606
    112  N2        11.8140  -10.4260  -12.9690 N.pl3   6  G6         -0.0859
    113  N3        11.6310   -8.3550  -11.9560 N.ar    6  G6         -0.1918
    114  C4        11.4700   -7.0440  -12.2440 C.ar    6  G6          0.1723
    115  C5        11.3420   -6.4420  -13.4800 C.ar    6  G6          0.1748
    116  C6        11.3770   -7.2540  -14.6490 C.ar    6  G6          0.3023
    117  O6        11.2840   -6.9130  -15.8360 O.2     6  G6         -0.2633
    118  N7        11.1940   -5.0670  -13.3450 N.ar    6  G6         -0.2173
    119  C8        11.2340   -4.8630  -12.0560 C.ar    6  G6          0.1817
    120  N9        11.3930   -6.0190  -11.3300 N.ar    6  G6         -0.2693
    121  OP1       12.7120    0.0450   -8.8440 O.3     6  G6         -0.4373
    122  OP2       12.0930   -0.5030  -11.2810 O.co2   6  G6         -0.5172
    123  P         15.8980   -4.8860   -8.7780 P.3     7  G7          0.2141
    124  C5'       17.0610   -6.8830   -9.9970 C.3     7  G7          0.1812
    125  O5'       16.0660   -6.4320   -9.0990 O.3     7  G7         -0.3114
    126  C4'       16.9170   -8.3560  -10.2710 C.3     7  G7          0.1773
    127  O4'       15.5850   -8.6350  -10.7780 O.3     7  G7         -0.3307
    128  C3'       17.8440   -8.9140  -11.3360 C.3     7  G7          0.1860
    129  O3'       19.1360   -9.1970  -10.8400 O.3     7  G7         -0.3112
    130  C2'       17.0890  -10.1360  -11.8250 C.3     7  G7          0.2309
    131  O2'       17.2170  -11.1990  -10.8940 O.3     7  G7         -0.2156
    132  C1'       15.6500   -9.6270  -11.7800 C.3     7  G7          0.2408
    133  N1        14.8460  -10.2300  -16.7920 N.ar    7  G7         -0.1709
    134  C2        15.2460  -11.1560  -15.8610 C.ar    7  G7          0.2606
    135  N2        15.4560  -12.3930  -16.3230 N.pl3   7  G7         -0.0859
    136  N3        15.4240  -10.8900  -14.5780 N.ar    7  G7         -0.1918
    137  C4        15.1650   -9.5960  -14.2940 C.ar    7  G7          0.1723
    138  C5        14.7610   -8.5900  -15.1510 C.ar    7  G7          0.1748
    139  C6        14.5720   -8.8920  -16.5270 C.ar    7  G7          0.3023
    140  O6        14.2180   -8.1410  -17.4470 O.2     7  G7         -0.2633
    141  N7        14.6020   -7.3940  -14.4630 N.ar    7  G7         -0.2173
    142  C8        14.9060   -7.6860  -13.2280 C.ar    7  G7          0.1817
    143  N9        15.2540   -9.0020  -13.0550 N.ar    7  G7         -0.2693
    144  OP1       16.8310   -4.5200   -7.6790 O.3     7  G7         -0.4373
    145  OP2       15.9510   -4.1570  -10.0740 O.co2   7  G7         -0.5172
    146  P         20.3980   -8.3920  -11.4160 P.3     8  U8          0.2141
    147  C5'       20.8070  -10.5980  -12.7620 C.3     8  U8          0.1812
    148  O5'       20.7600   -9.1790  -12.7540 O.3     8  U8         -0.3114
    149  C4'       20.4350  -11.1640  -14.1080 C.3     8  U8          0.1773
    150  O4'       19.0410  -10.8850  -14.4090 O.3     8  U8         -0.3307
    151  C3'       21.1770  -10.5980  -15.3060 C.3     8  U8          0.1860
    152  O3'       22.4840  -11.1170  -15.4530 O.3     8  U8         -0.3112
    153  C2'       20.2480  -10.9540  -16.4550 C.3     8  U8          0.2309
    154  O2'       20.3620  -12.3330  -16.7730 O.3     8  U8         -0.2156
    155  C1'       18.8800  -10.7290  -15.8070 C.3     8  U8          0.2420
    156  N1        18.3450   -9.3770  -16.0920 N.ar    8  U8         -0.2534
    157  C2        17.8480   -9.1480  -17.3640 C.ar    8  U8          0.3546
    158  O2        17.8370  -10.0000  -18.2360 O.2     8  U8         -0.2443
    159  N3        17.3640   -7.8820  -17.5860 N.ar    8  U8         -0.1530
    160  C4        17.3220   -6.8410  -16.6800 C.ar    8  U8          0.2846
    161  O4        16.8510   -5.7510  -17.0200 O.2     8  U8         -0.2650
    162  C5        17.8560   -7.1580  -15.3880 C.ar    8  U8          0.0814
    163  C6        18.3370   -8.3820  -15.1440 C.ar    8  U8          0.0870
    164  OP1       21.5150   -8.5440  -10.4450 O.3     8  U8         -0.4373
    165  OP2       19.9370   -7.0340  -11.8020 O.co2   8  U8         -0.5172
    166  P         23.6430  -10.1970  -16.0780 P.3     9  A9          0.2141
    167  C5'       23.4790  -11.3230  -18.4370 C.3     9  A9          0.1812
    168  O5'       23.3190  -10.1620  -17.6380 O.3     9  A9         -0.3114
    169  C4'       22.9840  -11.1060  -19.8440 C.3     9  A9          0.1773
    170  O4'       21.5720  -10.7710  -19.8230 O.3     9  A9         -0.3307
    171  C3'       23.6200   -9.9570  -20.6110 C.3     9  A9          0.1860
    172  O3'       24.8810  -10.2830  -21.1670 O.3     9  A9         -0.3112
    173  C2'       22.5650   -9.6390  -21.6570 C.3     9  A9          0.2309
    174  O2'       22.6050  -10.5930  -22.7050 O.3     9  A9         -0.2156
    175  C1'       21.2820   -9.8550  -20.8570 C.3     9  A9          0.2408
    176  N1        19.2860   -5.2440  -21.8010 N.ar    9  A9         -0.2040
    177  C2        19.6260   -6.2580  -22.6060 C.ar    9  A9          0.2016
    178  N3        20.1440   -7.4370  -22.2780 N.ar    9  A9         -0.2048
    179  C4        20.3070   -7.5280  -20.9460 C.ar    9  A9          0.1692
    180  C5        20.0020   -6.5730  -19.9920 C.ar    9  A9          0.1518
    181  C6        19.4580   -5.3650  -20.4670 C.ar    9  A9          0.1919
    182  N6        19.1030   -4.3400  -19.6870 N.pl3   9  A9         -0.1054
    183  N7        20.3110   -7.0380  -18.7190 N.ar    9  A9         -0.2193
    184  C8        20.7920   -8.2410  -18.9290 C.ar    9  A9          0.1816
    185  N9        20.8100   -8.5970  -20.2540 N.ar    9  A9         -0.2693
    186  OP1       24.9270  -10.9200  -15.8760 O.2     9  A9         -0.5172
    187  OP2       23.4780   -8.8140  -15.5540 O.co2   9  A9         -0.4373
    188  P         26.0560   -9.1890  -21.1760 P.3    10  U10         0.2141
    189  C5'       25.3810   -8.3220  -23.5580 C.3    10  U10         0.1812
    190  O5'       25.5300   -8.0550  -22.1700 O.3    10  U10        -0.3114
    191  C4'       24.6170   -7.2330  -24.2720 C.3    10  U10         0.1773
    192  O4'       23.3370   -7.0070  -23.6240 O.3    10  U10        -0.3307
    193  C3'       25.2530   -5.8530  -24.2950 C.3    10  U10         0.1860
    194  O3'       26.2920   -5.7270  -25.2490 O.3    10  U10        -0.3112
    195  C2'       24.0590   -4.9550  -24.5820 C.3    10  U10         0.2309
    196  O2'       23.7040   -5.0250  -25.9550 O.3    10  U10        -0.2156
    197  C1'       22.9650   -5.6500  -23.7690 C.3    10  U10         0.2420
    198  N1        22.8080   -5.0470  -22.4250 N.ar   10  U10        -0.2534
    199  C2        22.1960   -3.8080  -22.3400 C.ar   10  U10         0.3546
    200  O2        21.7800   -3.1890  -23.3040 O.2    10  U10        -0.2443
    201  N3        22.0850   -3.3060  -21.0700 N.ar   10  U10        -0.1530
    202  C4        22.5100   -3.8990  -19.9000 C.ar   10  U10         0.2846
    203  O4        22.3340   -3.3130  -18.8290 O.2    10  U10        -0.2650
    204  C5        23.1320   -5.1770  -20.0690 C.ar   10  U10         0.0814
    205  C6        23.2560   -5.6940  -21.2960 C.ar   10  U10         0.0870
    206  OP1       27.2610   -9.8220  -21.7760 O.2    10  U10        -0.5172
    207  OP2       26.1220   -8.6080  -19.8080 O.co2  10  U10        -0.4373
    208  P         27.4930   -4.6930  -24.9880 P.3    11  C11         0.2141
    209  C5'       29.5890   -6.2400  -25.3240 C.3    11  C11         0.1812
    210  O5'       28.6760   -5.6090  -24.4370 O.3    11  C11        -0.3114
    211  C4'       29.6730   -7.7220  -25.0610 C.3    11  C11         0.1773
    212  O4'       28.3350   -8.2620  -24.9280 O.3    11  C11        -0.3307
    213  C3'       30.3120   -8.5620  -26.1600 C.3    11  C11         0.1860
    214  O3'       31.7290   -8.5770  -26.0820 O.3    11  C11        -0.3112
    215  C2'       29.6840   -9.9360  -25.9500 C.3    11  C11         0.2309
    216  O2'       30.3530  -10.6420  -24.9170 O.3    11  C11        -0.2156
    217  C1'       28.2840   -9.5710  -25.4520 C.3    11  C11         0.2420
    218  N1        27.2570   -9.6190  -26.5180 N.ar   11  C11        -0.2535
    219  C2        26.7390  -10.8590  -26.9070 C.ar   11  C11         0.3532
    220  O2        27.1620  -11.8920  -26.3670 O.2    11  C11        -0.2443
    221  N3        25.7920  -10.9090  -27.8690 N.ar   11  C11        -0.1739
    222  C4        25.3550   -9.7840  -28.4360 C.ar   11  C11         0.1759
    223  N4        24.4160   -9.8880  -29.3800 N.pl3  11  C11        -0.1070
    224  C5        25.8560   -8.5040  -28.0560 C.ar   11  C11         0.0566
    225  C6        26.7950   -8.4700  -27.1000 C.ar   11  C11         0.0850
    226  OP1       27.0740   -3.7710  -23.8990 O.3    11  C11        -0.4373
    227  OP2       27.9030   -4.1300  -26.3000 O.co2  11  C11        -0.5172
    228  P         32.6210   -8.7120  -27.4150 P.3    12  C12         0.2141
    229  C5'       33.0560  -11.2830  -27.2150 C.3    12  C12         0.1812
    230  O5'       32.3970  -10.2190  -27.8860 O.3    12  C12        -0.3114
    231  C4'       32.5730  -12.6400  -27.6670 C.3    12  C12         0.1773
    232  O4'       31.1550  -12.7970  -27.3870 O.3    12  C12        -0.3307
    233  C3'       32.6700  -12.9550  -29.1490 C.3    12  C12         0.1860
    234  O3'       33.9810  -13.2510  -29.5970 O.3    12  C12        -0.3112
    235  C2'       31.7040  -14.1220  -29.2790 C.3    12  C12         0.2309
    236  O2'       32.2830  -15.3030  -28.7450 O.3    12  C12        -0.2156
    237  C1'       30.5850  -13.6790  -28.3380 C.3    12  C12         0.2420
    238  N1        29.5010  -12.9900  -29.0760 N.ar   12  C12        -0.2535
    239  C2        28.5790  -13.7900  -29.7640 C.ar   12  C12         0.3532
    240  O2        28.6890  -15.0240  -29.7200 O.2    12  C12        -0.2443
    241  N3        27.5790  -13.2080  -30.4580 N.ar   12  C12        -0.1739
    242  C4        27.4830  -11.8800  -30.4890 C.ar   12  C12         0.1759
    243  N4        26.4740  -11.3580  -31.1910 N.pl3  12  C12        -0.1070
    244  C5        28.4090  -11.0340  -29.8070 C.ar   12  C12         0.0566
    245  C6        29.3970  -11.6270  -29.1200 C.ar   12  C12         0.0850
    246  OP1       34.0460   -8.5910  -27.0100 O.3    12  C12        -0.4373
    247  OP2       32.0650   -7.7940  -28.4440 O.co2  12  C12        -0.5172
    248  P         34.3740  -12.9900  -31.1360 P.3    13  C13         0.2141
    249  C5'       33.9570  -15.5550  -31.5230 C.3    13  C13         0.1812
    250  O5'       33.7170  -14.2130  -31.9220 O.3    13  C13        -0.3114
    251  C4'       32.9780  -16.5120  -32.1600 C.3    13  C13         0.1773
    252  O4'       31.6220  -16.2000  -31.7430 O.3    13  C13        -0.3307
    253  C3'       32.9040  -16.4770  -33.6750 C.3    13  C13         0.1860
    254  O3'       33.9660  -17.1720  -34.3010 O.3    13  C13        -0.3112
    255  C2'       31.5310  -17.0760  -33.9490 C.3    13  C13         0.2309
    256  O2'       31.5630  -18.4870  -33.8030 O.3    13  C13        -0.2156
    257  C1'       30.7190  -16.4920  -32.7930 C.3    13  C13         0.2420
    258  N1        30.0200  -15.2480  -33.1880 N.ar   13  C13        -0.2535
    259  C2        28.8630  -15.3420  -33.9700 C.ar   13  C13         0.3532
    260  O2        28.4400  -16.4560  -34.3080 O.2    13  C13        -0.2443
    261  N3        28.2200  -14.2140  -34.3430 N.ar   13  C13        -0.1739
    262  C4        28.6920  -13.0270  -33.9660 C.ar   13  C13         0.1759
    263  N4        28.0190  -11.9450  -34.3600 N.pl3  13  C13        -0.1070
    264  C5        29.8700  -12.8950  -33.1730 C.ar   13  C13         0.0566
    265  C6        30.4960  -14.0230  -32.8110 C.ar   13  C13         0.0850
    266  OP1       35.8510  -13.0830  -31.2690 O.3    13  C13        -0.4373
    267  OP2       33.6770  -11.7500  -31.5690 O.co2  13  C13        -0.5172
    268  P         34.6120  -16.5870  -35.6490 P.3    14  A14         0.2141
    269  C5'       33.1860  -18.4100  -36.8800 C.3    14  A14         0.1812
    270  O5'       33.5990  -17.0540  -36.7880 O.3    14  A14        -0.3114
    271  C4'       31.9410  -18.5650  -37.7190 C.3    14  A14         0.1773
    272  O4'       30.8110  -17.9270  -37.0720 O.3    14  A14        -0.3307
    273  C3'       31.9720  -17.9280  -39.0970 C.3    14  A14         0.1860
    274  O3'       32.6920  -18.6930  -40.0450 O.3    14  A14        -0.3112
    275  C2'       30.4900  -17.7860  -39.4270 C.3    14  A14         0.2309
    276  O2'       29.9520  -19.0210  -39.8690 O.3    14  A14        -0.2156
    277  C1'       29.8980  -17.4690  -38.0510 C.3    14  A14         0.2408
    278  N1        26.8710  -13.5030  -39.2900 N.ar   14  A14        -0.2040
    279  C2        26.8480  -14.7980  -39.6310 C.ar   14  A14         0.2016
    280  N3        27.6780  -15.7740  -39.2640 N.ar   14  A14        -0.2048
    281  C4        28.6370  -15.3070  -38.4420 C.ar   14  A14         0.1692
    282  C5        28.7940  -14.0050  -38.0000 C.ar   14  A14         0.1518
    283  C6        27.8470  -13.0640  -38.4620 C.ar   14  A14         0.1919
    284  N6        27.8550  -11.7690  -38.1330 N.pl3  14  A14        -0.1054
    285  N7        29.9000  -13.9050  -37.1610 N.ar   14  A14        -0.2193
    286  C8        30.3770  -15.1270  -37.1160 C.ar   14  A14         0.1816
    287  N9        29.6610  -16.0250  -37.8680 N.ar   14  A14        -0.2693
    288  OP1       35.9180  -17.2690  -35.8570 O.2    14  A14        -0.5172
    289  OP2       34.5520  -15.1030  -35.5730 O.co2  14  A14        -0.4373
    290  P         33.4600  -17.9620  -41.2540 P.3    15  A15         0.2141
    291  C5'       31.4940  -18.7130  -42.8230 C.3    15  A15         0.1812
    292  O5'       32.3140  -17.6690  -42.3210 O.3    15  A15        -0.3114
    293  C4'       30.2330  -18.1660  -43.4410 C.3    15  A15         0.1773
    294  O4'       29.4600  -17.4610  -42.4350 O.3    15  A15        -0.3307
    295  C3'       30.4320  -17.1410  -44.5460 C.3    15  A15         0.1860
    296  O3'       30.6740  -17.7510  -45.8020 O.3    15  A15        -0.3112
    297  C2'       29.1410  -16.3350  -44.5040 C.3    15  A15         0.2309
    298  O2'       28.1010  -17.0120  -45.1930 O.3    15  A15        -0.2156
    299  C1'       28.8160  -16.3450  -43.0100 C.3    15  A15         0.2408
    300  N1        27.8810  -11.3670  -41.9810 N.ar   15  A15        -0.2040
    301  C2        27.2190  -12.2740  -42.7130 C.ar   15  A15         0.2016
    302  N3        27.5190  -13.5520  -42.9410 N.ar   15  A15        -0.2048
    303  C4        28.6580  -13.8950  -42.3130 C.ar   15  A15         0.1692
    304  C5        29.4490  -13.0750  -41.5240 C.ar   15  A15         0.1518
    305  C6        29.0230  -11.7420  -41.3600 C.ar   15  A15         0.1919
    306  N6        29.6790  -10.8340  -40.6310 N.pl3  15  A15        -0.1054
    307  N7        30.5480  -13.7740  -41.0390 N.ar   15  A15        -0.2193
    308  C8        30.3960  -14.9780  -41.5370 C.ar   15  A15         0.1816
    309  N9        29.2770  -15.1240  -42.3190 N.ar   15  A15        -0.2693
    310  OP1       34.4100  -18.9420  -41.8420 O.2    15  A15        -0.5172
    311  OP2       33.9520  -16.6490  -40.7600 O.co2  15  A15        -0.4373
    312  P         31.6280  -17.0470  -46.8860 P.3    16  G16         0.2141
    313  C5'       29.5260  -16.2010  -48.2080 C.3    16  G16         0.1812
    314  O5'       30.7240  -15.8970  -47.5120 O.3    16  G16        -0.3114
    315  C4'       28.6390  -14.9880  -48.2810 C.3    16  G16         0.1773
    316  O4'       28.3250  -14.5610  -46.9300 O.3    16  G16        -0.3307
    317  C3'       29.2680  -13.7620  -48.9230 C.3    16  G16         0.1860
    318  O3'       29.1910  -13.7680  -50.3370 O.3    16  G16        -0.3112
    319  C2'       28.5140  -12.6160  -48.2660 C.3    16  G16         0.2309
    320  O2'       27.2300  -12.4490  -48.8460 O.3    16  G16        -0.2156
    321  C1'       28.3410  -13.1550  -46.8510 C.3    16  G16         0.2408
    322  N1        29.8380   -9.5350  -43.7770 N.ar   16  G16        -0.1709
    323  C2        28.6820   -9.7080  -44.4990 C.ar   16  G16         0.2606
    324  N2        27.7460   -8.7740  -44.3940 N.pl3  16  G16        -0.0859
    325  N3        28.4320  -10.7330  -45.2770 N.ar   16  G16        -0.1918
    326  C4        29.4580  -11.5920  -45.2730 C.ar   16  G16         0.1723
    327  C5        30.6600  -11.5420  -44.6040 C.ar   16  G16         0.1748
    328  C6        30.9130  -10.4220  -43.7640 C.ar   16  G16         0.3023
    329  O6        31.9100  -10.1670  -43.0750 O.2    16  G16        -0.2633
    330  N7        31.4230  -12.6640  -44.9070 N.ar   16  G16        -0.2173
    331  C8        30.6720  -13.3490  -45.7350 C.ar   16  G16         0.1817
    332  N9        29.4610  -12.7460  -45.9860 N.ar   16  G16        -0.2693
    333  OP1       31.8990  -18.0440  -47.9550 O.2    16  G16        -0.5172
    334  OP2       32.7540  -16.3940  -46.1710 O.co2  16  G16        -0.4373
    335  P         30.3990  -13.1710  -51.2150 P.3    17  A17         0.2141
    336  C5'       28.6950  -11.4020  -52.1040 C.3    17  A17         0.1812
    337  O5'       29.9510  -11.6750  -51.5080 O.3    17  A17        -0.3114
    338  C4'       28.1570  -10.0650  -51.6640 C.3    17  A17         0.1773
    339  O4'       27.9360  -10.0650  -50.2300 O.3    17  A17        -0.3307
    340  C3'       29.0670   -8.8690  -51.8820 C.3    17  A17         0.1860
    341  O3'       29.0750   -8.4000  -53.2170 O.3    17  A17        -0.3112
    342  C2'       28.5120   -7.8590  -50.8910 C.3    17  A17         0.2309
    343  O2'       27.3140   -7.2860  -51.3870 O.3    17  A17        -0.2156
    344  C1'       28.1560   -8.7650  -49.7170 C.3    17  A17         0.2408
    345  N1        30.4660   -6.0550  -46.0810 N.ar   17  A17        -0.2040
    346  C2        29.4460   -5.7980  -46.9130 C.ar   17  A17         0.2016
    347  N3        28.8990   -6.5790  -47.8350 N.ar   17  A17        -0.2048
    348  C4        29.5360   -7.7600  -47.8820 C.ar   17  A17         0.1692
    349  C5        30.6050   -8.1780  -47.1070 C.ar   17  A17         0.1518
    350  C6        31.0840   -7.2590  -46.1510 C.ar   17  A17         0.1919
    351  N6        32.1080   -7.4980  -45.3230 N.pl3  17  A17        -0.1054
    352  N7        30.9820   -9.4710  -47.4550 N.ar   17  A17        -0.2193
    353  C8        30.1460   -9.7890  -48.4170 C.ar   17  A17         0.1816
    354  N9        29.2400   -8.8010  -48.7190 N.ar   17  A17        -0.2693
    355  OP1       30.4200  -13.8930  -52.5150 O.2    17  A17        -0.5172
    356  OP2       31.6190  -13.1080  -50.3660 O.co2  17  A17        -0.4373
    357  P         30.3500   -7.5960  -53.7720 P.3    18  C18         0.2141
    358  C5'       29.3420   -5.2690  -53.0950 C.3    18  C18         0.1812
    359  O5'       30.3630   -6.2410  -52.9310 O.3    18  C18        -0.3114
    360  C4'       29.4780   -4.1410  -52.1020 C.3    18  C18         0.1773
    361  O4'       29.4320   -4.6530  -50.7430 O.3    18  C18        -0.3307
    362  C3'       30.7790   -3.3620  -52.1370 C.3    18  C18         0.1860
    363  O3'       30.8650   -2.4410  -53.2080 O.3    18  C18        -0.3112
    364  C2'       30.7990   -2.7090  -50.7620 C.3    18  C18         0.2309
    365  O2'       29.9170   -1.5980  -50.7220 O.3    18  C18        -0.2156
    366  C1'       30.2110   -3.8240  -49.8980 C.3    18  C18         0.2420
    367  N1        31.2800   -4.6260  -49.2590 N.ar   18  C18        -0.2535
    368  C2        31.8670   -4.1110  -48.0970 C.ar   18  C18         0.3532
    369  O2        31.4580   -3.0310  -47.6450 O.2    18  C18        -0.2443
    370  N3        32.8490   -4.8070  -47.4810 N.ar   18  C18        -0.1739
    371  C4        33.2650   -5.9660  -47.9920 C.ar   18  C18         0.1759
    372  N4        34.2420   -6.6100  -47.3460 N.pl3  18  C18        -0.1070
    373  C5        32.6930   -6.5140  -49.1790 C.ar   18  C18         0.0566
    374  C6        31.7160   -5.8150  -49.7760 C.ar   18  C18         0.0850
    375  OP1       30.0790   -7.2590  -55.1960 O.2    18  C18        -0.5172
    376  OP2       31.5660   -8.3620  -53.3890 O.co2  18  C18        -0.4373
    377  P         32.3090   -2.0420  -53.7900 P.3    19  A19         0.2141
    378  C5'       32.4580    0.0630  -52.2250 C.3    19  A19         0.1812
    379  O5'       32.9820   -1.1980  -52.6160 O.3    19  A19        -0.3114
    380  C4'       33.1780    0.6100  -51.0170 C.3    19  A19         0.1773
    381  O4'       33.0310   -0.3000  -49.8960 O.3    19  A19        -0.3307
    382  C3'       34.6820    0.7830  -51.1520 C.3    19  A19         0.1860
    383  O3'       35.0390    1.9690  -51.8410 O.3    19  A19        -0.3112
    384  C2'       35.1470    0.7610  -49.7010 C.3    19  A19         0.2309
    385  O2'       34.9060    2.0160  -49.0850 O.3    19  A19        -0.2156
    386  C1'       34.1890   -0.2590  -49.0890 C.3    19  A19         0.2408
    387  N1        37.4240   -3.4200  -46.5810 N.ar   19  A19        -0.2040
    388  C2        37.0930   -2.1360  -46.3870 C.ar   19  A19         0.2016
    389  N3        36.2450   -1.3750  -47.0820 N.ar   19  A19        -0.2048
    390  C4        35.6890   -2.0670  -48.0950 C.ar   19  A19         0.1692
    391  C5        35.9270   -3.3920  -48.4200 C.ar   19  A19         0.1518
    392  C6        36.8480   -4.0900  -47.6090 C.ar   19  A19         0.1919
    393  N6        37.1810   -5.3710  -47.7970 N.pl3  19  A19        -0.1054
    394  N7        35.1740   -3.7660  -49.5270 N.ar   19  A19        -0.2193
    395  C8        34.5090   -2.6800  -49.8410 C.ar   19  A19         0.1816
    396  N9        34.7730   -1.6130  -49.0190 N.ar   19  A19        -0.2693
    397  OP1       32.1060   -1.1570  -54.9670 O.2    19  A19        -0.5172
    398  OP2       33.1060   -3.2890  -53.9240 O.co2  19  A19        -0.4373
    399  P         36.4130    2.0470  -52.6740 P.3    20  A20         0.2141
    400  C5'       37.5770    3.4980  -50.8150 C.3    20  A20         0.1812
    401  O5'       37.5340    2.2930  -51.5670 O.3    20  A20        -0.3114
    402  C4'       38.4170    3.3390  -49.5720 C.3    20  A20         0.1773
    403  O4'       37.9090    2.2320  -48.7830 O.3    20  A20        -0.3307
    404  C3'       39.8810    2.9900  -49.7940 C.3    20  A20         0.1860
    405  O3'       40.6840    4.1170  -50.0970 O.3    20  A20        -0.3112
    406  C2'       40.2630    2.3110  -48.4870 C.3    20  A20         0.2309
    407  O2'       40.4770    3.2780  -47.4710 O.3    20  A20        -0.2156
    408  C1'       38.9790    1.5530  -48.1600 C.3    20  A20         0.2408
    409  N1        40.8650   -3.2080  -47.5160 N.ar   20  A20        -0.2040
    410  C2        41.0620   -2.0640  -46.8420 C.ar   20  A20         0.2016
    411  N3        40.5420   -0.8570  -47.0620 N.ar   20  A20        -0.2048
    412  C4        39.7200   -0.8820  -48.1270 C.ar   20  A20         0.1692
    413  C5        39.4170   -1.9770  -48.9200 C.ar   20  A20         0.1518
    414  C6        40.0300   -3.1980  -48.5810 C.ar   20  A20         0.1919
    415  N6        39.8320   -4.3340  -49.2510 N.pl3  20  A20        -0.1054
    416  N7        38.5280   -1.6280  -49.9290 N.ar   20  A20        -0.2193
    417  C8        38.3200   -0.3500  -49.7280 C.ar   20  A20         0.1816
    418  N9        39.0070    0.1660  -48.6580 N.ar   20  A20        -0.2693
    419  OP1       36.3480    3.2440  -53.5510 O.2    20  A20        -0.5172
    420  OP2       36.6610    0.7120  -53.2750 O.co2  20  A20        -0.4373
    421  P         41.7600    4.0420  -51.2890 P.3    21  U21         0.2141
    422  C5'       43.7570    3.5800  -49.6420 C.3    21  U21         0.1812
    423  O5'       42.9320    3.1270  -50.7080 O.3    21  U21        -0.3114
    424  C4'       44.3920    2.4320  -48.8920 C.3    21  U21         0.1773
    425  O4'       43.3860    1.4390  -48.5610 O.3    21  U21        -0.3307
    426  C3'       45.4570    1.6360  -49.6320 C.3    21  U21         0.1860
    427  O3'       46.7260    2.2720  -49.6380 O.3    21  U21        -0.3112
    428  C2'       45.4490    0.3040  -48.8910 C.3    21  U21         0.2309
    429  O2'       46.1640    0.4080  -47.6690 O.3    21  U21        -0.2156
    430  C1'       43.9650    0.1500  -48.5570 C.3    21  U21         0.2420
    431  N1        43.2450   -0.7060  -49.5280 N.ar   21  U21        -0.2534
    432  C2        43.3910   -2.0780  -49.4220 C.ar   21  U21         0.3546
    433  O2        44.0930   -2.6100  -48.5790 O.2    21  U21        -0.2443
    434  N3        42.6890   -2.8110  -50.3470 N.ar   21  U21        -0.1530
    435  C4        41.8690   -2.3170  -51.3430 C.ar   21  U21         0.2846
    436  O4        41.2950   -3.0950  -52.1070 O.2    21  U21        -0.2650
    437  C5        41.7650   -0.8910  -51.3840 C.ar   21  U21         0.0814
    438  C6        42.4390   -0.1550  -50.4940 C.ar   21  U21         0.0870
    439  OP1       42.2870    5.4160  -51.5060 O.3    21  U21        -0.4373
    440  OP2       41.1240    3.3070  -52.4140 O.co2  21  U21        -0.5172
    441  P         47.7030    2.1190  -50.9060 P.3    22  C22         0.2141
    442  C5'       49.4240    0.5470  -49.6840 C.3    22  C22         0.1813
    443  O5'       48.4290    0.7160  -50.6850 O.3    22  C22        -0.3114
    444  C4'       49.8070   -0.9040  -49.5280 C.3    22  C22         0.1801
    445  O4'       48.6300   -1.6830  -49.1910 O.3    22  C22        -0.3306
    446  C3'       50.3590   -1.5870  -50.7720 C.3    22  C22         0.2161
    447  O3'       51.7370   -1.3280  -50.9800 O.3    22  C22        -0.2175
    448  C2'       50.0470   -3.0580  -50.5170 C.3    22  C22         0.2338
    449  O2'       51.0020   -3.6310  -49.6360 O.3    22  C22        -0.2155
    450  C1'       48.7080   -2.9630  -49.7830 C.3    22  C22         0.2421
    451  N1        47.5530   -3.1360  -50.6940 N.ar   22  C22        -0.2535
    452  C2        47.1170   -4.4310  -50.9990 C.ar   22  C22         0.3532
    453  O2        47.7100   -5.3990  -50.5020 O.2    22  C22        -0.2443
    454  N3        46.0600   -4.5970  -51.8290 N.ar   22  C22        -0.1739
    455  C4        45.4460   -3.5290  -52.3440 C.ar   22  C22         0.1759
    456  N4        44.4070   -3.7400  -53.1540 N.pl3  22  C22        -0.1070
    457  C5        45.8640   -2.1970  -52.0520 C.ar   22  C22         0.0566
    458  C6        46.9110   -2.0510  -51.2290 C.ar   22  C22         0.0850
    459  OP1       48.7220    3.1970  -50.8210 O.3    22  C22        -0.4373
    460  OP2       46.8590    1.9830  -52.1220 O.co2  22  C22        -0.5172
    461  P         54.0920   -6.8270  -50.3610 P.3   216  U216        0.1280
    462  C5'       52.6710   -8.9020  -51.1200 C.3   216  U216        0.1795
    463  O5'       52.9070   -7.8740  -50.1620 O.3   216  U216       -0.3259
    464  C4'       51.2820   -8.8140  -51.7070 C.3   216  U216        0.1772
    465  O4'       50.9690   -7.4190  -51.9690 O.3   216  U216       -0.3307
    466  C3'       51.0940   -9.5470  -53.0280 C.3   216  U216        0.1860
    467  O3'       49.7490  -10.0170  -53.1280 O.3   216  U216       -0.3112
    468  C2'       51.3410   -8.4490  -54.0590 C.3   216  U216        0.2309
    469  O2'       50.7280   -8.6740  -55.3110 O.3   216  U216       -0.2156
    470  C1'       50.7650   -7.2180  -53.3570 C.3   216  U216        0.2420
    471  N1        51.4470   -5.9630  -53.7100 N.ar  216  U216       -0.2534
    472  C2        51.0360   -5.2170  -54.8000 C.ar  216  U216        0.3546
    473  O2        50.1170   -5.5390  -55.5300 O.2   216  U216       -0.2443
    474  N3        51.7600   -4.0680  -55.0110 N.ar  216  U216       -0.1530
    475  C4        52.8190   -3.5930  -54.2620 C.ar  216  U216        0.2846
    476  O4        53.3670   -2.5380  -54.5790 O.2   216  U216       -0.2650
    477  C5        53.1750   -4.4160  -53.1510 C.ar  216  U216        0.0814
    478  C6        52.4900   -5.5370  -52.9270 C.ar  216  U216        0.0870
    479  OP1       53.5900   -5.4800  -49.9780 O.3   216  U216       -0.1955
    480  OP2       55.3160   -7.3720  -49.7200 O.co2 216  U216       -0.7863
    481  P         49.3830  -11.5280  -52.7120 P.3   217  C217        0.2141
    482  C5'       48.1310  -11.3030  -55.0080 C.3   217  C217        0.1812
    483  O5'       48.2360  -11.9400  -53.7390 O.3   217  C217       -0.3114
    484  C4'       46.7180  -11.3420  -55.5370 C.3   217  C217        0.1773
    485  O4'       46.0330  -10.1200  -55.1450 O.3   217  C217       -0.3307
    486  C3'       46.6020  -11.4300  -57.0570 C.3   217  C217        0.1860
    487  O3'       45.4650  -12.2170  -57.4170 O.3   217  C217       -0.3112
    488  C2'       46.3930   -9.9740  -57.4670 C.3   217  C217        0.2309
    489  O2'       45.7220   -9.8010  -58.6970 O.3   217  C217       -0.2156
    490  C1'       45.5810   -9.4260  -56.2940 C.3   217  C217        0.2420
    491  N1        45.7840   -7.9860  -56.0570 N.ar  217  C217       -0.2535
    492  C2        44.8360   -7.0530  -56.4970 C.ar  217  C217        0.3532
    493  O2        43.8240   -7.4560  -57.0900 O.2   217  C217       -0.2443
    494  N3        45.0460   -5.7320  -56.2680 N.ar  217  C217       -0.1739
    495  C4        46.1460   -5.3270  -55.6270 C.ar  217  C217        0.1759
    496  N4        46.3180   -4.0180  -55.4220 N.pl3 217  C217       -0.1070
    497  C5        47.1250   -6.2540  -55.1680 C.ar  217  C217        0.0566
    498  C6        46.9050   -7.5540  -55.4020 C.ar  217  C217        0.0850
    499  OP1       48.7910  -11.4900  -51.3490 O.3   217  C217       -0.4373
    500  OP2       50.5620  -12.3960  -52.9630 O.co2 217  C217       -0.5172
    501  P         45.6630  -13.7380  -57.9090 P.3   218  G218        0.2141
    502  C5'       43.0440  -13.8420  -57.7900 C.3   218  G218        0.1812
    503  O5'       44.2970  -14.4570  -57.5120 O.3   218  G218       -0.3114
    504  C4'       41.9220  -14.8500  -57.8850 C.3   218  G218        0.1773
    505  O4'       42.2890  -15.8950  -58.8280 O.3   218  G218       -0.3307
    506  C3'       41.5510  -15.5570  -56.5790 C.3   218  G218        0.1860
    507  O3'       40.1340  -15.7140  -56.4940 O.3   218  G218       -0.3112
    508  C2'       42.2170  -16.9250  -56.7230 C.3   218  G218        0.2309
    509  O2'       41.5930  -17.9600  -55.9940 O.3   218  G218       -0.2156
    510  C1'       42.1200  -17.1630  -58.2260 C.3   218  G218        0.2408
    511  N1        43.6380  -20.2030  -62.0640 N.ar  218  G218       -0.1709
    512  C2        42.4980  -19.4410  -61.9620 C.ar  218  G218        0.2606
    513  N2        41.6650  -19.5020  -63.0120 N.pl3 218  G218       -0.0859
    514  N3        42.1980  -18.6810  -60.9160 N.ar  218  G218       -0.1918
    515  C4        43.1480  -18.7450  -59.9570 C.ar  218  G218        0.1723
    516  C5        44.3210  -19.4780  -59.9680 C.ar  218  G218        0.1748
    517  C6        44.6310  -20.2870  -61.0940 C.ar  218  G218        0.3023
    518  O6        45.6260  -21.0010  -61.2790 O.2   218  G218       -0.2633
    519  N7        45.0360  -19.2810  -58.7970 N.ar  218  G218       -0.2173
    520  C8        44.3040  -18.4480  -58.1090 C.ar  218  G218        0.1817
    521  N9        43.1440  -18.0770  -58.7490 N.ar  218  G218       -0.2693
    522  OP1       46.7570  -14.3330  -57.0990 O.3   218  G218       -0.4373
    523  OP2       45.7660  -13.7540  -59.3920 O.co2 218  G218       -0.5172
    524  P         39.3390  -15.1290  -55.2230 P.3   219  G219        0.2141
    525  C5'       40.4830  -14.3500  -52.9950 C.3   219  G219        0.1812
    526  O5'       40.3660  -15.3220  -54.0220 O.3   219  G219       -0.3114
    527  C4'       41.9240  -14.1460  -52.6010 C.3   219  G219        0.1773
    528  O4'       42.5910  -13.3060  -53.5790 O.3   219  G219       -0.3307
    529  C3'       42.1570  -13.4290  -51.2820 C.3   219  G219        0.1860
    530  O3'       42.0160  -14.2890  -50.1630 O.3   219  G219       -0.3112
    531  C2'       43.5630  -12.8630  -51.4540 C.3   219  G219        0.2309
    532  O2'       44.5460  -13.8630  -51.2270 O.3   219  G219       -0.2156
    533  C1'       43.5720  -12.5120  -52.9450 C.3   219  G219        0.2408
    534  N1        45.0280   -7.6540  -52.2860 N.ar  219  G219       -0.1709
    535  C2        45.6350   -8.8100  -51.8620 C.ar  219  G219        0.2606
    536  N2        46.7740   -8.6460  -51.1740 N.pl3 219  G219       -0.0859
    537  N3        45.1640  -10.0280  -52.0920 N.ar  219  G219       -0.1918
    538  C4        44.0110   -9.9960  -52.7970 C.ar  219  G219        0.1723
    539  C5        43.3250   -8.8920  -53.2670 C.ar  219  G219        0.1748
    540  C6        43.8440   -7.5930  -53.0110 C.ar  219  G219        0.3023
    541  O6        43.3850   -6.4900  -53.3410 O.2   219  G219       -0.2633
    542  N7        42.1800   -9.2820  -53.9470 N.ar  219  G219       -0.2173
    543  C8        42.1900  -10.5860  -53.8790 C.ar  219  G219        0.1817
    544  N9        43.2690  -11.0880  -53.1930 N.ar  219  G219       -0.2693
    545  OP1       38.1580  -15.9920  -54.9600 O.3   219  G219       -0.4373
    546  OP2       39.1530  -13.6700  -55.4320 O.co2 219  G219       -0.5172
    547  P         41.2920  -13.7720  -48.8230 P.3   220  G220        0.2141
    548  C5'       43.7020  -13.5930  -47.8130 C.3   220  G220        0.1812
    549  O5'       42.4430  -12.9840  -48.0530 O.3   220  G220       -0.3114
    550  C4'       44.7770  -12.5680  -47.5570 C.3   220  G220        0.1773
    551  O4'       44.9510  -11.7270  -48.7240 O.3   220  G220       -0.3307
    552  C3'       44.5110  -11.5790  -46.4330 C.3   220  G220        0.1860
    553  O3'       44.7690  -12.1210  -45.1480 O.3   220  G220       -0.3112
    554  C2'       45.4200  -10.4110  -46.7960 C.3   220  G220        0.2309
    555  O2'       46.7600  -10.6740  -46.4070 O.3   220  G220       -0.2156
    556  C1'       45.3490  -10.4310  -48.3260 C.3   220  G220        0.2408
    557  N1        44.2920   -5.4940  -48.9030 N.ar  220  G220       -0.1709
    558  C2        45.3670   -6.0960  -48.2930 C.ar  220  G220        0.2606
    559  N2        46.2770   -5.2610  -47.7720 N.pl3 220  G220       -0.0859
    560  N3        45.5360   -7.4070  -48.2040 N.ar  220  G220       -0.1918
    561  C4        44.5180   -8.0770  -48.7860 C.ar  220  G220        0.1723
    562  C5        43.4000   -7.5700  -49.4210 C.ar  220  G220        0.1748
    563  C6        43.2350   -6.1630  -49.5090 C.ar  220  G220        0.3023
    564  O6        42.3150   -5.5190  -50.0320 O.2   220  G220       -0.2633
    565  N7        42.5900   -8.5960  -49.8850 N.ar  220  G220       -0.2173
    566  C8        43.2170   -9.6850  -49.5320 C.ar  220  G220        0.1817
    567  N9        44.3910   -9.4430  -48.8590 N.ar  220  G220       -0.2693
    568  OP1       40.9140  -14.9680  -48.0250 O.3   220  G220       -0.4373
    569  OP2       40.2410  -12.7890  -49.1960 O.co2 220  G220       -0.5172
    570  P         43.7320  -11.8780  -43.9430 P.3   221  U221        0.2141
    571  C5'       45.2660  -10.0050  -42.9380 C.3   221  U221        0.1812
    572  O5'       44.0120  -10.3760  -43.4920 O.3   221  U221       -0.3114
    573  C4'       45.4430   -8.5070  -42.9170 C.3   221  U221        0.1773
    574  O4'       45.4740   -7.9970  -44.2770 O.3   221  U221       -0.3307
    575  C3'       44.3280   -7.7080  -42.2600 C.3   221  U221        0.1860
    576  O3'       44.3920   -7.6970  -40.8460 O.3   221  U221       -0.3112
    577  C2'       44.4970   -6.3360  -42.8930 C.3   221  U221        0.2309
    578  O2'       45.6010   -5.6530  -42.3170 O.3   221  U221       -0.2156
    579  C1'       44.8680   -6.7200  -44.3230 C.3   221  U221        0.2420
    580  N1        43.6770   -6.7890  -45.2010 N.ar  221  U221       -0.2534
    581  C2        43.1700   -5.5940  -45.6750 C.ar  221  U221        0.3546
    582  O2        43.6610   -4.5130  -45.3980 O.2   221  U221       -0.2443
    583  N3        42.0680   -5.7090  -46.4860 N.ar  221  U221       -0.1530
    584  C4        41.4330   -6.8780  -46.8610 C.ar  221  U221        0.2846
    585  O4        40.4470   -6.8280  -47.6010 O.2   221  U221       -0.2650
    586  C5        42.0150   -8.0730  -46.3300 C.ar  221  U221        0.0814
    587  C6        43.0890   -7.9870  -45.5380 C.ar  221  U221        0.0870
    588  OP1       44.1160  -12.7670  -42.8160 O.3   221  U221       -0.4373
    589  OP2       42.3560  -11.9570  -44.5000 O.co2 221  U221       -0.5172
    590  P         43.0340   -7.7660  -39.9900 P.3   222  U222        0.2141
    591  C5'       43.1950   -5.1630  -39.7570 C.3   222  U222        0.1812
    592  O5'       42.4250   -6.2980  -40.1200 O.3   222  U222       -0.3114
    593  C4'       42.5920   -3.8850  -40.2880 C.3   222  U222        0.1773
    594  O4'       42.5990   -3.8890  -41.7390 O.3   222  U222       -0.3307
    595  C3'       41.1380   -3.6320  -39.9390 C.3   222  U222        0.1860
    596  O3'       40.9560   -3.1590  -38.6180 O.3   222  U222       -0.3112
    597  C2'       40.7180   -2.6340  -41.0090 C.3   222  U222        0.2309
    598  O2'       41.2060   -1.3370  -40.6980 O.3   222  U222       -0.2156
    599  C1'       41.4900   -3.1540  -42.2210 C.3   222  U222        0.2420
    600  N1        40.6520   -4.0250  -43.0780 N.ar  222  U222       -0.2534
    601  C2        39.7780   -3.3950  -43.9450 C.ar  222  U222        0.3546
    602  O2        39.6780   -2.1840  -44.0270 O.2   222  U222       -0.2443
    603  N3        39.0200   -4.2350  -44.7220 N.ar  222  U222       -0.1530
    604  C4        39.0450   -5.6140  -44.7190 C.ar  222  U222        0.2846
    605  O4        38.3000   -6.2290  -45.4830 O.2   222  U222       -0.2650
    606  C5        39.9720   -6.1940  -43.7960 C.ar  222  U222        0.0814
    607  C6        40.7240   -5.3990  -43.0250 C.ar  222  U222        0.0870
    608  OP1       43.4040   -7.9940  -38.5670 O.3   222  U222       -0.4373
    609  OP2       42.1030   -8.7010  -40.6780 O.co2 222  U222       -0.5172
    610  P         39.6280   -3.5520  -37.8040 P.3   223  G223        0.2141
    611  C5'       38.6470   -1.2390  -38.5660 C.3   223  G223        0.1812
    612  O5'       38.4940   -2.6470  -38.4640 O.3   223  G223       -0.3114
    613  C4'       37.5600   -0.6310  -39.4170 C.3   223  G223        0.1773
    614  O4'       37.7240   -1.0170  -40.8040 O.3   223  G223       -0.3307
    615  C3'       36.1460   -1.0600  -39.0750 C.3   223  G223        0.1860
    616  O3'       35.6290   -0.3340  -37.9770 O.3   223  G223       -0.3112
    617  C2'       35.3910   -0.8130  -40.3770 C.3   223  G223        0.2309
    618  O2'       35.0240    0.5530  -40.4900 O.3   223  G223       -0.2156
    619  C1'       36.4620   -1.1180  -41.4270 C.3   223  G223        0.2408
    620  N1        34.2760   -3.9610  -45.0390 N.ar  223  G223       -0.1709
    621  C2        34.1390   -2.6190  -44.7760 C.ar  223  G223        0.2606
    622  N2        33.3090   -1.9480  -45.5900 N.pl3 223  G223       -0.0859
    623  N3        34.7640   -1.9840  -43.7970 N.ar  223  G223       -0.1918
    624  C4        35.5500   -2.8180  -43.0890 C.ar  223  G223        0.1723
    625  C5        35.7570   -4.1720  -43.2720 C.ar  223  G223        0.1748
    626  C6        35.0810   -4.8400  -44.3250 C.ar  223  G223        0.3023
    627  O6        35.1300   -6.0360  -44.6470 O.2   223  G223       -0.2633
    628  N7        36.6460   -4.6620  -42.3270 N.ar  223  G223       -0.2173
    629  C8        36.9560   -3.6170  -41.6060 C.ar  223  G223        0.1817
    630  N9        36.3260   -2.4650  -42.0120 N.ar  223  G223       -0.2693
    631  OP1       39.8190   -3.1270  -36.3920 O.3   223  G223       -0.4373
    632  OP2       39.2920   -4.9680  -38.1130 O.co2 223  G223       -0.5172
    633  P         35.0310   -1.1020  -36.7040 P.3   224  G224        0.2141
    634  C5'       32.8580    0.2970  -36.9770 C.3   224  G224        0.1812
    635  O5'       33.4630   -0.9810  -36.9150 O.3   224  G224       -0.3114
    636  C4'       31.8740    0.3920  -38.1080 C.3   224  G224        0.1773
    637  O4'       32.5020    0.0110  -39.3600 O.3   224  G224       -0.3307
    638  C3'       30.6670   -0.5230  -38.0300 C.3   224  G224        0.1860
    639  O3'       29.6890   -0.0830  -37.1030 O.3   224  G224       -0.3112
    640  C2'       30.1950   -0.5300  -39.4750 C.3   224  G224        0.2309
    641  O2'       29.5260    0.6800  -39.7850 O.3   224  G224       -0.2156
    642  C1'       31.5270   -0.5420  -40.2240 C.3   224  G224        0.2408
    643  N1        31.2690   -4.0940  -43.8460 N.ar  224  G224       -0.1709
    644  C2        30.7660   -2.8170  -43.8310 C.ar  224  G224        0.2606
    645  N2        30.1040   -2.4490  -44.9380 N.pl3 224  G224       -0.0859
    646  N3        30.9020   -1.9750  -42.8150 N.ar  224  G224       -0.1918
    647  C4        31.5980   -2.5300  -41.7960 C.ar  224  G224        0.1723
    648  C5        32.1430   -3.7980  -41.7140 C.ar  224  G224        0.1748
    649  C6        31.9870   -4.6870  -42.8140 C.ar  224  G224        0.3023
    650  O6        32.3920   -5.8510  -42.9440 O.2   224  G224       -0.2633
    651  N7        32.7820   -3.9770  -40.4950 N.ar  224  G224       -0.2173
    652  C8        32.6180   -2.8390  -39.8720 C.ar  224  G224        0.1817
    653  N9        31.9170   -1.9130  -40.6080 N.ar  224  G224       -0.2693
    654  OP1       35.3770   -0.3090  -35.4970 O.3   224  G224       -0.4373
    655  OP2       35.3930   -2.5430  -36.7820 O.co2 224  G224       -0.5172
    656  P         28.4980   -1.0610  -36.6340 P.3   225  G225        0.2141
    657  C5'       26.3880   -1.6560  -38.0860 C.3   225  G225        0.1812
    658  O5'       27.2990   -0.6800  -37.6080 O.3   225  G225       -0.3114
    659  C4'       26.1900   -1.4870  -39.5650 C.3   225  G225        0.1773
    660  O4'       27.4980   -1.4310  -40.1800 O.3   225  G225       -0.3307
    661  C3'       25.4530   -2.6210  -40.2730 C.3   225  G225        0.1860
    662  O3'       24.0630   -2.3600  -40.3760 O.3   225  G225       -0.3112
    663  C2'       26.1460   -2.7030  -41.6240 C.3   225  G225        0.2309
    664  O2'       25.6350   -1.7210  -42.5130 O.3   225  G225       -0.2156
    665  C1'       27.5750   -2.3180  -41.2550 C.3   225  G225        0.2408
    666  N1        29.2530   -6.8320  -42.5450 N.ar  225  G225       -0.1709
    667  C2        28.4760   -5.9150  -43.2170 C.ar  225  G225        0.2606
    668  N2        28.0520   -6.2070  -44.4420 N.pl3 225  G225       -0.0859
    669  N3        28.1170   -4.7570  -42.7450 N.ar  225  G225       -0.1918
    670  C4        28.6020   -4.5900  -41.5170 C.ar  225  G225        0.1723
    671  C5        29.3830   -5.4150  -40.7310 C.ar  225  G225        0.1748
    672  C6        29.7680   -6.6690  -41.2610 C.ar  225  G225        0.3023
    673  O6        30.4580   -7.5590  -40.7450 O.2   225  G225       -0.2633
    674  N7        29.6510   -4.8170  -39.5080 N.ar  225  G225       -0.2173
    675  C8        29.0280   -3.6670  -39.5960 C.ar  225  G225        0.1817
    676  N9        28.3690   -3.4730  -40.7940 N.ar  225  G225       -0.2693
    677  OP1       28.0750   -0.6510  -35.2700 O.3   225  G225       -0.4373
    678  OP2       28.9040   -2.4670  -36.8720 O.co2 225  G225       -0.5172
    679  P         22.9800   -3.3350  -39.7010 P.3   226  U226        0.2141
    680  C5'       22.3310   -4.0710  -42.1400 C.3   226  U226        0.1812
    681  O5'       22.7100   -4.4370  -40.8200 O.3   226  U226       -0.3114
    682  C4'       22.3490   -5.2630  -43.0660 C.3   226  U226        0.1773
    683  O4'       23.7180   -5.5790  -43.4370 O.3   226  U226       -0.3307
    684  C3'       21.8160   -6.5600  -42.4780 C.3   226  U226        0.1860
    685  O3'       20.4020   -6.6410  -42.5090 O.3   226  U226       -0.3112
    686  C2'       22.5080   -7.6200  -43.3240 C.3   226  U226        0.2309
    687  O2'       21.8660   -7.7530  -44.5830 O.3   226  U226       -0.2156
    688  C1'       23.8760   -6.9780  -43.5500 C.3   226  U226        0.2420
    689  N1        24.8760   -7.4200  -42.5510 N.ar  226  U226       -0.2534
    690  C2        25.3650   -8.7120  -42.6250 C.ar  226  U226        0.3546
    691  O2        25.0190   -9.5180  -43.4690 O.2   226  U226       -0.2443
    692  N3        26.2920   -9.0390  -41.6680 N.ar  226  U226       -0.1530
    693  C4        26.7720   -8.2260  -40.6600 C.ar  226  U226        0.2846
    694  O4        27.6080   -8.6670  -39.8700 O.2   226  U226       -0.2650
    695  C5        26.2210   -6.9050  -40.6460 C.ar  226  U226        0.0814
    696  C6        25.3170   -6.5620  -41.5710 C.ar  226  U226        0.0870
    697  OP1       21.7340   -2.5440  -39.5070 O.2   226  U226       -0.5172
    698  OP2       23.6050   -4.0100  -38.5300 O.co2 226  U226       -0.4373
    699  P         19.6110   -7.3770  -41.3210 P.3   227  U227        0.2141
    700  C5'       19.4840   -9.5720  -42.7490 C.3   227  U227        0.1812
    701  O5'       19.9050   -8.9260  -41.5580 O.3   227  U227       -0.3114
    702  C4'       20.0990  -10.9430  -42.8900 C.3   227  U227        0.1773
    703  O4'       21.5290  -10.8300  -43.1310 O.3   227  U227       -0.3307
    704  C3'       20.0180  -11.8440  -41.6720 C.3   227  U227        0.1860
    705  O3'       18.7480  -12.4340  -41.4740 O.3   227  U227       -0.3112
    706  C2'       21.1360  -12.8410  -41.9400 C.3   227  U227        0.2309
    707  O2'       20.7510  -13.7740  -42.9380 O.3   227  U227       -0.2156
    708  C1'       22.2010  -11.9210  -42.5280 C.3   227  U227        0.2420
    709  N1        23.0860  -11.4090  -41.4610 N.ar  227  U227       -0.2534
    710  C2        24.0970  -12.2490  -41.0350 C.ar  227  U227        0.3546
    711  O2        24.2870  -13.3530  -41.5170 O.2   227  U227       -0.2443
    712  N3        24.8830  -11.7440  -40.0290 N.ar  227  U227       -0.1530
    713  C4        24.7500  -10.5130  -39.4150 C.ar  227  U227        0.2846
    714  O4        25.5370  -10.1950  -38.5230 O.2   227  U227       -0.2650
    715  C5        23.6750   -9.7060  -39.9030 C.ar  227  U227        0.0814
    716  C6        22.8970  -10.1750  -40.8800 C.ar  227  U227        0.0870
    717  OP1       18.1570   -7.1330  -41.5320 O.2   227  U227       -0.5172
    718  OP2       20.2530   -7.0020  -40.0340 O.co2 227  U227       -0.4373
    719  P         18.2750  -12.8060  -39.9830 P.3   228  G228        0.2141
    720  C5'       19.1030  -15.2530  -40.4290 C.3   228  G228        0.1812
    721  O5'       19.1370  -14.0920  -39.6130 O.3   228  G228       -0.3114
    722  C4'       20.2110  -16.2090  -40.0670 C.3   228  G228        0.1773
    723  O4'       21.5010  -15.5800  -40.2790 O.3   228  G228       -0.3307
    724  C3'       20.2610  -16.6490  -38.6150 C.3   228  G228        0.1860
    725  O3'       19.3180  -17.6580  -38.3050 O.3   228  G228       -0.3112
    726  C2'       21.7100  -17.0910  -38.4540 C.3   228  G228        0.2309
    727  O2'       21.9070  -18.3790  -39.0170 O.3   228  G228       -0.2156
    728  C1'       22.4320  -16.0670  -39.3310 C.3   228  G228        0.2408
    729  N1        25.9430  -14.5400  -35.9890 N.ar  228  G228       -0.1709
    730  C2        25.7460  -15.7770  -36.5530 C.ar  228  G228        0.2606
    731  N2        26.6040  -16.7320  -36.1690 N.pl3 228  G228       -0.0859
    732  N3        24.7850  -16.0560  -37.4220 N.ar  228  G228       -0.1918
    733  C4        24.0240  -14.9720  -37.6840 C.ar  228  G228        0.1723
    734  C5        24.1370  -13.6910  -37.1760 C.ar  228  G228        0.1748
    735  C6        25.1750  -13.4080  -36.2430 C.ar  228  G228        0.3023
    736  O6        25.4510  -12.3400  -35.6740 O.2   228  G228       -0.2633
    737  N7        23.1530  -12.8680  -37.7080 N.ar  228  G228       -0.2173
    738  C8        22.4750  -13.6480  -38.5090 C.ar  228  G228        0.1817
    739  N9        22.9520  -14.9350  -38.5410 N.ar  228  G228       -0.2693
    740  OP1       16.8420  -13.2050  -40.0220 O.2   228  G228       -0.5172
    741  OP2       18.7260  -11.7060  -39.0900 O.co2 228  G228       -0.4373
    742  P         18.7210  -17.7650  -36.8170 P.3   229  G229        0.2141
    743  C5'       20.3590  -19.7030  -36.1440 C.3   229  G229        0.1812
    744  O5'       19.9240  -18.3640  -35.9530 O.3   229  G229       -0.3114
    745  C4'       21.6360  -19.9990  -35.3940 C.3   229  G229        0.1773
    746  O4'       22.6720  -19.0570  -35.7750 O.3   229  G229       -0.3307
    747  C3'       21.5820  -19.8740  -33.8820 C.3   229  G229        0.1860
    748  O3'       20.9690  -20.9810  -33.2490 O.3   229  G229       -0.3112
    749  C2'       23.0500  -19.6950  -33.5160 C.3   229  G229        0.2309
    750  O2'       23.7310  -20.9390  -33.5500 O.3   229  G229       -0.2156
    751  C1'       23.5500  -18.8470  -34.6850 C.3   229  G229        0.2408
    752  N1        25.8900  -15.2050  -32.0060 N.ar  229  G229       -0.1709
    753  C2        26.1510  -16.5540  -32.0610 C.ar  229  G229        0.2606
    754  N2        27.1730  -16.9790  -31.2990 N.pl3 229  G229       -0.0859
    755  N3        25.4620  -17.4110  -32.8040 N.ar  229  G229       -0.1918
    756  C4        24.4750  -16.7990  -33.4990 C.ar  229  G229        0.1723
    757  C5        24.1370  -15.4600  -33.5110 C.ar  229  G229        0.1748
    758  C6        24.8830  -14.5520  -32.7110 C.ar  229  G229        0.3023
    759  O6        24.7420  -13.3270  -32.5830 O.2   229  G229       -0.2633
    760  N7        23.0610  -15.2350  -34.3590 N.ar  229  G229       -0.2173
    761  C8        22.7690  -16.4170  -34.8350 C.ar  229  G229        0.1817
    762  N9        23.5870  -17.4100  -34.3540 N.ar  229  G229       -0.2693
    763  OP1       17.6100  -18.7540  -36.8530 O.2   229  G229       -0.5172
    764  OP2       18.4640  -16.3810  -36.3320 O.co2 229  G229       -0.4373
    765  P         20.0310  -20.7450  -31.9660 P.3   230  G230        0.2141
    766  C5'       21.7960  -21.0730  -30.0620 C.3   230  G230        0.1812
    767  O5'       21.0290  -20.1800  -30.8560 O.3   230  G230       -0.3114
    768  C4'       23.0220  -20.4220  -29.4640 C.3   230  G230        0.1773
    769  O4'       23.5210  -19.3700  -30.3260 O.3   230  G230       -0.3307
    770  C3'       22.8520  -19.7310  -28.1210 C.3   230  G230        0.1860
    771  O3'       22.7930  -20.6370  -27.0310 O.3   230  G230       -0.3112
    772  C2'       24.0630  -18.8060  -28.0740 C.3   230  G230        0.2309
    773  O2'       25.2270  -19.5180  -27.6840 O.3   230  G230       -0.2156
    774  C1'       24.2110  -18.4120  -29.5470 C.3   230  G230        0.2408
    775  N1        24.8080  -13.4820  -28.5960 N.ar  230  G230       -0.1709
    776  C2        25.5210  -14.5610  -28.1390 C.ar  230  G230        0.2606
    777  N2        26.5360  -14.2730  -27.3130 N.pl3 230  G230       -0.0859
    778  N3        25.2580  -15.8150  -28.4680 N.ar  230  G230       -0.1918
    779  C4        24.2030  -15.8990  -29.3070 C.ar  230  G230        0.1723
    780  C5        23.4210  -14.8860  -29.8200 C.ar  230  G230        0.1748
    781  C6        23.7220  -13.5420  -29.4580 C.ar  230  G230        0.3023
    782  O6        23.1650  -12.4870  -29.7920 O.2   230  G230       -0.2633
    783  N7        22.4330  -15.4080  -30.6480 N.ar  230  G230       -0.2173
    784  C8        22.6270  -16.6990  -30.6200 C.ar  230  G230        0.1817
    785  N9        23.6830  -17.0620  -29.8220 N.ar  230  G230       -0.2693
    786  OP1       19.5430  -22.0790  -31.5250 O.3   230  G230       -0.4373
    787  OP2       19.0460  -19.6830  -32.3030 O.co2 230  G230       -0.5172
    788  P         21.8810  -20.3040  -25.7490 P.3   231  A231        0.2141
    789  C5'       24.1820  -19.7310  -24.6010 C.3   231  A231        0.1812
    790  O5'       22.8170  -19.3980  -24.8270 O.3   231  A231       -0.3114
    791  C4'       24.9690  -18.5390  -24.1130 C.3   231  A231        0.1773
    792  O4'       24.8180  -17.4490  -25.0640 O.3   231  A231       -0.3307
    793  C3'       24.5350  -17.9870  -22.7570 C.3   231  A231        0.1860
    794  O3'       25.6730  -17.5000  -22.0450 O.3   231  A231       -0.3112
    795  C2'       23.6150  -16.8280  -23.1380 C.3   231  A231        0.2309
    796  O2'       23.5070  -15.8120  -22.1640 O.3   231  A231       -0.2156
    797  C1'       24.2630  -16.3150  -24.4210 C.3   231  A231        0.2408
    798  N1        22.4290  -11.9540  -26.5290 N.ar  231  A231       -0.2040
    799  C2        23.4000  -12.1710  -25.6280 C.ar  231  A231        0.2016
    800  N3        23.8360  -13.3230  -25.1130 N.ar  231  A231       -0.2048
    801  C4        23.1510  -14.3600  -25.6310 C.ar  231  A231        0.1692
    802  C5        22.1260  -14.2930  -26.5640 C.ar  231  A231        0.1518
    803  C6        21.7540  -13.0170  -27.0290 C.ar  231  A231        0.1919
    804  N6        20.7860  -12.8110  -27.9330 N.pl3 231  A231       -0.1054
    805  N7        21.6510  -15.5610  -26.8660 N.ar  231  A231       -0.2193
    806  C8        22.3820  -16.3540  -26.1210 C.ar  231  A231        0.1816
    807  N9        23.3080  -15.6980  -25.3460 N.ar  231  A231       -0.2693
    808  OP1       21.5990  -21.5800  -25.0420 O.3   231  A231       -0.4373
    809  OP2       20.7540  -19.4440  -26.1990 O.co2 231  A231       -0.5172
    810  P         26.3670  -18.4210  -20.9220 P.3   232  A232        0.2141
    811  C5'       25.0870  -17.5160  -18.8130 C.3   232  A232        0.1812
    812  O5'       25.2590  -18.5430  -19.7840 O.3   232  A232       -0.3114
    813  C4'       23.7540  -17.6210  -18.1110 C.3   232  A232        0.1773
    814  O4'       22.6870  -17.2750  -19.0360 O.3   232  A232       -0.3307
    815  C3'       23.4030  -19.0040  -17.5550 C.3   232  A232        0.1860
    816  O3'       22.6540  -18.8560  -16.3460 O.3   232  A232       -0.3112
    817  C2'       22.4860  -19.5710  -18.6320 C.3   232  A232        0.2309
    818  O2'       21.6040  -20.5720  -18.1740 O.3   232  A232       -0.2156
    819  C1'       21.7340  -18.3180  -19.0690 C.3   232  A232        0.2408
    820  N1        17.9830  -16.5230  -22.0400 N.ar  232  A232       -0.2040
    821  C2        18.3080  -16.3090  -20.7590 C.ar  232  A232        0.2016
    822  N3        19.3140  -16.8190  -20.0550 N.ar  232  A232       -0.2048
    823  C4        20.0420  -17.6620  -20.8090 C.ar  232  A232        0.1692
    824  C5        19.8320  -17.9910  -22.1350 C.ar  232  A232        0.1518
    825  C6        18.7340  -17.3770  -22.7700 C.ar  232  A232        0.1919
    826  N6        18.3960  -17.5870  -24.0440 N.pl3 232  A232       -0.1054
    827  N7        20.7950  -18.8940  -22.5690 N.ar  232  A232       -0.2193
    828  C8        21.5510  -19.0890  -21.5130 C.ar  232  A232        0.1816
    829  N9        21.1490  -18.3730  -20.4120 N.ar  232  A232       -0.2693
    830  OP1       27.5250  -17.6860  -20.3450 O.3   232  A232       -0.4373
    831  OP2       26.5610  -19.7720  -21.5090 O.co2 232  A232       -0.5172
    832  P         23.2700  -18.0810  -15.0780 P.3   233  G233        0.2141
    833  C5'       21.8710  -15.9720  -14.4060 C.3   233  G233        0.1812
    834  O5'       22.8020  -16.5720  -15.2920 O.3   233  G233       -0.3114
    835  C4'       20.7270  -15.3210  -15.1450 C.3   233  G233        0.1773
    836  O4'       20.4430  -16.0380  -16.3750 O.3   233  G233       -0.3307
    837  C3'       19.4000  -15.3090  -14.4060 C.3   233  G233        0.1860
    838  O3'       19.3210  -14.2550  -13.4650 O.3   233  G233       -0.3112
    839  C2'       18.3840  -15.1940  -15.5350 C.3   233  G233        0.2309
    840  O2'       18.2820  -13.8510  -15.9790 O.3   233  G233       -0.2156
    841  C1'       19.0540  -16.0180  -16.6360 C.3   233  G233        0.2408
    842  N1        15.2040  -19.1900  -17.7600 N.ar  233  G233       -0.1709
    843  C2        15.2620  -17.8260  -17.8830 C.ar  233  G233        0.2606
    844  N2        14.1500  -17.2530  -18.3690 N.pl3 233  G233       -0.0859
    845  N3        16.3190  -17.0940  -17.5570 N.ar  233  G233       -0.1918
    846  C4        17.3330  -17.8560  -17.0900 C.ar  233  G233        0.1723
    847  C5        17.3700  -19.2280  -16.9300 C.ar  233  G233        0.1748
    848  C6        16.2280  -19.9970  -17.2830 C.ar  233  G233        0.3023
    849  O6        16.0580  -21.2230  -17.2190 O.2   233  G233       -0.2633
    850  N7        18.5980  -19.6290  -16.4200 N.ar  233  G233       -0.2173
    851  C8        19.2710  -18.5200  -16.2830 C.ar  233  G233        0.1817
    852  N9        18.5640  -17.4090  -16.6660 N.ar  233  G233       -0.2693
    853  OP1       24.7550  -18.1220  -15.1560 O.2   233  G233       -0.5172
    854  OP2       22.5890  -18.6120  -13.8670 O.co2 233  G233       -0.4373
    855  P         18.7130  -14.5120  -12.0020 P.3   234  U234        0.2141
    856  C5'       16.4660  -13.5230  -12.9370 C.3   234  U234        0.1812
    857  O5'       17.1370  -14.5610  -12.2390 O.3   234  U234       -0.3114
    858  C4'       15.1020  -13.9690  -13.3960 C.3   234  U234        0.1773
    859  O4'       15.2410  -14.9300  -14.4700 O.3   234  U234       -0.3307
    860  C3'       14.2640  -14.6890  -12.3550 C.3   234  U234        0.1860
    861  O3'       13.5910  -13.7930  -11.4910 O.3   234  U234       -0.3112
    862  C2'       13.3260  -15.5400  -13.2030 C.3   234  U234        0.2309
    863  O2'       12.2380  -14.7670  -13.6840 O.3   234  U234       -0.2156
    864  C1'       14.2230  -15.9020  -14.3840 C.3   234  U234        0.2420
    865  N1        14.8550  -17.2290  -14.2230 N.ar  234  U234       -0.2534
    866  C2        14.1050  -18.3300  -14.5810 C.ar  234  U234        0.3546
    867  O2        12.9660  -18.2490  -15.0070 O.2   234  U234       -0.2443
    868  N3        14.7360  -19.5350  -14.4220 N.ar  234  U234       -0.1530
    869  C4        16.0150  -19.7420  -13.9540 C.ar  234  U234        0.2846
    870  O4        16.4340  -20.8930  -13.8730 O.2   234  U234       -0.2650
    871  C5        16.7360  -18.5550  -13.6030 C.ar  234  U234        0.0814
    872  C6        16.1410  -17.3670  -13.7500 C.ar  234  U234        0.0870
    873  OP1       19.0440  -13.3140  -11.1850 O.3   234  U234       -0.4373
    874  OP2       19.1200  -15.8640  -11.5400 O.co2 234  U234       -0.5172
    875  P         13.2200  -14.2370   -9.9940 P.3   235  A235        0.2141
    876  C5'       10.7080  -14.5070  -10.6940 C.3   235  A235        0.1812
    877  O5'       11.8870  -15.0880  -10.1630 O.3   235  A235       -0.3114
    878  C4'        9.6430  -15.5550  -10.8730 C.3   235  A235        0.1773
    879  O4'        9.9680  -16.3840  -12.0190 O.3   235  A235       -0.3307
    880  C3'        9.5210  -16.5430   -9.7270 C.3   235  A235        0.1860
    881  O3'        8.7630  -16.0450   -8.6370 O.3   235  A235       -0.3112
    882  C2'        8.9210  -17.7680  -10.4050 C.3   235  A235        0.2309
    883  O2'        7.5300  -17.5930  -10.6190 O.3   235  A235       -0.2156
    884  C1'        9.6190  -17.7280  -11.7600 C.3   235  A235        0.2408
    885  N1        11.7220  -22.3430  -12.7530 N.ar  235  A235       -0.2040
    886  C2        10.4630  -21.8930  -12.8500 C.ar  235  A235        0.2016
    887  N3         9.9860  -20.6800  -12.5740 N.ar  235  A235       -0.2048
    888  C4        10.9660  -19.8610  -12.1440 C.ar  235  A235        0.1692
    889  C5        12.3070  -20.1820  -11.9930 C.ar  235  A235        0.1518
    890  C6        12.6860  -21.4980  -12.3200 C.ar  235  A235        0.1919
    891  N6        13.9400  -21.9500  -12.2270 N.pl3 235  A235       -0.1054
    892  N7        13.0280  -19.0860  -11.5300 N.ar  235  A235       -0.2193
    893  C8        12.1180  -18.1460  -11.4150 C.ar  235  A235        0.1816
    894  N9        10.8500  -18.5410  -11.7710 N.ar  235  A235       -0.2693
    895  OP1       12.8900  -13.0130   -9.2170 O.3   235  A235       -0.4373
    896  OP2       14.2770  -15.1760   -9.5300 O.co2 235  A235       -0.5172
    897  P          9.1500  -16.4600   -7.1330 P.3   236  U236        0.2141
    898  C5'        7.3430  -18.3450   -7.3230 C.3   236  U236        0.1812
    899  O5'        8.6830  -17.9790   -7.0350 O.3   236  U236       -0.3114
    900  C4'        7.2040  -19.8370   -7.4800 C.3   236  U236        0.1773
    901  O4'        7.9370  -20.2910   -8.6450 O.3   236  U236       -0.3307
    902  C3'        7.7650  -20.6790   -6.3500 C.3   236  U236        0.1860
    903  O3'        6.8930  -20.7300   -5.2370 O.3   236  U236       -0.3112
    904  C2'        7.9790  -22.0300   -7.0210 C.3   236  U236        0.2309
    905  O2'        6.7520  -22.7360   -7.1150 O.3   236  U236       -0.2156
    906  C1'        8.3990  -21.6100   -8.4330 C.3   236  U236        0.2420
    907  N1         9.8680  -21.6550   -8.6290 N.ar  236  U236       -0.2534
    908  C2        10.4000  -22.8510   -9.0690 C.ar  236  U236        0.3546
    909  O2         9.7190  -23.8350   -9.2950 O.2   236  U236       -0.2443
    910  N3        11.7600  -22.8590   -9.2430 N.ar  236  U236       -0.1530
    911  C4        12.6310  -21.8120   -9.0210 C.ar  236  U236        0.2846
    912  O4        13.8360  -21.9800   -9.2220 O.2   236  U236       -0.2650
    913  C5        12.0100  -20.6040   -8.5660 C.ar  236  U236        0.0814
    914  C6        10.6830  -20.5720   -8.3910 C.ar  236  U236        0.0870
    915  OP1        8.3260  -15.6520   -6.1920 O.3   236  U236       -0.4373
    916  OP2       10.6320  -16.4450   -7.0100 O.co2 236  U236       -0.5172
    917  P          7.4720  -20.8910   -3.7480 P.3   237  C237        0.2141
    918  C5'        9.0950  -22.9220   -3.4550 C.3   237  C237        0.1812
    919  O5'        7.7720  -22.4490   -3.6330 O.3   237  C237       -0.3114
    920  C4'        9.2670  -24.3020   -4.0360 C.3   237  C237        0.1773
    921  O4'        9.7710  -24.1970   -5.3960 O.3   237  C237       -0.3307
    922  C3'       10.2800  -25.1920   -3.3320 C.3   237  C237        0.1860
    923  O3'        9.7470  -25.8360   -2.1850 O.3   237  C237       -0.3112
    924  C2'       10.7080  -26.1520   -4.4330 C.3   237  C237        0.2309
    925  O2'        9.7270  -27.1590   -4.6340 O.3   237  C237       -0.2156
    926  C1'       10.6990  -25.2290   -5.6520 C.3   237  C237        0.2420
    927  N1        12.0230  -24.6120   -5.8970 N.ar  237  C237       -0.2535
    928  C2        13.0610  -25.3710   -6.4530 C.ar  237  C237        0.3532
    929  O2        12.8710  -26.5630   -6.7370 O.2   237  C237       -0.2443
    930  N3        14.2610  -24.7850   -6.6710 N.ar  237  C237       -0.1739
    931  C4        14.4430  -23.4980   -6.3590 C.ar  237  C237        0.1759
    932  N4        15.6450  -22.9670   -6.5930 N.pl3 237  C237       -0.1070
    933  C5        13.4080  -22.6960   -5.7960 C.ar  237  C237        0.0566
    934  C6        12.2280  -23.2940   -5.5870 C.ar  237  C237        0.0850
    935  OP1        6.3560  -20.5570   -2.8220 O.3   237  C237       -0.4373
    936  OP2        8.7670  -20.1680   -3.6430 O.co2 237  C237       -0.5172
    937  P         10.5960  -25.8960   -0.8200 P.3   238  A238        0.2141
    938  C5'       11.3310  -28.3130   -1.4920 C.3   238  A238        0.1812
    939  O5'       11.7060  -27.0000   -1.1070 O.3   238  A238       -0.3114
    940  C4'       12.5230  -29.1270   -1.9230 C.3   238  A238        0.1773
    941  O4'       13.0100  -28.6620   -3.2100 O.3   238  A238       -0.3307
    942  C3'       13.7450  -29.0510   -1.0260 C.3   238  A238        0.1860
    943  O3'       13.6320  -29.8570    0.1360 O.3   238  A238       -0.3112
    944  C2'       14.8650  -29.4750   -1.9670 C.3   238  A238        0.2309
    945  O2'       14.8630  -30.8840   -2.1410 O.3   238  A238       -0.2156
    946  C1'       14.4110  -28.8340   -3.2800 C.3   238  A238        0.2408
    947  N1        18.6040  -26.3870   -4.9850 N.ar  238  A238       -0.2040
    948  C2        18.2900  -27.6870   -4.9020 C.ar  238  A238        0.2016
    949  N3        17.1720  -28.2470   -4.4440 N.ar  238  A238       -0.2048
    950  C4        16.2960  -27.3100   -4.0290 C.ar  238  A238        0.1692
    951  C5        16.4730  -25.9370   -4.0500 C.ar  238  A238        0.1518
    952  C6        17.7030  -25.4690   -4.5610 C.ar  238  A238        0.1919
    953  N6        18.0330  -24.1760   -4.6510 N.pl3 238  A238       -0.1054
    954  N7        15.3490  -25.2930   -3.5390 N.ar  238  A238       -0.2193
    955  C8        14.5350  -26.2740   -3.2290 C.ar  238  A238        0.1816
    956  N9        15.0450  -27.5200   -3.5010 N.ar  238  A238       -0.2693
    957  OP1        9.6980  -26.4150    0.2450 O.3   238  A238       -0.4373
    958  OP2       11.2980  -24.5980   -0.6410 O.co2 238  A238       -0.5172
    959  P         14.2900  -29.3800    1.5240 P.3   239  U239        0.2141
    960  C5'       16.2660  -31.0180    1.0000 C.3   239  U239        0.1812
    961  O5'       15.8410  -29.7080    1.3450 O.3   239  U239       -0.3114
    962  C4'       17.6820  -31.0330    0.4790 C.3   239  U239        0.1773
    963  O4'       17.7600  -30.3600   -0.8080 O.3   239  U239       -0.3307
    964  C3'       18.7190  -30.3070    1.3140 C.3   239  U239        0.1860
    965  O3'       19.1140  -31.0030    2.4830 O.3   239  U239       -0.3112
    966  C2'       19.8380  -30.0880    0.3070 C.3   239  U239        0.2309
    967  O2'       20.5470  -31.2950    0.0700 O.3   239  U239       -0.2156
    968  C1'       19.0320  -29.7540   -0.9490 C.3   239  U239        0.2420
    969  N1        18.8660  -28.2890   -1.1100 N.ar  239  U239       -0.2534
    970  C2        19.9360  -27.5920   -1.6480 C.ar  239  U239        0.3546
    971  O2        20.9710  -28.1330   -1.9970 O.2   239  U239       -0.2443
    972  N3        19.7550  -26.2360   -1.7740 N.ar  239  U239       -0.1530
    973  C4        18.6350  -25.5150   -1.4150 C.ar  239  U239        0.2846
    974  O4        18.6270  -24.2940   -1.5880 O.2   239  U239       -0.2650
    975  C5        17.5720  -26.3020   -0.8570 C.ar  239  U239        0.0814
    976  C6        17.7220  -27.6270   -0.7240 C.ar  239  U239        0.0870
    977  OP1       13.7430  -30.2430    2.6040 O.3   239  U239       -0.4373
    978  OP2       14.1450  -27.9050    1.6360 O.co2 239  U239       -0.5172
    979  P         19.3440  -30.1830    3.8480 P.3   240  G240        0.2141
    980  C5'       21.9140  -30.1130    3.3600 C.3   240  G240        0.1812
    981  O5'       20.7110  -29.3980    3.5980 O.3   240  G240       -0.3114
    982  C4'       22.9490  -29.2980    2.6180 C.3   240  G240        0.1773
    983  O4'       22.3960  -28.7260    1.4040 O.3   240  G240       -0.3307
    984  C3'       23.5350  -28.0940    3.3290 C.3   240  G240        0.1860
    985  O3'       24.4600  -28.4250    4.3480 O.3   240  G240       -0.3112
    986  C2'       24.1490  -27.3190    2.1720 C.3   240  G240        0.2309
    987  O2'       25.3590  -27.9280    1.7450 O.3   240  G240       -0.2156
    988  C1'       23.0960  -27.5370    1.0850 C.3   240  G240        0.2408
    989  N1        22.5600  -22.6570   -0.1380 N.ar  240  G240       -0.1709
    990  C2        23.6610  -23.4770   -0.2300 C.ar  240  G240        0.2606
    991  N2        24.7750  -22.9100   -0.7180 N.pl3 240  G240       -0.0859
    992  N3        23.6710  -24.7510    0.1260 N.ar  240  G240       -0.1918
    993  C4        22.4650  -25.1450    0.5920 C.ar  240  G240        0.1723
    994  C5        21.3040  -24.4100    0.7260 C.ar  240  G240        0.1748
    995  C6        21.3080  -23.0420    0.3380 C.ar  240  G240        0.3023
    996  O6        20.3820  -22.2160    0.3770 O.2   240  G240       -0.2633
    997  N7        20.2870  -25.2010    1.2470 N.ar  240  G240       -0.2173
    998  C8        20.8360  -26.3750    1.4170 C.ar  240  G240        0.1817
    999  N9        22.1520  -26.4080    1.0310 N.ar  240  G240       -0.2693
   1000  OP1       19.5320  -31.1650    4.9480 O.3   240  G240       -0.4373
   1001  OP2       18.2600  -29.1710    3.9560 O.co2 240  G240       -0.5172
   1002  P         24.5890  -27.4780    5.6400 P.3   241  G241        0.2141
   1003  C5'       26.7190  -26.4900    4.4820 C.3   241  G241        0.1812
   1004  O5'       25.4820  -26.2570    5.1370 O.3   241  G241       -0.3114
   1005  C4'       27.2320  -25.2590    3.7740 C.3   241  G241        0.1773
   1006  O4'       26.3100  -24.8390    2.7370 O.3   241  G241       -0.3307
   1007  C3'       27.4060  -24.0120    4.6220 C.3   241  G241        0.1860
   1008  O3'       28.5780  -24.0450    5.4140 O.3   241  G241       -0.3112
   1009  C2'       27.4120  -22.9040    3.5750 C.3   241  G241        0.2309
   1010  O2'       28.6800  -22.8200    2.9420 O.3   241  G241       -0.2156
   1011  C1'       26.3980  -23.4370    2.5630 C.3   241  G241        0.2408
   1012  N1        23.5520  -19.2570    2.0350 N.ar  241  G241       -0.1709
   1013  C2        24.8760  -19.4570    1.7210 C.ar  241  G241        0.2606
   1014  N2        25.5180  -18.4010    1.1940 N.pl3 241  G241       -0.0859
   1015  N3        25.5160  -20.6050    1.9070 N.ar  241  G241       -0.1918
   1016  C4        24.7070  -21.5480    2.4420 C.ar  241  G241        0.1723
   1017  C5        23.3750  -21.4460    2.7920 C.ar  241  G241        0.1748
   1018  C6        22.7010  -20.2150    2.5880 C.ar  241  G241        0.3023
   1019  O6        21.5180  -19.9360    2.8370 O.2   241  G241       -0.2633
   1020  N7        22.9040  -22.6430    3.3110 N.ar  241  G241       -0.2173
   1021  C8        23.9410  -23.4370    3.2690 C.ar  241  G241        0.1817
   1022  N9        25.0640  -22.8380    2.7540 N.ar  241  G241       -0.2693
   1023  OP1       25.3440  -28.2260    6.6800 O.3   241  G241       -0.4373
   1024  OP2       23.2340  -26.9480    5.9490 O.co2 241  G241       -0.5172
   1025  P         28.5630  -23.4210    6.8930 P.3   242  C242        0.2141
   1026  C5'       29.2630  -21.0770    5.9440 C.3   242  C242        0.1812
   1027  O5'       28.3170  -21.8640    6.6530 O.3   242  C242       -0.3114
   1028  C4'       28.7080  -19.7190    5.5950 C.3   242  C242        0.1773
   1029  O4'       27.5410  -19.8580    4.7440 O.3   242  C242       -0.3307
   1030  C3'       28.2070  -18.8790    6.7570 C.3   242  C242        0.1860
   1031  O3'       29.2470  -18.2390    7.4720 O.3   242  C242       -0.3112
   1032  C2'       27.2600  -17.9090    6.0710 C.3   242  C242        0.2309
   1033  O2'       27.9940  -16.8860    5.4150 O.3   242  C242       -0.2156
   1034  C1'       26.6310  -18.8080    5.0070 C.3   242  C242        0.2420
   1035  N1        25.3460  -19.3880    5.4610 N.ar  242  C242       -0.2535
   1036  C2        24.2150  -18.5650    5.5240 C.ar  242  C242        0.3532
   1037  O2        24.3110  -17.3720    5.1990 O.2   242  C242       -0.2443
   1038  N3        23.0370  -19.0870    5.9370 N.ar  242  C242       -0.1739
   1039  C4        22.9610  -20.3750    6.2790 C.ar  242  C242        0.1759
   1040  N4        21.7790  -20.8500    6.6820 N.pl3 242  C242       -0.1070
   1041  C5        24.0930  -21.2390    6.2250 C.ar  242  C242        0.0566
   1042  C6        25.2520  -20.7070    5.8140 C.ar  242  C242        0.0850
   1043  OP1       29.9280  -23.5950    7.4570 O.2   242  C242       -0.5172
   1044  OP2       27.3770  -23.9680    7.6060 O.co2 242  C242       -0.4373
   1045  P         29.2530  -18.2780    9.0770 P.3   243  U243        0.2141
   1046  C5'       27.6650  -16.1890    9.1360 C.3   243  U243        0.1812
   1047  O5'       27.8980  -17.5450    9.4880 O.3   243  U243       -0.3114
   1048  C4'       26.4080  -15.6570    9.7770 C.3   243  U243        0.1773
   1049  O4'       25.2320  -16.1940    9.1200 O.3   243  U243       -0.3307
   1050  C3'       26.1980  -16.0150   11.2370 C.3   243  U243        0.1860
   1051  O3'       26.9850  -15.2240   12.1110 O.3   243  U243       -0.3112
   1052  C2'       24.6950  -15.8190   11.4090 C.3   243  U243        0.2309
   1053  O2'       24.3830  -14.4430   11.5580 O.3   243  U243       -0.2156
   1054  C1'       24.1680  -16.2820   10.0470 C.3   243  U243        0.2420
   1055  N1        23.6570  -17.6700   10.0770 N.ar  243  U243       -0.2534
   1056  C2        22.3630  -17.8530   10.5330 C.ar  243  U243        0.3546
   1057  O2        21.6520  -16.9380   10.9110 O.2   243  U243       -0.2443
   1058  N3        21.9250  -19.1530   10.5400 N.ar  243  U243       -0.1530
   1059  C4        22.6340  -20.2670   10.1400 C.ar  243  U243        0.2846
   1060  O4        22.0940  -21.3720   10.2070 O.2   243  U243       -0.2650
   1061  C5        23.9640  -20.0000    9.6790 C.ar  243  U243        0.0814
   1062  C6        24.4170  -18.7390    9.6630 C.ar  243  U243        0.0870
   1063  OP1       30.3940  -17.4580    9.5630 O.3   243  U243       -0.4373
   1064  OP2       29.1240  -19.7010    9.4840 O.co2 243  U243       -0.5172
   1065  P         27.5550  -15.8500   13.4780 P.3   244  A244        0.2141
   1066  C5'       26.2780  -16.8730   15.5410 C.3   244  A244        0.1812
   1067  O5'       26.2380  -16.1420   14.3240 O.3   244  A244       -0.3114
   1068  C4'       24.9980  -16.6800   16.3090 C.3   244  A244        0.1773
   1069  O4'       24.9190  -15.3090   16.7680 O.3   244  A244       -0.3307
   1070  C3'       23.7270  -16.8920   15.4990 C.3   244  A244        0.1860
   1071  O3'       23.3300  -18.2530   15.5050 O.3   244  A244       -0.3112
   1072  C2'       22.7090  -15.9690   16.1630 C.3   244  A244        0.2309
   1073  O2'       22.0730  -16.6200   17.2540 O.3   244  A244       -0.2156
   1074  C1'       23.5930  -14.8420   16.7050 C.3   244  A244        0.2408
   1075  N1        21.0380  -10.5290   15.4710 N.ar  244  A244       -0.2040
   1076  C2        20.7480  -11.5440   16.3000 C.ar  244  A244        0.2016
   1077  N3        21.4540  -12.6410   16.5700 N.ar  244  A244       -0.2048
   1078  C4        22.6010  -12.6460   15.8710 C.ar  244  A244        0.1692
   1079  C5        23.0410  -11.6770   14.9830 C.ar  244  A244        0.1518
   1080  C6        22.2020  -10.5630   14.7830 C.ar  244  A244        0.1919
   1081  N6        22.4860   -9.5500   13.9560 N.pl3 244  A244       -0.1054
   1082  N7        24.2760  -12.0270   14.4530 N.ar  244  A244       -0.2193
   1083  C8        24.5470  -13.1760   15.0250 C.ar  244  A244        0.1816
   1084  N9        23.5710  -13.6170   15.8840 N.ar  244  A244       -0.2693
   1085  OP1       28.3440  -14.7900   14.1600 O.3   244  A244       -0.4373
   1086  OP2       28.1940  -17.1560   13.1690 O.co2 244  A244       -0.5172
   1087  P         22.8730  -18.9850   14.1530 P.3   245  A245        0.2141
   1088  C5'       20.3390  -18.7180   14.7780 C.3   245  A245        0.1812
   1089  O5'       21.4060  -18.4180   13.8900 O.3   245  A245       -0.3114
   1090  C4'       19.1770  -17.7800   14.5690 C.3   245  A245        0.1773
   1091  O4'       19.5570  -16.4360   14.9510 O.3   245  A245       -0.3307
   1092  C3'       18.6940  -17.6350   13.1360 C.3   245  A245        0.1860
   1093  O3'       17.8430  -18.6940   12.7390 O.3   245  A245       -0.3112
   1094  C2'       18.0100  -16.2710   13.1500 C.3   245  A245        0.2309
   1095  O2'       16.7020  -16.3710   13.6910 O.3   245  A245       -0.2156
   1096  C1'       18.8820  -15.4960   14.1390 C.3   245  A245        0.2408
   1097  N1        19.8680  -10.8920   12.0030 N.ar  245  A245       -0.2040
   1098  C2        18.7550  -11.4210   12.5350 C.ar  245  A245        0.2016
   1099  N3        18.5620  -12.6250   13.0710 N.ar  245  A245       -0.2048
   1100  C4        19.6980  -13.3430   13.0300 C.ar  245  A245        0.1692
   1101  C5        20.9210  -12.9340   12.5200 C.ar  245  A245        0.1518
   1102  C6        20.9960  -11.6390   11.9780 C.ar  245  A245        0.1919
   1103  N6        22.1100  -11.1160   11.4490 N.pl3 245  A245       -0.1054
   1104  N7        21.8650  -13.9380   12.6500 N.ar  245  A245       -0.2193
   1105  C8        21.2020  -14.9130   13.2250 C.ar  245  A245        0.1816
   1106  N9        19.8830  -14.6280   13.4820 N.ar  245  A245       -0.2693
   1107  OP1       22.7590  -20.4390   14.4450 O.3   245  A245       -0.4373
   1108  OP2       23.7600  -18.5190   13.0540 O.co2 245  A245       -0.5172
   1109  P         17.9430  -19.3110   11.2580 P.3   246  U246        0.2141
   1110  C5'       15.6290  -18.1680   10.8810 C.3   246  U246        0.1812
   1111  O5'       16.9450  -18.4110   10.4130 O.3   246  U246       -0.3114
   1112  C4'       15.0710  -16.9000   10.2930 C.3   246  U246        0.1773
   1113  O4'       15.7190  -15.7470   10.8900 O.3   246  U246       -0.3307
   1114  C3'       15.2940  -16.7040    8.8060 C.3   246  U246        0.1860
   1115  O3'       14.4040  -17.4600    8.0060 O.3   246  U246       -0.3112
   1116  C2'       15.1360  -15.1990    8.6510 C.3   246  U246        0.2309
   1117  O2'       13.7620  -14.8450    8.6640 O.3   246  U246       -0.2156
   1118  C1'       15.7710  -14.6940    9.9490 C.3   246  U246        0.2420
   1119  N1        17.1790  -14.2700    9.7630 N.ar  246  U246       -0.2534
   1120  C2        17.3760  -12.9800    9.3160 C.ar  246  U246        0.3546
   1121  O2        16.4540  -12.2220    9.0840 O.2   246  U246       -0.2443
   1122  N3        18.6840  -12.6050    9.1530 N.ar  246  U246       -0.1530
   1123  C4        19.8010  -13.3790    9.3860 C.ar  246  U246        0.2846
   1124  O4        20.9160  -12.8950    9.1880 O.2   246  U246       -0.2650
   1125  C5        19.5240  -14.7070    9.8460 C.ar  246  U246        0.0814
   1126  C6        18.2520  -15.0950   10.0100 C.ar  246  U246        0.0870
   1127  OP1       17.3790  -20.6850   11.3050 O.3   246  U246       -0.4373
   1128  OP2       19.3150  -19.0830   10.7310 O.co2 246  U246       -0.5172
   1129  P         14.7230  -17.6920    6.4490 P.3   247  C247        0.2141
   1130  C5'       14.5070  -15.8950    4.5690 C.3   247  C247        0.1812
   1131  O5'       13.9710  -16.4850    5.7400 O.3   247  C247       -0.3114
   1132  C4'       14.3030  -14.4030    4.5570 C.3   247  C247        0.1773
   1133  O4'       14.9330  -13.8110    5.7250 O.3   247  C247       -0.3307
   1134  C3'       14.9360  -13.6740    3.3830 C.3   247  C247        0.1860
   1135  O3'       14.1380  -13.7180    2.2140 O.3   247  C247       -0.3112
   1136  C2'       15.1490  -12.2750    3.9340 C.3   247  C247        0.2309
   1137  O2'       13.9260  -11.5560    3.9560 O.3   247  C247       -0.2156
   1138  C1'       15.5400  -12.5850    5.3770 C.3   247  C247        0.2420
   1139  N1        17.0020  -12.7460    5.5470 N.ar  247  C247       -0.2535
   1140  C2        17.8840  -11.6760    5.3410 C.ar  247  C247        0.3532
   1141  O2        17.4520  -10.5650    4.9930 O.2   247  C247       -0.2443
   1142  N3        19.2100  -11.8820    5.5190 N.ar  247  C247       -0.1739
   1143  C4        19.6600  -13.0820    5.8930 C.ar  247  C247        0.1759
   1144  N4        20.9740  -13.2320    6.0570 N.pl3 247  C247       -0.1070
   1145  C5        18.7870  -14.1850    6.1170 C.ar  247  C247        0.0566
   1146  C6        17.4820  -13.9680    5.9340 C.ar  247  C247        0.0850
   1147  OP1       14.0830  -18.9650    6.0250 O.2   247  C247       -0.5172
   1148  OP2       16.1830  -17.5030    6.2380 O.co2 247  C247       -0.4373
   1149  P         14.6220  -14.5790    0.9470 P.3   248  A248        0.2141
   1150  C5'       15.7070  -12.3440    0.1190 C.3   248  A248        0.1812
   1151  O5'       15.8410  -13.7360    0.3600 O.3   248  A248       -0.3114
   1152  C4'       17.0120  -11.6120    0.3070 C.3   248  A248        0.1773
   1153  O4'       17.4850  -11.7550    1.6720 O.3   248  A248       -0.3307
   1154  C3'       18.1840  -12.0940   -0.5280 C.3   248  A248        0.1860
   1155  O3'       18.1300  -11.6490   -1.8720 O.3   248  A248       -0.3112
   1156  C2'       19.3790  -11.5560    0.2490 C.3   248  A248        0.2309
   1157  O2'       19.5630  -10.1720   -0.0030 O.3   248  A248       -0.2156
   1158  C1'       18.8990  -11.7200    1.6920 C.3   248  A248        0.2408
   1159  N1        23.0930  -14.1560    3.3500 N.ar  248  A248       -0.2040
   1160  C2        22.9050  -12.9390    2.8220 C.ar  248  A248        0.2016
   1161  N3        21.7710  -12.3750    2.4130 N.ar  248  A248       -0.2048
   1162  C4        20.7290  -13.2090    2.5930 C.ar  248  A248        0.1692
   1163  C5        20.7620  -14.4870    3.1220 C.ar  248  A248        0.1518
   1164  C6        22.0230  -14.9700    3.5180 C.ar  248  A248        0.1919
   1165  N6        22.2160  -16.1820    4.0470 N.pl3 248  A248       -0.1054
   1166  N7        19.4870  -15.0430    3.1500 N.ar  248  A248       -0.2193
   1167  C8        18.7220  -14.1010    2.6450 C.ar  248  A248        0.1816
   1168  N9        19.4100  -12.9660    2.2900 N.ar  248  A248       -0.2693
   1169  OP1       13.5120  -14.5860   -0.0420 O.2   248  A248       -0.5172
   1170  OP2       15.1720  -15.8700    1.4370 O.co2 248  A248       -0.4373
   1171  P         18.6320  -12.6070   -3.0620 P.3   249  C249        0.2141
   1172  C5'       21.1310  -11.8210   -2.9070 C.3   249  C249        0.1812
   1173  O5'       20.1720  -12.8570   -2.7400 O.3   249  C249       -0.3114
   1174  C4'       22.5070  -12.2790   -2.4970 C.3   249  C249        0.1773
   1175  O4'       22.5080  -12.6000   -1.0800 O.3   249  C249       -0.3307
   1176  C3'       23.0020  -13.5510   -3.1630 C.3   249  C249        0.1860
   1177  O3'       23.5390  -13.3290   -4.4560 O.3   249  C249       -0.3112
   1178  C2'       24.0130  -14.0840   -2.1550 C.3   249  C249        0.2309
   1179  O2'       25.2420  -13.3770   -2.2460 O.3   249  C249       -0.2156
   1180  C1'       23.3390  -13.7140   -0.8360 C.3   249  C249        0.2420
   1181  N1        22.4990  -14.8160   -0.3200 N.ar  249  C249       -0.2535
   1182  C2        23.1170  -15.8960    0.3190 C.ar  249  C249        0.3532
   1183  O2        24.3510  -15.9000    0.4370 O.2   249  C249       -0.2443
   1184  N3        22.3530  -16.9080    0.7920 N.ar  249  C249       -0.1739
   1185  C4        21.0240  -16.8670    0.6470 C.ar  249  C249        0.1759
   1186  N4        20.3090  -17.8860    1.1290 N.pl3 249  C249       -0.1070
   1187  C5        20.3660  -15.7800   -0.0010 C.ar  249  C249        0.0566
   1188  C6        21.1380  -14.7880   -0.4620 C.ar  249  C249        0.0850
   1189  OP1       18.5540  -11.8240   -4.3220 O.2   249  C249       -0.5172
   1190  OP2       17.9260  -13.9100   -2.9520 O.co2 249  C249       -0.4373
   1191  P         23.2760  -14.3890   -5.6370 P.3   250  C250        0.2141
   1192  C5'       25.6510  -15.3080   -5.0100 C.3   250  C250        0.1812
   1193  O5'       24.2930  -15.5740   -5.3240 O.3   250  C250       -0.3114
   1194  C4'       26.2870  -16.4720   -4.2920 C.3   250  C250        0.1773
   1195  O4'       25.6540  -16.6800   -3.0040 O.3   250  C250       -0.3307
   1196  C3'       26.1660  -17.8220   -4.9750 C.3   250  C250        0.1860
   1197  O3'       27.1020  -17.9830   -6.0240 O.3   250  C250       -0.3112
   1198  C2'       26.3740  -18.7970   -3.8230 C.3   250  C250        0.2309
   1199  O2'       27.7560  -18.9390   -3.5350 O.3   250  C250       -0.2156
   1200  C1'       25.7140  -18.0500   -2.6600 C.3   250  C250        0.2420
   1201  N1        24.3520  -18.5490   -2.3590 N.ar  250  C250       -0.2535
   1202  C2        24.2340  -19.7210   -1.6010 C.ar  250  C250        0.3532
   1203  O2        25.2610  -20.2990   -1.2200 O.2   250  C250       -0.2443
   1204  N3        23.0080  -20.2020   -1.2990 N.ar  250  C250       -0.1739
   1205  C4        21.9210  -19.5570   -1.7250 C.ar  250  C250        0.1759
   1206  N4        20.7330  -20.0730   -1.4040 N.pl3 250  C250       -0.1070
   1207  C5        22.0040  -18.3580   -2.4970 C.ar  250  C250        0.0566
   1208  C6        23.2290  -17.8950   -2.7880 C.ar  250  C250        0.0850
   1209  OP1       23.6700  -13.7520   -6.9230 O.2   250  C250       -0.5172
   1210  OP2       21.9050  -14.9400   -5.4670 O.co2 250  C250       -0.4373
   1211  P         26.7010  -18.8070   -7.3430 P.3   251  A251        0.2141
   1212  C5'       28.0190  -20.8260   -6.3010 C.3   251  A251        0.1812
   1213  O5'       26.8270  -20.3310   -6.8930 O.3   251  A251       -0.3114
   1214  C4'       27.8630  -22.2710   -5.9000 C.3   251  A251        0.1773
   1215  O4'       27.1880  -22.3650   -4.6180 O.3   251  A251       -0.3307
   1216  C3'       27.0090  -23.1190   -6.8250 C.3   251  A251        0.1860
   1217  O3'       27.7060  -23.5550   -7.9780 O.3   251  A251       -0.3112
   1218  C2'       26.5570  -24.2510   -5.9150 C.3   251  A251        0.2309
   1219  O2'       27.6030  -25.1950   -5.7420 O.3   251  A251       -0.2156
   1220  C1'       26.3590  -23.5100   -4.5940 C.3   251  A251        0.2408
   1221  N1        21.6570  -24.7300   -2.8240 N.ar  251  A251       -0.2040
   1222  C2        22.8100  -25.4130   -2.8630 C.ar  251  A251        0.2016
   1223  N3        23.9980  -25.0370   -3.3370 N.ar  251  A251       -0.2048
   1224  C4        23.9410  -23.7890   -3.8320 C.ar  251  A251        0.1692
   1225  C5        22.8320  -22.9600   -3.8650 C.ar  251  A251        0.1518
   1226  C6        21.6330  -23.4740   -3.3270 C.ar  251  A251        0.1919
   1227  N6        20.4820  -22.7980   -3.2870 N.pl3 251  A251       -0.1054
   1228  N7        23.1510  -21.7400   -4.4510 N.ar  251  A251       -0.2193
   1229  C8        24.4230  -21.8570   -4.7500 C.ar  251  A251        0.1816
   1230  N9        24.9640  -23.0700   -4.4040 N.ar  251  A251       -0.2693
   1231  OP1       27.7370  -18.5360   -8.3780 O.2   251  A251       -0.5172
   1232  OP2       25.2660  -18.5400   -7.6330 O.co2 251  A251       -0.4373
   1233  P         26.9180  -23.7650   -9.3610 P.3   252  U252        0.2141
   1234  C5'       26.8230  -26.3290   -8.8600 C.3   252  U252        0.1812
   1235  O5'       26.1220  -25.1270   -9.1380 O.3   252  U252       -0.3114
   1236  C4'       25.8990  -27.4280   -8.4000 C.3   252  U252        0.1773
   1237  O4'       25.3770  -27.1320   -7.0750 O.3   252  U252       -0.3307
   1238  C3'       24.6460  -27.6500   -9.2250 C.3   252  U252        0.1860
   1239  O3'       24.8690  -28.3160  -10.4540 O.3   252  U252       -0.3112
   1240  C2'       23.7600  -28.4090   -8.2500 C.3   252  U252        0.2309
   1241  O2'       24.1990  -29.7520   -8.1160 O.3   252  U252       -0.2156
   1242  C1'       24.0740  -27.6720   -6.9500 C.3   252  U252        0.2420
   1243  N1        23.1130  -26.5700   -6.7370 N.ar  252  U252       -0.2534
   1244  C2        21.8990  -26.9180   -6.1820 C.ar  252  U252        0.3546
   1245  O2        21.6280  -28.0590   -5.8510 O.2   252  U252       -0.2443
   1246  N3        21.0180  -25.8790   -6.0160 N.ar  252  U252       -0.1530
   1247  C4        21.2290  -24.5570   -6.3590 C.ar  252  U252        0.2846
   1248  O4        20.3380  -23.7310   -6.1490 O.2   252  U252       -0.2650
   1249  C5        22.5090  -24.2790   -6.9400 C.ar  252  U252        0.0814
   1250  C6        23.3830  -25.2750   -7.1100 C.ar  252  U252        0.0870
   1251  OP1       27.9390  -23.9870  -10.4180 O.2   252  U252       -0.5172
   1252  OP2       25.9230  -22.6680   -9.5100 O.co2 252  U252       -0.4373
   1253  P         23.9490  -27.9540  -11.7220 P.3   253  G253        0.2141
   1254  C5'       22.5530  -30.1120  -11.2140 C.3   253  G253        0.1812
   1255  O5'       22.5770  -28.7090  -11.4220 O.3   253  G253       -0.3114
   1256  C4'       21.2770  -30.5600  -10.5420 C.3   253  G253        0.1773
   1257  O4'       21.0970  -29.8640   -9.2840 O.3   253  G253       -0.3307
   1258  C3'       19.9810  -30.2940  -11.2870 C.3   253  G253        0.1860
   1259  O3'       19.7400  -31.2220  -12.3310 O.3   253  G253       -0.3112
   1260  C2'       18.9490  -30.3610  -10.1710 C.3   253  G253        0.2309
   1261  O2'       18.6780  -31.7100   -9.8280 O.3   253  G253       -0.2156
   1262  C1'       19.7170  -29.7220   -9.0140 C.3   253  G253        0.2408
   1263  N1        16.1730  -26.3720   -7.6060 N.ar  253  G253       -0.1709
   1264  C2        16.1280  -27.7460   -7.6250 C.ar  253  G253        0.2606
   1265  N2        14.9790  -28.3000   -7.2090 N.pl3 253  G253       -0.0859
   1266  N3        17.1320  -28.5150   -8.0200 N.ar  253  G253       -0.1918
   1267  C4        18.2030  -27.7860   -8.4000 C.ar  253  G253        0.1723
   1268  C5        18.3500  -26.4140   -8.4220 C.ar  253  G253        0.1748
   1269  C6        17.2650  -25.6000   -7.9950 C.ar  253  G253        0.3023
   1270  O6        17.1970  -24.3630   -7.9390 O.2   253  G253       -0.2633
   1271  N7        19.6120  -26.0660   -8.8860 N.ar  253  G253       -0.2173
   1272  C8        20.1950  -27.2080   -9.1330 C.ar  253  G253        0.1817
   1273  N9        19.3950  -28.2910   -8.8610 N.ar  253  G253       -0.2693
   1274  OP1       24.5740  -28.5430  -12.9370 O.2   253  G253       -0.5172
   1275  OP2       23.6650  -26.4940  -11.6760 O.co2 253  G253       -0.4373
   1276  P         18.7440  -30.8460  -13.5380 P.3   254  A254        0.2141
   1277  C5'       16.6990  -32.1750  -12.5550 C.3   254  A254        0.1812
   1278  O5'       17.2910  -30.9260  -12.8840 O.3   254  A254       -0.3114
   1279  C4'       15.2800  -31.9960  -12.0790 C.3   254  A254        0.1773
   1280  O4'       15.2670  -31.2090  -10.8590 O.3   254  A254       -0.3307
   1281  C3'       14.3620  -31.2330  -13.0200 C.3   254  A254        0.1860
   1282  O3'       13.8390  -32.0450  -14.0530 O.3   254  A254       -0.3112
   1283  C2'       13.3000  -30.6820  -12.0790 C.3   254  A254        0.2309
   1284  O2'       12.3660  -31.6950  -11.7360 O.3   254  A254       -0.2156
   1285  C1'       14.1360  -30.3620  -10.8410 C.3   254  A254        0.2408
   1286  N1        12.9790  -25.4030   -9.8870 N.ar  254  A254       -0.2040
   1287  C2        12.2540  -26.5280   -9.7920 C.ar  254  A254        0.2016
   1288  N3        12.6110  -27.7840  -10.0560 N.ar  254  A254       -0.2048
   1289  C4        13.8910  -27.8410  -10.4670 C.ar  254  A254        0.1692
   1290  C5        14.7620  -26.7710  -10.6130 C.ar  254  A254        0.1518
   1291  C6        14.2630  -25.4910  -10.3020 C.ar  254  A254        0.1919
   1292  N6        14.9840  -24.3690  -10.3930 N.pl3 254  A254       -0.1054
   1293  N7        16.0030  -27.2070  -11.0570 N.ar  254  A254       -0.2193
   1294  C8        15.8570  -28.5070  -11.1670 C.ar  254  A254        0.1816
   1295  N9        14.6060  -28.9610  -10.8290 N.ar  254  A254       -0.2693
   1296  OP1       18.8390  -31.9250  -14.5570 O.2   254  A254       -0.5172
   1297  OP2       18.9970  -29.4330  -13.9330 O.co2 254  A254       -0.4373
   1298  P         13.7200  -31.4750  -15.5510 P.3   255  U255        0.2141
   1299  C5'       11.1230  -31.2660  -15.1900 C.3   255  U255        0.1812
   1300  O5'       12.3530  -30.6520  -15.5450 O.3   255  U255       -0.3114
   1301  C4'       10.0450  -30.2400  -14.9420 C.3   255  U255        0.1773
   1302  O4'       10.3350  -29.5110  -13.7180 O.3   255  U255       -0.3307
   1303  C3'        9.9070  -29.1460  -15.9870 C.3   255  U255        0.1860
   1304  O3'        9.2050  -29.5460  -17.1490 O.3   255  U255       -0.3112
   1305  C2'        9.2250  -28.0320  -15.2050 C.3   255  U255        0.2309
   1306  O2'        7.8440  -28.3150  -15.0330 O.3   255  U255       -0.2156
   1307  C1'        9.9150  -28.1670  -13.8490 C.3   255  U255        0.2420
   1308  N1        11.1050  -27.2900  -13.7580 N.ar  255  U255       -0.2534
   1309  C2        10.9030  -25.9900  -13.3520 C.ar  255  U255        0.3546
   1310  O2         9.8020  -25.5610  -13.0610 O.2   255  U255       -0.2443
   1311  N3        12.0370  -25.2170  -13.2920 N.ar  255  U255       -0.1530
   1312  C4        13.3290  -25.6040  -13.5970 C.ar  255  U255        0.2846
   1313  O4        14.2550  -24.7950  -13.4960 O.2   255  U255       -0.2650
   1314  C5        13.4580  -26.9660  -14.0160 C.ar  255  U255        0.0814
   1315  C6        12.3680  -27.7370  -14.0790 C.ar  255  U255        0.0870
   1316  OP1       13.5850  -32.6370  -16.4730 O.2   255  U255       -0.5172
   1317  OP2       14.8160  -30.4940  -15.7480 O.co2 255  U255       -0.4373
   1318  P          9.5790  -28.8820  -18.5650 P.3   256  G256        0.2141
   1319  C5'        7.6060  -27.1620  -18.4610 C.3   256  G256        0.1812
   1320  O5'        9.0050  -27.3990  -18.4500 O.3   256  G256       -0.3114
   1321  C4'        7.2770  -25.6910  -18.3730 C.3   256  G256        0.1773
   1322  O4'        7.7090  -25.1580  -17.0920 O.3   256  G256       -0.3307
   1323  C3'        7.9420  -24.7720  -19.3860 C.3   256  G256        0.1860
   1324  O3'        7.3410  -24.8050  -20.6700 O.3   256  G256       -0.3112
   1325  C2'        7.8370  -23.4170  -18.7030 C.3   256  G256        0.2309
   1326  O2'        6.5210  -22.9000  -18.8110 O.3   256  G256       -0.2156
   1327  C1'        8.0810  -23.8030  -17.2450 C.3   256  G256        0.2408
   1328  N1        11.6640  -20.5430  -15.8210 N.ar  256  G256       -0.1709
   1329  C2        10.3210  -20.3390  -16.0460 C.ar  256  G256        0.2606
   1330  N2         9.8750  -19.0860  -15.8700 N.pl3 256  G256       -0.0859
   1331  N3         9.4790  -21.2890  -16.4170 N.ar  256  G256       -0.1918
   1332  C4        10.1060  -22.4770  -16.5470 C.ar  256  G256        0.1723
   1333  C5        11.4340  -22.7920  -16.3470 C.ar  256  G256        0.1748
   1334  C6        12.3270  -21.7630  -15.9470 C.ar  256  G256        0.3023
   1335  O6        13.5450  -21.8390  -15.7210 O.2   256  G256       -0.2633
   1336  N7        11.6620  -24.1410  -16.5900 N.ar  256  G256       -0.2173
   1337  C8        10.4890  -24.6120  -16.9250 C.ar  256  G256        0.1817
   1338  N9         9.5050  -23.6550  -16.9050 N.ar  256  G256       -0.2693
   1339  OP1        8.8290  -29.6010  -19.6280 O.2   256  G256       -0.5172
   1340  OP2       11.0600  -28.7940  -18.6600 O.co2 256  G256       -0.4373
   1341  P          8.2490  -24.7370  -21.9980 P.3   257  C257        0.2141
   1342  C5'        7.7460  -22.1880  -22.3260 C.3   257  C257        0.1812
   1343  O5'        8.6990  -23.2120  -22.0900 O.3   257  C257       -0.3114
   1344  C4'        8.2640  -20.8350  -21.9050 C.3   257  C257        0.1773
   1345  O4'        8.6220  -20.8500  -20.4940 O.3   257  C257       -0.3307
   1346  C3'        9.5330  -20.3530  -22.5830 C.3   257  C257        0.1860
   1347  O3'        9.3430  -19.8780  -23.9020 O.3   257  C257       -0.3112
   1348  C2'       10.0260  -19.2990  -21.6050 C.3   257  C257        0.2309
   1349  O2'        9.2210  -18.1330  -21.6820 O.3   257  C257       -0.2156
   1350  C1'        9.7260  -19.9890  -20.2780 C.3   257  C257        0.2420
   1351  N1        10.8870  -20.7940  -19.8370 N.ar  257  C257       -0.2535
   1352  C2        11.9620  -20.1200  -19.2510 C.ar  257  C257        0.3532
   1353  O2        11.9030  -18.8950  -19.0970 O.2   257  C257       -0.2443
   1354  N3        13.0450  -20.8160  -18.8540 N.ar  257  C257       -0.1739
   1355  C4        13.0910  -22.1340  -19.0300 C.ar  257  C257        0.1759
   1356  N4        14.1880  -22.7640  -18.6130 N.pl3 257  C257       -0.1070
   1357  C5        12.0190  -22.8560  -19.6310 C.ar  257  C257        0.0566
   1358  C6        10.9490  -22.1500  -20.0210 C.ar  257  C257        0.0850
   1359  OP1        7.3560  -25.0230  -23.1550 O.2   257  C257       -0.5172
   1360  OP2        9.4800  -25.5470  -21.7830 O.co2 257  C257       -0.4373
   1361  P         10.4340  -20.2220  -25.0330 P.3   258  A258        0.2141
   1362  C5'       11.6780  -17.9580  -24.5620 C.3   258  A258        0.1812
   1363  O5'       11.7180  -19.3760  -24.6120 O.3   258  A258       -0.3114
   1364  C4'       12.8750  -17.3980  -23.8350 C.3   258  A258        0.1773
   1365  O4'       12.9800  -18.0060  -22.5210 O.3   258  A258       -0.3307
   1366  C3'       14.2310  -17.6580  -24.4720 C.3   258  A258        0.1860
   1367  O3'       14.5310  -16.7500  -25.5200 O.3   258  A258       -0.3112
   1368  C2'       15.1800  -17.5450  -23.2860 C.3   258  A258        0.2309
   1369  O2'       15.4300  -16.1840  -22.9720 O.3   258  A258       -0.2156
   1370  C1'       14.3390  -18.1430  -22.1610 C.3   258  A258        0.2408
   1371  N1        17.6340  -21.6050  -20.2570 N.ar  258  A258       -0.2040
   1372  C2        17.6530  -20.2630  -20.2780 C.ar  258  A258        0.2016
   1373  N3        16.7570  -19.4200  -20.7920 N.ar  258  A258       -0.2048
   1374  C4        15.7330  -20.0980  -21.3430 C.ar  258  A258        0.1692
   1375  C5        15.5730  -21.4710  -21.4030 C.ar  258  A258        0.1518
   1376  C6        16.5880  -22.2540  -20.8230 C.ar  258  A258        0.1919
   1377  N6        16.5740  -23.5920  -20.8020 N.pl3 258  A258       -0.1054
   1378  N7        14.3880  -21.8020  -22.0500 N.ar  258  A258       -0.2193
   1379  C8        13.8670  -20.6410  -22.3640 C.ar  258  A258        0.1816
   1380  N9        14.6280  -19.5720  -21.9630 N.ar  258  A258       -0.2693
   1381  OP1        9.9300  -19.7020  -26.3330 O.2   258  A258       -0.5172
   1382  OP2       10.7960  -21.6560  -24.8940 O.co2 258  A258       -0.4373
   1383  P         15.3670  -17.2310  -26.8060 P.3   259  A259        0.2141
   1384  C5'       17.1850  -15.3380  -26.5800 C.3   259  A259        0.1812
   1385  O5'       16.1050  -15.9100  -27.3110 O.3   259  A259       -0.3114
   1386  C4'       16.7180  -14.2120  -25.6910 C.3   259  A259        0.1773
   1387  O4'       17.2900  -14.3930  -24.3690 O.3   259  A259       -0.3307
   1388  C3'       17.1040  -12.7960  -26.1320 C.3   259  A259        0.1860
   1389  O3'       16.0900  -11.8720  -25.7240 O.3   259  A259       -0.3112
   1390  C2'       18.3520  -12.5260  -25.3010 C.3   259  A259        0.2309
   1391  O2'       18.6200  -11.1560  -25.0920 O.3   259  A259       -0.2156
   1392  C1'       17.9950  -13.2270  -23.9940 C.3   259  A259        0.2408
   1393  N1        19.9600  -13.3450  -19.2440 N.ar  259  A259       -0.2040
   1394  C2        18.8050  -12.8680  -19.7260 C.ar  259  A259        0.2016
   1395  N3        18.3600  -12.8740  -20.9810 N.ar  259  A259       -0.2048
   1396  C4        19.2540  -13.4480  -21.8100 C.ar  259  A259        0.1692
   1397  C5        20.4810  -13.9860  -21.4620 C.ar  259  A259        0.1518
   1398  C6        20.8380  -13.9230  -20.1000 C.ar  259  A259        0.1919
   1399  N6        21.9900  -14.3980  -19.6150 N.pl3 259  A259       -0.1054
   1400  N7        21.1260  -14.4990  -22.5830 N.ar  259  A259       -0.2193
   1401  C8        20.2890  -14.2640  -23.5660 C.ar  259  A259        0.1816
   1402  N9        19.1380  -13.6280  -23.1700 N.ar  259  A259       -0.2693
   1403  OP1       14.3840  -17.5970  -27.8590 O.2   259  A259       -0.5172
   1404  OP2       16.3940  -18.2140  -26.3770 O.co2 259  A259       -0.4373
   1405  P         14.7610  -11.6270  -26.5980 P.3   260  U260        0.2141
   1406  C5'       13.3220  -13.2970  -25.1660 C.3   260  U260        0.1812
   1407  O5'       13.5790  -11.9650  -25.5830 O.3   260  U260       -0.3114
   1408  C4'       13.7630  -13.5420  -23.7410 C.3   260  U260        0.1773
   1409  O4'       14.7080  -12.5240  -23.3080 O.3   260  U260       -0.3307
   1410  C3'       12.6830  -13.4990  -22.6730 C.3   260  U260        0.1860
   1411  O3'       11.8920  -14.6710  -22.6290 O.3   260  U260       -0.3112
   1412  C2'       13.4970  -13.2760  -21.4090 C.3   260  U260        0.2309
   1413  O2'       14.1420  -14.4780  -21.0180 O.3   260  U260       -0.2156
   1414  C1'       14.5660  -12.3090  -21.9160 C.3   260  U260        0.2420
   1415  N1        14.1780  -10.9010  -21.6720 N.ar  260  U260       -0.2534
   1416  C2        14.2660  -10.4410  -20.3730 C.ar  260  U260        0.3546
   1417  O2        14.6530  -11.1280  -19.4450 O.2   260  U260       -0.2443
   1418  N3        13.8910   -9.1360  -20.1910 N.ar  260  U260       -0.1530
   1419  C4        13.4400   -8.2600  -21.1540 C.ar  260  U260        0.2846
   1420  O4        13.1400   -7.1100  -20.8310 O.2   260  U260       -0.2650
   1421  C5        13.3700   -8.8070  -22.4740 C.ar  260  U260        0.0814
   1422  C6        13.7310  -10.0790  -22.6790 C.ar  260  U260        0.0870
   1423  OP1       14.7240  -12.5800  -27.7330 O.2   260  U260       -0.5172
   1424  OP2       14.6390  -10.1710  -26.8650 O.co2 260  U260       -0.4373
   1425  P         10.3540  -14.5890  -22.1730 P.3   261  C261        0.2141
   1426  C5'       11.0260  -15.9740  -20.0590 C.3   261  C261        0.1812
   1427  O5'       10.4050  -14.8200  -20.6000 O.3   261  C261       -0.3114
   1428  C4'       11.1490  -15.8750  -18.5630 C.3   261  C261        0.1773
   1429  O4'       12.1960  -14.9300  -18.2110 O.3   261  C261       -0.3307
   1430  C3'        9.9360  -15.3430  -17.8280 C.3   261  C261        0.1860
   1431  O3'        8.8940  -16.2860  -17.6790 O.3   261  C261       -0.3112
   1432  C2'       10.5430  -14.8780  -16.5160 C.3   261  C261        0.2309
   1433  O2'       10.8610  -15.9950  -15.6990 O.3   261  C261       -0.2156
   1434  C1'       11.8490  -14.2650  -17.0120 C.3   261  C261        0.2420
   1435  N1        11.6840  -12.8210  -17.2900 N.ar  261  C261       -0.2535
   1436  C2        11.8350  -11.9310  -16.2230 C.ar  261  C261        0.3532
   1437  O2        12.1170  -12.3790  -15.1020 O.2   261  C261       -0.2443
   1438  N3        11.6820  -10.6050  -16.4370 N.ar  261  C261       -0.1739
   1439  C4        11.3800  -10.1590  -17.6600 C.ar  261  C261        0.1759
   1440  N4        11.2360   -8.8440  -17.8290 N.pl3 261  C261       -0.1070
   1441  C5        11.2120  -11.0400  -18.7670 C.ar  261  C261        0.0566
   1442  C6        11.3700  -12.3490  -18.5360 C.ar  261  C261        0.0850
   1443  OP1        9.6490  -15.7370  -22.8080 O.2   261  C261       -0.5172
   1444  OP2        9.8620  -13.2020  -22.3890 O.co2 261  C261       -0.4373
   1445  P          7.3730  -15.7740  -17.6210 P.3   262  G262        0.2141
   1446  C5'        7.5410  -15.8010  -15.0110 C.3   262  G262        0.1812
   1447  O5'        7.2540  -15.0780  -16.1950 O.3   262  G262       -0.3114
   1448  C4'        7.5530  -14.8980  -13.8080 C.3   262  G262        0.1773
   1449  O4'        8.6640  -13.9640  -13.8870 O.3   262  G262       -0.3307
   1450  C3'        6.3500  -13.9920  -13.6430 C.3   262  G262        0.1860
   1451  O3'        5.1930  -14.6550  -13.1710 O.3   262  G262       -0.3112
   1452  C2'        6.8890  -12.9270  -12.7040 C.3   262  G262        0.2309
   1453  O2'        6.9980  -13.4400  -11.3860 O.3   262  G262       -0.2156
   1454  C1'        8.2980  -12.7430  -13.2680 C.3   262  G262        0.2408
   1455  N1         8.1840   -7.7310  -13.9080 N.ar  262  G262       -0.1709
   1456  C2         8.1760   -8.4860  -12.7610 C.ar  262  G262        0.2606
   1457  N2         8.1270   -7.8030  -11.6120 N.pl3 262  G262       -0.0859
   1458  N3         8.2120   -9.8070  -12.7360 N.ar  262  G262       -0.1918
   1459  C4         8.2590  -10.3230  -13.9790 C.ar  262  G262        0.1723
   1460  C5         8.2720   -9.6630  -15.1940 C.ar  262  G262        0.1748
   1461  C6         8.2310   -8.2390  -15.2010 C.ar  262  G262        0.3023
   1462  O6         8.2340   -7.4530  -16.1600 O.2   262  G262       -0.2633
   1463  N7         8.3250  -10.5800  -16.2380 N.ar  262  G262       -0.2173
   1464  C8         8.3430  -11.7490  -15.6440 C.ar  262  G262        0.1817
   1465  N9         8.3170  -11.6610  -14.2720 N.ar  262  G262       -0.2693
   1466  OP1        6.4720  -16.9590  -17.6450 O.3   262  G262       -0.4373
   1467  OP2        7.2220  -14.6970  -18.6370 O.co2 262  G262       -0.5172
   1468  P          3.7460  -14.1540  -13.6550 P.3   263  G263        0.2141
   1469  C5'        3.5030  -12.8840  -11.3800 C.3   263  G263        0.1812
   1470  O5'        3.4980  -12.8340  -12.7960 O.3   263  G263       -0.3114
   1471  C4'        3.5660  -11.5090  -10.7620 C.3   263  G263        0.1773
   1472  O4'        4.7920  -10.8290  -11.1510 O.3   263  G263       -0.3307
   1473  C3'        2.4810  -10.5270  -11.1640 C.3   263  G263        0.1860
   1474  O3'        1.2280  -10.7650  -10.5500 O.3   263  G263       -0.3112
   1475  C2'        3.1120   -9.2000  -10.7790 C.3   263  G263        0.2309
   1476  O2'        3.1040   -9.0400   -9.3700 O.3   263  G263       -0.2156
   1477  C1'        4.5520   -9.4350  -11.2260 C.3   263  G263        0.2408
   1478  N1         4.7640   -5.4220  -14.2770 N.ar  263  G263       -0.1709
   1479  C2         4.6110   -5.4880  -12.9150 C.ar  263  G263        0.2606
   1480  N2         4.4940   -4.3130  -12.2810 N.pl3 263  G263       -0.0859
   1481  N3         4.5730   -6.6170  -12.2300 N.ar  263  G263       -0.1918
   1482  C4         4.7080   -7.6900  -13.0360 C.ar  263  G263        0.1723
   1483  C5         4.8660   -7.7360  -14.4040 C.ar  263  G263        0.1748
   1484  C6         4.9020   -6.5150  -15.1260 C.ar  263  G263        0.3023
   1485  O6         5.0360   -6.3340  -16.3450 O.2   263  G263       -0.2633
   1486  N7         4.9650   -9.0510  -14.8420 N.ar  263  G263       -0.2173
   1487  C8         4.8650   -9.7620  -13.7500 C.ar  263  G263        0.1817
   1488  N9         4.7200   -8.9960  -12.6200 N.ar  263  G263       -0.2693
   1489  OP1        2.7510  -15.1900  -13.2640 O.3   263  G263       -0.4373
   1490  OP2        3.8450  -13.7280  -15.0740 O.co2 263  G263       -0.5172
   1491  P         -0.1260  -10.5080  -11.3810 P.3   264  G264        0.2141
   1492  C5'       -0.2140   -8.1400  -10.2560 C.3   264  G264        0.1812
   1493  O5'       -0.2560   -8.9210  -11.4390 O.3   264  G264       -0.3114
   1494  C4'       -0.2080   -6.6640  -10.5650 C.3   264  G264        0.1773
   1495  O4'        1.0430   -6.2850  -11.1990 O.3   264  G264       -0.3307
   1496  C3'       -1.2630   -6.1700  -11.5390 C.3   264  G264        0.1860
   1497  O3'       -2.5520   -6.0430  -10.9630 O.3   264  G264       -0.3112
   1498  C2'       -0.6680   -4.8510  -12.0090 C.3   264  G264        0.2309
   1499  O2'       -0.8160   -3.8540  -11.0110 O.3   264  G264       -0.2156
   1500  C1'        0.8140   -5.2140  -12.0950 C.3   264  G264        0.2408
   1501  N1         1.6820   -3.6980  -16.8560 N.ar  264  G264       -0.1709
   1502  C2         1.3440   -2.9600  -15.7470 C.ar  264  G264        0.2606
   1503  N2         1.2290   -1.6380  -15.9430 N.pl3 264  G264       -0.0859
   1504  N3         1.1430   -3.4780  -14.5430 N.ar  264  G264       -0.1918
   1505  C4         1.3100   -4.8170  -14.5450 C.ar  264  G264        0.1723
   1506  C5         1.6470   -5.6470  -15.5950 C.ar  264  G264        0.1748
   1507  C6         1.8600   -5.0770  -16.8790 C.ar  264  G264        0.3023
   1508  O6         2.1660   -5.6390  -17.9390 O.2   264  G264       -0.2633
   1509  N7         1.7170   -6.9670  -15.1750 N.ar  264  G264       -0.2173
   1510  C8         1.4270   -6.9160  -13.9030 C.ar  264  G264        0.1817
   1511  N9         1.1780   -5.6420  -13.4580 N.ar  264  G264       -0.2693
   1512  OP1       -1.2530  -11.0720  -10.5850 O.3   264  G264       -0.4373
   1513  OP2        0.0930  -10.9390  -12.7870 O.co2 264  G264       -0.5172
   1514  P         -3.8620   -6.3380  -11.8510 P.3   265  U265        0.2141
   1515  C5'       -4.0570   -3.7720  -12.3630 C.3   265  U265        0.1812
   1516  O5'       -3.9370   -5.1000  -12.8500 O.3   265  U265       -0.3114
   1517  C4'       -3.9440   -2.7660  -13.4800 C.3   265  U265        0.1773
   1518  O4'       -2.5950   -2.7680  -14.0240 O.3   265  U265       -0.3307
   1519  C3'       -4.8170   -3.0180  -14.6960 C.3   265  U265        0.1860
   1520  O3'       -6.1620   -2.6320  -14.5120 O.3   265  U265       -0.3112
   1521  C2'       -4.1000   -2.2260  -15.7760 C.3   265  U265        0.2309
   1522  O2'       -4.3500   -0.8370  -15.6240 O.3   265  U265       -0.2156
   1523  C1'       -2.6430   -2.5010  -15.4130 C.3   265  U265        0.2420
   1524  N1        -2.1370   -3.6820  -16.1460 N.ar  265  U265       -0.2534
   1525  C2        -1.7890   -3.4760  -17.4660 C.ar  265  U265        0.3546
   1526  O2        -1.8660   -2.3890  -18.0110 O.2   265  U265       -0.2443
   1527  N3        -1.3380   -4.5870  -18.1280 N.ar  265  U265       -0.1530
   1528  C4        -1.2130   -5.8600  -17.6160 C.ar  265  U265        0.2846
   1529  O4        -0.7880   -6.7500  -18.3540 O.2   265  U265       -0.2650
   1530  C5        -1.6030   -6.0020  -16.2420 C.ar  265  U265        0.0814
   1531  C6        -2.0440   -4.9310  -15.5730 C.ar  265  U265        0.0870
   1532  OP1       -5.0500   -6.2920  -10.9570 O.3   265  U265       -0.4373
   1533  OP2       -3.6150   -7.5440  -12.6820 O.co2 265  U265       -0.5172
   1534  P         -7.3190   -3.4040  -15.3090 P.3   266  U266        0.2141
   1535  C5'       -7.3450   -1.6310  -17.2390 C.3   266  U266        0.1812
   1536  O5'       -7.1080   -2.9670  -16.8280 O.3   266  U266       -0.3114
   1537  C4'       -6.9310   -1.3980  -18.6700 C.3   266  U266        0.1773
   1538  O4'       -5.5430   -1.7810  -18.8630 O.3   266  U266       -0.3307
   1539  C3'       -7.6740   -2.2010  -19.7220 C.3   266  U266        0.1860
   1540  O3'       -8.9540   -1.6750  -20.0230 O.3   266  U266       -0.3112
   1541  C2'       -6.7050   -2.1680  -20.8950 C.3   266  U266        0.2309
   1542  O2'       -6.7440   -0.9040  -21.5390 O.3   266  U266       -0.2156
   1543  C1'       -5.3650   -2.2870  -20.1710 C.3   266  U266        0.2420
   1544  N1        -4.9090   -3.6950  -20.0870 N.ar  266  U266       -0.2534
   1545  C2        -4.4280   -4.2700  -21.2460 C.ar  266  U266        0.3546
   1546  O2        -4.3640   -3.6710  -22.3030 O.2   266  U266       -0.2443
   1547  N3        -4.0160   -5.5740  -21.1260 N.ar  266  U266       -0.1530
   1548  C4        -4.0400   -6.3490  -19.9830 C.ar  266  U266        0.2846
   1549  O4        -3.6340   -7.5100  -20.0320 O.2   266  U266       -0.2650
   1550  C5        -4.5530   -5.6880  -18.8210 C.ar  266  U266        0.0814
   1551  C6        -4.9590   -4.4140  -18.9130 C.ar  266  U266        0.0870
   1552  OP1       -8.6160   -2.8600  -14.8240 O.3   266  U266       -0.4373
   1553  OP2       -7.0310   -4.8610  -15.2290 O.co2 266  U266       -0.5172
   1554  P        -10.1270   -2.6490  -20.5330 P.3   267  G267        0.2141
   1555  C5'       -9.7390   -1.6760  -22.9420 C.3   267  G267        0.1812
   1556  O5'       -9.8390   -2.8110  -22.0930 O.3   267  G267       -0.3114
   1557  C4'       -9.1330   -2.0360  -24.2760 C.3   267  G267        0.1773
   1558  O4'       -7.8110   -2.5920  -24.0780 O.3   267  G267       -0.3307
   1559  C3'       -9.8670   -3.1000  -25.0750 C.3   267  G267        0.1860
   1560  O3'      -10.9670   -2.5750  -25.7940 O.3   267  G267       -0.3112
   1561  C2'       -8.7720   -3.6650  -25.9740 C.3   267  G267        0.2309
   1562  O2'       -8.5700   -2.8290  -27.1020 O.3   267  G267       -0.2156
   1563  C1'       -7.5440   -3.5630  -25.0690 C.3   267  G267        0.2408
   1564  N1        -5.7000   -8.2610  -25.6880 N.ar  267  G267       -0.1709
   1565  C2        -5.8940   -7.2680  -26.6140 C.ar  267  G267        0.2606
   1566  N2        -5.5450   -7.5750  -27.8720 N.pl3 267  G267       -0.0859
   1567  N3        -6.3900   -6.0720  -26.3290 N.ar  267  G267       -0.1918
   1568  C4        -6.6820   -5.9500  -25.0160 C.ar  267  G267        0.1723
   1569  C5        -6.5300   -6.8820  -24.0080 C.ar  267  G267        0.1748
   1570  C6        -5.9910   -8.1590  -24.3330 C.ar  267  G267        0.3023
   1571  O6        -5.7770   -9.1300  -23.5940 O.2   267  G267       -0.2633
   1572  N7        -6.9530   -6.3580  -22.7910 N.ar  267  G267       -0.2173
   1573  C8        -7.3460   -5.1460  -23.0770 C.ar  267  G267        0.1817
   1574  N9        -7.2130   -4.8390  -24.4100 N.ar  267  G267       -0.2693
   1575  OP1      -11.4220   -1.9440  -20.3430 O.2   267  G267       -0.5172
   1576  OP2       -9.9330   -3.9760  -19.8950 O.co2 267  G267       -0.4373
   1577  P        -12.3200   -3.4270  -25.9450 P.3   268  A268        0.2141
   1578  C5'      -11.5170   -4.2670  -28.3040 C.3   268  A268        0.1812
   1579  O5'      -11.9350   -4.5760  -26.9820 O.3   268  A268       -0.3114
   1580  C4'      -11.0120   -5.4960  -29.0180 C.3   268  A268        0.1773
   1581  O4'       -9.7080   -5.8680  -28.4890 O.3   268  A268       -0.3307
   1582  C3'      -11.8480   -6.7540  -28.8430 C.3   268  A268        0.1860
   1583  O3'      -12.9910   -6.8060  -29.6800 O.3   268  A268       -0.3112
   1584  C2'      -10.8360   -7.8590  -29.1010 C.3   268  A268        0.2309
   1585  O2'      -10.5670   -7.9700  -30.4900 O.3   268  A268       -0.2156
   1586  C1'       -9.6000   -7.2770  -28.4220 C.3   268  A268        0.2408
   1587  N1        -8.0170  -10.7570  -24.9190 N.ar  268  A268       -0.2040
   1588  C2        -7.8930  -10.7100  -26.2530 C.ar  268  A268        0.2016
   1589  N3        -8.3240   -9.7810  -27.1090 N.ar  268  A268       -0.2048
   1590  C4        -8.9630   -8.7920  -26.4590 C.ar  268  A268        0.1692
   1591  C5        -9.1700   -8.6990  -25.0910 C.ar  268  A268        0.1518
   1592  C6        -8.6700   -9.7470  -24.2930 C.ar  268  A268        0.1919
   1593  N6        -8.7980   -9.7810  -22.9600 N.pl3 268  A268       -0.1054
   1594  N7        -9.8670   -7.5390  -24.7710 N.ar  268  A268       -0.2193
   1595  C8       -10.0600   -6.9660  -25.9340 C.ar  268  A268        0.1816
   1596  N9        -9.5370   -7.6640  -26.9990 N.ar  268  A268       -0.2693
   1597  OP1      -13.3330   -2.5280  -26.5610 O.2   268  A268       -0.5172
   1598  OP2      -12.6170   -4.0780  -24.6410 O.co2 268  A268       -0.4373
   1599  P        -14.3490   -7.4760  -29.1370 P.3   269  A269        0.2141
   1600  C5'      -13.8800   -9.5100  -30.7150 C.3   269  A269        0.1812
   1601  O5'      -14.1380   -9.0310  -29.4050 O.3   269  A269       -0.3114
   1602  C4'      -13.3060  -10.9050  -30.6970 C.3   269  A269        0.1773
   1603  O4'      -12.0140  -10.9060  -30.0340 O.3   269  A269       -0.3307
   1604  C3'      -14.0990  -11.9520  -29.9340 C.3   269  A269        0.1860
   1605  O3'      -15.2220  -12.4370  -30.6490 O.3   269  A269       -0.3112
   1606  C2'      -13.0460  -13.0130  -29.6500 C.3   269  A269        0.2309
   1607  O2'      -12.7990  -13.7900  -30.8130 O.3   269  A269       -0.2156
   1608  C1'      -11.8150  -12.1450  -29.3800 C.3   269  A269        0.2408
   1609  N1        -9.8610  -13.9830  -24.9800 N.ar  269  A269       -0.2040
   1610  C2        -9.8790  -14.4650  -26.2320 C.ar  269  A269        0.2016
   1611  N3       -10.4070  -13.9280  -27.3310 N.ar  269  A269       -0.2048
   1612  C4       -10.9810  -12.7430  -27.0540 C.ar  269  A269        0.1692
   1613  C5       -11.0450  -12.1170  -25.8210 C.ar  269  A269        0.1518
   1614  C6       -10.4480  -12.7870  -24.7350 C.ar  269  A269        0.1919
   1615  N6       -10.4300  -12.3090  -23.4860 N.pl3 269  A269       -0.1054
   1616  N7       -11.7170  -10.9050  -25.9210 N.ar  269  A269       -0.2193
   1617  C8       -12.0370  -10.8260  -27.1920 C.ar  269  A269        0.1816
   1618  N9       -11.6200  -11.9030  -27.9370 N.ar  269  A269       -0.2693
   1619  OP1      -15.4750   -7.0120  -29.9910 O.2   269  A269       -0.5172
   1620  OP2      -14.4060   -7.2760  -27.6640 O.co2 269  A269       -0.4373
   1621  P        -16.6190  -12.6670  -29.8850 P.3   270  C270        0.2141
   1622  C5'      -16.1050  -15.2380  -29.9030 C.3   270  C270        0.1812
   1623  O5'      -16.4320  -14.0740  -29.1600 O.3   270  C270       -0.3114
   1624  C4'      -15.4740  -16.2980  -29.0340 C.3   270  C270        0.1773
   1625  O4'      -14.2170  -15.8160  -28.4870 O.3   270  C270       -0.3307
   1626  C3'      -16.2540  -16.7260  -27.8020 C.3   270  C270        0.1860
   1627  O3'      -17.3270  -17.6070  -28.0860 O.3   270  C270       -0.3112
   1628  C2'      -15.1650  -17.3420  -26.9330 C.3   270  C270        0.2309
   1629  O2'      -14.8140  -18.6340  -27.4080 O.3   270  C270       -0.2156
   1630  C1'      -13.9970  -16.3990  -27.2150 C.3   270  C270        0.2420
   1631  N1       -13.9160  -15.3310  -26.1950 N.ar  270  C270       -0.2535
   1632  C2       -13.2730  -15.6310  -24.9910 C.ar  270  C270        0.3532
   1633  O2       -12.7860  -16.7590  -24.8350 O.2   270  C270       -0.2443
   1634  N3       -13.1900  -14.6870  -24.0290 N.ar  270  C270       -0.1739
   1635  C4       -13.7290  -13.4840  -24.2370 C.ar  270  C270        0.1759
   1636  N4       -13.6230  -12.5830  -23.2600 N.pl3 270  C270       -0.1070
   1637  C5       -14.3980  -13.1500  -25.4520 C.ar  270  C270        0.0566
   1638  C6       -14.4700  -14.0970  -26.3960 C.ar  270  C270        0.0850
   1639  OP1      -17.6820  -12.7840  -30.9170 O.2   270  C270       -0.5172
   1640  OP2      -16.7450  -11.6480  -28.8110 O.co2 270  C270       -0.4373
   1641  P        -18.5450  -17.7520  -27.0450 P.3   271  A271        0.2141
   1642  C5'      -17.5080  -19.9070  -25.9750 C.3   271  A271        0.1812
   1643  O5'      -17.9150  -18.5560  -25.8210 O.3   271  A271       -0.3114
   1644  C4'      -16.8140  -20.4340  -24.7440 C.3   271  A271        0.1773
   1645  O4'      -15.6160  -19.6590  -24.4750 O.3   271  A271       -0.3307
   1646  C3'      -17.6000  -20.3550  -23.4450 C.3   271  A271        0.1860
   1647  O3'      -18.5510  -21.3940  -23.3010 O.3   271  A271       -0.3112
   1648  C2'      -16.4990  -20.3870  -22.3970 C.3   271  A271        0.2309
   1649  O2'      -16.0030  -21.7090  -22.2400 O.3   271  A271       -0.2156
   1650  C1'      -15.4210  -19.5440  -23.0790 C.3   271  A271        0.2408
   1651  N1       -14.4880  -15.9500  -19.4930 N.ar  271  A271       -0.2040
   1652  C2       -14.2430  -17.2670  -19.5300 C.ar  271  A271        0.2016
   1653  N3       -14.5130  -18.1440  -20.4970 N.ar  271  A271       -0.2048
   1654  C4       -15.1130  -17.5390  -21.5380 C.ar  271  A271        0.1692
   1655  C5       -15.4340  -16.1960  -21.6480 C.ar  271  A271        0.1518
   1656  C6       -15.0950  -15.3710  -20.5580 C.ar  271  A271        0.1919
   1657  N6       -15.3420  -14.0580  -20.5210 N.pl3 271  A271       -0.1054
   1658  N7       -16.0480  -15.9350  -22.8680 N.ar  271  A271       -0.2193
   1659  C8       -16.0830  -17.1060  -23.4560 C.ar  271  A271        0.1816
   1660  N9       -15.5330  -18.1210  -22.7100 N.ar  271  A271       -0.2693
   1661  OP1      -19.5790  -18.6030  -27.6950 O.2   271  A271       -0.5172
   1662  OP2      -18.9100  -16.4040  -26.5360 O.co2 271  A271       -0.4373
   1663  P        -19.9400  -21.1120  -22.5430 P.3   272  C272        0.2141
   1664  C5'      -19.0740  -21.9030  -20.1880 C.3   272  C272        0.1812
   1665  O5'      -19.5190  -20.8430  -21.0240 O.3   272  C272       -0.3114
   1666  C4'      -18.3530  -21.3990  -18.9590 C.3   272  C272        0.1773
   1667  O4'      -17.3710  -20.3950  -19.3270 O.3   272  C272       -0.3307
   1668  C3'      -19.2000  -20.6970  -17.9110 C.3   272  C272        0.1860
   1669  O3'      -19.9490  -21.5800  -17.0940 O.3   272  C272       -0.3112
   1670  C2'      -18.1600  -19.8900  -17.1450 C.3   272  C272        0.2309
   1671  O2'      -17.4220  -20.7210  -16.2620 O.3   272  C272       -0.2156
   1672  C1'      -17.2360  -19.4510  -18.2790 C.3   272  C272        0.2420
   1673  N1       -17.6040  -18.1070  -18.7800 N.ar  272  C272       -0.2535
   1674  C2       -17.2310  -16.9880  -18.0260 C.ar  272  C272        0.3532
   1675  O2       -16.5940  -17.1480  -16.9750 O.2   272  C272       -0.2443
   1676  N3       -17.5660  -15.7520  -18.4590 N.ar  272  C272       -0.1739
   1677  C4       -18.2490  -15.6070  -19.5950 C.ar  272  C272        0.1759
   1678  N4       -18.5530  -14.3670  -19.9820 N.pl3 272  C272       -0.1070
   1679  C5       -18.6500  -16.7270  -20.3820 C.ar  272  C272        0.0566
   1680  C6       -18.3120  -17.9470  -19.9400 C.ar  272  C272        0.0850
   1681  OP1      -20.7350  -22.3670  -22.6280 O.3   272  C272       -0.4373
   1682  OP2      -20.5070  -19.8420  -23.0730 O.co2 272  C272       -0.5172
   1683  P        -21.3660  -21.1020  -16.5040 P.3   273  U273        0.2141
   1684  C5'      -20.2430  -20.2540  -14.2910 C.3   273  U273        0.1812
   1685  O5'      -20.9910  -19.9560  -15.4610 O.3   273  U273       -0.3114
   1686  C4'      -19.7290  -19.0020  -13.6280 C.3   273  U273        0.1773
   1687  O4'      -19.0420  -18.1730  -14.6020 O.3   273  U273       -0.3307
   1688  C3'      -20.7790  -18.0730  -13.0440 C.3   273  U273        0.1860
   1689  O3'      -21.2660  -18.4970  -11.7820 O.3   273  U273       -0.3112
   1690  C2'      -20.0470  -16.7400  -12.9970 C.3   273  U273        0.2309
   1691  O2'      -19.1620  -16.6920  -11.8880 O.3   273  U273       -0.2156
   1692  C1'      -19.2150  -16.8080  -14.2770 C.3   273  U273        0.2420
   1693  N1       -19.8850  -16.1170  -15.4020 N.ar  273  U273       -0.2534
   1694  C2       -19.8750  -14.7310  -15.3820 C.ar  273  U273        0.3546
   1695  O2       -19.3450  -14.0730  -14.5010 O.2   273  U273       -0.2443
   1696  N3       -20.5100  -14.1310  -16.4380 N.ar  273  U273       -0.1530
   1697  C4       -21.1420  -14.7600  -17.4910 C.ar  273  U273        0.2846
   1698  O4       -21.6680  -14.0720  -18.3680 O.2   273  U273       -0.2650
   1699  C5       -21.1130  -16.1930  -17.4420 C.ar  273  U273        0.0814
   1700  C6       -20.5010  -16.8080  -16.4210 C.ar  273  U273        0.0870
   1701  OP1      -21.9630  -22.2390  -15.7510 O.3   273  U273       -0.4373
   1702  OP2      -22.1150  -20.4690  -17.6220 O.co2 273  U273       -0.5172
   1703  P        -22.7840  -18.1780  -11.3570 P.3   274  U274        0.2141
   1704  C5'      -21.8510  -16.0570  -10.1280 C.3   274  U274        0.1812
   1705  O5'      -22.7780  -16.6150  -11.0490 O.3   274  U274       -0.3114
   1706  C4'      -21.7990  -14.5550  -10.2480 C.3   274  U274        0.1773
   1707  O4'      -21.3510  -14.1780  -11.5750 O.3   274  U274       -0.3307
   1708  C3'      -23.1300  -13.8440  -10.0940 C.3   274  U274        0.1860
   1709  O3'      -23.5100  -13.6890   -8.7390 O.3   274  U274       -0.3112
   1710  C2'      -22.8940  -12.5280  -10.8280 C.3   274  U274        0.2309
   1711  O2'      -22.1740  -11.6180  -10.0090 O.3   274  U274       -0.2156
   1712  C1'      -21.9820  -12.9780  -11.9720 C.3   274  U274        0.2420
   1713  N1       -22.7260  -13.2180  -13.2310 N.ar  274  U274       -0.2534
   1714  C2       -22.9680  -12.1270  -14.0450 C.ar  274  U274        0.3546
   1715  O2       -22.6040  -11.0000  -13.7720 O.2   274  U274       -0.2443
   1716  N3       -23.6570  -12.3940  -15.2000 N.ar  274  U274       -0.1530
   1717  C4       -24.1200  -13.6210  -15.6230 C.ar  274  U274        0.2846
   1718  O4       -24.7240  -13.6920  -16.6950 O.2   274  U274       -0.2650
   1719  C5       -23.8330  -14.7070  -14.7320 C.ar  274  U274        0.0814
   1720  C6       -23.1610  -14.4730  -13.5960 C.ar  274  U274        0.0870
   1721  OP1      -23.0680  -18.8990  -10.0870 O.3   274  U274       -0.4373
   1722  OP2      -23.6490  -18.4090  -12.5460 O.co2 274  U274       -0.5172
   1723  P        -25.0010  -14.0670   -8.2800 P.3   275  A275        0.2141
   1724  C5'      -27.2080  -12.7360   -8.8680 C.3   275  A275        0.1812
   1725  O5'      -25.8180  -12.7300   -8.5720 O.3   275  A275       -0.3114
   1726  C4'      -27.6740  -11.3340   -9.1650 C.3   275  A275        0.1773
   1727  O4'      -27.3640  -10.4920   -8.0280 O.3   275  A275       -0.3307
   1728  C3'      -26.9780  -10.6660  -10.3450 C.3   275  A275        0.1860
   1729  O3'      -27.6300  -10.9460  -11.5720 O.3   275  A275       -0.3112
   1730  C2'      -26.9850   -9.1830   -9.9820 C.3   275  A275        0.2309
   1731  O2'      -28.2000   -8.5620  -10.3770 O.3   275  A275       -0.2156
   1732  C1'      -26.9270   -9.2220   -8.4540 C.3   275  A275        0.2408
   1733  N1       -23.3180   -5.7470   -7.2300 N.ar  275  A275       -0.2040
   1734  C2       -24.5390   -5.6170   -7.7680 C.ar  275  A275        0.2016
   1735  N3       -25.4250   -6.5660   -8.0640 N.ar  275  A275       -0.2048
   1736  C4       -24.9460   -7.7850   -7.7470 C.ar  275  A275        0.1692
   1737  C5       -23.7130   -8.0780   -7.1890 C.ar  275  A275        0.1518
   1738  C6       -22.8650   -6.9860   -6.9220 C.ar  275  A275        0.1919
   1739  N6       -21.6460   -7.1030   -6.3860 N.pl3 275  A275       -0.1054
   1740  N7       -23.5700   -9.4480   -7.0030 N.ar  275  A275       -0.2193
   1741  C8       -24.7010   -9.9450   -7.4450 C.ar  275  A275        0.1816
   1742  N9       -25.5730   -8.9960   -7.9170 N.ar  275  A275       -0.2693
   1743  OP1      -24.9740  -14.2710   -6.8080 O.3   275  A275       -0.4373
   1744  OP2      -25.4930  -15.1470   -9.1810 O.co2 275  A275       -0.5172
   1745  P        -26.8440  -11.6400  -12.7900 P.3   276  A276        0.2141
   1746  C5'      -27.1330   -9.3820  -14.0870 C.3   276  A276        0.1812
   1747  O5'      -26.2710  -10.4100  -13.6240 O.3   276  A276       -0.3114
   1748  C4'      -26.4040   -8.0660  -14.1850 C.3   276  A276        0.1773
   1749  O4'      -25.9810   -7.6440  -12.8650 O.3   276  A276       -0.3307
   1750  C3'      -25.1220   -8.0850  -15.0010 C.3   276  A276        0.1860
   1751  O3'      -25.3670   -7.9550  -16.3920 O.3   276  A276       -0.3112
   1752  C2'      -24.3260   -6.9220  -14.4180 C.3   276  A276        0.2309
   1753  O2'      -24.7540   -5.6970  -14.9880 O.3   276  A276       -0.2156
   1754  C1'      -24.7570   -6.9470  -12.9490 C.3   276  A276        0.2408
   1755  N1       -21.0090   -6.3000   -9.4430 N.ar  276  A276       -0.2040
   1756  C2       -21.7700   -5.4250  -10.1180 C.ar  276  A276        0.2016
   1757  N3       -22.7280   -5.6610  -11.0160 N.ar  276  A276       -0.2048
   1758  C4       -22.8860   -6.9830  -11.2160 C.ar  276  A276        0.1692
   1759  C5       -22.1810   -8.0020  -10.5950 C.ar  276  A276        0.1518
   1760  C6       -21.1930   -7.6230   -9.6620 C.ar  276  A276        0.1919
   1761  N6       -20.4350   -8.4960   -8.9890 N.pl3 276  A276       -0.1054
   1762  N7       -22.6150   -9.2410  -11.0460 N.ar  276  A276       -0.2193
   1763  C8       -23.5590   -8.9510  -11.9110 C.ar  276  A276        0.1816
   1764  N9       -23.7730   -7.6060  -12.0680 N.ar  276  A276       -0.2693
   1765  OP1      -27.8500  -12.3220  -13.6470 O.2   276  A276       -0.5172
   1766  OP2      -25.7010  -12.4110  -12.2320 O.co2 276  A276       -0.4373
   1767  P        -24.8580   -9.0810  -17.4200 P.3   277  U277        0.2141
   1768  C5'      -22.8590   -7.4080  -17.8040 C.3   277  U277        0.1812
   1769  O5'      -23.3110   -8.7490  -17.6210 O.3   277  U277       -0.3114
   1770  C4'      -21.3600   -7.3400  -17.9690 C.3   277  U277        0.1773
   1771  O4'      -20.7260   -7.6040  -16.6810 O.3   277  U277       -0.3307
   1772  C3'      -20.7800   -8.3610  -18.9490 C.3   277  U277        0.1860
   1773  O3'      -19.6950   -7.8370  -19.7390 O.3   277  U277       -0.3112
   1774  C2'      -20.2690   -9.4740  -18.0330 C.3   277  U277        0.2309
   1775  O2'      -19.2130  -10.2350  -18.5750 O.3   277  U277       -0.2156
   1776  C1'      -19.8200   -8.6810  -16.8070 C.3   277  U277        0.2420
   1777  N1       -19.7470   -9.4110  -15.5160 N.ar  277  U277       -0.2534
   1778  C2       -19.8210  -10.8000  -15.3540 C.ar  277  U277        0.3546
   1779  O2       -20.0120  -11.6420  -16.2140 O.2   277  U277       -0.2443
   1780  N3       -19.6920  -11.2410  -14.0620 N.ar  277  U277       -0.1530
   1781  C4       -19.4750  -10.5040  -12.9240 C.ar  277  U277        0.2846
   1782  O4       -19.3790  -11.0870  -11.8440 O.2   277  U277       -0.2650
   1783  C5       -19.3850   -9.0970  -13.1530 C.ar  277  U277        0.0814
   1784  C6       -19.5130   -8.6330  -14.4020 C.ar  277  U277        0.0870
   1785  OP1      -25.5470   -8.8740  -18.7220 O.2   277  U277       -0.5172
   1786  OP2      -24.9770  -10.3940  -16.7280 O.co2 277  U277       -0.4373
   1787  P        -18.9580   -6.4240  -19.4730 P.3   278  U278        0.2141
   1788  C5'      -19.5550   -3.9560  -20.0700 C.3   278  U278        0.1812
   1789  O5'      -19.9650   -5.3170  -20.0160 O.3   278  U278       -0.3114
   1790  C4'      -20.3290   -3.1610  -21.0910 C.3   278  U278        0.1773
   1791  O4'      -21.1710   -2.1960  -20.4060 O.3   278  U278       -0.3307
   1792  C3'      -19.4970   -2.3140  -22.0450 C.3   278  U278        0.1860
   1793  O3'      -18.9910   -3.0490  -23.1470 O.3   278  U278       -0.3112
   1794  C2'      -20.4670   -1.2110  -22.4470 C.3   278  U278        0.2309
   1795  O2'      -21.3810   -1.6860  -23.4240 O.3   278  U278       -0.2156
   1796  C1'      -21.2320   -0.9940  -21.1440 C.3   278  U278        0.2420
   1797  N1       -20.6540    0.0960  -20.3220 N.ar  278  U278       -0.2534
   1798  C2       -21.0720    1.3860  -20.5770 C.ar  278  U278        0.3546
   1799  O2       -21.8800    1.6560  -21.4460 O.2   278  U278       -0.2443
   1800  N3       -20.5100    2.3490  -19.7770 N.ar  278  U278       -0.1530
   1801  C4       -19.5860    2.1590  -18.7670 C.ar  278  U278        0.2846
   1802  O4       -19.1670    3.1260  -18.1310 O.2   278  U278       -0.2650
   1803  C5       -19.2020    0.7970  -18.5610 C.ar  278  U278        0.0814
   1804  C6       -19.7380   -0.1570  -19.3260 C.ar  278  U278        0.0870
   1805  OP1      -17.8170   -6.4220  -20.4220 O.2   278  U278       -0.5172
   1806  OP2      -18.6370   -6.1690  -18.0440 O.co2 278  U278       -0.4373
   1807  P        -17.9190   -2.3880  -24.1500 P.3   279  G279        0.2141
   1808  C5'      -18.1530   -0.4210  -25.8600 C.3   279  G279        0.1812
   1809  O5'      -18.7820   -1.4180  -25.0720 O.3   279  G279       -0.3114
   1810  C4'      -19.0570    0.7650  -26.0770 C.3   279  G279        0.1773
   1811  O4'      -19.8650    0.9930  -24.8910 O.3   279  G279       -0.3307
   1812  C3'      -18.3560    2.0950  -26.2940 C.3   279  G279        0.1860
   1813  O3'      -17.8510    2.2710  -27.6020 O.3   279  G279       -0.3112
   1814  C2'      -19.4240    3.0950  -25.8830 C.3   279  G279        0.2309
   1815  O2'      -20.4320    3.1990  -26.8760 O.3   279  G279       -0.2156
   1816  C1'      -20.0170    2.3820  -24.6740 C.3   279  G279        0.2408
   1817  N1       -18.9000    6.0260  -21.3170 N.ar  279  G279       -0.1709
   1818  C2       -19.7150    6.0840  -22.4220 C.ar  279  G279        0.2606
   1819  N2       -20.3040    7.2680  -22.6480 N.pl3 279  G279       -0.0859
   1820  N3       -19.9350    5.0580  -23.2320 N.ar  279  G279       -0.1918
   1821  C4       -19.2560    3.9580  -22.8350 C.ar  279  G279        0.1723
   1822  C5       -18.4150    3.7990  -21.7500 C.ar  279  G279        0.1748
   1823  C6       -18.1940    4.9060  -20.8920 C.ar  279  G279        0.3023
   1824  O6       -17.4860    4.9720  -19.8780 O.2   279  G279       -0.2633
   1825  N7       -17.9130    2.5040  -21.6960 N.ar  279  G279       -0.2173
   1826  C8       -18.4450    1.9110  -22.7300 C.ar  279  G279        0.1817
   1827  N9       -19.2740    2.7320  -23.4530 N.ar  279  G279       -0.2693
   1828  OP1      -17.3970   -3.4720  -25.0220 O.2   279  G279       -0.5172
   1829  OP2      -16.9840   -1.5450  -23.3600 O.co2 279  G279       -0.4373
   1830  P        -16.3290    2.7450  -27.7870 P.3   280  G280        0.2141
   1831  C5'      -17.1470    5.1730  -28.2690 C.3   280  G280        0.1812
   1832  O5'      -16.3810    4.3030  -27.4530 O.3   280  G280       -0.3114
   1833  C4'      -17.5300    6.4560  -27.5690 C.3   280  G280        0.1773
   1834  O4'      -18.0880    6.1980  -26.2520 O.3   280  G280       -0.3307
   1835  C3'      -16.4220    7.4520  -27.2820 C.3   280  G280        0.1860
   1836  O3'      -15.9490    8.1370  -28.4280 O.3   280  G280       -0.3112
   1837  C2'      -17.0850    8.3540  -26.2500 C.3   280  G280        0.2309
   1838  O2'      -18.0260    9.2190  -26.8710 O.3   280  G280       -0.2156
   1839  C1'      -17.8580    7.3250  -25.4220 C.3   280  G280        0.2408
   1840  N1       -16.1080    8.9000  -20.9520 N.ar  280  G280       -0.1709
   1841  C2       -16.8710    9.5570  -21.8880 C.ar  280  G280        0.2606
   1842  N2       -17.2150   10.8200  -21.5860 N.pl3 280  G280       -0.0859
   1843  N3       -17.2650    9.0150  -23.0310 N.ar  280  G280       -0.1918
   1844  C4       -16.8280    7.7440  -23.1640 C.ar  280  G280        0.1723
   1845  C5       -16.0630    6.9970  -22.2940 C.ar  280  G280        0.1748
   1846  C6       -15.6470    7.5910  -21.0690 C.ar  280  G280        0.3023
   1847  O6       -14.9670    7.1000  -20.1580 O.2   280  G280       -0.2633
   1848  N7       -15.8350    5.7280  -22.8150 N.ar  280  G280       -0.2173
   1849  C8       -16.4520    5.7320  -23.9680 C.ar  280  G280        0.1817
   1850  N9       -17.0820    6.9230  -24.2340 N.ar  280  G280       -0.2693
   1851  OP1      -15.9770    2.5730  -29.2200 O.2   280  G280       -0.5172
   1852  OP2      -15.5060    2.0860  -26.7400 O.co2 280  G280       -0.4373
   1853  P        -14.3970    8.5520  -28.5230 P.3   281  G281        0.2141
   1854  C5'      -15.0990   11.0270  -28.0280 C.3   281  G281        0.1812
   1855  O5'      -14.3100    9.9010  -27.6790 O.3   281  G281       -0.3114
   1856  C4'      -15.2550   11.9740  -26.8660 C.3   281  G281        0.1773
   1857  O4'      -15.7160   11.2480  -25.6980 O.3   281  G281       -0.3307
   1858  C3'      -13.9870   12.6580  -26.3850 C.3   281  G281        0.1860
   1859  O3'      -13.6020   13.7570  -27.1930 O.3   281  G281       -0.3112
   1860  C2'      -14.3410   13.0400  -24.9540 C.3   281  G281        0.2309
   1861  O2'      -15.1590   14.1990  -24.9310 O.3   281  G281       -0.2156
   1862  C1'      -15.1950   11.8440  -24.5270 C.3   281  G281        0.2408
   1863  N1       -12.7680   10.8480  -20.1810 N.ar  281  G281       -0.1709
   1864  C2       -13.4250   11.9870  -20.5840 C.ar  281  G281        0.2606
   1865  N2       -13.4380   12.9990  -19.7030 N.pl3 281  G281       -0.0859
   1866  N3       -14.0230   12.1230  -21.7580 N.ar  281  G281       -0.1918
   1867  C4       -13.9070   11.0070  -22.5090 C.ar  281  G281        0.1723
   1868  C5       -13.2720    9.8200  -22.2020 C.ar  281  G281        0.1748
   1869  C6       -12.6350    9.6870  -20.9380 C.ar  281  G281        0.3023
   1870  O6       -12.0180    8.7150  -20.4730 O.2   281  G281       -0.2633
   1871  N7       -13.3840    8.9200  -23.2530 N.ar  281  G281       -0.2173
   1872  C8       -14.0710    9.5670  -24.1590 C.ar  281  G281        0.1817
   1873  N9       -14.4200   10.8390  -23.7720 N.ar  281  G281       -0.2693
   1874  OP1      -14.0880    8.8560  -29.9440 O.2   281  G281       -0.5172
   1875  OP2      -13.5940    7.5280  -27.8020 O.co2 281  G281       -0.4373
   1876  P        -12.0590   13.9450  -27.5980 P.3   282  U282        0.2141
   1877  C5'      -11.8400   15.7460  -25.7040 C.3   282  U282        0.1812
   1878  O5'      -11.3900   14.5260  -26.2740 O.3   282  U282       -0.3114
   1879  C4'      -11.3910   15.8800  -24.2710 C.3   282  U282        0.1773
   1880  O4'      -11.9470   14.7980  -23.4780 O.3   282  U282       -0.3307
   1881  C3'       -9.8950   15.7740  -24.0290 C.3   282  U282        0.1860
   1882  O3'       -9.1950   16.9730  -24.3150 O.3   282  U282       -0.3112
   1883  C2'       -9.8270   15.3600  -22.5660 C.3   282  U282        0.2309
   1884  O2'      -10.0470   16.4800  -21.7230 O.3   282  U282       -0.2156
   1885  C1'      -11.0410   14.4370  -22.4560 C.3   282  U282        0.2420
   1886  N1       -10.6760   13.0110  -22.6130 N.ar  282  U282       -0.2534
   1887  C2       -10.1220   12.3680  -21.5190 C.ar  282  U282        0.3546
   1888  O2        -9.9190   12.9130  -20.4500 O.2   282  U282       -0.2443
   1889  N3        -9.8040   11.0490  -21.7130 N.ar  282  U282       -0.1530
   1890  C4        -9.9820   10.3190  -22.8700 C.ar  282  U282        0.2846
   1891  O4        -9.6410    9.1350  -22.8860 O.2   282  U282       -0.2650
   1892  C5       -10.5600   11.0470  -23.9610 C.ar  282  U282        0.0814
   1893  C6       -10.8800   12.3370  -23.7980 C.ar  282  U282        0.0870
   1894  OP1      -11.9740   14.9750  -28.6670 O.2   282  U282       -0.5172
   1895  OP2      -11.4810   12.5950  -27.8350 O.co2 282  U282       -0.4373
   1896  P         -7.6650   16.9120  -24.8090 P.3   283  U283        0.2141
   1897  C5'       -7.0070   17.6150  -22.3560 C.3   283  U283        0.1812
   1898  O5'       -6.8330   16.7330  -23.4580 O.3   283  U283       -0.3114
   1899  C4'       -6.3820   17.0500  -21.1060 C.3   283  U283        0.1773
   1900  O4'       -7.0990   15.8570  -20.7020 O.3   283  U283       -0.3307
   1901  C3'       -4.9380   16.5920  -21.2490 C.3   283  U283        0.1860
   1902  O3'       -4.0200   17.6580  -21.0900 O.3   283  U283       -0.3112
   1903  C2'       -4.8000   15.5180  -20.1770 C.3   283  U283        0.2309
   1904  O2'       -4.5500   16.1100  -18.9120 O.3   283  U283       -0.2156
   1905  C1'       -6.2050   14.9120  -20.1530 C.3   283  U283        0.2420
   1906  N1        -6.3190   13.6480  -20.9190 N.ar  283  U283       -0.2534
   1907  C2        -5.9730   12.4560  -20.3040 C.ar  283  U283        0.3546
   1908  O2        -5.5430   12.3740  -19.1680 O.2   283  U283       -0.2443
   1909  N3        -6.1340   11.3360  -21.0740 N.ar  283  U283       -0.1530
   1910  C4        -6.6050   11.2770  -22.3650 C.ar  283  U283        0.2846
   1911  O4        -6.6940   10.1810  -22.9150 O.2   283  U283       -0.2650
   1912  C5        -6.9560   12.5400  -22.9360 C.ar  283  U283        0.0814
   1913  C6        -6.8040   13.6510  -22.2050 C.ar  283  U283        0.0870
   1914  OP1       -7.3170   18.2220  -25.4230 O.3   283  U283       -0.4373
   1915  OP2       -7.4970   15.6680  -25.6090 O.co2 283  U283       -0.5172
   1916  P         -3.0490   18.0740  -22.2980 P.3   284  A284        0.2141
   1917  C5'       -1.1930   16.5050  -21.3140 C.3   284  A284        0.1812
   1918  O5'       -2.0370   16.8500  -22.4040 O.3   284  A284       -0.3114
   1919  C4'        0.1870   16.1300  -21.7870 C.3   284  A284        0.1773
   1920  O4'        0.2050   14.7220  -22.1600 O.3   284  A284       -0.3307
   1921  C3'        0.6860   16.9060  -23.0060 C.3   284  A284        0.1860
   1922  O3'        2.0760   17.1960  -22.8630 O.3   284  A284       -0.3112
   1923  C2'        0.4720   15.9190  -24.1550 C.3   284  A284        0.2309
   1924  O2'        1.3360   16.1030  -25.2540 O.3   284  A284       -0.2156
   1925  C1'        0.7200   14.5810  -23.4650 C.3   284  A284        0.2408
   1926  N1         0.4030    9.4260  -23.8860 N.ar  284  A284       -0.2040
   1927  C2         1.1660   10.2190  -23.1220 C.ar  284  A284        0.2016
   1928  N3         1.1990   11.5490  -23.0560 N.ar  284  A284       -0.2048
   1929  C4         0.3150   12.0960  -23.9080 C.ar  284  A284        0.1692
   1930  C5        -0.5390   11.4100  -24.7600 C.ar  284  A284        0.1518
   1931  C6        -0.4800   10.0000  -24.7360 C.ar  284  A284        0.1919
   1932  N6        -1.2410    9.2070  -25.4980 N.pl3 284  A284       -0.1054
   1933  N7        -1.3100   12.3010  -25.4940 N.ar  284  A284       -0.2193
   1934  C8        -0.9090   13.4800  -25.0810 C.ar  284  A284        0.1816
   1935  N9         0.0650   13.4380  -24.1150 N.ar  284  A284       -0.2693
   1936  OP1       -2.2760   19.2750  -21.8870 O.3   284  A284       -0.4373
   1937  OP2       -3.8590   18.1070  -23.5480 O.co2 284  A284       -0.5172
   1938  P          2.5790   18.7240  -22.8520 P.3   285  A285        0.2141
   1939  C5'        1.9210   20.7300  -21.2790 C.3   285  A285        0.1812
   1940  O5'        1.9310   19.3270  -21.5290 O.3   285  A285       -0.3114
   1941  C4'        2.3490   21.0490  -19.8660 C.3   285  A285        0.1773
   1942  O4'        1.5510   20.2670  -18.9310 O.3   285  A285       -0.3307
   1943  C3'        3.8100   20.7250  -19.5420 C.3   285  A285        0.1860
   1944  O3'        4.2870   21.6450  -18.5590 O.3   285  A285       -0.3112
   1945  C2'        3.6990   19.3480  -18.9070 C.3   285  A285        0.2309
   1946  O2'        4.7930   18.9910  -18.0900 O.3   285  A285       -0.2156
   1947  C1'        2.4100   19.5050  -18.1040 C.3   285  A285        0.2408
   1948  N1        -0.4930   17.1030  -14.6010 N.ar  285  A285       -0.2040
   1949  C2        -0.0310   18.3580  -14.6810 C.ar  285  A285        0.2016
   1950  N3         0.7240   18.9140  -15.6280 N.ar  285  A285       -0.2048
   1951  C4         1.0100   18.0280  -16.5980 C.ar  285  A285        0.1692
   1952  C5         0.6110   16.7030  -16.6530 C.ar  285  A285        0.1518
   1953  C6        -0.1850   16.2320  -15.5900 C.ar  285  A285        0.1919
   1954  N6        -0.6520   14.9830  -15.5020 N.pl3 285  A285       -0.1054
   1955  N7         1.1010   16.0970  -17.8050 N.ar  285  A285       -0.2193
   1956  C8         1.7770   17.0500  -18.4060 C.ar  285  A285        0.1816
   1957  N9         1.7570   18.2480  -17.7360 N.ar  285  A285       -0.2693
   1958  OP1        1.9570   19.4200  -24.0060 O.2   285  A285       -0.5172
   1959  OP2        4.0590   18.7160  -22.6870 O.co2 285  A285       -0.4373
   1960  P          4.9210   23.0560  -18.9900 P.3   286  A286        0.2141
   1961  C5'        7.2830   22.5420  -17.9300 C.3   286  A286        0.1812
   1962  O5'        6.0740   23.3020  -17.9120 O.3   286  A286       -0.3114
   1963  C4'        7.5890   21.9190  -16.5860 C.3   286  A286        0.1773
   1964  O4'        7.6480   22.9580  -15.5700 O.3   286  A286       -0.3307
   1965  C3'        6.5610   20.9030  -16.0880 C.3   286  A286        0.1860
   1966  O3'        7.2060   19.9260  -15.2630 O.3   286  A286       -0.3112
   1967  C2'        5.6680   21.7660  -15.2020 C.3   286  A286        0.2309
   1968  O2'        4.9220   21.0430  -14.2460 O.3   286  A286       -0.2156
   1969  C1'        6.7060   22.6780  -14.5510 C.3   286  A286        0.2408
   1970  N1         6.4750   25.8450  -10.4960 N.ar  286  A286       -0.2040
   1971  C2         7.0260   24.6370  -10.6660 C.ar  286  A286        0.2016
   1972  N3         7.0420   23.8640  -11.7490 N.ar  286  A286       -0.2048
   1973  C4         6.3980   24.4560  -12.7700 C.ar  286  A286        0.1692
   1974  C5         5.7810   25.6940  -12.7500 C.ar  286  A286        0.1518
   1975  C6         5.8330   26.4170  -11.5410 C.ar  286  A286        0.1919
   1976  N6         5.2830   27.6260  -11.3740 N.pl3 286  A286       -0.1054
   1977  N7         5.2180   25.9780  -13.9870 N.ar  286  A286       -0.2193
   1978  C8         5.5010   24.9240  -14.7150 C.ar  286  A286        0.1816
   1979  N9         6.2050   23.9570  -14.0410 N.ar  286  A286       -0.2693
   1980  OP1        3.8590   24.0820  -18.8090 O.3   286  A286       -0.4373
   1981  OP2        5.5710   22.9030  -20.3200 O.co2 286  A286       -0.5172
   1982  P          8.3350   18.9120  -15.8160 P.3   287  A287        0.2141
   1983  C5'       10.6100   19.9470  -15.0150 C.3   287  A287        0.1812
   1984  O5'        9.5120   19.0860  -14.7560 O.3   287  A287       -0.3114
   1985  C4'       10.5820   21.1990  -14.1670 C.3   287  A287        0.1773
   1986  O4'        9.4170   21.2330  -13.3010 O.3   287  A287       -0.3307
   1987  C3'       11.7440   21.3820  -13.2070 C.3   287  A287        0.1860
   1988  O3'       12.9260   21.8130  -13.8540 O.3   287  A287       -0.3112
   1989  C2'       11.1890   22.3890  -12.2050 C.3   287  A287        0.2309
   1990  O2'       11.2410   23.7080  -12.7280 O.3   287  A287       -0.2156
   1991  C1'        9.7210   21.9600  -12.1220 C.3   287  A287        0.2408
   1992  N1         9.4410   21.7310   -6.9530 N.ar  287  A287       -0.2040
   1993  C2         9.7180   22.7350   -7.7960 C.ar  287  A287        0.2016
   1994  N3         9.7760   22.7290   -9.1280 N.ar  287  A287       -0.2048
   1995  C4         9.5040   21.5070   -9.6180 C.ar  287  A287        0.1692
   1996  C5         9.2020   20.3780   -8.8780 C.ar  287  A287        0.1518
   1997  C6         9.1720   20.5110   -7.4740 C.ar  287  A287        0.1919
   1998  N6         8.8960   19.5020   -6.6380 N.pl3 287  A287       -0.1054
   1999  N7         8.9760   19.3000   -9.7180 N.ar  287  A287       -0.2193
   2000  C8         9.1470   19.7840  -10.9220 C.ar  287  A287        0.1816
   2001  N9         9.4650   21.1160  -10.9390 N.ar  287  A287       -0.2693
   2002  OP1        8.8530   19.2800  -17.1570 O.2   287  A287       -0.5172
   2003  OP2        7.7940   17.5410  -15.6440 O.co2 287  A287       -0.4373
   2004  P         14.3540   21.2720  -13.3600 P.3   288  C288        0.2141
   2005  C5'       14.8400   23.5960  -12.2510 C.3   288  C288        0.1812
   2006  O5'       14.6910   22.1910  -12.1030 O.3   288  C288       -0.3114
   2007  C4'       14.9640   24.2830  -10.9160 C.3   288  C288        0.1773
   2008  O4'       13.7020   24.1930  -10.2010 O.3   288  C288       -0.3307
   2009  C3'       15.9660   23.6820   -9.9460 C.3   288  C288        0.1860
   2010  O3'       17.3140   24.0160  -10.2210 O.3   288  C288       -0.3112
   2011  C2'       15.4560   24.1830   -8.6040 C.3   288  C288        0.2309
   2012  O2'       15.7820   25.5520   -8.4290 O.3   288  C288       -0.2156
   2013  C1'       13.9480   24.0740   -8.8120 C.3   288  C288        0.2420
   2014  N1        13.4360   22.7630   -8.3510 N.ar  288  C288       -0.2535
   2015  C2        13.1430   22.6030   -6.9950 C.ar  288  C288        0.3532
   2016  O2        13.3100   23.5620   -6.2330 O.2   288  C288       -0.2443
   2017  N3        12.6810   21.4120   -6.5510 N.ar  288  C288       -0.1739
   2018  C4        12.5160   20.4050   -7.4080 C.ar  288  C288        0.1759
   2019  N4        12.0560   19.2490   -6.9280 N.pl3 288  C288       -0.1070
   2020  C5        12.8100   20.5330   -8.7950 C.ar  288  C288        0.0566
   2021  C6        13.2650   21.7160   -9.2170 C.ar  288  C288        0.0850
   2022  OP1       15.3440   21.5690  -14.4280 O.2   288  C288       -0.5172
   2023  OP2       14.1780   19.8720  -12.8870 O.co2 288  C288       -0.4373
   2024  P         18.4400   22.8750  -10.1030 P.3   289  G289        0.2141
   2025  C5'       19.1770   23.5620   -7.6930 C.3   289  G289        0.1812
   2026  O5'       18.5470   22.6110   -8.5340 O.3   289  G289       -0.3114
   2027  C4'       18.7000   23.4870   -6.2640 C.3   289  G289        0.1773
   2028  O4'       17.2580   23.3160   -6.1970 O.3   289  G289       -0.3307
   2029  C3'       19.2190   22.3440   -5.4130 C.3   289  G289        0.1860
   2030  O3'       20.5670   22.4970   -5.0100 O.3   289  G289       -0.3112
   2031  C2'       18.2310   22.3530   -4.2580 C.3   289  G289        0.2309
   2032  O2'       18.4900   23.4500   -3.3930 O.3   289  G289       -0.2156
   2033  C1'       16.9250   22.6310   -5.0030 C.3   289  G289        0.2408
   2034  N1        14.3240   18.7200   -3.1250 N.ar  289  G289       -0.1709
   2035  C2        14.8330   19.8280   -2.4880 C.ar  289  G289        0.2606
   2036  N2        14.6170   19.8940   -1.1670 N.pl3 289  G289       -0.0859
   2037  N3        15.5000   20.7930   -3.1010 N.ar  289  G289       -0.1918
   2038  C4        15.6170   20.5520   -4.4250 C.ar  289  G289        0.1723
   2039  C5        15.1470   19.4800   -5.1570 C.ar  289  G289        0.1748
   2040  C6        14.4310   18.4510   -4.4870 C.ar  289  G289        0.3023
   2041  O6        13.9320   17.4180   -4.9570 O.2   289  G289       -0.2633
   2042  N7        15.4800   19.6160   -6.4990 N.ar  289  G289       -0.2173
   2043  C8        16.1340   20.7450   -6.5540 C.ar  289  G289        0.1817
   2044  N9        16.2420   21.3680   -5.3340 N.ar  289  G289       -0.2693
   2045  OP1       19.7240   23.4450  -10.5870 O.3   289  G289       -0.4373
   2046  OP2       17.9150   21.6300  -10.7230 O.co2 289  G289       -0.5172
   2047  P         21.5130   21.2030   -4.8730 P.3   290  G290        0.2141
   2048  C5'       21.1760   21.4930   -2.2940 C.3   290  G290        0.1812
   2049  O5'       21.1720   20.6370   -3.4250 O.3   290  G290       -0.3114
   2050  C4'       20.3790   20.9100   -1.1540 C.3   290  G290        0.1773
   2051  O4'       18.9810   20.7750   -1.5320 O.3   290  G290       -0.3307
   2052  C3'       20.7620   19.5100   -0.7070 C.3   290  G290        0.1860
   2053  O3'       21.9240   19.4750    0.1020 O.3   290  G290       -0.3112
   2054  C2'       19.5030   19.0540    0.0110 C.3   290  G290        0.2309
   2055  O2'       19.4020   19.6910    1.2760 O.3   290  G290       -0.2156
   2056  C1'       18.4270   19.6360   -0.9030 C.3   290  G290        0.2408
   2057  N1        16.0210   15.2580   -1.8850 N.ar  290  G290       -0.1709
   2058  C2        16.1830   15.9200   -0.6890 C.ar  290  G290        0.2606
   2059  N2        15.6300   15.3290    0.3810 N.pl3 290  G290       -0.0859
   2060  N3        16.8340   17.0680   -0.5560 N.ar  290  G290       -0.1918
   2061  C4        17.3200   17.5070   -1.7390 C.ar  290  G290        0.1723
   2062  C5        17.2130   16.9230   -2.9860 C.ar  290  G290        0.1748
   2063  C6        16.5140   15.6940   -3.1130 C.ar  290  G290        0.3023
   2064  O6        16.3160   15.0250   -4.1350 O.2   290  G290       -0.2633
   2065  N7        17.8500   17.6920   -3.9470 N.ar  290  G290       -0.2173
   2066  C8        18.3260   18.7080   -3.2830 C.ar  290  G290        0.1817
   2067  N9        18.0350   18.6640   -1.9410 N.ar  290  G290       -0.2693
   2068  OP1       22.9300   21.6560   -4.8810 O.3   290  G290       -0.4373
   2069  OP2       21.0590   20.1900   -5.8610 O.co2 290  G290       -0.5172
   2070  P         22.8900   18.1890    0.0680 P.3   291  U291        0.2141
   2071  C5'       21.7100   17.3390    2.2470 C.3   291  U291        0.1812
   2072  O5'       22.0980   17.0850    0.9060 O.3   291  U291       -0.3114
   2073  C4'       20.8500   16.2360    2.8180 C.3   291  U291        0.1773
   2074  O4'       19.5900   16.1330    2.1060 O.3   291  U291       -0.3307
   2075  C3'       21.4020   14.8230    2.7560 C.3   291  U291        0.1860
   2076  O3'       22.4140   14.5720    3.7150 O.3   291  U291       -0.3112
   2077  C2'       20.1480   13.9860    2.9690 C.3   291  U291        0.2309
   2078  O2'       19.7870   13.9770    4.3400 O.3   291  U291       -0.2156
   2079  C1'       19.1020   14.8090    2.2110 C.3   291  U291        0.2420
   2080  N1        18.8320   14.2520    0.8660 N.ar  291  U291       -0.2534
   2081  C2        17.9840   13.1600    0.8300 C.ar  291  U291        0.3546
   2082  O2        17.4700   12.6790    1.8230 O.2   291  U291       -0.2443
   2083  N3        17.7450   12.6450   -0.4140 N.ar  291  U291       -0.1530
   2084  C4        18.2580   13.0970   -1.6060 C.ar  291  U291        0.2846
   2085  O4        17.9340   12.5130   -2.6400 O.2   291  U291       -0.2650
   2086  C5        19.1320   14.2260   -1.4940 C.ar  291  U291        0.0814
   2087  C6        19.3870   14.7510   -0.2880 C.ar  291  U291        0.0870
   2088  OP1       24.1250   18.5720    0.8050 O.3   291  U291       -0.4373
   2089  OP2       22.9770   17.6860   -1.3300 O.co2 291  U291       -0.5172
   2090  P         23.6630   13.6350    3.3340 P.3   292  G292        0.2141
   2091  C5'       22.4440   11.5680    4.3900 C.3   292  G292        0.1812
   2092  O5'       23.0370   12.1720    3.2490 O.3   292  G292       -0.3114
   2093  C4'       21.7800   10.2550    4.0500 C.3   292  G292        0.1773
   2094  O4'       20.6370   10.4780    3.1900 O.3   292  G292       -0.3307
   2095  C3'       22.6240    9.2500    3.2870 C.3   292  G292        0.1860
   2096  O3'       23.5210    8.5470    4.1270 O.3   292  G292       -0.3112
   2097  C2'       21.5690    8.3560    2.6410 C.3   292  G292        0.2309
   2098  O2'       21.0880    7.3970    3.5710 O.3   292  G292       -0.2156
   2099  C1'       20.4440    9.3540    2.3570 C.3   292  G292        0.2408
   2100  N1        18.7970    8.2330   -2.3070 N.ar  292  G292       -0.1709
   2101  C2        18.6320    7.5470   -1.1270 C.ar  292  G292        0.2606
   2102  N2        17.9300    6.4050   -1.2060 N.pl3 292  G292       -0.0859
   2103  N3        19.1170    7.9520    0.0380 N.ar  292  G292       -0.1918
   2104  C4        19.7930    9.1170   -0.0780 C.ar  292  G292        0.1723
   2105  C5        20.0150    9.8810   -1.2070 C.ar  292  G292        0.1748
   2106  C6        19.4870    9.4330   -2.4510 C.ar  292  G292        0.3023
   2107  O6        19.5690    9.9610   -3.5690 O.2   292  G292       -0.2633
   2108  N7        20.7590   11.0140   -0.8900 N.ar  292  G292       -0.2173
   2109  C8        20.9710   10.9190    0.3970 C.ar  292  G292        0.1817
   2110  N9        20.4120    9.7920    0.9490 N.ar  292  G292       -0.2693
   2111  OP1       24.6300   13.6670    4.4630 O.3   292  G292       -0.4373
   2112  OP2       24.1100   14.0170    1.9690 O.co2 292  G292       -0.5172
   2113  P         24.9580    8.0820    3.5800 P.3   293  G293        0.2141
   2114  C5'       26.2470   10.1240    4.5960 C.3   293  G293        0.1812
   2115  O5'       25.9850    8.7310    4.6090 O.3   293  G293       -0.3114
   2116  C4'       26.3910   10.6790    5.9910 C.3   293  G293        0.1773
   2117  O4'       25.0890   11.0290    6.5280 O.3   293  G293       -0.3307
   2118  C3'       26.9730    9.7440    7.0380 C.3   293  G293        0.1860
   2119  O3'       28.3830    9.6330    6.9660 O.3   293  G293       -0.3112
   2120  C2'       26.4780   10.3650    8.3370 C.3   293  G293        0.2309
   2121  O2'       27.2570   11.5020    8.6750 O.3   293  G293       -0.2156
   2122  C1'       25.0840   10.8390    7.9290 C.3   293  G293        0.2408
   2123  N1        22.4430    8.6600   11.6740 N.ar  293  G293       -0.1709
   2124  C2        23.3990    9.6480   11.7330 C.ar  293  G293        0.2606
   2125  N2        23.6880   10.1180   12.9560 N.pl3 293  G293       -0.0859
   2126  N3        24.0230   10.1390   10.6740 N.ar  293  G293       -0.1918
   2127  C4        23.6040    9.5510    9.5340 C.ar  293  G293        0.1723
   2128  C5        22.6590    8.5590    9.3670 C.ar  293  G293        0.1748
   2129  C6        21.9970    8.0400   10.5100 C.ar  293  G293        0.3023
   2130  O6        21.1290    7.1590   10.5650 O.2   293  G293       -0.2633
   2131  N7        22.5240    8.2320    8.0260 N.ar  293  G293       -0.2173
   2132  C8        23.3720    9.0130    7.4150 C.ar  293  G293        0.1817
   2133  N9        24.0550    9.8410    8.2710 N.ar  293  G293       -0.2693
   2134  OP1       25.1600    8.6940    2.2410 O.2   293  G293       -0.5172
   2135  OP2       25.0510    6.6070    3.7330 O.co2 293  G293       -0.4373
   2136  P         29.1080    8.2620    7.3910 P.3   294  G294        0.2141
   2137  C5'       29.5070    9.3560    9.7320 C.3   294  G294        0.1812
   2138  O5'       29.0200    8.2610    8.9770 O.3   294  G294       -0.3114
   2139  C4'       29.1580    9.1880   11.1850 C.3   294  G294        0.1773
   2140  O4'       27.7310    9.3680   11.3780 O.3   294  G294       -0.3307
   2141  C3'       29.4220    7.8090   11.7570 C.3   294  G294        0.1860
   2142  O3'       30.7840    7.5810   12.0600 O.3   294  G294       -0.3112
   2143  C2'       28.4990    7.7770   12.9660 C.3   294  G294        0.2309
   2144  O2'       29.0490    8.5290   14.0360 O.3   294  G294       -0.2156
   2145  C1'       27.2820    8.5270   12.4230 C.3   294  G294        0.2408
   2146  N1        23.4950    5.4070   13.6700 N.ar  294  G294       -0.1709
   2147  C2        24.2800    6.2040   14.4680 C.ar  294  G294        0.2606
   2148  N2        24.0150    6.1610   15.7840 N.pl3 294  G294       -0.0859
   2149  N3        25.2450    6.9850   14.0090 N.ar  294  G294       -0.1918
   2150  C4        25.3650    6.8980   12.6640 C.ar  294  G294        0.1723
   2151  C5        24.6350    6.1330   11.7770 C.ar  294  G294        0.1748
   2152  C6        23.5990    5.3000   12.2850 C.ar  294  G294        0.3023
   2153  O6        22.8320    4.5430   11.6730 O.2   294  G294       -0.2633
   2154  N7        25.0790    6.3340   10.4760 N.ar  294  G294       -0.2173
   2155  C8        26.0510    7.2000   10.5970 C.ar  294  G294        0.1817
   2156  N9        26.2700    7.5890   11.8970 N.ar  294  G294       -0.2693
   2157  OP1       30.5430    8.3550    7.0190 O.3   294  G294       -0.4373
   2158  OP2       28.2790    7.1220    6.9170 O.co2 294  G294       -0.5172
   2159  P         31.3210    6.0780   12.2070 P.3   295  G295        0.2141
   2160  C5'       30.7240    4.3690   14.0890 C.3   295  G295        0.1812
   2161  O5'       30.9530    5.7120   13.7100 O.3   295  G295       -0.3114
   2162  C4'       29.8550    4.2830   15.3150 C.3   295  G295        0.1773
   2163  O4'       28.5700    4.9100   15.0590 O.3   295  G295       -0.3307
   2164  C3'       29.5030    2.8720   15.7480 C.3   295  G295        0.1860
   2165  O3'       30.5350    2.2660   16.5020 O.3   295  G295       -0.3112
   2166  C2'       28.1950    3.0660   16.5000 C.3   295  G295        0.2309
   2167  O2'       28.4360    3.5830   17.7990 O.3   295  G295       -0.2156
   2168  C1'       27.5350    4.1600   15.6610 C.3   295  G295        0.2408
   2169  N1        23.4220    1.3940   14.3560 N.ar  295  G295       -0.1709
   2170  C2        23.8860    1.7110   15.6090 C.ar  295  G295        0.2606
   2171  N2        23.1640    1.2330   16.6320 N.pl3 295  G295       -0.0859
   2172  N3        24.9690    2.4390   15.8390 N.ar  295  G295       -0.1918
   2173  C4        25.5600    2.8320   14.6910 C.ar  295  G295        0.1723
   2174  C5        25.1750    2.5640   13.3920 C.ar  295  G295        0.1748
   2175  C6        24.0140    1.7840   13.1600 C.ar  295  G295        0.3023
   2176  O6        23.5160    1.4420   12.0790 O.2   295  G295       -0.2633
   2177  N7        26.0460    3.1450   12.4850 N.ar  295  G295       -0.2173
   2178  C8        26.9290    3.7420   13.2340 C.ar  295  G295        0.1817
   2179  N9        26.6990    3.5980   14.5810 N.ar  295  G295       -0.2693
   2180  OP1       32.8010    6.1030   12.0750 O.3   295  G295       -0.4373
   2181  OP2       30.5160    5.2000   11.3190 O.co2 295  G295       -0.5172
   2182  P         31.3680    1.0540   15.8590 P.3   296  G296        0.2141
   2183  C5'       29.8880   -0.3670   17.4660 C.3   296  G296        0.1812
   2184  O5'       30.4620   -0.2120   16.1780 O.3   296  G296       -0.3114
   2185  C4'       28.5550   -1.0660   17.4080 C.3   296  G296        0.1773
   2186  O4'       27.5800   -0.2430   16.7160 O.3   296  G296       -0.3307
   2187  C3'       28.5160   -2.3790   16.6500 C.3   296  G296        0.1860
   2188  O3'       29.0680   -3.4600   17.3810 O.3   296  G296       -0.3112
   2189  C2'       27.0320   -2.5270   16.3430 C.3   296  G296        0.2309
   2190  O2'       26.3220   -2.9500   17.4990 O.3   296  G296       -0.2156
   2191  C1'       26.6460   -1.0740   16.0520 C.3   296  G296        0.2408
   2192  N1        24.2880   -1.6740   11.5820 N.ar  296  G296       -0.1709
   2193  C2        23.9290   -2.1300   12.8280 C.ar  296  G296        0.2606
   2194  N2        22.7910   -2.8380   12.8860 N.pl3 296  G296       -0.0859
   2195  N3        24.6310   -1.9090   13.9300 N.ar  296  G296       -0.1918
   2196  C4        25.7410   -1.1800   13.6780 C.ar  296  G296        0.1723
   2197  C5        26.1860   -0.6770   12.4720 C.ar  296  G296        0.1748
   2198  C6        25.4250   -0.9230   11.3000 C.ar  296  G296        0.3023
   2199  O6        25.6580   -0.5600   10.1390 O.2   296  G296       -0.2633
   2200  N7        27.3730    0.0210   12.6380 N.ar  296  G296       -0.2173
   2201  C8        27.6250   -0.0670   13.9150 C.ar  296  G296        0.1817
   2202  N9        26.6750   -0.7780   14.6070 N.ar  296  G296       -0.2693
   2203  OP1       32.6490    0.9090   16.5970 O.3   296  G296       -0.4373
   2204  OP2       31.3850    1.2410   14.3840 O.co2 296  G296       -0.5172
   2205  P         30.4870   -4.0830   16.9490 P.3   297  A297        0.2141
   2206  C5'       29.0840   -6.1470   16.2030 C.3   297  A297        0.1812
   2207  O5'       30.1010   -5.2070   15.8910 O.3   297  A297       -0.3114
   2208  C4'       29.1650   -7.3880   15.3520 C.3   297  A297        0.1773
   2209  O4'       28.4290   -8.4430   16.0260 O.3   297  A297       -0.3307
   2210  C3'       28.5380   -7.2600   13.9700 C.3   297  A297        0.1860
   2211  O3'       29.1700   -8.1890   13.0880 O.3   297  A297       -0.3112
   2212  C2'       27.1040   -7.7050   14.2300 C.3   297  A297        0.2309
   2213  O2'       26.3990   -8.1450   13.0880 O.3   297  A297       -0.2156
   2214  C1'       27.3180   -8.8320   15.2380 C.3   297  A297        0.2408
   2215  N1        25.1120  -12.1010   18.4920 N.ar  297  A297       -0.2040
   2216  C2        26.2190  -12.1800   17.7430 C.ar  297  A297        0.2016
   2217  N3        26.7330  -11.2800   16.9110 N.ar  297  A297       -0.2048
   2218  C4        25.9710  -10.1760   16.8870 C.ar  297  A297        0.1692
   2219  C5        24.8080   -9.9420   17.5980 C.ar  297  A297        0.1518
   2220  C6        24.3650  -10.9730   18.4460 C.ar  297  A297        0.1919
   2221  N6        23.2600  -10.8960   19.1970 N.pl3 297  A297       -0.1054
   2222  N7        24.3050   -8.6800   17.3090 N.ar  297  A297       -0.2193
   2223  C8        25.1610   -8.1870   16.4440 C.ar  297  A297        0.1816
   2224  N9        26.1900   -9.0450   16.1430 N.ar  297  A297       -0.2693
   2225  OP1       31.0620   -4.7620   18.1400 O.3   297  A297       -0.4373
   2226  OP2       31.2730   -3.0330   16.2510 O.co2 297  A297       -0.5172
   2227  P         30.0040   -7.6730   11.8140 P.3   298  C298        0.2141
   2228  C5'       27.7910   -7.5520   10.3930 C.3   298  C298        0.1812
   2229  O5'       28.9230   -6.8940   10.9430 O.3   298  C298       -0.3114
   2230  C4'       26.9510   -6.5740    9.6180 C.3   298  C298        0.1773
   2231  O4'       26.5100   -5.5140   10.5140 O.3   298  C298       -0.3307
   2232  C3'       27.6960   -5.8510    8.5020 C.3   298  C298        0.1860
   2233  O3'       27.6960   -6.5840    7.2860 O.3   298  C298       -0.3112
   2234  C2'       26.9850   -4.5090    8.4250 C.3   298  C298        0.2309
   2235  O2'       25.7630   -4.6320    7.7150 O.3   298  C298       -0.2156
   2236  C1'       26.6600   -4.2560    9.8950 C.3   298  C298        0.2420
   2237  N1        27.7310   -3.5290   10.6270 N.ar  298  C298       -0.2535
   2238  C2        28.4120   -2.3880   10.1470 C.ar  298  C298        0.3532
   2239  O2        28.1800   -1.9010    9.0290 O.2   298  C298       -0.2443
   2240  N3        29.3630   -1.8180   10.9280 N.ar  298  C298       -0.1739
   2241  C4        29.6440   -2.3070   12.1370 C.ar  298  C298        0.1759
   2242  N4        30.5880   -1.6990   12.8600 N.pl3 298  C298       -0.1070
   2243  C5        28.9660   -3.4460   12.6570 C.ar  298  C298        0.0566
   2244  C6        28.0320   -4.0030   11.8770 C.ar  298  C298        0.0850
   2245  OP1       30.4580   -8.8580   11.0410 O.2   298  C298       -0.5172
   2246  OP2       31.0050   -6.6840   12.2920 O.co2 298  C298       -0.4373
   2247  P         28.1430   -5.8940    5.9020 P.3   299  G299        0.2141
   2248  C5'       26.8120   -4.3830    4.2090 C.3   299  G299        0.1812
   2249  O5'       26.8210   -5.1590    5.3970 O.3   299  G299       -0.3114
   2250  C4'       25.4650   -4.4400    3.5320 C.3   299  G299        0.1773
   2251  O4'       25.2890   -5.7350    2.9070 O.3   299  G299       -0.3307
   2252  C3'       24.2630   -4.2960    4.4510 C.3   299  G299        0.1860
   2253  O3'       23.9580   -2.9410    4.7320 O.3   299  G299       -0.3112
   2254  C2'       23.1600   -5.0250    3.6920 C.3   299  G299        0.2309
   2255  O2'       22.6060   -4.1890    2.6870 O.3   299  G299       -0.2156
   2256  C1'       23.9440   -6.1460    3.0080 C.3   299  G299        0.2408
   2257  N1        21.1000   -9.9490    4.9180 N.ar  299  G299       -0.1709
   2258  C2        20.6950   -8.8270    4.2330 C.ar  299  G299        0.2606
   2259  N2        19.3720   -8.7170    4.0350 N.pl3 299  G299       -0.0859
   2260  N3        21.5200   -7.8930    3.7790 N.ar  299  G299       -0.1918
   2261  C4        22.8060   -8.1800    4.0730 C.ar  299  G299        0.1723
   2262  C5        23.3100   -9.2730    4.7550 C.ar  299  G299        0.1748
   2263  C6        22.4190  -10.2630    5.2340 C.ar  299  G299        0.3023
   2264  O6        22.6850  -11.2990    5.8560 O.2   299  G299       -0.2633
   2265  N7        24.6900   -9.2050    4.8580 N.ar  299  G299       -0.2173
   2266  C8        24.9940   -8.0930    4.2480 C.ar  299  G299        0.1817
   2267  N9        23.9050   -7.4170    3.7550 N.ar  299  G299       -0.2693
   2268  OP1       28.4290   -6.9890    4.9390 O.2   299  G299       -0.5172
   2269  OP2       29.1950   -4.8800    6.1890 O.co2 299  G299       -0.4373
   2270  P         23.4210   -2.5130    6.1830 P.3   300  A300        0.2141
   2271  C5'       20.9770   -2.6080    5.2340 C.3   300  A300        0.1812
   2272  O5'       21.9200   -3.0370    6.2020 O.3   300  A300       -0.3114
   2273  C4'       19.6600   -3.2970    5.4530 C.3   300  A300        0.1773
   2274  O4'       19.7700   -4.6890    5.0660 O.3   300  A300       -0.3307
   2275  C3'       19.1980   -3.3480    6.8980 C.3   300  A300        0.1860
   2276  O3'       18.5650   -2.1460    7.3050 O.3   300  A300       -0.3112
   2277  C2'       18.2860   -4.5700    6.9200 C.3   300  A300        0.2309
   2278  O2'       17.0030   -4.2420    6.4080 O.3   300  A300       -0.2156
   2279  C1'       18.9810   -5.4930    5.9190 C.3   300  A300        0.2408
   2280  N1        19.2860  -10.1150    8.2450 N.ar  300  A300       -0.2040
   2281  C2        18.2460   -9.4200    7.7630 C.ar  300  A300        0.2016
   2282  N3        18.2310   -8.2250    7.1740 N.ar  300  A300       -0.2048
   2283  C4        19.4730   -7.7140    7.0950 C.ar  300  A300        0.1692
   2284  C5        20.6410   -8.3100    7.5460 C.ar  300  A300        0.1518
   2285  C6        20.5270   -9.5790    8.1500 C.ar  300  A300        0.1919
   2286  N6        21.5680  -10.2700    8.6320 N.pl3 300  A300       -0.1054
   2287  N7        21.7360   -7.4930    7.2960 N.ar  300  A300       -0.2193
   2288  C8        21.2140   -6.4420    6.7090 C.ar  300  A300        0.1816
   2289  N9        19.8510   -6.5010    6.5590 N.ar  300  A300       -0.2693
   2290  OP1       23.4110   -1.0280    6.2750 O.2   300  A300       -0.5172
   2291  OP2       24.1600   -3.3060    7.1950 O.co2 300  A300       -0.4373
   2292  P         18.8670   -1.5070    8.7510 P.3   301  U301        0.2141
   2293  C5'       16.6760   -2.7860    9.3920 C.3   301  U301        0.1812
   2294  O5'       18.0030   -2.4080    9.7360 O.3   301  U301       -0.3114
   2295  C4'       16.1450   -3.8340   10.3320 C.3   301  U301        0.1773
   2296  O4'       16.8360   -5.0930   10.0910 O.3   301  U301       -0.3307
   2297  C3'       16.3280   -3.5080   11.8140 C.3   301  U301        0.1860
   2298  O3'       15.1410   -3.7930   12.5450 O.3   301  U301       -0.3112
   2299  C2'       17.4660   -4.4300   12.2540 C.3   301  U301        0.2309
   2300  O2'       17.4040   -4.8280   13.6050 O.3   301  U301       -0.2156
   2301  C1'       17.3160   -5.6200   11.3100 C.3   301  U301        0.2420
   2302  N1        18.5970   -6.3050   11.0590 N.ar  301  U301       -0.2534
   2303  C2        18.7030   -7.6700   11.2760 C.ar  301  U301        0.3546
   2304  O2        17.7770   -8.3720   11.6370 O.2   301  U301       -0.2443
   2305  N3        19.9430   -8.2080   11.0380 N.ar  301  U301       -0.1530
   2306  C4        21.0780   -7.5410   10.6270 C.ar  301  U301        0.2846
   2307  O4        22.1220   -8.1730   10.4580 O.2   301  U301       -0.2650
   2308  C5        20.9030   -6.1370   10.4320 C.ar  301  U301        0.0814
   2309  C6        19.7030   -5.5870   10.6570 C.ar  301  U301        0.0870
   2310  OP1       18.2860   -0.1410    8.7940 O.2   301  U301       -0.5172
   2311  OP2       20.3080   -1.7010    9.0680 O.co2 301  U301       -0.4373
   2312  P         14.3080   -2.5710   13.1720 P.3   302  C302        0.2141
   2313  C5'       15.1610   -2.8370   15.6410 C.3   302  C302        0.1812
   2314  O5'       15.1840   -2.1090   14.4210 O.3   302  C302       -0.3114
   2315  C4'       16.2170   -2.3420   16.5980 C.3   302  C302        0.1773
   2316  O4'       17.5240   -2.8190   16.1860 O.3   302  C302       -0.3307
   2317  C3'       16.3910   -0.8350   16.6800 C.3   302  C302        0.1860
   2318  O3'       15.4160   -0.1970   17.4840 O.3   302  C302       -0.3112
   2319  C2'       17.8100   -0.6950   17.2110 C.3   302  C302        0.2309
   2320  O2'       17.8530   -0.9360   18.6070 O.3   302  C302       -0.2156
   2321  C1'       18.5080   -1.8560   16.5070 C.3   302  C302        0.2420
   2322  N1        19.1770   -1.4150   15.2660 N.ar  302  C302       -0.2535
   2323  C2        20.3500   -0.6650   15.3780 C.ar  302  C302        0.3532
   2324  O2        20.7940   -0.3930   16.5050 O.2   302  C302       -0.2443
   2325  N3        20.9750   -0.2500   14.2530 N.ar  302  C302       -0.1739
   2326  C4        20.4690   -0.5560   13.0560 C.ar  302  C302        0.1759
   2327  N4        21.1240   -0.1220   11.9770 N.pl3 302  C302       -0.1070
   2328  C5        19.2720   -1.3180   12.9140 C.ar  302  C302        0.0566
   2329  C6        18.6640   -1.7210   14.0370 C.ar  302  C302        0.0850
   2330  OP1       13.0110   -3.0900   13.6820 O.3   302  C302       -0.4373
   2331  OP2       14.3370   -1.4590   12.1830 O.co2 302  C302       -0.5172
   2332  P         15.1000    1.3630   17.2680 P.3   303  C303        0.2141
   2333  C5'       16.7450    2.0370   19.2010 C.3   303  C303        0.1812
   2334  O5'       16.3940    2.1060   17.8280 O.3   303  C303       -0.3114
   2335  C4'       18.0380    2.7610   19.4680 C.3   303  C303        0.1773
   2336  O4'       19.1170    2.1420   18.7190 O.3   303  C303       -0.3307
   2337  C3'       18.0830    4.2160   19.0330 C.3   303  C303        0.1860
   2338  O3'       17.4550    5.0860   19.9540 O.3   303  C303       -0.3112
   2339  C2'       19.5740    4.4690   18.8760 C.3   303  C303        0.2309
   2340  O2'       20.1820    4.6630   20.1420 O.3   303  C303       -0.2156
   2341  C1'       20.0490    3.1270   18.3200 C.3   303  C303        0.2420
   2342  N1        20.1360    3.1340   16.8450 N.ar  303  C303       -0.2535
   2343  C2        21.2120    3.7920   16.2400 C.ar  303  C303        0.3532
   2344  O2        22.0550    4.3520   16.9540 O.2   303  C303       -0.2443
   2345  N3        21.3080    3.8050   14.8910 N.ar  303  C303       -0.1739
   2346  C4        20.3790    3.1900   14.1540 C.ar  303  C303        0.1759
   2347  N4        20.5130    3.2250   12.8280 N.pl3 303  C303       -0.1070
   2348  C5        19.2710    2.5100   14.7420 C.ar  303  C303        0.0566
   2349  C6        19.1920    2.5080   16.0800 C.ar  303  C303        0.0850
   2350  OP1       13.9430    1.7400   18.1280 O.3   303  C303       -0.4373
   2351  OP2       15.0500    1.5980   15.8020 O.co2 303  C303       -0.5172
   2352  P         16.7560    6.4340   19.4340 P.3   304  C304        0.2141
   2353  C5'       18.8670    7.8560   20.0460 C.3   304  C304        0.1812
   2354  O5'       17.9790    7.3790   19.0470 O.3   304  C304       -0.3114
   2355  C4'       20.0760    8.5250   19.4470 C.3   304  C304        0.1773
   2356  O4'       20.8180    7.5730   18.6390 O.3   304  C304       -0.3307
   2357  C3'       19.8090    9.6700   18.4850 C.3   304  C304        0.1860
   2358  O3'       19.4680   10.8890   19.1200 O.3   304  C304       -0.3112
   2359  C2'       21.1030    9.7270   17.6900 C.3   304  C304        0.2309
   2360  O2'       22.1410   10.3130   18.4610 O.3   304  C304       -0.2156
   2361  C1'       21.4110    8.2400   17.5410 C.3   304  C304        0.2420
   2362  N1        20.8380    7.7010   16.2890 N.ar  304  C304       -0.2535
   2363  C2        21.5050    7.9600   15.0910 C.ar  304  C304        0.3532
   2364  O2        22.5540    8.6210   15.1140 O.2   304  C304       -0.2443
   2365  N3        20.9940    7.4780   13.9370 N.ar  304  C304       -0.1739
   2366  C4        19.8620    6.7730   13.9520 C.ar  304  C304        0.1759
   2367  N4        19.3950    6.3190   12.7880 N.pl3 304  C304       -0.1070
   2368  C5        19.1570    6.4990   15.1580 C.ar  304  C304        0.0566
   2369  C6        19.6770    6.9810   16.2920 C.ar  304  C304        0.0850
   2370  OP1       16.0520    7.0610   20.5860 O.3   304  C304       -0.4373
   2371  OP2       16.0180    6.0940   18.1890 O.co2 304  C304       -0.5172
   2372  P         18.4320   11.8880   18.4030 P.3   305  G305        0.2141
   2373  C5'       20.4630   13.1690   17.3470 C.3   305  G305        0.1812
   2374  O5'       19.2510   12.4540   17.1560 O.3   305  G305       -0.3114
   2375  C4'       21.1690   13.4240   16.0400 C.3   305  G305        0.1773
   2376  O4'       21.4960   12.1660   15.3960 O.3   305  G305       -0.3307
   2377  C3'       20.3680   14.1730   14.9900 C.3   305  G305        0.1860
   2378  O3'       20.3400   15.5700   15.2080 O.3   305  G305       -0.3112
   2379  C2'       21.0560   13.7690   13.6960 C.3   305  G305        0.2309
   2380  O2'       22.2580   14.5020   13.5200 O.3   305  G305       -0.2156
   2381  C1'       21.4170   12.3130   13.9910 C.3   305  G305        0.2408
   2382  N1        19.4270   10.0590    9.8750 N.ar  305  G305       -0.1709
   2383  C2        20.4710   10.9490    9.9650 C.ar  305  G305        0.2606
   2384  N2        21.0570   11.2770    8.8050 N.pl3 305  G305       -0.0859
   2385  N3        20.9070   11.4760   11.0980 N.ar  305  G305       -0.1918
   2386  C4        20.1990   11.0280   12.1560 C.ar  305  G305        0.1723
   2387  C5        19.1410   10.1400   12.1720 C.ar  305  G305        0.1748
   2388  C6        18.6850    9.5830   10.9500 C.ar  305  G305        0.3023
   2389  O6        17.7620    8.7800   10.7620 O.2   305  G305       -0.2633
   2390  N7        18.6860    9.9390   13.4660 N.ar  305  G305       -0.2173
   2391  C8        19.4570   10.6950   14.1990 C.ar  305  G305        0.1817
   2392  N9        20.3990   11.3800   13.4710 N.ar  305  G305       -0.2693
   2393  OP1       18.1360   13.0230   19.3210 O.3   305  G305       -0.4373
   2394  OP2       17.3140   11.0610   17.8800 O.co2 305  G305       -0.5172
   2395  P         18.9530   16.3720   15.0830 P.3   306  U306        0.2141
   2396  C5'       19.9060   17.0850   12.7510 C.3   306  U306        0.1812
   2397  O5'       18.8060   16.6280   13.5180 O.3   306  U306       -0.3114
   2398  C4'       19.6800   16.8580   11.2800 C.3   306  U306        0.1773
   2399  O4'       19.8570   15.4560   10.9520 O.3   306  U306       -0.3307
   2400  C3'       18.2920   17.1700   10.7620 C.3   306  U306        0.1860
   2401  O3'       18.0610   18.5560   10.5980 O.3   306  U306       -0.3112
   2402  C2'       18.2450   16.3740    9.4640 C.3   306  U306        0.2309
   2403  O2'       18.9650   17.0430    8.4390 O.3   306  U306       -0.2156
   2404  C1'       19.0280   15.1190    9.8560 C.3   306  U306        0.2420
   2405  N1        18.1330   14.0000   10.2350 N.ar  306  U306       -0.2534
   2406  C2        17.7480   13.1520    9.2150 C.ar  306  U306        0.3546
   2407  O2        18.1180   13.2890    8.0620 O.2   306  U306       -0.2443
   2408  N3        16.9180   12.1270    9.5870 N.ar  306  U306       -0.1530
   2409  C4        16.4370   11.8720   10.8530 C.ar  306  U306        0.2846
   2410  O4        15.6970   10.9040   11.0200 O.2   306  U306       -0.2650
   2411  C5        16.8740   12.7930   11.8600 C.ar  306  U306        0.0814
   2412  C6        17.6860   13.8030   11.5230 C.ar  306  U306        0.0870
   2413  OP1       19.1080   17.6780   15.7820 O.3   306  U306       -0.4373
   2414  OP2       17.8490   15.4550   15.4700 O.co2 306  U306       -0.5172
   2415  P         16.6730   19.1970   11.0950 P.3   307  A307        0.2141
   2416  C5'       14.2320   18.3750   10.5440 C.3   307  A307        0.1812
   2417  O5'       15.5940   18.4930   10.1560 O.3   307  A307       -0.3114
   2418  C4'       13.3560   18.1770    9.3340 C.3   307  A307        0.1773
   2419  O4'       13.4210   19.3680    8.5120 O.3   307  A307       -0.3307
   2420  C3'       13.7780   17.0370    8.4140 C.3   307  A307        0.1860
   2421  O3'       13.1780   15.8070    8.7930 O.3   307  A307       -0.3112
   2422  C2'       13.3460   17.5040    7.0250 C.3   307  A307        0.2309
   2423  O2'       11.9980   17.1430    6.7630 O.3   307  A307       -0.2156
   2424  C1'       13.4300   19.0290    7.1450 C.3   307  A307        0.2408
   2425  N1        15.6280   20.9000    2.8580 N.ar  307  A307       -0.2040
   2426  C2        14.4150   20.3890    3.0930 C.ar  307  A307        0.2016
   2427  N3        13.9080   19.9170    4.2300 N.ar  307  A307       -0.2048
   2428  C4        14.8050   20.0030    5.2260 C.ar  307  A307        0.1692
   2429  C5        16.0920   20.5040    5.1410 C.ar  307  A307        0.1518
   2430  C6        16.5090   20.9790    3.8820 C.ar  307  A307        0.1919
   2431  N6        17.7250   21.4840    3.6430 N.pl3 307  A307       -0.1054
   2432  N7        16.7300   20.4340    6.3740 N.ar  307  A307       -0.2193
   2433  C8        15.8270   19.9030    7.1610 C.ar  307  A307        0.1816
   2434  N9        14.6430   19.6080    6.5330 N.ar  307  A307       -0.2693
   2435  OP1       16.7270   20.6470   10.7670 O.2   307  A307       -0.5172
   2436  OP2       16.4100   18.7660   12.4970 O.co2 307  A307       -0.4373
   2437  P         14.0350   14.6310    9.4780 P.3   308  A308        0.2141
   2438  C5'       13.3450   13.1630    7.4230 C.3   308  A308        0.1812
   2439  O5'       14.3750   13.6580    8.2660 O.3   308  A308       -0.3114
   2440  C4'       13.7940   13.1010    5.9850 C.3   308  A308        0.1773
   2441  O4'       14.0410   14.4380    5.4860 O.3   308  A308       -0.3307
   2442  C3'       15.0950   12.3570    5.7310 C.3   308  A308        0.1860
   2443  O3'       14.8980   10.9580    5.6440 O.3   308  A308       -0.3112
   2444  C2'       15.5840   12.9680    4.4240 C.3   308  A308        0.2309
   2445  O2'       14.9210   12.3670    3.3230 O.3   308  A308       -0.2156
   2446  C1'       15.0950   14.4140    4.5490 C.3   308  A308        0.2408
   2447  N1        17.9210   18.4780    3.2210 N.ar  308  A308       -0.2040
   2448  C2        16.9740   17.7790    2.5800 C.ar  308  A308        0.2016
   2449  N3        16.2800   16.7210    2.9950 N.ar  308  A308       -0.2048
   2450  C4        16.6420   16.3870    4.2450 C.ar  308  A308        0.1692
   2451  C5        17.5950   17.0090    5.0350 C.ar  308  A308        0.1518
   2452  C6        18.2610   18.1180    4.4780 C.ar  308  A308        0.1919
   2453  N6        19.2030   18.8220    5.1110 N.pl3 308  A308       -0.1054
   2454  N7        17.6940   16.3730    6.2640 N.ar  308  A308       -0.2193
   2455  C8        16.8150   15.4020    6.1900 C.ar  308  A308        0.1816
   2456  N9        16.1490   15.3480    4.9890 N.ar  308  A308       -0.2693
   2457  OP1       13.1220   13.9030   10.3980 O.3   308  A308       -0.4373
   2458  OP2       15.3170   15.1790    9.9930 O.co2 308  A308       -0.5172
   2459  P         15.8610    9.9310    6.4170 P.3   309  C309        0.2141
   2460  C5'       14.1920    8.2030    5.3930 C.3   309  C309        0.1812
   2461  O5'       14.9700    8.6170    6.5100 O.3   309  C309       -0.3114
   2462  C4'       13.0070    7.3650    5.8010 C.3   309  C309        0.1773
   2463  O4'       12.1550    8.1250    6.7110 O.3   309  C309       -0.3307
   2464  C3'       12.1070    6.9250    4.6420 C.3   309  C309        0.1860
   2465  O3'       11.6100    5.6080    4.8910 O.3   309  C309       -0.3112
   2466  C2'       10.9570    7.9270    4.7200 C.3   309  C309        0.2309
   2467  O2'        9.7520    7.4970    4.1270 O.3   309  C309       -0.2156
   2468  C1'       10.8260    8.1030    6.2280 C.3   309  C309        0.2420
   2469  N1        10.1210    9.3230    6.6540 N.ar  309  C309       -0.2535
   2470  C2         9.0310    9.1860    7.5230 C.ar  309  C309        0.3532
   2471  O2         8.7130    8.0550    7.9130 O.2   309  C309       -0.2443
   2472  N3         8.3450   10.2770    7.9350 N.ar  309  C309       -0.1739
   2473  C4         8.7030   11.4860    7.5040 C.ar  309  C309        0.1759
   2474  N4         7.9990   12.5380    7.9340 N.pl3 309  C309       -0.1070
   2475  C5         9.8020   11.6650    6.6120 C.ar  309  C309        0.0566
   2476  C6        10.4730   10.5710    6.2120 C.ar  309  C309        0.0850
   2477  OP1       16.0800   10.4340    7.7990 O.3   309  C309       -0.4373
   2478  OP2       17.0330    9.6390    5.5500 O.co2 309  C309       -0.5172
   2479  P         12.3910    4.3160    4.3300 P.3   310  A310        0.2141
   2480  C5'       11.2520    4.3790    1.9490 C.3   310  A310        0.1812
   2481  O5'       12.4220    4.5250    2.7510 O.3   310  A310       -0.3114
   2482  C4'       11.5580    4.6060    0.4870 C.3   310  A310        0.1773
   2483  O4'       12.2550    5.8720    0.3490 O.3   310  A310       -0.3307
   2484  C3'       12.4610    3.5590   -0.1530 C.3   310  A310        0.1860
   2485  O3'       12.1520    3.4440   -1.5440 O.3   310  A310       -0.3112
   2486  C2'       13.8510    4.1660    0.0260 C.3   310  A310        0.2309
   2487  O2'       14.8120    3.7100   -0.9000 O.3   310  A310       -0.2156
   2488  C1'       13.5680    5.6620   -0.1410 C.3   310  A310        0.2408
   2489  N1        16.5630    9.9130   -0.0050 N.ar  310  A310       -0.2040
   2490  C2        15.8560    9.3500   -0.9940 C.ar  310  A310        0.2016
   2491  N3        15.1010    8.2500   -0.9790 N.ar  310  A310       -0.2048
   2492  C4        15.1040    7.6820    0.2400 C.ar  310  A310        0.1692
   2493  C5        15.7850    8.1460    1.3570 C.ar  310  A310        0.1518
   2494  C6        16.5480    9.3220    1.2130 C.ar  310  A310        0.1919
   2495  N6        17.2470    9.8720    2.2110 N.pl3 310  A310       -0.1054
   2496  N7        15.5630    7.3150    2.4460 N.ar  310  A310       -0.2193
   2497  C8        14.7690    6.3860    1.9720 C.ar  310  A310        0.1816
   2498  N9        14.4540    6.5320    0.6420 N.ar  310  A310       -0.2693
   2499  OP1       11.5680    3.1140    4.6230 O.2   310  A310       -0.5172
   2500  OP2       13.7980    4.3690    4.8060 O.co2 310  A310       -0.4373
   2501  P         10.8870    2.5770   -2.0430 P.3   311  U311        0.2141
   2502  C5'       10.4330    4.8420   -3.2320 C.3   311  U311        0.1812
   2503  O5'       10.3150    3.4310   -3.2550 O.3   311  U311       -0.3114
   2504  C4'        9.2440    5.5330   -3.8480 C.3   311  U311        0.1773
   2505  O4'        8.1410    4.6150   -4.0430 O.3   311  U311       -0.3307
   2506  C3'        8.6320    6.6570   -3.0330 C.3   311  U311        0.1860
   2507  O3'        9.4070    7.8450   -3.0720 O.3   311  U311       -0.3112
   2508  C2'        7.2410    6.7930   -3.6560 C.3   311  U311        0.2309
   2509  O2'        7.2920    7.5760   -4.8400 O.3   311  U311       -0.2156
   2510  C1'        6.9260    5.3410   -4.0470 C.3   311  U311        0.2420
   2511  N1         5.9330    4.6980   -3.1500 N.ar  311  U311       -0.2534
   2512  C2         4.6430    4.6250   -3.6440 C.ar  311  U311        0.3546
   2513  O2         4.3360    5.0440   -4.7460 O.2   311  U311       -0.2443
   2514  N3         3.7210    4.0350   -2.8160 N.ar  311  U311       -0.1530
   2515  C4         3.9500    3.5240   -1.5570 C.ar  311  U311        0.2846
   2516  O4         3.0120    3.0250   -0.9310 O.2   311  U311       -0.2650
   2517  C5         5.3060    3.6410   -1.1080 C.ar  311  U311        0.0814
   2518  C6         6.2300    4.2110   -1.8960 C.ar  311  U311        0.0870
   2519  OP1        9.8300    2.5650   -0.9980 O.3   311  U311       -0.4373
   2520  OP2       11.3980    1.2900   -2.5780 O.co2 311  U311       -0.5172
   2521  P          9.1310    9.0400   -2.0320 P.3   312  C312        0.2141
   2522  C5'       10.1550    8.5770    0.3460 C.3   312  C312        0.1812
   2523  O5'       10.3510    8.9660   -1.0090 O.3   312  C312       -0.3114
   2524  C4'       11.0730    9.3310    1.2770 C.3   312  C312        0.1773
   2525  O4'       12.4160    9.3450    0.7250 O.3   312  C312       -0.3307
   2526  C3'       10.7320   10.8000    1.4900 C.3   312  C312        0.1860
   2527  O3'        9.7630   10.9820    2.5100 O.3   312  C312       -0.3112
   2528  C2'       12.0810   11.4230    1.8240 C.3   312  C312        0.2309
   2529  O2'       12.4050   11.2090    3.1900 O.3   312  C312       -0.2156
   2530  C1'       13.0320   10.5890    0.9670 C.3   312  C312        0.2420
   2531  N1        13.3380   11.2220   -0.3370 N.ar  312  C312       -0.2535
   2532  C2        14.1920   12.3310   -0.3860 C.ar  312  C312        0.3532
   2533  O2        14.6630   12.7800    0.6670 O.2   312  C312       -0.2443
   2534  N3        14.4790   12.8980   -1.5820 N.ar  312  C312       -0.1739
   2535  C4        13.9570   12.3920   -2.7020 C.ar  312  C312        0.1759
   2536  N4        14.2700   12.9860   -3.8560 N.pl3 312  C312       -0.1070
   2537  C5        13.0910   11.2590   -2.6920 C.ar  312  C312        0.0566
   2538  C6        12.8180   10.7150   -1.4980 C.ar  312  C312        0.0850
   2539  OP1        7.8810    8.7300   -1.2870 O.3   312  C312       -0.4373
   2540  OP2        9.2370   10.3180   -2.7820 O.co2 312  C312       -0.5172
   2541  P          8.7760   12.2520    2.4990 P.3   313  C313        0.2141
   2542  C5'       10.3630   13.7910    3.9100 C.3   313  C313        0.1812
   2543  O5'        9.7400   13.5120    2.6660 O.3   313  C313       -0.3114
   2544  C4'       11.1290   15.0890    3.8710 C.3   313  C313        0.1773
   2545  O4'       12.2930   14.9540    3.0150 O.3   313  C313       -0.3307
   2546  C3'       10.3860   16.2830    3.2950 C.3   313  C313        0.1860
   2547  O3'        9.5040   16.8840    4.2240 O.3   313  C313       -0.3112
   2548  C2'       11.5210   17.1960    2.8500 C.3   313  C313        0.2309
   2549  O2'       12.0710   17.8930    3.9560 O.3   313  C313       -0.2156
   2550  C1'       12.5520   16.1800    2.3610 C.3   313  C313        0.2420
   2551  N1        12.4600   15.9680    0.9010 N.ar  313  C313       -0.2535
   2552  C2        13.0140   16.9340    0.0560 C.ar  313  C313        0.3532
   2553  O2        13.5620   17.9280    0.5530 O.2   313  C313       -0.2443
   2554  N3        12.9440   16.7640   -1.2820 N.ar  313  C313       -0.1739
   2555  C4        12.3460   15.6780   -1.7750 C.ar  313  C313        0.1759
   2556  N4        12.2990   15.5500   -3.1010 N.pl3 313  C313       -0.1070
   2557  C5        11.7690   14.6750   -0.9400 C.ar  313  C313        0.0566
   2558  C6        11.8480   14.8590    0.3840 C.ar  313  C313        0.0850
   2559  OP1        7.9310   12.1820    3.7200 O.3   313  C313       -0.4373
   2560  OP2        8.1340   12.3280    1.1630 O.co2 313  C313       -0.5172
   2561  P          8.2670   17.7670    3.7050 P.3   314  G314        0.2141
   2562  C5'        9.5740   20.0120    4.0440 C.3   314  G314        0.1812
   2563  O5'        8.9480   19.0990    3.1560 O.3   314  G314       -0.3114
   2564  C4'       10.1880   21.1750    3.3070 C.3   314  G314        0.1773
   2565  O4'       11.2710   20.7170    2.4560 O.3   314  G314       -0.3307
   2566  C3'        9.2750   21.9270    2.3520 C.3   314  G314        0.1860
   2567  O3'        8.3970   22.8270    3.0030 O.3   314  G314       -0.3112
   2568  C2'       10.2700   22.6100    1.4260 C.3   314  G314        0.2309
   2569  O2'       10.8430   23.7440    2.0600 O.3   314  G314       -0.2156
   2570  C1'       11.3490   21.5340    1.3040 C.3   314  G314        0.2408
   2571  N1        12.0520   21.0830   -3.7240 N.ar  314  G314       -0.1709
   2572  C2        12.4040   22.1130   -2.8800 C.ar  314  G314        0.2606
   2573  N2        13.0270   23.1490   -3.4620 N.pl3 314  G314       -0.0859
   2574  N3        12.1650   22.1230   -1.5740 N.ar  314  G314       -0.1918
   2575  C4        11.5350   20.9960   -1.1770 C.ar  314  G314        0.1723
   2576  C5        11.1420   19.9120   -1.9400 C.ar  314  G314        0.1748
   2577  C6        11.4040   19.9160   -3.3350 C.ar  314  G314        0.3023
   2578  O6        11.1300   19.0460   -4.1730 O.2   314  G314       -0.2633
   2579  N7        10.5220   18.9540   -1.1530 N.ar  314  G314       -0.2173
   2580  C8        10.5500   19.4610    0.0480 C.ar  314  G314        0.1817
   2581  N9        11.1520   20.6940    0.1080 N.ar  314  G314       -0.2693
   2582  OP1        7.4400   18.1180    4.8920 O.3   314  G314       -0.4373
   2583  OP2        7.6470   17.0730    2.5500 O.co2 314  G314       -0.5172
   2584  P          6.8930   23.0120    2.4670 P.3   315  U315        0.2141
   2585  C5'        7.5460   25.3330    1.4470 C.3   315  U315        0.1812
   2586  O5'        7.0360   24.0270    1.2510 O.3   315  U315       -0.3114
   2587  C4'        8.0670   25.9120    0.1560 C.3   315  U315        0.1773
   2588  O4'        9.1590   25.0960   -0.3500 O.3   315  U315       -0.3307
   2589  C3'        7.0930   25.9560   -1.0090 C.3   315  U315        0.1860
   2590  O3'        6.1500   27.0060   -0.9330 O.3   315  U315       -0.3112
   2591  C2'        8.0310   26.0600   -2.1990 C.3   315  U315        0.2309
   2592  O2'        8.5690   27.3690   -2.2910 O.3   315  U315       -0.2156
   2593  C1'        9.1470   25.1150   -1.7650 C.3   315  U315        0.2420
   2594  N1         8.9040   23.7450   -2.2680 N.ar  315  U315       -0.2534
   2595  C2         9.2590   23.5000   -3.5760 C.ar  315  U315        0.3546
   2596  O2         9.7640   24.3520   -4.2860 O.2   315  U315       -0.2443
   2597  N3         9.0100   22.2230   -4.0170 N.ar  315  U315       -0.1530
   2598  C4         8.4430   21.1940   -3.2900 C.ar  315  U315        0.2846
   2599  O4         8.2800   20.0960   -3.8190 O.2   315  U315       -0.2650
   2600  C5         8.0940   21.5270   -1.9440 C.ar  315  U315        0.0814
   2601  C6         8.3260   22.7640   -1.4940 C.ar  315  U315        0.0870
   2602  OP1        6.0900   23.6650    3.5340 O.3   315  U315       -0.4373
   2603  OP2        6.4530   21.7140    1.8850 O.co2 315  U315       -0.5172
   2604  P          4.6580   26.7710   -1.4840 P.3   316  C316        0.2141
   2605  C5'        5.4310   27.7310   -3.8030 C.3   316  C316        0.1812
   2606  O5'        4.8350   26.6770   -3.0650 O.3   316  C316       -0.3114
   2607  C4'        5.7660   27.2940   -5.2060 C.3   316  C316        0.1773
   2608  O4'        6.7270   26.2050   -5.1800 O.3   316  C316       -0.3307
   2609  C3'        4.6150   26.7330   -6.0190 C.3   316  C316        0.1860
   2610  O3'        3.7670   27.7300   -6.5520 O.3   316  C316       -0.3112
   2611  C2'        5.3350   25.9170   -7.0800 C.3   316  C316        0.2309
   2612  O2'        5.8800   26.7660   -8.0780 O.3   316  C316       -0.2156
   2613  C1'        6.4870   25.3310   -6.2650 C.3   316  C316        0.2420
   2614  N1         6.1460   23.9890   -5.7400 N.ar  316  C316       -0.2535
   2615  C2         6.1970   22.8970   -6.6150 C.ar  316  C316        0.3532
   2616  O2         6.5290   23.0730   -7.7970 O.2   316  C316       -0.2443
   2617  N3         5.8860   21.6660   -6.1520 N.ar  316  C316       -0.1739
   2618  C4         5.5320   21.5010   -4.8750 C.ar  316  C316        0.1759
   2619  N4         5.2350   20.2650   -4.4660 N.pl3 316  C316       -0.1070
   2620  C5         5.4660   22.5930   -3.9610 C.ar  316  C316        0.0566
   2621  C6         5.7770   23.8070   -4.4350 C.ar  316  C316        0.0850
   2622  OP1        3.8470   27.9730   -1.1540 O.2   316  C316       -0.5172
   2623  OP2        4.2140   25.4260   -1.0320 O.co2 316  C316       -0.4373
   2624  P          2.2110   27.4080   -6.7690 P.3   317  C317        0.2141
   2625  C5'        2.7170   26.9730   -9.2990 C.3   317  C317        0.1812
   2626  O5'        2.1930   26.4930   -8.0720 O.3   317  C317       -0.3114
   2627  C4'        2.7640   25.8860  -10.3400 C.3   317  C317        0.1773
   2628  O4'        3.6950   24.8470   -9.9340 O.3   317  C317       -0.3307
   2629  C3'        1.4710   25.1310  -10.5840 C.3   317  C317        0.1860
   2630  O3'        0.5440   25.8390  -11.3890 O.3   317  C317       -0.3112
   2631  C2'        1.9710   23.8390  -11.2130 C.3   317  C317        0.2309
   2632  O2'        2.3500   24.0530  -12.5640 O.3   317  C317       -0.2156
   2633  C1'        3.2390   23.5920  -10.3990 C.3   317  C317        0.2420
   2634  N1         2.9710   22.7140   -9.2380 N.ar  317  C317       -0.2535
   2635  C2         2.7980   21.3490   -9.4790 C.ar  317  C317        0.3532
   2636  O2         2.8830   20.9310  -10.6430 O.2   317  C317       -0.2443
   2637  N3         2.5450   20.5170   -8.4400 N.ar  317  C317       -0.1739
   2638  C4         2.4620   21.0070   -7.2000 C.ar  317  C317        0.1759
   2639  N4         2.2130   20.1510   -6.2070 N.pl3 317  C317       -0.1070
   2640  C5         2.6300   22.3980   -6.9240 C.ar  317  C317        0.0566
   2641  C6         2.8780   23.2050   -7.9650 C.ar  317  C317        0.0850
   2642  OP1        1.5120   28.6890   -7.0700 O.2   317  C317       -0.5172
   2643  OP2        1.7670   26.5580   -5.6320 O.co2 317  C317       -0.4373
   2644  P         -1.0270   25.7540  -11.0570 P.3   318  U318        0.2141
   2645  C5'       -1.2210   23.7120  -12.6940 C.3   318  U318        0.1812
   2646  O5'       -1.4180   24.2450  -11.3940 O.3   318  U318       -0.3114
   2647  C4'       -1.6200   22.2600  -12.7600 C.3   318  U318        0.1773
   2648  O4'       -0.6990   21.4520  -11.9850 O.3   318  U318       -0.3307
   2649  C3'       -2.9810   21.9200  -12.1810 C.3   318  U318        0.1860
   2650  O3'       -4.0430   22.2280  -13.0640 O.3   318  U318       -0.3112
   2651  C2'       -2.8480   20.4320  -11.8730 C.3   318  U318        0.2309
   2652  O2'       -3.0270   19.6540  -13.0460 O.3   318  U318       -0.2156
   2653  C1'       -1.3800   20.3360  -11.4470 C.3   318  U318        0.2420
   2654  N1        -1.2320   20.3400   -9.9760 N.ar  318  U318       -0.2534
   2655  C2        -1.3110   19.1160   -9.3530 C.ar  318  U318        0.3546
   2656  O2        -1.4830   18.0800   -9.9710 O.2   318  U318       -0.2443
   2657  N3        -1.1750   19.1470   -7.9890 N.ar  318  U318       -0.1530
   2658  C4        -0.9770   20.2660   -7.2050 C.ar  318  U318        0.2846
   2659  O4        -0.8750   20.1360   -5.9860 O.2   318  U318       -0.2650
   2660  C5        -0.9080   21.5030   -7.9220 C.ar  318  U318        0.0814
   2661  C6        -1.0370   21.4940   -9.2540 C.ar  318  U318        0.0870
   2662  OP1       -1.7550   26.6440  -12.0020 O.2   318  U318       -0.5172
   2663  OP2       -1.1860   25.9200   -9.5870 O.co2 318  U318       -0.4373
   2664  P         -5.2960   23.0860  -12.5420 P.3   319  A319        0.2141
   2665  C5'       -7.0620   22.5910  -10.6580 C.3   319  A319        0.1812
   2666  O5'       -5.9500   22.1560  -11.4270 O.3   319  A319       -0.3114
   2667  C4'       -8.0600   21.4780  -10.4760 C.3   319  A319        0.1773
   2668  O4'       -8.6880   21.1950  -11.7500 O.3   319  A319       -0.3307
   2669  C3'       -7.4750   20.1450  -10.0240 C.3   319  A319        0.1860
   2670  O3'       -7.3890   20.0590   -8.6100 O.3   319  A319       -0.3112
   2671  C2'       -8.4230   19.1150  -10.6280 C.3   319  A319        0.2309
   2672  O2'       -9.5600   18.9360   -9.7970 O.3   319  A319       -0.2156
   2673  C1'       -8.8710   19.8090  -11.9150 C.3   319  A319        0.2408
   2674  N1        -7.8270   16.0550  -15.3340 N.ar  319  A319       -0.2040
   2675  C2        -8.6260   16.0850  -14.2590 C.ar  319  A319        0.2016
   2676  N3        -8.8520   17.0850  -13.4070 N.ar  319  A319       -0.2048
   2677  C4        -8.1430   18.1740  -13.7510 C.ar  319  A319        0.1692
   2678  C5        -7.2790   18.2960  -14.8290 C.ar  319  A319        0.1518
   2679  C6        -7.1240   17.1660  -15.6550 C.ar  319  A319        0.1919
   2680  N6        -6.3230   17.1360  -16.7270 N.pl3 319  A319       -0.1054
   2681  N7        -6.7200   19.5680  -14.8710 N.ar  319  A319       -0.2193
   2682  C8        -7.2490   20.1730  -13.8350 C.ar  319  A319        0.1816
   2683  N9        -8.1090   19.3870  -13.1060 N.ar  319  A319       -0.2693
   2684  OP1       -6.2640   23.2030  -13.6660 O.2   319  A319       -0.5172
   2685  OP2       -4.7550   24.3100  -11.8850 O.co2 319  A319       -0.4373
   2686  P         -6.1500   19.3290   -7.8960 P.3   320  A320        0.2141
   2687  C5'       -7.3650   17.0080   -7.7310 C.3   320  A320        0.1812
   2688  O5'       -6.3270   17.7980   -8.2900 O.3   320  A320       -0.3114
   2689  C4'       -7.5200   15.7250   -8.5020 C.3   320  A320        0.1773
   2690  O4'       -7.7370   16.0470   -9.8990 O.3   320  A320       -0.3307
   2691  C3'       -6.3010   14.8120   -8.5100 C.3   320  A320        0.1860
   2692  O3'       -6.2410   13.9670   -7.3700 O.3   320  A320       -0.3112
   2693  C2'       -6.4530   14.0480   -9.8210 C.3   320  A320        0.2309
   2694  O2'       -7.3620   12.9690   -9.6680 O.3   320  A320       -0.2156
   2695  C1'       -7.1060   15.0940  -10.7240 C.3   320  A320        0.2408
   2696  N1        -4.5510   15.0250  -15.2170 N.ar  320  A320       -0.2040
   2697  C2        -5.3960   14.1500  -14.6530 C.ar  320  A320        0.2016
   2698  N3        -6.0210   14.2320  -13.4800 N.ar  320  A320       -0.2048
   2699  C4        -5.7040   15.3740  -12.8400 C.ar  320  A320        0.1692
   2700  C5        -4.8510   16.3690  -13.2940 C.ar  320  A320        0.1518
   2701  C6        -4.2480   16.1650  -14.5510 C.ar  320  A320        0.1919
   2702  N6        -3.4050   17.0320  -15.1190 N.pl3 320  A320       -0.1054
   2703  N7        -4.7630   17.4000  -12.3690 N.ar  320  A320       -0.2193
   2704  C8        -5.5540   17.0120  -11.3950 C.ar  320  A320        0.1816
   2705  N9        -6.1500   15.7920  -11.6070 N.ar  320  A320       -0.2693
   2706  OP1       -6.3270   19.4400   -6.4210 O.3   320  A320       -0.4373
   2707  OP2       -4.9010   19.8300   -8.5280 O.co2 320  A320       -0.5172
   2708  P         -4.8340   13.6420   -6.6610 P.3   321  C321        0.2141
   2709  C5'       -4.8340   11.2780   -7.8140 C.3   321  C321        0.1812
   2710  O5'       -4.1790   12.5170   -7.5810 O.3   321  C321       -0.3114
   2711  C4'       -4.3100   10.6180   -9.0640 C.3   321  C321        0.1773
   2712  O4'       -4.6360   11.4340  -10.2200 O.3   321  C321       -0.3307
   2713  C3'       -2.8020   10.4590   -9.1370 C.3   321  C321        0.1860
   2714  O3'       -2.3300    9.3360   -8.4170 O.3   321  C321       -0.3112
   2715  C2'       -2.5410   10.3950  -10.6390 C.3   321  C321        0.2309
   2716  O2'       -2.8490    9.1080  -11.1490 O.3   321  C321       -0.2156
   2717  C1'       -3.5900   11.3720  -11.1670 C.3   321  C321        0.2420
   2718  N1        -3.0520   12.7400  -11.3670 N.ar  321  C321       -0.2535
   2719  C2        -2.5630   13.0860  -12.6280 C.ar  321  C321        0.3532
   2720  O2        -2.5850   12.2430  -13.5290 O.2   321  C321       -0.2443
   2721  N3        -2.0810   14.3300  -12.8390 N.ar  321  C321       -0.1739
   2722  C4        -2.0730   15.2180  -11.8450 C.ar  321  C321        0.1759
   2723  N4        -1.5840   16.4290  -12.1000 N.pl3 321  C321       -0.1070
   2724  C5        -2.5650   14.9020  -10.5450 C.ar  321  C321        0.0566
   2725  C6        -3.0430   13.6660  -10.3560 C.ar  321  C321        0.0850
   2726  OP1       -5.1080   13.0440   -5.3260 O.3   321  C321       -0.4373
   2727  OP2       -3.9900   14.8600   -6.7690 O.co2 321  C321       -0.5172
   2728  P         -0.8650    9.3670   -7.7710 P.3   322  G322        0.2141
   2729  C5'        1.3260    9.8720   -9.1050 C.3   322  G322        0.1812
   2730  O5'        0.0900    9.1850   -9.0320 O.3   322  G322       -0.3114
   2731  C4'        1.4040   10.7440  -10.3320 C.3   322  G322        0.1773
   2732  O4'        0.3870   11.7800  -10.2710 O.3   322  G322       -0.3307
   2733  C3'        2.7090   11.5040  -10.5010 C.3   322  G322        0.1860
   2734  O3'        3.7120   10.7190  -11.1170 O.3   322  G322       -0.3112
   2735  C2'        2.2950   12.7240  -11.3090 C.3   322  G322        0.2309
   2736  O2'        2.1590   12.3980  -12.6840 O.3   322  G322       -0.2156
   2737  C1'        0.9090   13.0060  -10.7340 C.3   322  G322        0.2408
   2738  N1         1.9790   17.6790   -8.9190 N.ar  322  G322       -0.1709
   2739  C2         2.0600   17.2220  -10.2120 C.ar  322  G322        0.2606
   2740  N2         2.4770   18.1230  -11.1120 N.pl3 322  G322       -0.0859
   2741  N3         1.7600   15.9830  -10.5890 N.ar  322  G322       -0.1918
   2742  C4         1.3600   15.2310   -9.5390 C.ar  322  G322        0.1723
   2743  C5         1.2460   15.5950   -8.2100 C.ar  322  G322        0.1748
   2744  C6         1.5720   16.9200   -7.8250 C.ar  322  G322        0.3023
   2745  O6         1.5270   17.4220   -6.6940 O.2   322  G322       -0.2633
   2746  N7         0.8030   14.5340   -7.4350 N.ar  322  G322       -0.2173
   2747  C8         0.6610   13.5620   -8.2880 C.ar  322  G322        0.1817
   2748  N9         0.9770   13.9140   -9.5770 N.ar  322  G322       -0.2693
   2749  OP1       -0.7200    8.1950   -6.8650 O.3   322  G322       -0.4373
   2750  OP2       -0.6500   10.7310   -7.2260 O.co2 322  G322       -0.5172
   2751  P          5.2290   10.8130  -10.6050 P.3   323  G323        0.2141
   2752  C5'        5.6560   12.4560  -12.5940 C.3   323  G323        0.1812
   2753  O5'        5.7390   12.2000  -11.2010 O.3   323  G323       -0.3114
   2754  C4'        5.8010   13.9230  -12.9150 C.3   323  G323        0.1773
   2755  O4'        4.8800   14.7020  -12.1120 O.3   323  G323       -0.3307
   2756  C3'        7.1590   14.5430  -12.6360 C.3   323  G323        0.1860
   2757  O3'        8.0820   14.2970  -13.6830 O.3   323  G323       -0.3112
   2758  C2'        6.8270   16.0230  -12.4780 C.3   323  G323        0.2309
   2759  O2'        6.7110   16.6370  -13.7510 O.3   323  G323       -0.2156
   2760  C1'        5.4370   15.9700  -11.8390 C.3   323  G323        0.2408
   2761  N1         5.7960   19.2450   -7.9330 N.ar  323  G323       -0.1709
   2762  C2         5.8130   19.5020   -9.2800 C.ar  323  G323        0.2606
   2763  N2         5.9420   20.7940   -9.6030 N.pl3 323  G323       -0.0859
   2764  N3         5.7130   18.5750  -10.2220 N.ar  323  G323       -0.1918
   2765  C4         5.5920   17.3390   -9.6860 C.ar  323  G323        0.1723
   2766  C5         5.5640   16.9770   -8.3510 C.ar  323  G323        0.1748
   2767  C6         5.6730   17.9880   -7.3590 C.ar  323  G323        0.3023
   2768  O6         5.6720   17.8760   -6.1270 O.2   323  G323       -0.2633
   2769  N7         5.4290   15.6040   -8.2130 N.ar  323  G323       -0.2173
   2770  C8         5.3750   15.1630   -9.4380 C.ar  323  G323        0.1817
   2771  N9         5.4730   16.1560  -10.3780 N.ar  323  G323       -0.2693
   2772  OP1        5.9920    9.7130  -11.2500 O.2   323  G323       -0.5172
   2773  OP2        5.2100   10.9320   -9.1230 O.co2 323  G323       -0.4373
   2774  P          9.3150   13.2860  -13.4840 P.3   324  C324        0.2141
   2775  C5'       10.7290   15.4520  -13.0240 C.3   324  C324        0.1812
   2776  O5'       10.3730   14.1310  -12.6450 O.3   324  C324       -0.3114
   2777  C4'       11.1010   16.2670  -11.8140 C.3   324  C324        0.1773
   2778  O4'        9.9400   16.4030  -10.9600 O.3   324  C324       -0.3307
   2779  C3'       12.1600   15.6500  -10.9150 C.3   324  C324        0.1860
   2780  O3'       13.4750   15.9200  -11.3690 O.3   324  C324       -0.3112
   2781  C2'       11.8510   16.2550   -9.5480 C.3   324  C324        0.2309
   2782  O2'       12.4280   17.5430   -9.4280 O.3   324  C324       -0.2156
   2783  C1'       10.3290   16.4110   -9.6060 C.3   324  C324        0.2420
   2784  N1         9.6070   15.3300   -8.9010 N.ar  324  C324       -0.2535
   2785  C2         9.1870   15.5630   -7.5870 C.ar  324  C324        0.3532
   2786  O2         9.4360   16.6550   -7.0600 O.2   324  C324       -0.2443
   2787  N3         8.5170   14.5950   -6.9240 N.ar  324  C324       -0.1739
   2788  C4         8.2670   13.4310   -7.5270 C.ar  324  C324        0.1759
   2789  N4         7.6060   12.5040   -6.8330 N.pl3 324  C324       -0.1070
   2790  C5         8.6800   13.1630   -8.8670 C.ar  324  C324        0.0566
   2791  C6         9.3400   14.1350   -9.5120 C.ar  324  C324        0.0850
   2792  OP1        9.9120   13.0060  -14.8170 O.2   324  C324       -0.5172
   2793  OP2        8.8690   12.1500  -12.6380 O.co2 324  C324       -0.4373
   2794  P         14.6430   14.8240  -11.2170 P.3   325  G325        0.2141
   2795  C5'       14.7030   12.2730  -11.8430 C.3   325  G325        0.1812
   2796  O5'       13.9340   13.4390  -11.5630 O.3   325  G325       -0.3114
   2797  C4'       14.0090   11.0140  -11.3840 C.3   325  G325        0.1773
   2798  O4'       13.8890   11.0340   -9.9380 O.3   325  G325       -0.3307
   2799  C3'       12.5950   10.8030  -11.9240 C.3   325  G325        0.1860
   2800  O3'       12.3600    9.4040  -12.0820 O.3   325  G325       -0.3112
   2801  C2'       11.7240   11.3430  -10.7930 C.3   325  G325        0.2309
   2802  O2'       10.4120   10.8230  -10.7640 O.3   325  G325       -0.2156
   2803  C1'       12.5290   10.9240   -9.5660 C.3   325  G325        0.2408
   2804  N1        10.0920   11.5250   -5.1350 N.ar  325  G325       -0.1709
   2805  C2         9.9810   10.5140   -6.0590 C.ar  325  G325        0.2606
   2806  N2         9.1110    9.5420   -5.7520 N.pl3 325  G325       -0.0859
   2807  N3        10.6650   10.4580   -7.1920 N.ar  325  G325       -0.1918
   2808  C4        11.4920   11.5160   -7.3220 C.ar  325  G325        0.1723
   2809  C5        11.6740   12.5810   -6.4590 C.ar  325  G325        0.1748
   2810  C6        10.9320   12.6280   -5.2470 C.ar  325  G325        0.3023
   2811  O6        10.9550   13.4840   -4.3490 O.2   325  G325       -0.2633
   2812  N7        12.6150   13.4670   -6.9670 N.ar  325  G325       -0.2173
   2813  C8        12.9780   12.9400   -8.1040 C.ar  325  G325        0.1817
   2814  N9        12.3260   11.7630   -8.3860 N.ar  325  G325       -0.2693
   2815  OP1       15.0550   14.7950   -9.7920 O.3   325  G325       -0.4373
   2816  OP2       15.6570   15.1030  -12.2720 O.co2 325  G325       -0.5172
   2817  P         12.6810    8.6830  -13.4840 P.3   326  A326        0.2141
   2818  C5'       14.8690    7.7250  -12.3770 C.3   326  A326        0.1812
   2819  O5'       14.2540    8.4290  -13.4470 O.3   326  A326       -0.3114
   2820  C4'       16.1780    7.1160  -12.8100 C.3   326  A326        0.1773
   2821  O4'       15.9210    5.8930  -13.5520 O.3   326  A326       -0.3307
   2822  C3'       17.0150    7.9590  -13.7630 C.3   326  A326        0.1860
   2823  O3'       17.7970    8.9460  -13.1100 O.3   326  A326       -0.3112
   2824  C2'       17.8380    6.9130  -14.5000 C.3   326  A326        0.2309
   2825  O2'       18.9150    6.4640  -13.6910 O.3   326  A326       -0.2156
   2826  C1'       16.8260    5.7790  -14.6300 C.3   326  A326        0.2408
   2827  N1        16.7310    6.5110  -19.8070 N.ar  326  A326       -0.2040
   2828  C2        17.7440    6.5140  -18.9330 C.ar  326  A326        0.2016
   2829  N3        17.7310    6.3190  -17.6150 N.ar  326  A326       -0.2048
   2830  C4        16.4780    6.0990  -17.1740 C.ar  326  A326        0.1692
   2831  C5        15.3340    6.0730  -17.9590 C.ar  326  A326        0.1518
   2832  C6        15.4840    6.2900  -19.3410 C.ar  326  A326        0.1919
   2833  N6        14.4720    6.2900  -20.2120 N.pl3 326  A326       -0.1054
   2834  N7        14.2160    5.8250  -17.1830 N.ar  326  A326       -0.2193
   2835  C8        14.6880    5.7070  -15.9690 C.ar  326  A326        0.1816
   2836  N9        16.0460    5.8650  -15.8810 N.ar  326  A326       -0.2693
   2837  OP1       12.4290    9.6750  -14.5600 O.2   326  A326       -0.5172
   2838  OP2       11.9850    7.3660  -13.5140 O.co2 326  A326       -0.4373
   2839  P         18.0940   10.3470  -13.8440 P.3   327  C327        0.2141
   2840  C5'       20.0220    9.5090  -15.4240 C.3   327  C327        0.1812
   2841  O5'       18.6720    9.9270  -15.2700 O.3   327  C327       -0.3114
   2842  C4'       20.4810    9.6490  -16.8540 C.3   327  C327        0.1773
   2843  O4'       19.6250    8.8640  -17.7230 O.3   327  C327       -0.3307
   2844  C3'       20.4150   11.0540  -17.4340 C.3   327  C327        0.1860
   2845  O3'       21.5410   11.8420  -17.0800 O.3   327  C327       -0.3112
   2846  C2'       20.3000   10.7990  -18.9330 C.3   327  C327        0.2309
   2847  O2'       21.5740   10.5160  -19.4920 O.3   327  C327       -0.2156
   2848  C1'       19.4660    9.5160  -18.9660 C.3   327  C327        0.2420
   2849  N1        18.0210    9.7690  -19.1880 N.ar  327  C327       -0.2535
   2850  C2        17.5470    9.9550  -20.4920 C.ar  327  C327        0.3532
   2851  O2        18.3470    9.9220  -21.4390 O.2   327  C327       -0.2443
   2852  N3        16.2260   10.1730  -20.6920 N.ar  327  C327       -0.1739
   2853  C4        15.3870   10.2060  -19.6550 C.ar  327  C327        0.1759
   2854  N4        14.0940   10.4250  -19.9010 N.pl3 327  C327       -0.1070
   2855  C5        15.8370   10.0140  -18.3170 C.ar  327  C327        0.0566
   2856  C6        17.1470    9.7970  -18.1350 C.ar  327  C327        0.0850
   2857  OP1       19.1630   11.0670  -13.1040 O.3   327  C327       -0.4373
   2858  OP2       16.7870   11.0150  -14.0640 O.co2 327  C327       -0.5172
   2859  P         21.3740   13.4050  -16.7340 P.3   328  A328        0.2141
   2860  C5'       20.0870   14.4130  -18.7910 C.3   328  A328        0.1812
   2861  O5'       21.3270   14.1160  -18.1610 O.3   328  A328       -0.3114
   2862  C4'       20.2070   14.3860  -20.2940 C.3   328  A328        0.1773
   2863  O4'       19.3290   13.3630  -20.8390 O.3   328  A328       -0.3307
   2864  C3'       19.7730   15.6460  -21.0250 C.3   328  A328        0.1860
   2865  O3'       20.7080   16.7080  -20.9830 O.3   328  A328       -0.3112
   2866  C2'       19.4760   15.1250  -22.4240 C.3   328  A328        0.2309
   2867  O2'       20.6820   14.8820  -23.1350 O.3   328  A328       -0.2156
   2868  C1'       18.8320   13.7780  -22.0980 C.3   328  A328        0.2408
   2869  N1        14.4010   16.4320  -21.0300 N.ar  328  A328       -0.2040
   2870  C2        15.6820   16.7960  -20.9210 C.ar  328  A328        0.2016
   2871  N3        16.7730   16.0930  -21.2000 N.ar  328  A328       -0.2048
   2872  C4        16.4870   14.8560  -21.6530 C.ar  328  A328        0.1692
   2873  C5        15.2070   14.3480  -21.8170 C.ar  328  A328        0.1518
   2874  C6        14.1250   15.1900  -21.4840 C.ar  328  A328        0.1919
   2875  N6        12.8430   14.8300  -21.5900 N.pl3 328  A328       -0.1054
   2876  N7        15.2490   13.0490  -22.2980 N.ar  328  A328       -0.2193
   2877  C8        16.5280   12.8010  -22.4160 C.ar  328  A328        0.1816
   2878  N9        17.3510   13.8380  -22.0480 N.ar  328  A328       -0.2693
   2879  OP1       22.5970   13.8510  -16.0160 O.3   328  A328       -0.4373
   2880  OP2       20.0540   13.5880  -16.0830 O.co2 328  A328       -0.5172
   2881  P         20.1750   18.2170  -20.8260 P.3   329  G329        0.2141
   2882  C5'       18.3140   18.4920  -22.6740 C.3   329  G329        0.1812
   2883  O5'       19.6800   18.6120  -22.2900 O.3   329  G329       -0.3114
   2884  C4'       18.0660   19.1920  -23.9850 C.3   329  G329        0.1773
   2885  O4'       18.9770   18.6820  -24.9980 O.3   329  G329       -0.3307
   2886  C3'       16.7000   19.0190  -24.6310 C.3   329  G329        0.1860
   2887  O3'       15.6630   19.7880  -24.0450 O.3   329  G329       -0.3112
   2888  C2'       16.9970   19.4110  -26.0660 C.3   329  G329        0.2309
   2889  O2'       17.1720   20.8160  -26.1590 O.3   329  G329       -0.2156
   2890  C1'       18.3540   18.7430  -26.2660 C.3   329  G329        0.2408
   2891  N1        17.1910   16.0380  -30.3590 N.ar  329  G329       -0.1709
   2892  C2        17.3420   17.3990  -30.2030 C.ar  329  G329        0.2606
   2893  N2        17.1500   18.1480  -31.2990 N.pl3 329  G329       -0.0859
   2894  N3        17.6580   17.9840  -29.0600 N.ar  329  G329       -0.1918
   2895  C4        17.8130   17.0820  -28.0700 C.ar  329  G329        0.1723
   2896  C5        17.6850   15.7090  -28.1130 C.ar  329  G329        0.1748
   2897  C6        17.3430   15.0930  -29.3460 C.ar  329  G329        0.3023
   2898  O6        17.1850   13.8890  -29.5890 O.2   329  G329       -0.2633
   2899  N7        17.9290   15.1570  -26.8600 N.ar  329  G329       -0.2173
   2900  C8        18.1940   16.1850  -26.0960 C.ar  329  G329        0.1817
   2901  N9        18.1570   17.3780  -26.7770 N.ar  329  G329       -0.2693
   2902  OP1       21.3220   19.0900  -20.4600 O.2   329  G329       -0.5172
   2903  OP2       18.9750   18.1720  -19.9520 O.co2 329  G329       -0.4373
   2904  P         14.1240   19.3570  -24.2660 P.3   330  A330        0.2141
   2905  C5'       13.9240   20.8930  -26.3920 C.3   330  A330        0.1812
   2906  O5'       13.8530   19.5940  -25.8220 O.3   330  A330       -0.3114
   2907  C4'       13.6680   20.8710  -27.8800 C.3   330  A330        0.1773
   2908  O4'       14.6280   20.0130  -28.5530 O.3   330  A330       -0.3307
   2909  C3'       12.3240   20.3180  -28.3170 C.3   330  A330        0.1860
   2910  O3'       11.2690   21.2440  -28.1570 O.3   330  A330       -0.3112
   2911  C2'       12.5850   19.9260  -29.7640 C.3   330  A330        0.2309
   2912  O2'       12.5760   21.0700  -30.6050 O.3   330  A330       -0.2156
   2913  C1'       14.0180   19.4010  -29.6750 C.3   330  A330        0.2408
   2914  N1        13.3420   14.8040  -31.9070 N.ar  330  A330       -0.2040
   2915  C2        13.2360   16.0560  -32.3750 C.ar  330  A330        0.2016
   2916  N3        13.4260   17.2090  -31.7320 N.ar  330  A330       -0.2048
   2917  C4        13.7690   16.9930  -30.4490 C.ar  330  A330        0.1692
   2918  C5        13.9170   15.7660  -29.8220 C.ar  330  A330        0.1518
   2919  C6        13.6890   14.6200  -30.6100 C.ar  330  A330        0.1919
   2920  N6        13.7930   13.3700  -30.1490 N.pl3 330  A330       -0.1054
   2921  N7        14.2810   15.9350  -28.4900 N.ar  330  A330       -0.2193
   2922  C8        14.3400   17.2390  -28.3460 C.ar  330  A330        0.1816
   2923  N9        14.0460   17.9380  -29.4910 N.ar  330  A330       -0.2693
   2924  OP1       13.2640   20.2910  -23.4950 O.3   330  A330       -0.4373
   2925  OP2       14.0260   17.8940  -24.0270 O.co2 330  A330       -0.5172
   2926  P          9.8110   20.7270  -27.7310 P.3   331  C331        0.2141
   2927  C5'        8.9910   21.2090  -30.1710 C.3   331  C331        0.1812
   2928  O5'        9.1500   20.2820  -29.1110 O.3   331  C331       -0.3114
   2929  C4'        8.6660   20.5130  -31.4660 C.3   331  C331        0.1773
   2930  O4'        9.7910   19.6920  -31.8850 O.3   331  C331       -0.3307
   2931  C3'        7.5080   19.5310  -31.4320 C.3   331  C331        0.1860
   2932  O3'        6.2330   20.1470  -31.4510 O.3   331  C331       -0.3112
   2933  C2'        7.7970   18.6650  -32.6460 C.3   331  C331        0.2309
   2934  O2'        7.5040   19.3740  -33.8390 O.3   331  C331       -0.2156
   2935  C1'        9.3150   18.5340  -32.5430 C.3   331  C331        0.2420
   2936  N1         9.6980   17.3450  -31.7490 N.ar  331  C331       -0.2535
   2937  C2         9.6200   16.0870  -32.3530 C.ar  331  C331        0.3532
   2938  O2         9.2500   16.0040  -33.5300 O.2   331  C331       -0.2443
   2939  N3         9.9540   14.9890  -31.6440 N.ar  331  C331       -0.1739
   2940  C4        10.3490   15.1130  -30.3780 C.ar  331  C331        0.1759
   2941  N4        10.6720   14.0020  -29.7140 N.pl3 331  C331       -0.1070
   2942  C5        10.4340   16.3770  -29.7290 C.ar  331  C331        0.0566
   2943  C6        10.0980   17.4550  -30.4460 C.ar  331  C331        0.0850
   2944  OP1        9.0700   21.8960  -27.1870 O.2   331  C331       -0.5172
   2945  OP2        9.9660   19.4980  -26.9070 O.co2 331  C331       -0.4373
   2946  P          5.0480   19.5590  -30.5350 P.3   332  U332        0.2141
   2947  C5'        4.0320   18.3890  -32.6490 C.3   332  U332        0.1812
   2948  O5'        4.5440   18.2730  -31.3320 O.3   332  U332       -0.3114
   2949  C4'        3.9900   17.0530  -33.3500 C.3   332  U332        0.1773
   2950  O4'        5.3270   16.4870  -33.4160 O.3   332  U332       -0.3307
   2951  C3'        3.1650   15.9640  -32.6820 C.3   332  U332        0.1860
   2952  O3'        1.7750   16.0790  -32.9340 O.3   332  U332       -0.3112
   2953  C2'        3.7790   14.6960  -33.2530 C.3   332  U332        0.2309
   2954  O2'        3.3290   14.4870  -34.5800 O.3   332  U332       -0.2156
   2955  C1'        5.2570   15.0790  -33.3060 C.3   332  U332        0.2420
   2956  N1         5.9630   14.6650  -32.0740 N.ar  332  U332       -0.2534
   2957  C2         6.2820   13.3240  -31.9420 C.ar  332  U332        0.3546
   2958  O2         6.0200   12.4850  -32.7870 O.2   332  U332       -0.2443
   2959  N3         6.9240   12.9930  -30.7780 N.ar  332  U332       -0.1530
   2960  C4         7.2660   13.8480  -29.7530 C.ar  332  U332        0.2846
   2961  O4         7.8440   13.3940  -28.7650 O.2   332  U332       -0.2650
   2962  C5         6.9030   15.2180  -29.9590 C.ar  332  U332        0.0814
   2963  C6         6.2750   15.5690  -31.0860 C.ar  332  U332        0.0870
   2964  OP1        3.9460   20.5580  -30.5230 O.2   332  U332       -0.5172
   2965  OP2        5.6460   19.0900  -29.2580 O.co2 332  U332       -0.4373
   2966  P          0.7100   15.4880  -31.8840 P.3   333  G333        0.2141
   2967  C5'        0.2580   13.4210  -33.4500 C.3   333  G333        0.1812
   2968  O5'        0.6760   13.9230  -32.1910 O.3   333  G333       -0.3114
   2969  C4'        0.4650   11.9300  -33.5310 C.3   333  G333        0.1773
   2970  O4'        1.8800   11.6310  -33.4110 O.3   333  G333       -0.3307
   2971  C3'       -0.1790   11.1100  -32.4220 C.3   333  G333        0.1860
   2972  O3'       -1.5500   10.8440  -32.6530 O.3   333  G333       -0.3112
   2973  C2'        0.6790    9.8560  -32.3900 C.3   333  G333        0.2309
   2974  O2'        0.3150    8.9780  -33.4430 O.3   333  G333       -0.2156
   2975  C1'        2.0610   10.4280  -32.6940 C.3   333  G333        0.2408
   2976  N1         4.7260    8.5710  -28.7660 N.ar  333  G333       -0.1709
   2977  C2         4.1160    7.9020  -29.7990 C.ar  333  G333        0.2606
   2978  N2         4.2420    6.5680  -29.7690 N.pl3 333  G333       -0.0859
   2979  N3         3.4380    8.4880  -30.7770 N.ar  333  G333       -0.1918
   2980  C4         3.4240    9.8300  -30.6270 C.ar  333  G333        0.1723
   2981  C5         4.0020   10.5950  -29.6320 C.ar  333  G333        0.1748
   2982  C6         4.7230    9.9520  -28.5940 C.ar  333  G333        0.3023
   2983  O6         5.3020   10.4640  -27.6240 O.2   333  G333       -0.2633
   2984  N7         3.7590   11.9450  -29.8380 N.ar  333  G333       -0.2173
   2985  C8         3.0530   11.9760  -30.9340 C.ar  333  G333        0.1817
   2986  N9         2.8140   10.7310  -31.4650 N.ar  333  G333       -0.2693
   2987  OP1       -0.6160   16.0850  -32.1970 O.2   333  G333       -0.5172
   2988  OP2        1.2740   15.6320  -30.5160 O.co2 333  G333       -0.4373
   2989  P         -2.6140   11.0290  -31.4650 P.3   334  C334        0.2141
   2990  C5'       -2.7440    8.4250  -31.1930 C.3   334  C334        0.1812
   2991  O5'       -2.4840    9.6920  -30.6100 O.3   334  C334       -0.3114
   2992  C4'       -1.9820    7.3280  -30.4910 C.3   334  C334        0.1773
   2993  O4'       -0.5610    7.6240  -30.5060 O.3   334  C334       -0.3307
   2994  C3'       -2.2930    7.1290  -29.0170 C.3   334  C334        0.1860
   2995  O3'       -3.4780    6.3850  -28.7970 O.3   334  C334       -0.3112
   2996  C2'       -1.0390    6.4330  -28.5090 C.3   334  C334        0.2309
   2997  O2'       -1.0490    5.0620  -28.8730 O.3   334  C334       -0.2156
   2998  C1'        0.0430    7.1340  -29.3280 C.3   334  C334        0.2420
   2999  N1         0.6400    8.2670  -28.5870 N.ar  334  C334       -0.2535
   3000  C2         1.6080    7.9780  -27.6260 C.ar  334  C334        0.3532
   3001  O2         1.9410    6.7980  -27.4350 O.2   334  C334       -0.2443
   3002  N3         2.1660    8.9910  -26.9350 N.ar  334  C334       -0.1739
   3003  C4         1.7990   10.2520  -27.1570 C.ar  334  C334        0.1759
   3004  N4         2.3940   11.2040  -26.4310 N.pl3 334  C334       -0.1070
   3005  C5         0.8080   10.5790  -28.1300 C.ar  334  C334        0.0566
   3006  C6         0.2600    9.5620  -28.8140 C.ar  334  C334        0.0850
   3007  OP1       -3.9730   11.0730  -32.0720 O.2   334  C334       -0.5172
   3008  OP2       -2.1380   12.1500  -30.6130 O.co2 334  C334       -0.4373
   3009  P         -4.6050    6.9320  -27.7930 P.3   335  A335        0.2141
   3010  C5'       -3.4140    5.7390  -25.7700 C.3   335  A335        0.1812
   3011  O5'       -3.8840    6.9410  -26.3700 O.3   335  A335       -0.3114
   3012  C4'       -3.5270    5.7890  -24.2660 C.3   335  A335        0.1773
   3013  O4'       -2.9800    7.0500  -23.7860 O.3   335  A335       -0.3307
   3014  C3'       -4.9520    5.7120  -23.7160 C.3   335  A335        0.1860
   3015  O3'       -4.9400    5.0300  -22.4610 O.3   335  A335       -0.3112
   3016  C2'       -5.3010    7.1770  -23.4950 C.3   335  A335        0.2309
   3017  O2'       -6.3160    7.4020  -22.5410 O.3   335  A335       -0.2156
   3018  C1'       -3.9590    7.7410  -23.0350 C.3   335  A335        0.2408
   3019  N1        -2.3620   12.2390  -21.0890 N.ar  335  A335       -0.2040
   3020  C2        -2.3580   10.9930  -20.5940 C.ar  335  A335        0.2016
   3021  N3        -2.7880    9.8660  -21.1570 N.ar  335  A335       -0.2048
   3022  C4        -3.2800   10.1030  -22.3860 C.ar  335  A335        0.1692
   3023  C5        -3.3500   11.3280  -23.0300 C.ar  335  A335        0.1518
   3024  C6        -2.8620   12.4470  -22.3310 C.ar  335  A335        0.1919
   3025  N6        -2.8670   13.6910  -22.8250 N.pl3 335  A335       -0.1054
   3026  N7        -3.9160   11.1910  -24.2880 N.ar  335  A335       -0.2193
   3027  C8        -4.1650    9.9040  -24.3780 C.ar  335  A335        0.1816
   3028  N9        -3.8060    9.1820  -23.2640 N.ar  335  A335       -0.2693
   3029  OP1       -5.7090    5.9340  -27.7710 O.3   335  A335       -0.4373
   3030  OP2       -4.9020    8.3450  -28.1540 O.co2 335  A335       -0.5172
   3031  P         -5.3190    3.4670  -22.3810 P.3   336  C336        0.2141
   3032  C5'       -4.3040    1.5440  -20.9140 C.3   336  C336        0.1812
   3033  O5'       -4.1860    2.8530  -21.4470 O.3   336  C336       -0.3114
   3034  C4'       -3.4540    1.3780  -19.6820 C.3   336  C336        0.1773
   3035  O4'       -2.1440    1.9640  -19.9110 O.3   336  C336       -0.3307
   3036  C3'       -3.9480    2.0840  -18.4330 C.3   336  C336        0.1860
   3037  O3'       -4.9850    1.3890  -17.7620 O.3   336  C336       -0.3112
   3038  C2'       -2.6750    2.2210  -17.6160 C.3   336  C336        0.2309
   3039  O2'       -2.3200    0.9780  -17.0320 O.3   336  C336       -0.2156
   3040  C1'       -1.6630    2.5410  -18.7130 C.3   336  C336        0.2420
   3041  N1        -1.5300    4.0020  -18.9110 N.ar  336  C336       -0.2535
   3042  C2        -0.9170    4.7700  -17.9150 C.ar  336  C336        0.3532
   3043  O2        -0.4890    4.2220  -16.8900 O.2   336  C336       -0.2443
   3044  N3        -0.8000    6.1040  -18.0900 N.ar  336  C336       -0.1739
   3045  C4        -1.2660    6.6780  -19.2000 C.ar  336  C336        0.1759
   3046  N4        -1.1230    7.9990  -19.3160 N.pl3 336  C336       -0.1070
   3047  C5        -1.8970    5.9280  -20.2340 C.ar  336  C336        0.0566
   3048  C6        -2.0050    4.6070  -20.0440 C.ar  336  C336        0.0850
   3049  OP1       -5.1710    2.8720  -23.7360 O.2   336  C336       -0.5172
   3050  OP2       -6.6110    3.3400  -21.6540 O.co2 336  C336       -0.4373
   3051  P         -6.2420    2.2030  -17.1840 P.3   337  G337        0.2141
   3052  C5'       -4.9580    2.8520  -14.9790 C.3   337  G337        0.1812
   3053  O5'       -5.5950    3.2580  -16.1820 O.3   337  G337       -0.3114
   3054  C4'       -4.2660    4.0210  -14.3290 C.3   337  G337        0.1773
   3055  O4'       -3.3160    4.5940  -15.2700 O.3   337  G337       -0.3307
   3056  C3'       -5.1700    5.1900  -13.9550 C.3   337  G337        0.1860
   3057  O3'       -5.8210    5.0210  -12.7060 O.3   337  G337       -0.3112
   3058  C2'       -4.2180    6.3750  -13.9960 C.3   337  G337        0.2309
   3059  O2'       -3.4080    6.4030  -12.8310 O.3   337  G337       -0.2156
   3060  C1'       -3.3400    6.0030  -15.1860 C.3   337  G337        0.2408
   3061  N1        -4.5550   10.1140  -17.9420 N.ar  337  G337       -0.1709
   3062  C2        -3.9830   10.0410  -16.6910 C.ar  337  G337        0.2606
   3063  N2        -3.6980   11.2070  -16.0980 N.pl3 337  G337       -0.0859
   3064  N3        -3.7090    8.9090  -16.0650 N.ar  337  G337       -0.1918
   3065  C4        -4.0580    7.8370  -16.8060 C.ar  337  G337        0.1723
   3066  C5        -4.6330    7.8020  -18.0620 C.ar  337  G337        0.1748
   3067  C6        -4.9220    9.0200  -18.7220 C.ar  337  G337        0.3023
   3068  O6        -5.4290    9.1800  -19.8390 O.2   337  G337       -0.2633
   3069  N7        -4.8360    6.4960  -18.4790 N.ar  337  G337       -0.2173
   3070  C8        -4.3890    5.7760  -17.4900 C.ar  337  G337        0.1817
   3071  N9        -3.9010    6.5220  -16.4460 N.ar  337  G337       -0.2693
   3072  OP1       -7.0830    1.2670  -16.3970 O.3   337  G337       -0.4373
   3073  OP2       -6.8380    2.9850  -18.2970 O.co2 337  G337       -0.5172
   3074  P         -7.3510    5.4860  -12.5220 P.3   338  G338        0.2141
   3075  C5'       -6.5210    7.8040  -11.6220 C.3   338  G338        0.1812
   3076  O5'       -7.2770    7.0750  -12.5770 O.3   338  G338       -0.3114
   3077  C4'       -6.5390    9.2770  -11.9340 C.3   338  G338        0.1773
   3078  O4'       -5.8410    9.5220  -13.1830 O.3   338  G338       -0.3307
   3079  C3'       -7.9150    9.8790  -12.1590 C.3   338  G338        0.1860
   3080  O3'       -8.5870   10.1840  -10.9520 O.3   338  G338       -0.3112
   3081  C2'       -7.6060   11.0970  -13.0140 C.3   338  G338        0.2309
   3082  O2'       -7.0800   12.1410  -12.2130 O.3   338  G338       -0.2156
   3083  C1'       -6.4830   10.5580  -13.8980 C.3   338  G338        0.2408
   3084  N1        -8.4880   11.6420  -18.4290 N.ar  338  G338       -0.1709
   3085  C2        -8.0750   12.4810  -17.4200 C.ar  338  G338        0.2606
   3086  N2        -8.2140   13.7960  -17.6440 N.pl3 338  G338       -0.0859
   3087  N3        -7.5600   12.0650  -16.2730 N.ar  338  G338       -0.1918
   3088  C4        -7.4940   10.7220  -16.2160 C.ar  338  G338        0.1723
   3089  C5        -7.8770    9.7920  -17.1610 C.ar  338  G338        0.1748
   3090  C6        -8.4280   10.2530  -18.3910 C.ar  338  G338        0.3023
   3091  O6        -8.8340    9.6000  -19.3630 O.2   338  G338       -0.2633
   3092  N7        -7.6360    8.5040  -16.6980 N.ar  338  G338       -0.2173
   3093  C8        -7.1240    8.6760  -15.5070 C.ar  338  G338        0.1817
   3094  N9        -7.0100   10.0000  -15.1560 N.ar  338  G338       -0.2693
   3095  OP1       -7.7950    5.0820  -11.1600 O.3   338  G338       -0.4373
   3096  OP2       -8.1220    5.0420  -13.7110 O.co2 338  G338       -0.5172
   3097  P        -10.1690    9.9350  -10.8280 P.3   339  C339        0.2141
   3098  C5'      -10.7000   12.4510  -11.3490 C.3   339  C339        0.1812
   3099  O5'      -10.8160   11.0870  -11.7220 O.3   339  C339       -0.3114
   3100  C4'      -11.1700   13.3700  -12.4500 C.3   339  C339        0.1773
   3101  O4'      -10.3510   13.1750  -13.6360 O.3   339  C339       -0.3307
   3102  C3'      -12.5880   13.1450  -12.9480 C.3   339  C339        0.1860
   3103  O3'      -13.5780   13.7140  -12.1110 O.3   339  C339       -0.3112
   3104  C2'      -12.5430   13.7460  -14.3460 C.3   339  C339        0.2309
   3105  O2'      -12.5770   15.1630  -14.2810 O.3   339  C339       -0.2156
   3106  C1'      -11.1450   13.3260  -14.7970 C.3   339  C339        0.2420
   3107  N1       -11.1710   12.0370  -15.5260 N.ar  339  C339       -0.2535
   3108  C2       -11.5610   12.0230  -16.8690 C.ar  339  C339        0.3532
   3109  O2       -11.8720   13.0870  -17.4200 O.2   339  C339       -0.2443
   3110  N3       -11.5920   10.8510  -17.5410 N.ar  339  C339       -0.1739
   3111  C4       -11.2540    9.7210  -16.9160 C.ar  339  C339        0.1759
   3112  N4       -11.2960    8.5890  -17.6150 N.pl3 339  C339       -0.1070
   3113  C5       -10.8530    9.6990  -15.5490 C.ar  339  C339        0.0566
   3114  C6       -10.8290   10.8690  -14.9000 C.ar  339  C339        0.0850
   3115  OP1      -10.5260   10.1680   -9.4020 O.3   339  C339       -0.4373
   3116  OP2      -10.5080    8.6370  -11.4740 O.co2 339  C339       -0.5172
   3117  P        -15.0020   12.9840  -11.9490 P.3   340  C340        0.2141
   3118  C5'      -16.0760   14.6610  -13.6490 C.3   340  C340        0.1812
   3119  O5'      -15.7680   13.3180  -13.3060 O.3   340  C340       -0.3114
   3120  C4'      -16.6330   14.7710  -15.0450 C.3   340  C340        0.1773
   3121  O4'      -15.6330   14.3660  -16.0170 O.3   340  C340       -0.3307
   3122  C3'      -17.8250   13.8880  -15.3690 C.3   340  C340        0.1860
   3123  O3'      -19.0490   14.3810  -14.8580 O.3   340  C340       -0.3112
   3124  C2'      -17.7740   13.8240  -16.8880 C.3   340  C340        0.2309
   3125  O2'      -18.2630   15.0300  -17.4560 O.3   340  C340       -0.2156
   3126  C1'      -16.2650   13.7600  -17.1280 C.3   340  C340        0.2420
   3127  N1       -15.7880   12.3640  -17.2440 N.ar  340  C340       -0.2535
   3128  C2       -16.0380   11.6680  -18.4270 C.ar  340  C340        0.3532
   3129  O2       -16.6430   12.2320  -19.3460 O.2   340  C340       -0.2443
   3130  N3       -15.6140   10.3940  -18.5530 N.ar  340  C340       -0.1739
   3131  C4       -14.9650    9.8090  -17.5490 C.ar  340  C340        0.1759
   3132  N4       -14.5680    8.5470  -17.7250 N.pl3 340  C340       -0.1070
   3133  C5       -14.6950   10.4890  -16.3260 C.ar  340  C340        0.0566
   3134  C6       -15.1220   11.7550  -16.2180 C.ar  340  C340        0.0850
   3135  OP1      -15.7220   13.6360  -10.8210 O.3   340  C340       -0.4373
   3136  OP2      -14.7570   11.5170  -11.9190 O.co2 340  C340       -0.5172
   3137  P        -20.2290   13.3560  -14.4790 P.3   341  C341        0.2141
   3138  C5'      -21.4390   13.7290  -16.7680 C.3   341  C341        0.1812
   3139  O5'      -20.7570   12.8460  -15.8930 O.3   341  C341       -0.3114
   3140  C4'      -21.6600   13.1130  -18.1260 C.3   341  C341        0.1773
   3141  O4'      -20.3890   12.7140  -18.7070 O.3   341  C341       -0.3307
   3142  C3'      -22.4850   11.8370  -18.1730 C.3   341  C341        0.1860
   3143  O3'      -23.8820   12.0470  -18.0460 O.3   341  C341       -0.3112
   3144  C2'      -22.0740   11.2470  -19.5130 C.3   341  C341        0.2309
   3145  O2'      -22.6910   11.9560  -20.5750 O.3   341  C341       -0.2156
   3146  C1'      -20.5810   11.5770  -19.5290 C.3   341  C341        0.2420
   3147  N1       -19.7690   10.4480  -19.0140 N.ar  341  C341       -0.2535
   3148  C2       -19.5190    9.3820  -19.8850 C.ar  341  C341        0.3532
   3149  O2       -19.9690    9.4320  -21.0380 O.2   341  C341       -0.2443
   3150  N3       -18.7910    8.3250  -19.4600 N.ar  341  C341       -0.1739
   3151  C4       -18.3180    8.3010  -18.2140 C.ar  341  C341        0.1759
   3152  N4       -17.6010    7.2350  -17.8440 N.pl3 341  C341       -0.1070
   3153  C5       -18.5590    9.3710  -17.2980 C.ar  341  C341        0.0566
   3154  C6       -19.2840   10.4120  -17.7350 C.ar  341  C341        0.0850
   3155  OP1      -21.3100   14.1380  -13.8220 O.2   341  C341       -0.5172
   3156  OP2      -19.6350   12.1950  -13.7620 O.co2 341  C341       -0.4373
   3157  P        -24.7900   10.9740  -17.2610 P.3   342  U342        0.2141
   3158  C5'      -25.3300    9.6960  -19.4890 C.3   342  U342        0.1812
   3159  O5'      -24.7580    9.6770  -18.1890 O.3   342  U342       -0.3114
   3160  C4'      -24.8850    8.5170  -20.3230 C.3   342  U342        0.1773
   3161  O4'      -23.4330    8.4620  -20.3820 O.3   342  U342       -0.3307
   3162  C3'      -25.2720    7.1400  -19.8120 C.3   342  U342        0.1860
   3163  O3'      -26.6230    6.7970  -20.0600 O.3   342  U342       -0.3112
   3164  C2'      -24.2650    6.2420  -20.5160 C.3   342  U342        0.2309
   3165  O2'      -24.6160    6.0630  -21.8800 O.3   342  U342       -0.2156
   3166  C1'      -23.0100    7.1130  -20.4610 C.3   342  U342        0.2420
   3167  N1       -22.1800    6.7910  -19.2770 N.ar  342  U342       -0.2534
   3168  C2       -21.4270    5.6330  -19.3220 C.ar  342  U342        0.3546
   3169  O2       -21.4120    4.8860  -20.2850 O.2   342  U342       -0.2443
   3170  N3       -20.6840    5.3750  -18.1980 N.ar  342  U342       -0.1530
   3171  C4       -20.6190    6.1400  -17.0520 C.ar  342  U342        0.2846
   3172  O4       -19.9000    5.7780  -16.1160 O.2   342  U342       -0.2650
   3173  C5       -21.4280    7.3190  -17.0780 C.ar  342  U342        0.0814
   3174  C6       -22.1620    7.5940  -18.1610 C.ar  342  U342        0.0870
   3175  OP1      -26.1830   11.4910  -17.2270 O.2   342  U342       -0.5172
   3176  OP2      -24.1110   10.6380  -15.9830 O.co2 342  U342       -0.4373
   3177  P        -27.4410    5.9570  -18.9600 P.3   343  G343        0.2141
   3178  C5'      -27.4420    3.9340  -20.6280 C.3   343  G343        0.1812
   3179  O5'      -27.1430    4.4390  -19.3360 O.3   343  G343       -0.3114
   3180  C4'      -26.8940    2.5420  -20.8140 C.3   343  G343        0.1773
   3181  O4'      -25.4440    2.5780  -20.8240 O.3   343  G343       -0.3307
   3182  C3'      -27.2260    1.5430  -19.7170 C.3   343  G343        0.1860
   3183  O3'      -28.5280    0.9990  -19.8360 O.3   343  G343       -0.3112
   3184  C2'      -26.1180    0.5090  -19.8670 C.3   343  G343        0.2309
   3185  O2'      -26.3950   -0.3750  -20.9430 O.3   343  G343       -0.2156
   3186  C1'      -24.9310    1.3900  -20.2570 C.3   343  G343        0.2408
   3187  N1       -21.8070   -0.4290  -16.7160 N.ar  343  G343       -0.1709
   3188  C2       -22.4650   -1.0790  -17.7330 C.ar  343  G343        0.2606
   3189  N2       -22.2590   -2.4010  -17.8200 N.pl3 343  G343       -0.0859
   3190  N3       -23.2610   -0.4780  -18.5990 N.ar  343  G343       -0.1918
   3191  C4       -23.3480    0.8460  -18.3620 C.ar  343  G343        0.1723
   3192  C5       -22.7360    1.5940  -17.3770 C.ar  343  G343        0.1748
   3193  C6       -21.8820    0.9350  -16.4510 C.ar  343  G343        0.3023
   3194  O6       -21.2430    1.4090  -15.5020 O.2   343  G343       -0.2633
   3195  N7       -23.0970    2.9310  -17.4850 N.ar  343  G343       -0.2173
   3196  C8       -23.9030    2.9660  -18.5140 C.ar  343  G343        0.1817
   3197  N9       -24.0960    1.7340  -19.0910 N.ar  343  G343       -0.2693
   3198  OP1      -28.8920    6.2230  -19.1440 O.2   343  G343       -0.5172
   3199  OP2      -26.8080    6.2010  -17.6370 O.co2 343  G343       -0.4373
   3200  P        -29.4500    0.8180  -18.5310 P.3   344  C344        0.2141
   3201  C5'      -28.6540   -1.6860  -18.6700 C.3   344  C344        0.1812
   3202  O5'      -28.9350   -0.5410  -17.8770 O.3   344  C344       -0.3114
   3203  C4'      -27.7850   -2.6610  -17.9170 C.3   344  C344        0.1773
   3204  O4'      -26.4150   -2.1790  -17.8850 O.3   344  C344       -0.3307
   3205  C3'      -28.1460   -2.8480  -16.4520 C.3   344  C344        0.1860
   3206  O3'      -29.2130   -3.7570  -16.2610 O.3   344  C344       -0.3112
   3207  C2'      -26.8310   -3.3030  -15.8330 C.3   344  C344        0.2309
   3208  O2'      -26.6020   -4.6810  -16.0880 O.3   344  C344       -0.2156
   3209  C1'      -25.8200   -2.4900  -16.6410 C.3   344  C344        0.2420
   3210  N1       -25.4480   -1.2260  -15.9620 N.ar  344  C344       -0.2535
   3211  C2       -24.5520   -1.2680  -14.8880 C.ar  344  C344        0.3532
   3212  O2       -24.0900   -2.3570  -14.5180 O.2   344  C344       -0.2443
   3213  N3       -24.2070   -0.1180  -14.2710 N.ar  344  C344       -0.1739
   3214  C4       -24.7150    1.0420  -14.6870 C.ar  344  C344        0.1759
   3215  N4       -24.3380    2.1460  -14.0400 N.pl3 344  C344       -0.1070
   3216  C5       -25.6280    1.1210  -15.7780 C.ar  344  C344        0.0566
   3217  C6       -25.9610   -0.0280  -16.3780 C.ar  344  C344        0.0850
   3218  OP1      -30.8520    0.6320  -18.9870 O.2   344  C344       -0.5172
   3219  OP2      -29.1310    1.9220  -17.5860 O.co2 344  C344       -0.4373
   3220  P        -30.2850   -3.5050  -15.0930 P.3   345  C345        0.2141
   3221  C5'      -29.1430   -5.3540  -13.6250 C.3   345  C345        0.1812
   3222  O5'      -29.5410   -3.9990  -13.7740 O.3   345  C345       -0.3114
   3223  C4'      -28.3340   -5.5470  -12.3690 C.3   345  C345        0.1773
   3224  O4'      -27.0970   -4.7990  -12.4760 O.3   345  C345       -0.3307
   3225  C3'      -28.9710   -5.0380  -11.0860 C.3   345  C345        0.1860
   3226  O3'      -29.8800   -5.9680  -10.5210 O.3   345  C345       -0.3112
   3227  C2'      -27.7670   -4.7620  -10.1970 C.3   345  C345        0.2309
   3228  O2'      -27.2930   -5.9640   -9.6110 O.3   345  C345       -0.2156
   3229  C1'      -26.7340   -4.2810  -11.2150 C.3   345  C345        0.2420
   3230  N1       -26.6760   -2.8050  -11.3130 N.ar  345  C345       -0.2535
   3231  C2       -25.9170   -2.0920  -10.3780 C.ar  345  C345        0.3532
   3232  O2       -25.3190   -2.7090   -9.4820 O.2   345  C345       -0.2443
   3233  N3       -25.8550   -0.7440  -10.4710 N.ar  345  C345       -0.1739
   3234  C4       -26.5090   -0.1120  -11.4500 C.ar  345  C345        0.1759
   3235  N4       -26.4240    1.2190  -11.5050 N.pl3 345  C345       -0.1070
   3236  C5       -27.2890   -0.8120  -12.4160 C.ar  345  C345        0.0566
   3237  C6       -27.3400   -2.1450  -12.3110 C.ar  345  C345        0.0850
   3238  OP1      -31.4350   -4.4130  -15.3510 O.2   345  C345       -0.5172
   3239  OP2      -30.5060   -2.0390  -14.9650 O.co2 345  C345       -0.4373
   3240  P        -31.1780   -5.4550   -9.7240 P.3   346  U346        0.2141
   3241  C5'      -30.0620   -5.4370   -7.3420 C.3   346  U346        0.1812
   3242  O5'      -30.5870   -4.7070   -8.4430 O.3   346  U346       -0.3114
   3243  C4'      -29.2120   -4.5700   -6.4420 C.3   346  U346        0.1773
   3244  O4'      -28.2150   -3.8700   -7.2310 O.3   346  U346       -0.3307
   3245  C3'      -29.9290   -3.4560   -5.6940 C.3   346  U346        0.1860
   3246  O3'      -30.6180   -3.9050   -4.5390 O.3   346  U346       -0.3112
   3247  C2'      -28.7980   -2.4780   -5.3970 C.3   346  U346        0.2309
   3248  O2'      -28.0080   -2.9310   -4.3070 O.3   346  U346       -0.2156
   3249  C1'      -27.9620   -2.5970   -6.6710 C.3   346  U346        0.2420
   3250  N1       -28.3130   -1.5580   -7.6660 N.ar  346  U346       -0.2534
   3251  C2       -27.6480   -0.3530   -7.5750 C.ar  346  U346        0.3546
   3252  O2       -26.8030   -0.1320   -6.7240 O.2   346  U346       -0.2443
   3253  N3       -28.0060    0.5780   -8.5210 N.ar  346  U346       -0.1530
   3254  C4       -28.9440    0.4330   -9.5230 C.ar  346  U346        0.2846
   3255  O4       -29.1510    1.3660  -10.3020 O.2   346  U346       -0.2650
   3256  C5       -29.5910   -0.8440   -9.5510 C.ar  346  U346        0.0814
   3257  C6       -29.2600   -1.7690   -8.6430 C.ar  346  U346        0.0870
   3258  OP1      -31.9300   -6.6560   -9.2660 O.3   346  U346       -0.4373
   3259  OP2      -31.8500   -4.4420  -10.5790 O.co2 346  U346       -0.5172
   3260  P        -32.1840   -3.5830   -4.3570 P.3   347  C347        0.2141
   3261  C5'      -32.7620   -1.0380   -4.6230 C.3   347  C347        0.1813
   3262  O5'      -32.2120   -2.0790   -3.8270 O.3   347  C347       -0.3114
   3263  C4'      -33.1620    0.1530   -3.7870 C.3   347  C347        0.1801
   3264  O4'      -31.9920    0.9560   -3.4800 O.3   347  C347       -0.3306
   3265  C3'      -34.1180    1.1360   -4.4460 C.3   347  C347        0.2161
   3266  O3'      -35.4700    0.7110   -4.3910 O.3   347  C347       -0.2175
   3267  C2'      -33.8530    2.4240   -3.6780 C.3   347  C347        0.2338
   3268  O2'      -34.5150    2.4020   -2.4220 O.3   347  C347       -0.2155
   3269  C1'      -32.3450    2.3240   -3.4300 C.3   347  C347        0.2421
   3270  N1       -31.5570    3.0620   -4.4470 N.ar  347  C347       -0.2535
   3271  C2       -31.3700    4.4410   -4.2900 C.ar  347  C347        0.3532
   3272  O2       -31.8670    5.0080   -3.3050 O.2   347  C347       -0.2443
   3273  N3       -30.6500    5.1240   -5.2130 N.ar  347  C347       -0.1739
   3274  C4       -30.1270    4.4860   -6.2620 C.ar  347  C347        0.1759
   3275  N4       -29.4270    5.2020   -7.1450 N.pl3 347  C347       -0.1070
   3276  C5       -30.3000    3.0850   -6.4500 C.ar  347  C347        0.0566
   3277  C6       -31.0120    2.4220   -5.5280 C.ar  347  C347        0.0850
   3278  OP1      -32.7160   -4.4680   -3.2870 O.3   347  C347       -0.4373
   3279  OP2      -32.8130   -3.5940   -5.7030 O.co2 347  C347       -0.5172
   3280  P        -24.6480   10.8170   -6.5700 P.3   542  A542        0.1280
   3281  C5'      -22.2340    9.8400   -6.2280 C.3   542  A542        0.1795
   3282  O5'      -23.4940    9.7620   -6.8810 O.3   542  A542       -0.3259
   3283  C4'      -22.1210    8.8290   -5.1130 C.3   542  A542        0.1772
   3284  O4'      -23.4360    8.3080   -4.7850 O.3   542  A542       -0.3307
   3285  C3'      -21.2980    7.5830   -5.4080 C.3   542  A542        0.1860
   3286  O3'      -19.9040    7.7960   -5.2730 O.3   542  A542       -0.3112
   3287  C2'      -21.8540    6.5790   -4.4070 C.3   542  A542        0.2309
   3288  O2'      -21.3200    6.8130   -3.1140 O.3   542  A542       -0.2156
   3289  C1'      -23.3340    6.9550   -4.3910 C.3   542  A542        0.2408
   3290  N1       -25.5230    2.3650   -5.2040 N.ar  542  A542       -0.2040
   3291  C2       -24.8250    2.8570   -4.1710 C.ar  542  A542        0.2016
   3292  N3       -24.2810    4.0650   -4.0240 N.ar  542  A542       -0.2048
   3293  C4       -24.5170    4.8280   -5.1100 C.ar  542  A542        0.1692
   3294  C5       -25.2170    4.4640   -6.2480 C.ar  542  A542        0.1518
   3295  C6       -25.7400    3.1600   -6.2790 C.ar  542  A542        0.1919
   3296  N6       -26.4330    2.6800   -7.3110 N.pl3 542  A542       -0.1054
   3297  N7       -25.2570    5.5090   -7.1630 N.ar  542  A542       -0.2193
   3298  C8       -24.5910    6.4700   -6.5690 C.ar  542  A542        0.1816
   3299  N9       -24.1190    6.1270   -5.3250 N.ar  542  A542       -0.2693
   3300  OP1      -25.6090   10.1860   -5.6280 O.3   542  A542       -0.1955
   3301  OP2      -25.1470   11.3640   -7.8580 O.co2 542  A542       -0.7863
   3302  P        -18.8590    6.9980   -6.2010 P.3   543  G543        0.2141
   3303  C5'      -18.6920    4.9650   -4.5370 C.3   543  G543        0.1812
   3304  O5'      -19.0690    5.4660   -5.8120 O.3   543  G543       -0.3114
   3305  C4'      -19.2390    3.5770   -4.3060 C.3   543  G543        0.1773
   3306  O4'      -20.6840    3.5890   -4.4570 O.3   543  G543       -0.3307
   3307  C3'      -18.7720    2.5040   -5.2800 C.3   543  G543        0.1860
   3308  O3'      -17.5080    1.9630   -4.9320 O.3   543  G543       -0.3112
   3309  C2'      -19.9000    1.4830   -5.2230 C.3   543  G543        0.2309
   3310  O2'      -19.7770    0.6680   -4.0670 O.3   543  G543       -0.2156
   3311  C1'      -21.1210    2.3850   -5.0490 C.3   543  G543        0.2408
   3312  N1       -24.0190    0.7550   -8.9490 N.ar  543  G543       -0.1709
   3313  C2       -23.6120    0.0660   -7.8320 C.ar  543  G543        0.2606
   3314  N2       -24.0350   -1.2050   -7.7590 N.pl3 543  G543       -0.0859
   3315  N3       -22.8550    0.5840   -6.8720 N.ar  543  G543       -0.1918
   3316  C4       -22.5340    1.8750   -7.1270 C.ar  543  G543        0.1723
   3317  C5       -22.8950    2.6480   -8.2170 C.ar  543  G543        0.1748
   3318  C6       -23.7040    2.0790   -9.2330 C.ar  543  G543        0.3023
   3319  O6       -24.1230    2.6080  -10.2710 O.2   543  G543       -0.2633
   3320  N7       -22.3700    3.9270   -8.1200 N.ar  543  G543       -0.2173
   3321  C8       -21.7100    3.9130   -6.9950 C.ar  543  G543        0.1817
   3322  N9       -21.7630    2.7050   -6.3390 N.ar  543  G543       -0.2693
   3323  OP1      -17.4910    7.4060   -5.7880 O.3   543  G543       -0.4373
   3324  OP2      -19.2720    7.1560   -7.6200 O.co2 543  G543       -0.5172
   3325  P        -16.5010    1.4350   -6.0700 P.3   544  G544        0.2141
   3326  C5'      -17.3240   -1.0480   -5.8200 C.3   544  G544        0.1812
   3327  O5'      -17.1980    0.1130   -6.6310 O.3   544  G544       -0.3114
   3328  C4'      -18.2750   -2.0590   -6.4190 C.3   544  G544        0.1773
   3329  O4'      -19.5850   -1.4630   -6.6100 O.3   544  G544       -0.3307
   3330  C3'      -17.9160   -2.6040   -7.7940 C.3   544  G544        0.1860
   3331  O3'      -16.9410   -3.6320   -7.7470 O.3   544  G544       -0.3112
   3332  C2'      -19.2630   -3.0810   -8.3180 C.3   544  G544        0.2309
   3333  O2'      -19.6100   -4.3260   -7.7280 O.3   544  G544       -0.2156
   3334  C1'      -20.1970   -2.0070   -7.7610 C.3   544  G544        0.2408
   3335  N1       -22.4540   -0.6060  -12.1000 N.ar  544  G544       -0.1709
   3336  C2       -22.4880   -1.8150  -11.4530 C.ar  544  G544        0.2606
   3337  N2       -23.2230   -2.7630  -12.0510 N.pl3 544  G544       -0.0859
   3338  N3       -21.8550   -2.0690  -10.3170 N.ar  544  G544       -0.1918
   3339  C4       -21.1740   -0.9880   -9.8780 C.ar  544  G544        0.1723
   3340  C5       -21.0770    0.2650  -10.4520 C.ar  544  G544        0.1748
   3341  C6       -21.7650    0.5190  -11.6680 C.ar  544  G544        0.3023
   3342  O6       -21.8070    1.5570  -12.3410 O.2   544  G544       -0.2633
   3343  N7       -20.2760    1.0990   -9.6850 N.ar  544  G544       -0.2173
   3344  C8       -19.9090    0.3530   -8.6790 C.ar  544  G544        0.1817
   3345  N9       -20.4190   -0.9210   -8.7330 N.ar  544  G544       -0.2693
   3346  OP1      -15.2280    1.0460   -5.4050 O.3   544  G544       -0.4373
   3347  OP2      -16.4790    2.4430   -7.1620 O.co2 544  G544       -0.5172
   3348  P        -15.8420   -3.7600   -8.9130 P.3   545  U545        0.2141
   3349  C5'      -17.2810   -5.3340  -10.4480 C.3   545  U545        0.1812
   3350  O5'      -16.6940   -4.0600  -10.2250 O.3   545  U545       -0.3114
   3351  C4'      -18.0940   -5.3450  -11.7190 C.3   545  U545        0.1773
   3352  O4'      -19.1320   -4.3350  -11.6410 O.3   545  U545       -0.3307
   3353  C3'      -17.3440   -5.0030  -12.9980 C.3   545  U545        0.1860
   3354  O3'      -16.6150   -6.1010  -13.5220 O.3   545  U545       -0.3112
   3355  C2'      -18.4580   -4.5140  -13.9180 C.3   545  U545        0.2309
   3356  O2'      -19.1590   -5.6070  -14.4900 O.3   545  U545       -0.2156
   3357  C1'      -19.3910   -3.8110  -12.9280 C.3   545  U545        0.2420
   3358  N1       -19.1840   -2.3440  -12.9100 N.ar  545  U545       -0.2534
   3359  C2       -19.8910   -1.6140  -13.8440 C.ar  545  U545        0.3546
   3360  O2       -20.6600   -2.1260  -14.6380 O.2   545  U545       -0.2443
   3361  N3       -19.6750   -0.2600  -13.8110 N.ar  545  U545       -0.1530
   3362  C4       -18.8360    0.4260  -12.9600 C.ar  545  U545        0.2846
   3363  O4       -18.7600    1.6530  -13.0640 O.2   545  U545       -0.2650
   3364  C5       -18.1320   -0.3980  -12.0220 C.ar  545  U545        0.0814
   3365  C6       -18.3240   -1.7220  -12.0320 C.ar  545  U545        0.0870
   3366  OP1      -15.0030   -4.9560   -8.6290 O.3   545  U545       -0.4373
   3367  OP2      -15.2140   -2.4250   -9.0960 O.co2 545  U545       -0.5172
   3368  P        -15.0300   -5.9850  -13.7710 P.3   546  G546        0.2141
   3369  C5'      -14.4050   -7.5720  -11.7700 C.3   546  G546        0.1812
   3370  O5'      -14.4420   -7.3410  -13.1710 O.3   546  G546       -0.3114
   3371  C4'      -14.5360   -9.0420  -11.4490 C.3   546  G546        0.1773
   3372  O4'      -15.8270   -9.5280  -11.8990 O.3   546  G546       -0.3307
   3373  C3'      -13.5320   -9.9660  -12.1250 C.3   546  G546        0.1860
   3374  O3'      -12.2940  -10.0160  -11.4370 O.3   546  G546       -0.3112
   3375  C2'      -14.2650  -11.3010  -12.1490 C.3   546  G546        0.2309
   3376  O2'      -14.1820  -11.9360  -10.8820 O.3   546  G546       -0.2156
   3377  C1'      -15.7100  -10.8550  -12.3640 C.3   546  G546        0.2408
   3378  N1       -16.7270  -13.7020  -16.4910 N.ar  546  G546       -0.1709
   3379  C2       -16.3300  -14.1080  -15.2440 C.ar  546  G546        0.2606
   3380  N2       -16.2000  -15.4340  -15.0980 N.pl3 546  G546       -0.0859
   3381  N3       -16.0870  -13.2820  -14.2330 N.ar  546  G546       -0.1918
   3382  C4       -16.2810  -11.9910  -14.5880 C.ar  546  G546        0.1723
   3383  C5       -16.6760  -11.4850  -15.8120 C.ar  546  G546        0.1748
   3384  C6       -16.9320  -12.3830  -16.8780 C.ar  546  G546        0.3023
   3385  O6       -17.2910  -12.1310  -18.0340 O.2   546  G546       -0.2633
   3386  N7       -16.7610  -10.1020  -15.7770 N.ar  546  G546       -0.2173
   3387  C8       -16.4180   -9.7940  -14.5560 C.ar  546  G546        0.1817
   3388  N9       -16.1110  -10.8870  -13.7830 N.ar  546  G546       -0.2693
   3389  OP1      -14.5190   -4.8460  -12.9680 O.3   546  G546       -0.4373
   3390  OP2      -14.7840   -6.0180  -15.2340 O.co2 546  G546       -0.5172
   3391  P        -10.9080  -10.1450  -12.2430 P.3   547  U547        0.2141
   3392  C5'      -10.7520  -12.6800  -11.5930 C.3   547  U547        0.1812
   3393  O5'      -10.8140  -11.6920  -12.6090 O.3   547  U547       -0.3114
   3394  C4'      -10.9960  -14.0560  -12.1560 C.3   547  U547        0.1773
   3395  O4'      -12.3200  -14.1190  -12.7450 O.3   547  U547       -0.3307
   3396  C3'      -10.0780  -14.4920  -13.2860 C.3   547  U547        0.1860
   3397  O3'       -8.8170  -14.9480  -12.8320 O.3   547  U547       -0.3112
   3398  C2'      -10.8970  -15.5720  -13.9770 C.3   547  U547        0.2309
   3399  O2'      -10.8300  -16.7850  -13.2460 O.3   547  U547       -0.2156
   3400  C1'      -12.3130  -15.0120  -13.8410 C.3   547  U547        0.2420
   3401  N1       -12.7460  -14.2950  -15.0620 N.ar  547  U547       -0.2534
   3402  C2       -13.2290  -15.0690  -16.1010 C.ar  547  U547        0.3546
   3403  O2       -13.3070  -16.2810  -16.0430 O.2   547  U547       -0.2443
   3404  N3       -13.6240  -14.3810  -17.2180 N.ar  547  U547       -0.1530
   3405  C4       -13.5810  -13.0160  -17.3920 C.ar  547  U547        0.2846
   3406  O4       -13.9730  -12.5390  -18.4570 O.2   547  U547       -0.2650
   3407  C5       -13.0690  -12.2760  -16.2760 C.ar  547  U547        0.0814
   3408  C6       -12.6760  -12.9260  -15.1740 C.ar  547  U547        0.0870
   3409  OP1       -9.8220   -9.8380  -11.2710 O.3   547  U547       -0.4373
   3410  OP2      -11.0100   -9.3830  -13.5190 O.co2 547  U547       -0.5172
   3411  P         -7.5390  -14.8800  -13.8030 P.3   548  G548        0.2141
   3412  C5'       -7.7970  -17.3710  -14.5780 C.3   548  G548        0.1812
   3413  O5'       -7.8270  -15.9910  -14.9050 O.3   548  G548       -0.3114
   3414  C4'       -8.1590  -18.2150  -15.7710 C.3   548  G548        0.1773
   3415  O4'       -9.5220  -17.9310  -16.1730 O.3   548  G548       -0.3307
   3416  C3'       -7.3470  -17.9570  -17.0290 C.3   548  G548        0.1860
   3417  O3'       -6.0870  -18.6030  -17.0090 O.3   548  G548       -0.3112
   3418  C2'       -8.2780  -18.4430  -18.1330 C.3   548  G548        0.2309
   3419  O2'       -8.2460  -19.8580  -18.2390 O.3   548  G548       -0.2156
   3420  C1'       -9.6430  -18.0350  -17.5770 C.3   548  G548        0.2408
   3421  N1       -11.7820  -15.6540  -21.5160 N.ar  548  G548       -0.1709
   3422  C2       -11.4880  -16.9860  -21.3510 C.ar  548  G548        0.2606
   3423  N2       -11.8140  -17.7890  -22.3780 N.pl3 548  G548       -0.0859
   3424  N3       -10.9230  -17.4910  -20.2620 N.ar  548  G548       -0.1918
   3425  C4       -10.6710  -16.5350  -19.3430 C.ar  548  G548        0.1723
   3426  C5       -10.9230  -15.1800  -19.4110 C.ar  548  G548        0.1748
   3427  C6       -11.5300  -14.6530  -20.5830 C.ar  548  G548        0.3023
   3428  O6       -11.8380  -13.4800  -20.8420 O.2   548  G548       -0.2633
   3429  N7       -10.5090  -14.5460  -18.2460 N.ar  548  G548       -0.2173
   3430  C8       -10.0240  -15.5080  -17.5080 C.ar  548  G548        0.1817
   3431  N9       -10.0930  -16.7380  -18.1140 N.ar  548  G548       -0.2693
   3432  OP1       -6.3500  -15.3170  -13.0220 O.3   548  G548       -0.4373
   3433  OP2       -7.5530  -13.5620  -14.4940 O.co2 548  G548       -0.5172
   3434  P         -4.8040  -17.9000  -17.6710 P.3   549  U549        0.2141
   3435  C5'       -5.0340  -19.6760  -19.5910 C.3   549  U549        0.1812
   3436  O5'       -4.8970  -18.3170  -19.2050 O.3   549  U549       -0.3114
   3437  C4'       -5.3900  -19.7860  -21.0500 C.3   549  U549        0.1773
   3438  O4'       -6.7720  -19.3940  -21.2470 O.3   549  U549       -0.3307
   3439  C3'       -4.6110  -18.8740  -21.9830 C.3   549  U549        0.1860
   3440  O3'       -3.3360  -19.3880  -22.3160 O.3   549  U549       -0.3112
   3441  C2'       -5.5490  -18.7340  -23.1750 C.3   549  U549        0.2309
   3442  O2'       -5.4820  -19.8820  -24.0050 O.3   549  U549       -0.2156
   3443  C1'       -6.9120  -18.7260  -22.4840 C.3   549  U549        0.2420
   3444  N1        -7.4020  -17.3540  -22.2260 N.ar  549  U549       -0.2534
   3445  C2        -8.0980  -16.7270  -23.2410 C.ar  549  U549        0.3546
   3446  O2        -8.3160  -17.2520  -24.3200 O.2   549  U549       -0.2443
   3447  N3        -8.5350  -15.4620  -22.9440 N.ar  549  U549       -0.1530
   3448  C4        -8.3500  -14.7770  -21.7620 C.ar  549  U549        0.2846
   3449  O4        -8.8060  -13.6390  -21.6480 O.2   549  U549       -0.2650
   3450  C5        -7.6190  -15.4900  -20.7590 C.ar  549  U549        0.0814
   3451  C6        -7.1840  -16.7260  -21.0220 C.ar  549  U549        0.0870
   3452  OP1       -3.5900  -18.5170  -17.0730 O.3   549  U549       -0.4373
   3453  OP2       -4.9810  -16.4270  -17.6070 O.co2 549  U549       -0.5172
   3454  P         -2.0910  -18.3920  -22.5090 P.3   550  C550        0.2141
   3455  C5'       -2.1280  -18.7780  -25.0960 C.3   550  C550        0.1812
   3456  O5'       -2.2460  -17.8780  -24.0080 O.3   550  C550       -0.3114
   3457  C4'       -2.6690  -18.1800  -26.3670 C.3   550  C550        0.1773
   3458  O4'       -4.0740  -17.8650  -26.2020 O.3   550  C550       -0.3307
   3459  C3'       -2.0550  -16.8610  -26.8040 C.3   550  C550        0.1860
   3460  O3'       -0.8010  -17.0100  -27.4420 O.3   550  C550       -0.3112
   3461  C2'       -3.1350  -16.2840  -27.7090 C.3   550  C550        0.2309
   3462  O2'       -3.1050  -16.9080  -28.9830 O.3   550  C550       -0.2156
   3463  C1'       -4.4030  -16.7340  -26.9860 C.3   550  C550        0.2420
   3464  N1        -4.9400  -15.6700  -26.1110 N.ar  550  C550       -0.2535
   3465  C2        -5.8190  -14.7520  -26.6880 C.ar  550  C550        0.3532
   3466  O2        -6.1140  -14.8680  -27.8860 O.2   550  C550       -0.2443
   3467  N3        -6.3340  -13.7620  -25.9320 N.ar  550  C550       -0.1739
   3468  C4        -5.9990  -13.6670  -24.6450 C.ar  550  C550        0.1759
   3469  N4        -6.5400  -12.6680  -23.9460 N.pl3 550  C550       -0.1070
   3470  C5        -5.0990  -14.5840  -24.0220 C.ar  550  C550        0.0566
   3471  C6        -4.5950  -15.5620  -24.7900 C.ar  550  C550        0.0850
   3472  OP1       -0.8520  -19.2120  -22.4250 O.2   550  C550       -0.5172
   3473  OP2       -2.2730  -17.2280  -21.6000 O.co2 550  C550       -0.4373
   3474  P          0.3000  -15.8420  -27.3360 P.3   551  C551        0.2141
   3475  C5'       -0.5430  -14.6990  -29.5500 C.3   551  C551        0.1812
   3476  O5'       -0.3400  -14.6240  -28.1460 O.3   551  C551       -0.3114
   3477  C4'       -1.3200  -13.5140  -30.0690 C.3   551  C551        0.1773
   3478  O4'       -2.6480  -13.4890  -29.4750 O.3   551  C551       -0.3307
   3479  C3'       -0.7590  -12.1420  -29.7360 C.3   551  C551        0.1860
   3480  O3'        0.3410  -11.7540  -30.5380 O.3   551  C551       -0.3112
   3481  C2'       -1.9820  -11.2490  -29.8850 C.3   551  C551        0.2309
   3482  O2'       -2.2830  -11.0320  -31.2550 O.3   551  C551       -0.2156
   3483  C1'       -3.0670  -12.1480  -29.2960 C.3   551  C551        0.2420
   3484  N1        -3.2530  -11.8870  -27.8500 N.ar  551  C551       -0.2535
   3485  C2        -4.1140  -10.8550  -27.4690 C.ar  551  C551        0.3532
   3486  O2        -4.7000  -10.2060  -28.3450 O.2   551  C551       -0.2443
   3487  N3        -4.2990  -10.5940  -26.1560 N.ar  551  C551       -0.1739
   3488  C4        -3.6540  -11.3130  -25.2370 C.ar  551  C551        0.1759
   3489  N4        -3.8670  -11.0150  -23.9520 N.pl3 551  C551       -0.1070
   3490  C5        -2.7630  -12.3660  -25.5920 C.ar  551  C551        0.0566
   3491  C6        -2.5940  -12.6120  -26.8960 C.ar  551  C551        0.0850
   3492  OP1        1.5090  -16.3140  -28.0640 O.2   551  C551       -0.5172
   3493  OP2        0.4100  -15.4340  -25.9100 O.co2 551  C551       -0.4373
   3494  P          1.4800  -10.8150  -29.9020 P.3   552  A552        0.2141
   3495  C5'        0.3170   -8.6100  -30.7190 C.3   552  A552        0.1812
   3496  O5'        0.7340   -9.4280  -29.6360 O.3   552  A552       -0.3114
   3497  C4'       -0.5090   -7.4290  -30.2670 C.3   552  A552        0.1773
   3498  O4'       -1.7060   -7.8770  -29.5730 O.3   552  A552       -0.3307
   3499  C3'        0.1380   -6.4740  -29.2780 C.3   552  A552        0.1860
   3500  O3'        1.0770   -5.5910  -29.8660 O.3   552  A552       -0.3112
   3501  C2'       -1.0710   -5.7720  -28.6810 C.3   552  A552        0.2309
   3502  O2'       -1.5990   -4.8250  -29.5980 O.3   552  A552       -0.2156
   3503  C1'       -2.0550   -6.9360  -28.5750 C.3   552  A552        0.2408
   3504  N1        -3.0620   -6.4810  -23.5610 N.ar  552  A552       -0.2040
   3505  C2        -3.3070   -5.6800  -24.6080 C.ar  552  A552        0.2016
   3506  N3        -3.0150   -5.8710  -25.8930 N.ar  552  A552       -0.2048
   3507  C4        -2.3920   -7.0500  -26.0700 C.ar  552  A552        0.1692
   3508  C5        -2.0710   -7.9810  -25.0970 C.ar  552  A552        0.1518
   3509  C6        -2.4330   -7.6610  -23.7760 C.ar  552  A552        0.1919
   3510  N6        -2.1900   -8.4570  -22.7320 N.pl3 552  A552       -0.1054
   3511  N7        -1.4300   -9.0810  -25.6600 N.ar  552  A552       -0.2193
   3512  C8        -1.3780   -8.7930  -26.9410 C.ar  552  A552        0.1816
   3513  N9        -1.9500   -7.5850  -27.2560 N.ar  552  A552       -0.2693
   3514  OP1        2.5380  -10.6120  -30.9260 O.2   552  A552       -0.5172
   3515  OP2        1.8390  -11.3830  -28.5760 O.co2 552  A552       -0.4373
   3516  P          2.3350   -5.0730  -29.0050 P.3   553  A553        0.2141
   3517  C5'        1.1170   -2.7530  -28.7300 C.3   553  A553        0.1812
   3518  O5'        1.7460   -3.8760  -28.1280 O.3   553  A553       -0.3114
   3519  C4'        0.4620   -1.8730  -27.6940 C.3   553  A553        0.1773
   3520  O4'       -0.6070   -2.6030  -27.0370 O.3   553  A553       -0.3307
   3521  C3'        1.3530   -1.4220  -26.5470 C.3   553  A553        0.1860
   3522  O3'        2.1790   -0.3190  -26.8720 O.3   553  A553       -0.3112
   3523  C2'        0.3500   -1.1280  -25.4410 C.3   553  A553        0.2309
   3524  O2'       -0.2770    0.1290  -25.6500 O.3   553  A553       -0.2156
   3525  C1'       -0.6780   -2.2350  -25.6740 C.3   553  A553        0.2408
   3526  N1        -0.9580   -4.2950  -20.9620 N.ar  553  A553       -0.2040
   3527  C2        -1.3350   -3.1060  -21.4520 C.ar  553  A553        0.2016
   3528  N3        -1.2310   -2.6410  -22.6950 N.ar  553  A553       -0.2048
   3529  C4        -0.6550   -3.5520  -23.5010 C.ar  553  A553        0.1692
   3530  C5        -0.2110   -4.8150  -23.1450 C.ar  553  A553        0.1518
   3531  C6        -0.3810   -5.1900  -21.7960 C.ar  553  A553        0.1919
   3532  N6        -0.0100   -6.3700  -21.2930 N.pl3 553  A553       -0.1054
   3533  N7         0.3280   -5.4690  -24.2470 N.ar  553  A553       -0.2193
   3534  C8         0.2000   -4.6010  -25.2240 C.ar  553  A553        0.1816
   3535  N9        -0.3910   -3.4210  -24.8450 N.ar  553  A553       -0.2693
   3536  OP1        3.3530   -4.5410  -29.9490 O.2   553  A553       -0.5172
   3537  OP2        2.7120   -6.1450  -28.0480 O.co2 553  A553       -0.4373
   3538  P          3.6360   -0.1900  -26.2070 P.3   554  U554        0.2141
   3539  C5'        5.5800   -1.9190  -25.9830 C.3   554  U554        0.1812
   3540  O5'        4.2260   -1.6600  -26.3180 O.3   554  U554       -0.3114
   3541  C4'        5.7400   -3.2610  -25.3210 C.3   554  U554        0.1773
   3542  O4'        5.3680   -3.1560  -23.9220 O.3   554  U554       -0.3307
   3543  C3'        4.9020   -4.3960  -25.9090 C.3   554  U554        0.1860
   3544  O3'        5.6770   -5.5970  -25.9180 O.3   554  U554       -0.3112
   3545  C2'        3.7530   -4.5270  -24.9060 C.3   554  U554        0.2309
   3546  O2'        3.1610   -5.8060  -24.8560 O.3   554  U554       -0.2156
   3547  C1'        4.4550   -4.1780  -23.5990 C.3   554  U554        0.2420
   3548  N1         3.5800   -3.6910  -22.5180 N.ar  554  U554       -0.2534
   3549  C2         3.4020   -4.5470  -21.4520 C.ar  554  U554        0.3546
   3550  O2         3.9160   -5.6470  -21.4150 O.2   554  U554       -0.2443
   3551  N3         2.5950   -4.0810  -20.4450 N.ar  554  U554       -0.1530
   3552  C4         1.9650   -2.8550  -20.3970 C.ar  554  U554        0.2846
   3553  O4         1.2670   -2.5800  -19.4180 O.2   554  U554       -0.2650
   3554  C5         2.2020   -2.0110  -21.5330 C.ar  554  U554        0.0814
   3555  C6         2.9860   -2.4460  -22.5280 C.ar  554  U554        0.0870
   3556  OP1        3.4780    0.1040  -24.7570 O.3   554  U554       -0.4373
   3557  OP2        4.4560    0.7120  -27.0560 O.co2 554  U554       -0.5172
   3558  P          6.6360   -5.9450  -27.1670 P.3   555  G555        0.2141
   3559  C5'        8.1830   -3.8630  -27.6470 C.3   555  G555        0.1812
   3560  O5'        7.9390   -5.0610  -26.9200 O.3   555  G555       -0.3114
   3561  C4'        9.2850   -3.0660  -26.9960 C.3   555  G555        0.1773
   3562  O4'        8.7330   -2.1390  -26.0250 O.3   555  G555       -0.3307
   3563  C3'       10.2790   -3.8950  -26.2050 C.3   555  G555        0.1860
   3564  O3'       11.2610   -4.4750  -27.0440 O.3   555  G555       -0.3112
   3565  C2'       10.8210   -2.9010  -25.1840 C.3   555  G555        0.2309
   3566  O2'       11.8040   -2.0650  -25.7740 O.3   555  G555       -0.2156
   3567  C1'        9.5780   -2.0530  -24.8960 C.3   555  G555        0.2408
   3568  N1         6.0000   -0.8930  -21.4610 N.ar  555  G555       -0.1709
   3569  C2         6.5210   -0.1330  -22.4770 C.ar  555  G555        0.2606
   3570  N2         6.0110    1.1000  -22.5880 N.pl3 555  G555       -0.0859
   3571  N3         7.4610   -0.5460  -23.3140 N.ar  555  G555       -0.1918
   3572  C4         7.8500   -1.8110  -23.0420 C.ar  555  G555        0.1723
   3573  C5         7.3900   -2.6530  -22.0450 C.ar  555  G555        0.1748
   3574  C6         6.3740   -2.1960  -21.1620 C.ar  555  G555        0.3023
   3575  O6         5.8360   -2.7890  -20.2170 O.2   555  G555       -0.2633
   3576  N7         8.0390   -3.8760  -22.1070 N.ar  555  G555       -0.2173
   3577  C8         8.8640   -3.7570  -23.1120 C.ar  555  G555        0.1817
   3578  N9         8.8100   -2.5290  -23.7260 N.ar  555  G555       -0.2693
   3579  OP1        5.9750   -5.4840  -28.4180 O.2   555  G555       -0.5172
   3580  OP2        7.0570   -7.3650  -27.0320 O.co2 555  G555       -0.4373
   3581  P         12.3370   -5.5090  -26.4580 P.3   556  A556        0.2141
   3582  C5'       14.5760   -4.9410  -25.2170 C.3   556  A556        0.1813
   3583  O5'       13.6090   -4.5870  -26.1910 O.3   556  A556       -0.3114
   3584  C4'       14.5990   -3.9710  -24.0610 C.3   556  A556        0.1801
   3585  O4'       14.5630   -4.7350  -22.8260 O.3   556  A556       -0.3306
   3586  C3'       15.8540   -3.1100  -23.9760 C.3   556  A556        0.2161
   3587  O3'       15.5550   -1.9200  -23.2430 O.3   556  A556       -0.2175
   3588  C2'       16.7720   -3.9790  -23.1340 C.3   556  A556        0.2337
   3589  O2'       17.8280   -3.2800  -22.5070 O.3   556  A556       -0.2155
   3590  C1'       15.7810   -4.5630  -22.1220 C.3   556  A556        0.2409
   3591  N1        16.9360   -9.4530  -23.2060 N.ar  556  A556       -0.2040
   3592  C2        16.6270   -8.4090  -23.9870 C.ar  556  A556        0.2016
   3593  N3        16.3360   -7.1600  -23.6340 N.ar  556  A556       -0.2048
   3594  C4        16.3870   -7.0150  -22.2990 C.ar  556  A556        0.1692
   3595  C5        16.6890   -7.9900  -21.3680 C.ar  556  A556        0.1518
   3596  C6        16.9760   -9.2720  -21.8640 C.ar  556  A556        0.1919
   3597  N6        17.2850  -10.3040  -21.0760 N.pl3 556  A556       -0.1054
   3598  N7        16.6430   -7.4750  -20.0790 N.ar  556  A556       -0.2193
   3599  C8        16.3170   -6.2180  -20.2560 C.ar  556  A556        0.1816
   3600  N9        16.1570   -5.8700  -21.5760 N.ar  556  A556       -0.2693
   3601  OP1       12.6780   -6.4670  -27.5430 O.2   556  A556       -0.5172
   3602  OP2       11.8110   -6.0240  -25.1660 O.co2 556  A556       -0.4373
   3603  P         16.0370   -0.4850  -23.7910 P.3   557  A557        0.0244
   3604  P         15.9190   -0.4690  -23.8230 P.3   557  A557        0.3296
   3605  C5'       14.2900    1.4080  -23.2490 C.3   557  A557        0.2179
   3606  C5'       14.2480    0.2940  -21.9350 C.3   557  A557        0.0000
   3607  O5'       14.6750    0.3010  -24.0610 O.3   557  A557       -0.1703
   3608  O5'       14.7490    0.4500  -23.2610 O.3   557  A557       -0.2123
   3609  C4'       12.7970    1.4410  -23.0230 C.3   557  A557        0.0350
   3610  C4'       12.9090    0.9710  -21.8220 C.3   557  A557        0.1488
   3611  O4'       12.3180    0.0930  -22.7570 O.3   557  A557       -0.3334
   3612  O4'       12.5070    1.1650  -20.4250 O.3   557  A557        0.0000
   3613  C3'       12.3300    2.2920  -21.8350 C.3   557  A557        0.1880
   3614  C3'       12.8500    2.3620  -22.4620 C.3   557  A557        0.0383
   3615  O3'       11.0200    2.7990  -22.1060 O.3   557  A557       -0.0346
   3616  O3'       11.5190    2.5050  -22.9460 O.3   557  A557       -0.1890
   3617  C2'       12.2130    1.2520  -20.7310 C.3   557  A557        0.1898
   3618  C2'       13.0460    3.2550  -21.2450 C.3   557  A557        0.2148
   3619  O2'       11.3750    1.6240  -19.6560 O.3   557  A557       -0.3465
   3620  O2'       12.7190    4.6230  -21.3860 O.3   557  A557       -0.2176
   3621  C1'       11.6400    0.0780  -21.5150 C.3   557  A557        0.2372
   3622  C1'       12.1460    2.5260  -20.2740 C.3   557  A557        0.1762
   3623  N1         9.2120   -3.3500  -18.6380 N.ar  557  A557       -0.2040
   3624  N1        10.5580    6.4360  -17.6270 N.ar  557  A557       -0.2040
   3625  C2         8.8660   -2.1490  -19.1170 C.ar  557  A557        0.2016
   3626  C2        10.5190    6.1060  -18.9220 C.ar  557  A557        0.2016
   3627  N3         9.5750   -1.3120  -19.8730 N.ar  557  A557       -0.2048
   3628  N3        10.9880    5.0140  -19.5110 N.ar  557  A557       -0.2031
   3629  C4        10.7900   -1.8230  -20.1380 C.ar  557  A557        0.1692
   3630  C4        11.5560    4.1910  -18.6110 C.ar  557  A557        0.1862
   3631  C5        11.2960   -3.0370  -19.7150 C.ar  557  A557        0.1518
   3632  C5        11.6760    4.3800  -17.2550 C.ar  557  A557        0.1534
   3633  C6        10.4440   -3.8330  -18.9220 C.ar  557  A557        0.1919
   3634  C6        11.1400    5.5820  -16.7520 C.ar  557  A557        0.1919
   3635  N6        10.7810   -5.0310  -18.4360 N.pl3 557  A557       -0.1054
   3636  N6        11.1730    5.9270  -15.4640 N.pl3 557  A557       -0.1054
   3637  N7        12.5920   -3.2120  -20.1890 N.ar  557  A557       -0.2193
   3638  N7        12.3370    3.2970  -16.6810 N.ar  557  A557       -0.2179
   3639  C8        12.8350   -2.1160  -20.8750 C.ar  557  A557        0.1816
   3640  C8        12.5900    2.4900  -17.6920 C.ar  557  A557        0.2005
   3641  N9        11.7840   -1.2310  -20.8760 N.ar  557  A557       -0.2694
   3642  N9        12.1550    2.9950  -18.8900 N.ar  557  A557       -0.2032
   3643  OP1       16.7130   -0.7060  -25.0950 O.3   557  A557       -0.2180
   3644  OP1       15.8070   -0.5090  -25.3040 O.3   557  A557       -0.1687
   3645  OP2       16.7720    0.2150  -22.7040 O.co2 557  A557       -0.9779
   3646  OP2       17.1800    0.0020  -23.1950 O.co2 557  A557       -0.8247
   3647  P         10.7950    4.0360  -23.1080 P.3   558  C558       -0.1298
   3648  P         10.9210    3.9090  -23.4360 P.3   558  C558        0.4174
   3649  C5'        9.5720    2.0840  -24.3750 C.3   558  C558        0.2175
   3650  C5'        9.3500    2.1290  -24.4830 C.1   558  C558        0.0000
   3651  O5'       10.1810    3.3670  -24.4190 O.2   558  C558       -0.2667
   3652  O5'        9.8750    3.4460  -24.5310 O.3   558  C558       -0.2175
   3653  C4'        8.4850    1.9520  -25.4090 C.1   558  C558        0.0000
   3654  C4'        8.3110    1.9390  -25.5430 C.3   558  C558        0.2175
   3655  O4'        7.3540    2.7790  -25.0270 O.3   558  C558       -0.2175
   3656  O4'        7.1540    2.7530  -25.2140 O.2   558  C558       -0.2794
   3657  C3'        8.8340    2.4330  -26.8090 C.3   558  C558        0.0000
   3658  C3'        8.7270    2.4240  -26.9190 C.3   558  C558        0.1821
   3659  O3'        9.5560    1.4850  -27.5690 O.3   558  C558       -0.2204
   3660  O3'        9.5130    1.4790  -27.6260 O.3   558  C558       -0.1534
   3661  C2'        7.4720    2.7650  -27.3950 C.3   558  C558        0.0355
   3662  C2'        7.3950    2.7660  -27.5680 C.3   558  C558        0.2175
   3663  O2'        6.7920    1.5800  -27.7850 O.3   558  C558       -0.2175
   3664  O2'        6.7230    1.5850  -27.9770 O.3   558  C558        0.0000
   3665  C1'        6.7640    3.3490  -26.1750 C.2   558  C558        0.2794
   3666  C1'        6.6390    3.3550  -26.3790 C.3   558  C558        0.0028
   3667  N1         6.9230    4.8170  -26.1000 N.1   558  C558       -0.1795
   3668  N1         6.8360    4.8190  -26.2660 N.1   558  C558       -0.1795
   3669  C2         6.1390    5.6130  -26.9320 C.1   558  C558        0.1795
   3670  C2         6.0730    5.6670  -27.0660 C.2   558  C558        0.2794
   3671  O2         5.3390    5.0650  -27.7020 O.2   558  C558       -0.2794
   3672  O2         5.2530    5.1730  -27.8490 O.3   558  C558        0.0000
   3673  N3         6.2670    6.9580  -26.8720 N.1   558  C558       -0.1795
   3674  N3         6.2460    7.0040  -26.9640 N.3   558  C558        0.0000
   3675  C4         7.1390    7.5060  -26.0240 C.3   558  C558        0.1297
   3676  C4         7.1380    7.5020  -26.1060 C.1   558  C558        0.1795
   3677  N4         7.2300    8.8350  -26.0010 N.3   558  C558        0.0000
   3678  N4         7.2720    8.8270  -26.0430 N.3   558  C558       -0.1297
   3679  C5         7.9600    6.7200  -25.1640 C.3   558  C558        0.0000
   3680  C5         7.9360    6.6660  -25.2750 C.1   558  C558        0.0000
   3681  C6         7.8160    5.3910  -25.2370 C.1   558  C558        0.0000
   3682  C6         7.7450    5.3480  -25.3900 C.1   558  C558        0.1795
   3683  OP1       12.1260    4.6090  -23.4590 O.3   558  C558       -0.1229
   3684  OP1       11.9950    4.7080  -24.0800 O.3   558  C558       -0.0277
   3685  OP2        9.7450    4.9040  -22.5110 O.co2 558  C558       -1.0000
   3686  OP2       10.1480    4.4820  -22.3000 O.co2 558  C558       -0.8702
   3687  P         10.7550    1.9770  -28.5200 P.3   559  A559        0.3006
   3688  C5'        9.0820    1.9860  -30.5280 C.3   559  A559        0.1823
   3689  O5'       10.0330    2.6890  -29.7450 O.3   559  A559       -0.3001
   3690  C4'        8.3700    2.9050  -31.4800 C.3   559  A559        0.1773
   3691  O4'        7.4330    3.7590  -30.7660 O.3   559  A559       -0.3307
   3692  C3'        9.2430    3.8940  -32.2220 C.3   559  A559        0.1860
   3693  O3'        9.9930    3.3130  -33.2740 O.3   559  A559       -0.3112
   3694  C2'        8.2270    4.9330  -32.6670 C.3   559  A559        0.2309
   3695  O2'        7.4380    4.4190  -33.7290 O.3   559  A559       -0.2156
   3696  C1'        7.3420    5.0110  -31.4240 C.3   559  A559        0.2408
   3697  N1         7.4660   10.0810  -30.5460 N.ar  559  A559       -0.2040
   3698  C2         6.9260    9.3470  -31.5280 C.ar  559  A559        0.2016
   3699  N3         6.9360    8.0250  -31.6860 N.ar  559  A559       -0.2048
   3700  C4         7.5960    7.4240  -30.6770 C.ar  559  A559        0.1692
   3701  C5         8.2050    8.0410  -29.5970 C.ar  559  A559        0.1518
   3702  C6         8.1260    9.4510  -29.5400 C.ar  559  A559        0.1919
   3703  N6         8.6610   10.1940  -28.5610 N.pl3 559  A559       -0.1054
   3704  N7         8.7870    7.0930  -28.7620 N.ar  559  A559       -0.2193
   3705  C8         8.5220    5.9500  -29.3480 C.ar  559  A559        0.1816
   3706  N9         7.8000    6.0750  -30.5080 N.ar  559  A559       -0.2693
   3707  OP1       11.4660    0.7690  -29.0280 O.2   559  A559       -0.2722
   3708  OP2       11.5010    3.0310  -27.7780 O.co2 559  A559       -0.7578
   3709  P         11.4010    3.9620  -33.7010 P.3   560  G560        0.2141
   3710  C5'       10.1110    4.8510  -35.7980 C.3   560  G560        0.1812
   3711  O5'       10.9850    5.1200  -34.7130 O.3   560  G560       -0.3114
   3712  C4'        9.6280    6.1230  -36.4400 C.3   560  G560        0.1773
   3713  O4'        8.7610    6.8390  -35.5220 O.3   560  G560       -0.3307
   3714  C3'       10.7010    7.1380  -36.7880 C.3   560  G560        0.1860
   3715  O3'       11.3840    6.8290  -37.9890 O.3   560  G560       -0.3112
   3716  C2'        9.9160    8.4390  -36.8430 C.3   560  G560        0.2309
   3717  O2'        9.1930    8.5260  -38.0610 O.3   560  G560       -0.2156
   3718  C1'        8.9170    8.2310  -35.7040 C.3   560  G560        0.2408
   3719  N1         9.5490   12.4770  -32.9250 N.ar  560  G560       -0.1709
   3720  C2         9.0320   12.3300  -34.1920 C.ar  560  G560        0.2606
   3721  N2         8.6290   13.4590  -34.7920 N.pl3 560  G560       -0.0859
   3722  N3         8.9150   11.1680  -34.8230 N.ar  560  G560       -0.1918
   3723  C4         9.3660   10.1450  -34.0710 C.ar  560  G560        0.1723
   3724  C5         9.9020   10.1860  -32.7960 C.ar  560  G560        0.1748
   3725  C6        10.0200   11.4370  -32.1290 C.ar  560  G560        0.3023
   3726  O6        10.4700   11.6750  -30.9990 O.2   560  G560       -0.2633
   3727  N7        10.2480    8.9120  -32.3700 N.ar  560  G560       -0.2173
   3728  C8         9.9220    8.1380  -33.3710 C.ar  560  G560        0.1817
   3729  N9         9.3840    8.8190  -34.4350 N.ar  560  G560       -0.2693
   3730  OP1       12.1830    2.9410  -34.4440 O.2   560  G560       -0.5172
   3731  OP2       11.9950    4.6120  -32.5020 O.co2 560  G560       -0.4373
   3732  P         12.9540    7.1400  -38.1200 P.3   561  U561        0.2141
   3733  C5'       12.4090    9.4770  -39.1690 C.3   561  U561        0.1812
   3734  O5'       13.0320    8.7310  -38.1360 O.3   561  U561       -0.3114
   3735  C4'       12.3650   10.9450  -38.8360 C.3   561  U561        0.1773
   3736  O4'       11.5440   11.1690  -37.6600 O.3   561  U561       -0.3307
   3737  C3'       13.6900   11.5880  -38.4710 C.3   561  U561        0.1860
   3738  O3'       14.4980   11.8740  -39.5970 O.3   561  U561       -0.3112
   3739  C2'       13.2450   12.8260  -37.7040 C.3   561  U561        0.2309
   3740  O2'       12.7840   13.8270  -38.5980 O.3   561  U561       -0.2156
   3741  C1'       12.0400   12.2820  -36.9400 C.3   561  U561        0.2420
   3742  N1        12.4140   11.8560  -35.5760 N.ar  561  U561       -0.2534
   3743  C2        12.5240   12.8550  -34.6270 C.ar  561  U561        0.3546
   3744  O2        12.3210   14.0320  -34.8680 O.2   561  U561       -0.2443
   3745  N3        12.8780   12.4360  -33.3720 N.ar  561  U561       -0.1530
   3746  C4        13.1320   11.1390  -32.9870 C.ar  561  U561        0.2846
   3747  O4        13.4390   10.9240  -31.8170 O.2   561  U561       -0.2650
   3748  C5        13.0040   10.1570  -34.0240 C.ar  561  U561        0.0814
   3749  C6        12.6590   10.5410  -35.2590 C.ar  561  U561        0.0870
   3750  OP1       13.4010    6.6480  -39.4510 O.2   561  U561       -0.5172
   3751  OP2       13.6220    6.6860  -36.8720 O.co2 561  U561       -0.4373
   3752  P         16.0940   11.9860  -39.4410 P.3   562  C562        0.2141
   3753  C5'       15.8600   14.5890  -39.2620 C.3   562  C562        0.1812
   3754  O5'       16.3100   13.3740  -38.6830 O.3   562  C562       -0.3114
   3755  C4'       16.1300   15.7730  -38.3700 C.3   562  C562        0.1773
   3756  O4'       15.3050   15.7160  -37.1780 O.3   562  C562       -0.3307
   3757  C3'       17.5350   15.9000  -37.8180 C.3   562  C562        0.1860
   3758  O3'       18.4720   16.3700  -38.7700 O.3   562  C562       -0.3112
   3759  C2'       17.3290   16.8420  -36.6380 C.3   562  C562        0.2309
   3760  O2'       17.1720   18.1780  -37.0930 O.3   562  C562       -0.2156
   3761  C1'       15.9760   16.3600  -36.1090 C.3   562  C562        0.2420
   3762  N1        16.1230   15.4160  -34.9770 N.ar  562  C562       -0.2535
   3763  C2        16.3690   15.9460  -33.7050 C.ar  562  C562        0.3532
   3764  O2        16.4530   17.1760  -33.5760 O.2   562  C562       -0.2443
   3765  N3        16.5070   15.1140  -32.6460 N.ar  562  C562       -0.1739
   3766  C4        16.4100   13.7930  -32.8260 C.ar  562  C562        0.1759
   3767  N4        16.5530   13.0040  -31.7580 N.pl3 562  C562       -0.1070
   3768  C5        16.1630   13.2210  -34.1110 C.ar  562  C562        0.0566
   3769  C6        16.0270   14.0610  -35.1470 C.ar  562  C562        0.0850
   3770  OP1       16.6550   12.1120  -40.8130 O.2   562  C562       -0.5172
   3771  OP2       16.5610   10.8960  -38.5450 O.co2 562  C562       -0.4373
   3772  P         19.9980   15.8690  -38.7020 P.3   563  G563        0.2141
   3773  C5'       20.7950   17.8240  -37.1460 C.3   563  G563        0.1812
   3774  O5'       20.5350   16.4370  -37.3100 O.3   563  G563       -0.3114
   3775  C4'       20.9940   18.2000  -35.6980 C.3   563  G563        0.1773
   3776  O4'       19.8870   17.7160  -34.8920 O.3   563  G563       -0.3307
   3777  C3'       22.2160   17.6260  -35.0000 C.3   563  G563        0.1860
   3778  O3'       23.4230   18.2920  -35.3320 O.3   563  G563       -0.3112
   3779  C2'       21.8390   17.7580  -33.5320 C.3   563  G563        0.2309
   3780  O2'       22.0130   19.0940  -33.0910 O.3   563  G563       -0.2156
   3781  C1'       20.3400   17.4530  -33.5770 C.3   563  G563        0.2408
   3782  N1        20.2660   14.1810  -29.7580 N.ar  563  G563       -0.1709
   3783  C2        20.5600   15.5240  -29.7790 C.ar  563  G563        0.2606
   3784  N2        20.8850   16.0780  -28.6010 N.pl3 563  G563       -0.0859
   3785  N3        20.5380   16.2660  -30.8720 N.ar  563  G563       -0.1918
   3786  C4        20.1890   15.5440  -31.9580 C.ar  563  G563        0.1723
   3787  C5        19.8740   14.2040  -32.0500 C.ar  563  G563        0.1748
   3788  C6        19.9040   13.4180  -30.8630 C.ar  563  G563        0.3023
   3789  O6        19.6610   12.2130  -30.7110 O.2   563  G563       -0.2633
   3790  N7        19.5710   13.8700  -33.3670 N.ar  563  G563       -0.2173
   3791  C8        19.7070   14.9920  -34.0320 C.ar  563  G563        0.1817
   3792  N9        20.0730   16.0460  -33.2280 N.ar  563  G563       -0.2693
   3793  OP1       20.7290   16.5340  -39.8160 O.2   563  G563       -0.5172
   3794  OP2       19.9860   14.3870  -38.6100 O.co2 563  G563       -0.4373
   3795  P         24.8140   17.4820  -35.3380 P.3   564  U564        0.2141
   3796  C5'       25.3520   18.1120  -32.8400 C.3   564  U564        0.1812
   3797  O5'       25.0680   17.1120  -33.8070 O.3   564  U564       -0.3114
   3798  C4'       25.3700   17.5370  -31.4450 C.3   564  U564        0.1773
   3799  O4'       24.0980   16.8970  -31.1600 O.3   564  U564       -0.3307
   3800  C3'       26.3940   16.4440  -31.1910 C.3   564  U564        0.1860
   3801  O3'       27.6910   16.9550  -30.9390 O.3   564  U564       -0.3112
   3802  C2'       25.7920   15.6880  -30.0130 C.3   564  U564        0.2309
   3803  O2'       26.0190   16.3820  -28.7960 O.3   564  U564       -0.2156
   3804  C1'       24.3000   15.7670  -30.3350 C.3   564  U564        0.2420
   3805  N1        23.8090   14.5640  -31.0460 N.ar  564  U564       -0.2534
   3806  C2        23.6620   13.3980  -30.3200 C.ar  564  U564        0.3546
   3807  O2        23.9300   13.3150  -29.1350 O.2   564  U564       -0.2443
   3808  N3        23.1950   12.3230  -31.0330 N.ar  564  U564       -0.1530
   3809  C4        22.8580   12.2960  -32.3720 C.ar  564  U564        0.2846
   3810  O4        22.4470   11.2470  -32.8710 O.2   564  U564       -0.2650
   3811  C5        23.0300   13.5390  -33.0580 C.ar  564  U564        0.0814
   3812  C6        23.4860   14.6010  -32.3840 C.ar  564  U564        0.0870
   3813  OP1       25.8860   18.4020  -35.8030 O.3   564  U564       -0.4373
   3814  OP2       24.5790   16.2040  -36.0600 O.co2 564  U564       -0.5172
   3815  P         28.9850   16.2370  -31.5670 P.3   565  U565        0.2141
   3816  C5'       29.4760   15.1350  -29.2380 C.3   565  U565        0.1812
   3817  O5'       29.2130   14.9730  -30.6240 O.3   565  U565       -0.3114
   3818  C4'       29.3690   13.8250  -28.5020 C.3   565  U565        0.1773
   3819  O4'       27.9900   13.3710  -28.5150 O.3   565  U565       -0.3307
   3820  C3'       30.1440   12.6620  -29.0990 C.3   565  U565        0.1860
   3821  O3'       31.5160   12.6710  -28.7510 O.3   565  U565       -0.3112
   3822  C2'       29.3850   11.4510  -28.5710 C.3   565  U565        0.2309
   3823  O2'       29.7260   11.1970  -27.2170 O.3   565  U565       -0.2156
   3824  C1'       27.9460   11.9620  -28.6120 C.3   565  U565        0.2420
   3825  N1        27.2610   11.6000  -29.8740 N.ar  565  U565       -0.2534
   3826  C2        26.7370   10.3260  -29.9820 C.ar  565  U565        0.3546
   3827  O2        26.8190    9.4950  -29.0940 O.2   565  U565       -0.2443
   3828  N3        26.1120   10.0610  -31.1750 N.ar  565  U565       -0.1530
   3829  C4        25.9640   10.9240  -32.2450 C.ar  565  U565        0.2846
   3830  O4        25.3730   10.5410  -33.2550 O.2   565  U565       -0.2650
   3831  C5        26.5320   12.2240  -32.0570 C.ar  565  U565        0.0814
   3832  C6        27.1460   12.5050  -30.9050 C.ar  565  U565        0.0870
   3833  OP1       30.1300   17.1710  -31.3990 O.3   565  U565       -0.4373
   3834  OP2       28.6490   15.7390  -32.9280 O.co2 565  U565       -0.5172
   3835  P         32.6220   12.1610  -29.8000 P.3   566  C566        0.2141
   3836  C5'       32.6270    9.8280  -28.5910 C.3   566  C566        0.1812
   3837  O5'       32.4590   10.5740  -29.7890 O.3   566  C566       -0.3114
   3838  C4'       32.1860    8.3950  -28.7650 C.3   566  C566        0.1773
   3839  O4'       30.7490    8.3460  -28.9660 O.3   566  C566       -0.3307
   3840  C3'       32.7520    7.6640  -29.9730 C.3   566  C566        0.1860
   3841  O3'       34.0610    7.1680  -29.7630 O.3   566  C566       -0.3112
   3842  C2'       31.7190    6.5730  -30.2170 C.3   566  C566        0.2309
   3843  O2'       31.8900    5.5020  -29.3000 O.3   566  C566       -0.2156
   3844  C1'       30.4250    7.3050  -29.8640 C.3   566  C566        0.2420
   3845  N1        29.7790    7.8990  -31.0560 N.ar  566  C566       -0.2535
   3846  C2        29.0030    7.0730  -31.8690 C.ar  566  C566        0.3532
   3847  O2        28.8910    5.8750  -31.5650 O.2   566  C566       -0.2443
   3848  N3        28.3980    7.5980  -32.9600 N.ar  566  C566       -0.1739
   3849  C4        28.5490    8.8930  -33.2440 C.ar  566  C566        0.1759
   3850  N4        27.9370    9.3720  -34.3270 N.pl3 566  C566       -0.1070
   3851  C5        29.3340    9.7620  -32.4330 C.ar  566  C566        0.0566
   3852  C6        29.9240    9.2250  -31.3580 C.ar  566  C566        0.0850
   3853  OP1       33.9590   12.5010  -29.2430 O.3   566  C566       -0.4373
   3854  OP2       32.2430   12.6560  -31.1510 O.co2 566  C566       -0.5172
   3855  P         35.1170    7.1580  -30.9720 P.3   567  C567        0.2141
   3856  C5'       34.6880    4.5850  -31.2410 C.3   567  C567        0.1812
   3857  O5'       34.7080    5.8780  -31.8250 O.3   567  C567       -0.3114
   3858  C4'       34.1860    3.5570  -32.2210 C.3   567  C567        0.1773
   3859  O4'       32.7420    3.6540  -32.3470 O.3   567  C567       -0.3307
   3860  C3'       34.6860    3.7100  -33.6470 C.3   567  C567        0.1860
   3861  O3'       35.9940    3.2000  -33.8370 O.3   567  C567       -0.3112
   3862  C2'       33.6170    2.9800  -34.4460 C.3   567  C567        0.2309
   3863  O2'       33.7800    1.5770  -34.3240 O.3   567  C567       -0.2156
   3864  C1'       32.3560    3.3750  -33.6780 C.3   567  C567        0.2420
   3865  N1        31.7170    4.5820  -34.2490 N.ar  567  C567       -0.2535
   3866  C2        30.8930    4.4370  -35.3690 C.ar  567  C567        0.3532
   3867  O2        30.7180    3.3110  -35.8490 O.2   567  C567       -0.2443
   3868  N3        30.3030    5.5280  -35.9040 N.ar  567  C567       -0.1739
   3869  C4        30.5030    6.7300  -35.3610 C.ar  567  C567        0.1759
   3870  N4        29.8960    7.7720  -35.9310 N.pl3 567  C567       -0.1070
   3871  C5        31.3410    6.9160  -34.2230 C.ar  567  C567        0.0566
   3872  C6        31.9200    5.8240  -33.7040 C.ar  567  C567        0.0850
   3873  OP1       36.4640    6.9270  -30.3840 O.3   567  C567       -0.4373
   3874  OP2       34.8560    8.3430  -31.8350 O.co2 567  C567       -0.5172
   3875  P         37.0690    4.0360  -34.6930 P.3   568  G568        0.2141
   3876  C5'       36.4280    2.8220  -36.9220 C.3   568  G568        0.1812
   3877  O5'       36.4840    4.0270  -36.1770 O.3   568  G568       -0.3114
   3878  C4'       35.8160    3.0190  -38.2870 C.3   568  G568        0.1773
   3879  O4'       34.3670    3.1080  -38.1950 O.3   568  G568       -0.3307
   3880  C3'       36.1890    4.2820  -39.0410 C.3   568  G568        0.1860
   3881  O3'       37.5010    4.2800  -39.5780 O.3   568  G568       -0.3112
   3882  C2'       35.0880    4.3430  -40.0880 C.3   568  G568        0.2309
   3883  O2'       35.3060    3.3670  -41.0920 O.3   568  G568       -0.2156
   3884  C1'       33.8800    3.9110  -39.2540 C.3   568  G568        0.2408
   3885  N1        30.4410    7.4530  -40.2540 N.ar  568  G568       -0.1709
   3886  C2        30.8460    6.3710  -40.9950 C.ar  568  G568        0.2606
   3887  N2        30.2460    6.2180  -42.1850 N.pl3 568  G568       -0.0859
   3888  N3        31.7660    5.5070  -40.6020 N.ar  568  G568       -0.1918
   3889  C4        32.2540    5.8230  -39.3860 C.ar  568  G568        0.1723
   3890  C5        31.9210    6.8760  -38.5600 C.ar  568  G568        0.1748
   3891  C6        30.9310    7.8000  -39.0000 C.ar  568  G568        0.3023
   3892  O6        30.4800    8.8050  -38.4290 O.2   568  G568       -0.2633
   3893  N7        32.6690    6.8270  -37.3900 N.ar  568  G568       -0.2173
   3894  C8        33.4210    5.7650  -37.5260 C.ar  568  G568        0.1817
   3895  N9        33.2010    5.1000  -38.7090 N.ar  568  G568       -0.2693
   3896  OP1       38.3330    3.2520  -34.6700 O.2   568  G568       -0.5172
   3897  OP2       37.0480    5.4490  -34.2380 O.co2 568  G568       -0.4373
   3898  P         38.3540    5.6490  -39.5980 P.3   569  A569        0.2141
   3899  C5'       38.1450    7.7990  -41.0770 C.3   569  A569        0.1812
   3900  O5'       37.7560    6.4570  -40.8330 O.3   569  A569       -0.3114
   3901  C4'       37.8230    8.2120  -42.4880 C.3   569  A569        0.1773
   3902  O4'       38.5720    7.3850  -43.4170 O.3   569  A569       -0.3307
   3903  C3'       36.3740    8.0340  -42.9140 C.3   569  A569        0.1860
   3904  O3'       35.5500    9.1150  -42.5110 O.3   569  A569       -0.3112
   3905  C2'       36.4850    7.8920  -44.4240 C.3   569  A569        0.2309
   3906  O2'       36.6680    9.1630  -45.0280 O.3   569  A569       -0.2156
   3907  C1'       37.7890    7.1080  -44.5580 C.3   569  A569        0.2408
   3908  N1        35.5310    3.1950  -47.0690 N.ar  569  A569       -0.2040
   3909  C2        35.5200    4.5170  -47.2810 C.ar  569  A569        0.2016
   3910  N3        36.1260    5.4780  -46.5890 N.ar  569  A569       -0.2048
   3911  C4        36.8230    4.9640  -45.5570 C.ar  569  A569        0.1692
   3912  C5        36.9270    3.6270  -45.2120 C.ar  569  A569        0.1518
   3913  C6        36.2380    2.7080  -46.0230 C.ar  569  A569        0.1919
   3914  N6        36.2480    1.3900  -45.8140 N.pl3 569  A569       -0.1054
   3915  N7        37.7270    3.4670  -44.0880 N.ar  569  A569       -0.2193
   3916  C8        38.0800    4.6930  -43.7840 C.ar  569  A569        0.1816
   3917  N9        37.5680    5.6500  -44.6260 N.ar  569  A569       -0.2693
   3918  OP1       39.7730    5.3320  -39.9100 O.2   569  A569       -0.5172
   3919  OP2       38.0180    6.3980  -38.3580 O.co2 569  A569       -0.4373
   3920  P         34.1570    8.8450  -41.7560 P.3   570  A570        0.2141
   3921  C5'       32.9040    9.3440  -44.0130 C.3   570  A570        0.1812
   3922  O5'       33.1400    8.4650  -42.9240 O.3   570  A570       -0.3114
   3923  C4'       32.3900    8.5950  -45.2150 C.3   570  A570        0.1773
   3924  O4'       33.3010    7.5150  -45.5350 O.3   570  A570       -0.3307
   3925  C3'       31.0390    7.9130  -45.0450 C.3   570  A570        0.1860
   3926  O3'       29.9630    8.8050  -45.2910 O.3   570  A570       -0.3112
   3927  C2'       31.1000    6.7570  -46.0410 C.3   570  A570        0.2309
   3928  O2'       30.7510    7.1970  -47.3450 O.3   570  A570       -0.2156
   3929  C1'       32.5910    6.4020  -46.0300 C.3   570  A570        0.2408
   3930  N1        32.6580    1.2490  -45.6950 N.ar  570  A570       -0.2040
   3931  C2        32.2660    2.0820  -46.6690 C.ar  570  A570        0.2016
   3932  N3        32.2740    3.4140  -46.6900 N.ar  570  A570       -0.2048
   3933  C4        32.7540    3.9060  -45.5350 C.ar  570  A570        0.1692
   3934  C5        33.1970    3.1770  -44.4420 C.ar  570  A570        0.1518
   3935  C6        33.1370    1.7740  -44.5450 C.ar  570  A570        0.1919
   3936  N6        33.5300    0.9450  -43.5720 N.pl3 570  A570       -0.1054
   3937  N7        33.6250    4.0220  -43.4250 N.ar  570  A570       -0.2193
   3938  C8        33.4350    5.2210  -43.9210 C.ar  570  A570        0.1816
   3939  N9        32.9040    5.2280  -45.1910 N.ar  570  A570       -0.2693
   3940  OP1       33.7200   10.1330  -41.1520 O.2   570  A570       -0.5172
   3941  OP2       34.3310    7.6470  -40.8940 O.co2 570  A570       -0.4373
   3942  P         28.6180    8.7500  -44.4120 P.3   571  A571        0.2141
   3943  C5'       27.1550    8.0160  -46.4580 C.3   571  A571        0.1812
   3944  O5'       27.6950    7.7050  -45.1820 O.3   571  A571       -0.3114
   3945  C4'       26.6930    6.7770  -47.1830 C.3   571  A571        0.1773
   3946  O4'       27.8180    5.8780  -47.3740 O.3   571  A571       -0.3307
   3947  C3'       25.6580    5.9240  -46.4640 C.3   571  A571        0.1860
   3948  O3'       24.3340    6.4090  -46.6030 O.3   571  A571       -0.3112
   3949  C2'       25.8670    4.5550  -47.0940 C.3   571  A571        0.2309
   3950  O2'       25.2650    4.5040  -48.3780 O.3   571  A571       -0.2156
   3951  C1'       27.3840    4.5370  -47.2710 C.3   571  A571        0.2408
   3952  N1        29.3050    0.1810  -45.3110 N.ar  571  A571       -0.2040
   3953  C2        28.7260    0.4620  -46.4870 C.ar  571  A571        0.2016
   3954  N3        28.2510    1.6250  -46.9310 N.ar  571  A571       -0.2048
   3955  C4        28.4140    2.5890  -46.0070 C.ar  571  A571        0.1692
   3956  C5        28.9900    2.4530  -44.7540 C.ar  571  A571        0.1518
   3957  C6        29.4560    1.1730  -44.4020 C.ar  571  A571        0.1919
   3958  N6        30.0340    0.8890  -43.2290 N.pl3 571  A571       -0.1054
   3959  N7        28.9840    3.6680  -44.0810 N.ar  571  A571       -0.2193
   3960  C8        28.4170    4.4950  -44.9260 C.ar  571  A571        0.1816
   3961  N9        28.0530    3.9100  -46.1150 N.ar  571  A571       -0.2693
   3962  OP1       27.9710   10.0850  -44.5250 O.2   571  A571       -0.5172
   3963  OP2       28.9370    8.2000  -43.0680 O.co2 571  A571       -0.4373
   3964  P         23.5910    7.1020  -45.3570 P.3   572  G572        0.2141
   3965  C5'       23.0920    4.7840  -44.2250 C.3   572  G572        0.1812
   3966  O5'       23.7400    6.0470  -44.1720 O.3   572  G572       -0.3114
   3967  C4'       23.9400    3.6990  -43.6050 C.3   572  G572        0.1773
   3968  O4'       25.3400    4.0970  -43.6020 O.3   572  G572       -0.3307
   3969  C3'       23.6520    3.3700  -42.1480 C.3   572  G572        0.1860
   3970  O3'       22.5250    2.5280  -41.9750 O.3   572  G572       -0.3112
   3971  C2'       24.9590    2.7380  -41.6960 C.3   572  G572        0.2309
   3972  O2'       25.0650    1.4090  -42.1820 O.3   572  G572       -0.2156
   3973  C1'       25.9740    3.6050  -42.4380 C.3   572  G572        0.2408
   3974  N1        28.4420    5.0910  -38.2600 N.ar  572  G572       -0.1709
   3975  C2        28.2680    3.8290  -38.7690 C.ar  572  G572        0.2606
   3976  N2        28.8280    2.8380  -38.0600 N.pl3 572  G572       -0.0859
   3977  N3        27.6000    3.5640  -39.8810 N.ar  572  G572       -0.1918
   3978  C4        27.1130    4.6880  -40.4500 C.ar  572  G572        0.1723
   3979  C5        27.2300    5.9950  -40.0240 C.ar  572  G572        0.1748
   3980  C6        27.9490    6.2600  -38.8280 C.ar  572  G572        0.3023
   3981  O6        28.1640    7.3440  -38.2750 O.2   572  G572       -0.2633
   3982  N7        26.5790    6.8580  -40.8980 N.ar  572  G572       -0.2173
   3983  C8        26.0880    6.0760  -41.8190 C.ar  572  G572        0.1817
   3984  N9        26.3820    4.7520  -41.6090 N.ar  572  G572       -0.2693
   3985  OP1       22.1450    7.2260  -45.6810 O.2   572  G572       -0.5172
   3986  OP2       24.3720    8.3140  -44.9930 O.co2 572  G572       -0.4373
   3987  P         21.5520    2.7230  -40.7080 P.3   573  G573        0.2141
   3988  C5'       22.6560    0.7970  -39.3110 C.3   573  G573        0.1812
   3989  O5'       22.3980    2.1830  -39.4700 O.3   573  G573       -0.3114
   3990  C4'       23.6640    0.5480  -38.2190 C.3   573  G573        0.1773
   3991  O4'       24.8570    1.3360  -38.4650 O.3   573  G573       -0.3307
   3992  C3'       23.2500    0.9410  -36.8110 C.3   573  G573        0.1860
   3993  O3'       22.4290   -0.0260  -36.1820 O.3   573  G573       -0.3112
   3994  C2'       24.5900    1.1430  -36.1140 C.3   573  G573        0.2309
   3995  O2'       25.1630   -0.1010  -35.7490 O.3   573  G573       -0.2156
   3996  C1'       25.4260    1.7440  -37.2390 C.3   573  G573        0.2408
   3997  N1        27.0510    5.8200  -34.7220 N.ar  573  G573       -0.1709
   3998  C2        27.2720    4.4870  -34.4670 C.ar  573  G573        0.2606
   3999  N2        28.0270    4.2130  -33.3930 N.pl3 573  G573       -0.0859
   4000  N3        26.7880    3.5010  -35.2060 N.ar  573  G573       -0.1918
   4001  C4        26.0550    3.9720  -36.2370 C.ar  573  G573        0.1723
   4002  C5        25.7730    5.2760  -36.5830 C.ar  573  G573        0.1748
   4003  C6        26.3000    6.3220  -35.7820 C.ar  573  G573        0.3023
   4004  O6        26.1650    7.5430  -35.9270 O.2   573  G573       -0.2633
   4005  N7        24.9820    5.3260  -37.7260 N.ar  573  G573       -0.2173
   4006  C8        24.7980    4.0750  -38.0470 C.ar  573  G573        0.1817
   4007  N9        25.4240    3.2120  -37.1840 N.ar  573  G573       -0.2693
   4008  OP1       20.3880    1.8170  -40.8880 O.2   573  G573       -0.5172
   4009  OP2       21.3440    4.1800  -40.5020 O.co2 573  G573       -0.4373
   4010  P         21.4010    0.4270  -35.0350 P.3   574  A574        0.2141
   4011  C5'       23.1010   -0.2720  -33.1550 C.3   574  A574        0.1812
   4012  O5'       22.3260    0.7420  -33.7750 O.3   574  A574       -0.3114
   4013  C4'       24.0280    0.3090  -32.1180 C.3   574  A574        0.1773
   4014  O4'       24.9520    1.2350  -32.7470 O.3   574  A574       -0.3307
   4015  C3'       23.3650    1.1380  -31.0320 C.3   574  A574        0.1860
   4016  O3'       22.7990    0.3510  -30.0030 O.3   574  A574       -0.3112
   4017  C2'       24.4960    2.0410  -30.5620 C.3   574  A574        0.2309
   4018  O2'       25.3740    1.3350  -29.6960 O.3   574  A574       -0.2156
   4019  C1'       25.2230    2.3140  -31.8760 C.3   574  A574        0.2408
   4020  N1        25.2270    7.4620  -31.7560 N.ar  574  A574       -0.2040
   4021  C2        25.7940    6.5440  -30.9600 C.ar  574  A574        0.2016
   4022  N3        25.7510    5.2160  -31.0500 N.ar  574  A574       -0.2048
   4023  C4        25.0170    4.8360  -32.1110 C.ar  574  A574        0.1692
   4024  C5        24.3710    5.6570  -33.0200 C.ar  574  A574        0.1518
   4025  C6        24.4940    7.0450  -32.8170 C.ar  574  A574        0.1919
   4026  N6        23.9330    7.9690  -33.6050 N.pl3 574  A574       -0.1054
   4027  N7        23.7110    4.9010  -33.9830 N.ar  574  A574       -0.2193
   4028  C8        23.9670    3.6630  -33.6390 C.ar  574  A574        0.1816
   4029  N9        24.7510    3.5530  -32.5180 N.ar  574  A574       -0.2693
   4030  OP1       20.5270   -0.7290  -34.6950 O.3   574  A574       -0.4373
   4031  OP2       20.8090    1.7180  -35.4770 O.co2 574  A574       -0.5172
   4032  P         21.4600    0.8490  -29.2730 P.3   575  A575        0.2141
   4033  C5'       22.9530    1.7400  -27.3030 C.3   575  A575        0.1812
   4034  O5'       21.9650    1.9990  -28.2910 O.3   575  A575       -0.3114
   4035  C4'       23.4750    3.0210  -26.7000 C.3   575  A575        0.1773
   4036  O4'       24.0980    3.8340  -27.7300 O.3   575  A575       -0.3307
   4037  C3'       22.4310    3.9450  -26.0960 C.3   575  A575        0.1860
   4038  O3'       21.9980    3.5450  -24.8080 O.3   575  A575       -0.3112
   4039  C2'       23.1330    5.2950  -26.1250 C.3   575  A575        0.2309
   4040  O2'       24.0850    5.3830  -25.0750 O.3   575  A575       -0.2156
   4041  C1'       23.8900    5.2060  -27.4510 C.3   575  A575        0.2408
   4042  N1        22.7320    9.5390  -30.0360 N.ar  575  A575       -0.2040
   4043  C2        23.5230    9.3060  -28.9790 C.ar  575  A575        0.2016
   4044  N3        23.7800    8.1570  -28.3560 N.ar  575  A575       -0.2048
   4045  C4        23.1110    7.1400  -28.9310 C.ar  575  A575        0.1692
   4046  C5        22.2620    7.2240  -30.0250 C.ar  575  A575        0.1518
   4047  C6        22.0730    8.4980  -30.5960 C.ar  575  A575        0.1919
   4048  N6        21.2870    8.7330  -31.6510 N.pl3 575  A575       -0.1054
   4049  N7        21.7520    5.9730  -30.3440 N.ar  575  A575       -0.2193
   4050  C8        22.2940    5.1760  -29.4510 C.ar  575  A575        0.1816
   4051  N9        23.1310    5.8100  -28.5650 N.ar  575  A575       -0.2693
   4052  OP1       20.9340   -0.2790  -28.4610 O.3   575  A575       -0.4373
   4053  OP2       20.6030    1.4900  -30.3060 O.co2 575  A575       -0.5172
   4054  P         20.4310    3.3120  -24.5350 P.3   576  G576        0.2141
   4055  C5'       20.6960    2.6020  -22.0260 C.3   576  G576        0.1813
   4056  O5'       20.2650    3.5710  -22.9720 O.3   576  G576       -0.3114
   4057  C4'       20.8030    3.1830  -20.6380 C.3   576  G576        0.1801
   4058  O4'       19.5350    3.7730  -20.2510 O.3   576  G576       -0.3306
   4059  C3'       21.1030    2.1880  -19.5270 C.3   576  G576        0.2161
   4060  O3'       22.4800    1.8660  -19.4310 O.3   576  G576       -0.2175
   4061  C2'       20.5520    2.8880  -18.2920 C.3   576  G576        0.2337
   4062  O2'       21.4560    3.8810  -17.8300 O.3   576  G576       -0.2155
   4063  C1'       19.3180    3.5870  -18.8670 C.3   576  G576        0.2409
   4064  N1        16.0910    1.4900  -15.5300 N.ar  576  G576       -0.1709
   4065  C2        17.2350    2.2150  -15.3010 C.ar  576  G576        0.2606
   4066  N2        17.5660    2.4090  -14.0160 N.pl3 576  G576       -0.0859
   4067  N3        17.9960    2.7140  -16.2590 N.ar  576  G576       -0.1918
   4068  C4        17.5150    2.4260  -17.4880 C.ar  576  G576        0.1723
   4069  C5        16.3840    1.7090  -17.8250 C.ar  576  G576        0.1748
   4070  C6        15.5750    1.1790  -16.7850 C.ar  576  G576        0.3023
   4071  O6        14.5350    0.5140  -16.8730 O.2   576  G576       -0.2633
   4072  N7        16.2400    1.6360  -19.2050 N.ar  576  G576       -0.2173
   4073  C8        17.2670    2.2960  -19.6700 C.ar  576  G576        0.1817
   4074  N9        18.0840    2.7980  -18.6840 N.ar  576  G576       -0.2693
   4075  OP1       20.1300    1.8800  -24.8020 O.3   576  G576       -0.4373
   4076  OP2       19.6800    4.3640  -25.2700 O.co2 576  G576       -0.5172
@<TRIPOS>BOND
     1   513   512    1
     2   511   512   ar
     3   511   517   ar
     4   512   514   ar
     5   518   517    2
     6   517   516   ar
     7   514   515   ar
     8   516   515   ar
     9   516   519   ar
    10   515   521   ar
    11   523   501    2
    12   505   510    1
    13   505   504    1
    14   519   520   ar
    15   521   510    1
    16   521   520   ar
    17   489   488    1
    18   510   508    1
    19   501   503    1
    20   501   487    1
    21   501   522    1
    22   504   502    1
    23   504   506    1
    24   502   503    1
    25   488   486    1
    26   488   490    1
    27   487   486    1
    28   493   492    2
    29   486   484    1
    30   508   506    1
    31   508   509    1
    32   506   507    1
    33   492   494   ar
    34   492   491   ar
    35   507   524    1
    36   490   491    1
    37   490   485    1
    38   494   495   ar
    39   491   498   ar
    40   495   496    1
    41   495   497   ar
    42   484   485    1
    43   484   482    1
    44   473   472    2
    45   546   524    2
    46   498   497   ar
    47   469   468    1
    48   524   545    1
    49   524   526    1
    50   375   357    2
    51   474   472   ar
    52   474   475   ar
    53   482   483    1
    54   397   377    2
    55   472   471   ar
    56   476   475    2
    57   475   477   ar
    58   468   470    1
    59   468   466    1
    60   526   525    1
    61   542   543   ar
    62   542   539   ar
    63   398   377    1
    64   543   544   ar
    65   377   363    1
    66   377   379    1
    67   357   376    1
    68   357   341    1
    69   357   359    1
    70   483   481    1
    71   471   470    1
    72   471   478   ar
    73   528   533    1
    74   528   527    1
    75   419   399    2
    76   470   465    1
    77   541   540    2
    78   420   399    1
    79   539   540   ar
    80   539   538   ar
    81   341   340    1
    82   363   362    1
    83   544   533    1
    84   544   538   ar
    85   456   455    1
    86   477   478   ar
    87   467   466    1
    88   467   481    1
    89   358   359    1
    90   358   360    1
    91   466   464    1
    92   540   534   ar
    93   525   527    1
    94   500   481    2
    95   533   531    1
    96   538   537   ar
    97   481   499    1
    98   399   383    1
    99   399   401    1
   100   379   378    1
   101   527   529    1
   102   355   335    2
   103   440   421    2
   104   455   457   ar
   105   455   454   ar
   106   534   535   ar
   107   378   380    1
   108   362   360    1
   109   362   364    1
   110   460   441    2
   111   436   435    2
   112   336   338    1
   113   336   337    1
   114   360   361    1
   115   537   535   ar
   116   457   458   ar
   117   465   464    1
   118   340   338    1
   119   340   342    1
   120   535   536    1
   121   383   382    1
   122   454   452   ar
   123   464   462    1
   124   338   339    1
   125   401   400    1
   126   337   335    1
   127   439   421    1
   128   531   529    1
   129   531   532    1
   130   343   342    1
   131   437   435   ar
   132   437   438   ar
   133   435   434   ar
   134   421   423    1
   135   421   405    1
   136   529   530    1
   137   458   451   ar
   138   335   356    1
   139   335   318    1
   140   382   380    1
   141   382   384    1
   142   462   463    1
   143   380   381    1
   144   452   451   ar
   145   452   453    2
   146   447   446    1
   147   441   459    1
   148   441   443    1
   149   441   427    1
   150   342   344    1
   151   400   402    1
   152   446   448    1
   153   446   444    1
   154   364   365    1
   155   364   366    1
   156   361   366    1
   157   423   422    1
   158   451   450    1
   159   443   442    1
   160   448   450    1
   161   448   449    1
   162   438   431   ar
   163   461   463    1
   164   461   479    1
   165   461   480    1
   166   434   432   ar
   167   318   317    1
   168   339   344    1
   169   530   547    1
   170   405   404    1
   171   564   563    2
   172   416   417   ar
   173   416   413   ar
   174   366   367    1
   175   381   386    1
   176   565   566   ar
   177   565   562   ar
   178   395   394   ar
   179   395   396   ar
   180   404   402    1
   181   404   406    1
   182   450   445    1
   183   374   367   ar
   184   374   373   ar
   185   417   418   ar
   186   344   354    1
   187   384   386    1
   188   384   385    1
   189   442   444    1
   190   422   424    1
   191   427   426    1
   192   426   424    1
   193   426   428    1
   194   402   403    1
   195   566   567   ar
   196   444   445    1
   197   431   432   ar
   198   431   430    1
   199   394   391   ar
   200   563   562   ar
   201   563   557   ar
   202   432   433    2
   203   562   561   ar
   204   367   368   ar
   205   415   414    1
   206   569   547    2
   207   373   371   ar
   208   386   396    1
   209   396   390   ar
   210   317   315    1
   211   317   319    1
   212   413   414   ar
   213   413   412   ar
   214   557   558   ar
   215   424   425    1
   216   428   430    1
   217   428   429    1
   218   567   561   ar
   219   567   556    1
   220   320   319    1
   221   547   549    1
   222   547   568    1
   223   561   560   ar
   224   403   408    1
   225   551   556    1
   226   551   550    1
   227   354   353   ar
   228   354   348   ar
   229   418   408    1
   230   418   412   ar
   231   414   409   ar
   232   425   430    1
   233   406   408    1
   234   406   407    1
   235   391   390   ar
   236   391   392   ar
   237   353   352   ar
   238  3950  3949    1
   239   556   554    1
   240   558   560   ar
   241   558   559    1
   242   315   313    1
   243   315   316    1
   244   319   321    1
   245   313   314    1
   246   412   411   ar
   247   368   369    2
   248   368   370   ar
   249   390   389   ar
   250   549   548    1
   251   371   370   ar
   252   371   372    1
   253   333   312    2
   254   348   347   ar
   255   348   349   ar
   256   347   346   ar
   257   548   550    1
   258   393   392    1
   259   392   387   ar
   260   585   584    2
   261   550   552    1
   262   409   410   ar
   263   314   312    1
   264   352   349   ar
   265  3946  3951    1
   266  3946  3945    1
   267  3928  3927    1
   268  3909  3908   ar
   269  3909  3910   ar
   270  3951  3949    1
   271  3951  3961    1
   272  3945  3947    1
   273  3945  3943    1
   274   349   350   ar
   275  3949  3947    1
   276   389   388   ar
   277  3908  3913   ar
   278   411   410   ar
   279  3954  3953   ar
   280  3954  3955   ar
   281   316   321    1
   282   346   345   ar
   283   312   334    1
   284   312   296    1
   285   584   583   ar
   286   584   586   ar
   287   321   332    1
   288   554   552    1
   289   554   555    1
   290  3932  3931   ar
   291  3932  3933   ar
   292  3931  3930   ar
   293  3948  3947    1
   294  3948  3964    1
   295  3910  3911   ar
   296   387   388   ar
   297  3953  3952   ar
   298   583   581   ar
   299  3943  3944    1
   300   552   553    1
   301   586   587   ar
   302   350   345   ar
   303   350   351    1
   304  3961  3955   ar
   305  3961  3960   ar
   306  3927  3929    1
   307  3927  3925    1
   308  3929  3924    1
   309  3929  3939    1
   310  3913  3914    1
   311  3913  3912   ar
   312  3955  3956   ar
   313   332   331   ar
   314   332   326   ar
   315   296   295    1
   316   331   330   ar
   317  3930  3935   ar
   318  3985  3964    2
   319   581   582    2
   320   581   580   ar
   321   622   621    1
   322  3911  3912   ar
   323  3911  3917   ar
   324   587   580   ar
   325  3933  3939   ar
   326  3933  3934   ar
   327  3924  3923    1
   328   605   604    2
   329  3964  3986    1
   330  3964  3966    1
   331  3952  3957   ar
   332  3926  3925    1
   333  3926  3942    1
   334   325   326   ar
   335   325   323   ar
   336   326   327   ar
   337  3923  3925    1
   338  3923  3921    1
   339  3912  3915   ar
   340   580   579    1
   341   298   297    1
   342  3939  3938   ar
   343  3944  3942    1
   344   553   570    1
   345   620   621   ar
   346   620   626   ar
   347  3906  3905    1
   348   645   644    1
   349  3960  3959   ar
   350   330   327   ar
   351   621   623   ar
   352  3956  3957   ar
   353  3956  3959   ar
   354   603   604   ar
   355   603   601   ar
   356   604   606   ar
   357   627   626    2
   358  3917  3907    1
   359  3917  3916   ar
   360   327   328   ar
   361   687   686    1
   362  3907  3905    1
   363  3907  3902    1
   364   295   297    1
   365   295   293    1
   366  3935  3934   ar
   367  3935  3936    1
   368  3962  3942    2
   369   297   299    1
   370   589   570    2
   371   323   324    1
   372   323   322   ar
   373   668   667    1
   374  3934  3937   ar
   375  3905  3903    1
   376  3942  3963    1
   377  3957  3958    1
   378   626   625   ar
   379   579   574    1
   380   579   577    1
   381   574   573    1
   382  3965  3966    1
   383  3965  3967    1
   384  3915  3916   ar
   385   602   601    2
   386  3921  3922    1
   387   601   600   ar
   388   570   572    1
   389   570   588    1
   390  3938  3937   ar
   391   643   644   ar
   392   643   649   ar
   393   644   646   ar
   394   623   624   ar
   395   606   607   ar
   396   322   328   ar
   397   328   329    2
   398  3967  3968    1
   399  3967  3969    1
   400  3968  3973    1
   401   688   683    1
   402   688   686    1
   403   688   689    1
   404   572   571    1
   405   691   690    2
   406   293   291    1
   407   293   294    1
   408   683   682    1
   409  3902  3901    1
   410   686   684    1
   411   625   624   ar
   412   625   628   ar
   413   667   669   ar
   414   667   666   ar
   415   703   702    1
   416   703   708    1
   417   624   630   ar
   418   600   607   ar
   419   600   599    1
   420   682   684    1
   421   682   680    1
   422   299   294    1
   423   299   309    1
   424   650   649    2
   425   302   301   ar
   426   302   303   ar
   427   571   573    1
   428   707   706    1
   429  3922  3920    1
   430   573   575    1
   431  3903  3904    1
   432  3903  3901    1
   433   577   578    1
   434   577   575    1
   435   702   700    1
   436   702   704    1
   437   291   292    1
   438   646   647   ar
   439   649   648   ar
   440   700   701    1
   441   669   670   ar
   442   301   300   ar
   443   690   689   ar
   444   690   692   ar
   445   689   696   ar
   446   666   672   ar
   447   708   706    1
   448   708   709    1
   449   664   663    1
   450  3904  3920    1
   451   685   684    1
   452   685   699    1
   453  3901  3899    1
   454  3973  3971    1
   455  3973  3984    1
   456   628   629   ar
   457   292   290    1
   458   309   303   ar
   459   309   308   ar
   460   303   304   ar
   461   575   576    1
   462   599   594    1
   463   599   597    1
   464  3887  3886    1
   465  3972  3971    1
   466  3969  3970    1
   467  3969  3971    1
   468   680   681    1
   469   630   629   ar
   470   630   619    1
   471   300   305   ar
   472  3970  3987    1
   473   706   704    1
   474   310   290    2
   475  3983  3984   ar
   476  3983  3982   ar
   477   647   648   ar
   478   647   653   ar
   479  3920  3940    2
   480  3920  3941    1
   481   594   593    1
   482   648   651   ar
   483   704   705    1
   484   692   693   ar
   485   663   665    1
   486   663   661    1
   487  3984  3978   ar
   488   696   695   ar
   489   701   699    1
   490   308   307   ar
   491   717   699    2
   492   304   305   ar
   493   304   307   ar
   494   711   710    2
   495   670   676   ar
   496   670   671   ar
   497   705   719    1
   498   709   710   ar
   499   709   716   ar
   500   619   614    1
   501   619   617    1
   502   305   306    1
   503   699   718    1
   504   672   673    2
   505   672   671   ar
   506   665   676    1
   507   665   660    1
   508   290   311    1
   509   290   274    1
   510  3883  3882    1
   511  3899  3900    1
   512   710   712   ar
   513   597   598    1
   514   597   595    1
   515  3886  3888   ar
   516  3886  3885   ar
   517  3982  3979   ar
   518  4008  3987    2
   519   716   715   ar
   520   576   590    1
   521  3900  3898    1
   522   681   679    1
   523  3770  3752    2
   524   614   613    1
   525   676   675   ar
   526   671   674   ar
   527  3987  4009    1
   528  3987  3989    1
   529   609   590    2
   530   693   695   ar
   531   693   694    2
   532   653   642    1
   533   653   652   ar
   534  3888  3889   ar
   535   651   652   ar
   536   618   617    1
   537  3978  3979   ar
   538  3978  3977   ar
   539   720   722    1
   540   720   721    1
   541   617   615    1
   542   662   661    1
   543   662   679    1
   544   593   595    1
   545   593   591    1
   546   723   722    1
   547   723   728    1
   548   661   659    1
   549  3885  3891   ar
   550   642   640    1
   551   642   637    1
   552   660   659    1
   553   592   590    1
   554   592   591    1
   555  3882  3884    1
   556  3882  3880    1
   557   722   724    1
   558   274   273    1
   559   712   713   ar
   560  3979  3980   ar
   561   740   719    2
   562   590   608    1
   563   719   721    1
   564   719   741    1
   565   595   596    1
   566  3918  3898    2
   567   715   713   ar
   568  3977  3975   ar
   569   276   275    1
   570  3793  3772    2
   571   641   640    1
   572   679   697    2
   573   679   698    1
   574   279   278   ar
   575   279   280   ar
   576  3898  3881    1
   577  3898  3919    1
   578  3738  3752    1
   579  3738  3737    1
   580   675   674   ar
   581  3881  3880    1
   582   659   657    1
   583   640   638    1
   584  3989  3988    1
   585  3750  3732    2
   586  3752  3754    1
   587  3752  3771    1
   588   275   273    1
   589   275   277    1
   590   613   615    1
   591   613   611    1
   592   713   714    2
   593  3889  3895   ar
   594  3889  3890   ar
   595   637   636    1
   596   728   739    1
   597   728   726    1
   598  3988  3990    1
   599   278   283   ar
   600   280   281   ar
   601  3753  3754    1
   602  3753  3755    1
   603  3884  3895    1
   604  3884  3879    1
   605  3733  3735    1
   606  3733  3734    1
   607   273   271    1
   608   615   616    1
   609  3880  3878    1
   610   727   726    1
   611  3891  3890   ar
   612  3891  3892    2
   613  3735  3737    1
   614  3735  3736    1
   615  3980  3981    2
   616  3980  3974   ar
   617  3758  3772    1
   618  3758  3757    1
   619  3975  3974   ar
   620  3975  3976    1
   621  3895  3894   ar
   622  3772  3794    1
   623  3772  3774    1
   624   596   610    1
   625   724   726    1
   626   724   725    1
   627  3740  3739    1
   628   611   612    1
   629  3890  3893   ar
   630   739   738   ar
   631   739   733   ar
   632   738   737   ar
   633  3737  3739    1
   634  3991  3990    1
   635  3991  3996    1
   636   612   610    1
   637   283   284    1
   638   283   282   ar
   639   281   282   ar
   640   281   287   ar
   641  3755  3757    1
   642  3755  3756    1
   643   725   742    1
   644  3878  3879    1
   645  3878  3876    1
   646  3990  3992    1
   647  3734  3732    1
   648  3732  3715    1
   649  3732  3751    1
   650   632   610    2
   651   636   638    1
   652   636   634    1
   653   657   658    1
   654  3717  3716    1
   655   277   287    1
   656   277   272    1
   657  4006  4005   ar
   658  4006  4007   ar
   659   638   639    1
   660   282   285   ar
   661  3715  3714    1
   662   616   633    1
   663   287   286   ar
   664  3757  3759    1
   665   610   631    1
   666  4005  4002   ar
   667   271   272    1
   668   271   269    1
   669   737   734   ar
   670  3739  3741    1
   671   733   732   ar
   672   733   734   ar
   673  3736  3741    1
   674   658   656    1
   675  3894  3893   ar
   676   732   730   ar
   677  3774  3773    1
   678  3996  4007    1
   679  3996  3994    1
   680  4007  4001   ar
   681  3756  3761    1
   682   734   735   ar
   683   285   286   ar
   684  3773  3775    1
   685   639   656    1
   686  3760  3759    1
   687   634   635    1
   688  3741  3742    1
   689  3876  3877    1
   690   635   633    1
   691   269   270    1
   692   678   656    2
   693   763   742    2
   694  3716  3714    1
   695  3716  3718    1
   696   742   764    1
   697   742   744    1
   698  3992  3993    1
   699  3992  3994    1
   700   270   268    1
   701  3714  3712    1
   702   655   633    2
   703   633   654    1
   704  3759  3761    1
   705   656   677    1
   706  4002  4001   ar
   707  4002  4003   ar
   708   730   731    1
   709   730   729   ar
   710  3712  3710    1
   711  3712  3713    1
   712   735   729   ar
   713   735   736    2
   714  4001  4000   ar
   715  3993  4010    1
   716  3877  3875    1
   717   743   744    1
   718   743   745    1
   719  3994  3995    1
   720  3761  3762    1
   721  3814  3795    2
   722  3870  3869    1
   723  4004  4003    2
   724  3868  3866   ar
   725  3868  3869   ar
   726   288   268    2
   727  3867  3866    2
   728  3813  3795    1
   729  3710  3711    1
   730  4003  3997   ar
   731   746   745    1
   732   746   751    1
   733  3718  3713    1
   734  3718  3729    1
   735  3775  3777    1
   736  3775  3776    1
   737   268   289    1
   738   268   254    1
   739  3742  3749   ar
   740  3742  3743   ar
   741  4031  4010    2
   742   745   747    1
   743  3866  3865   ar
   744  3869  3871   ar
   745  3795  3778    1
   746  3795  3797    1
   747  3778  3777    1
   748  3749  3748   ar
   749  4000  3998   ar
   750  3769  3762   ar
   751  3769  3768   ar
   752  4010  4030    1
   753  4010  4012    1
   754  3777  3779    1
   755  3762  3763   ar
   756  3776  3781    1
   757  3744  3743    2
   758   761   760   ar
   759   761   762   ar
   760  3722  3720   ar
   761  3722  3723   ar
   762  3721  3720    1
   763  3997  3998   ar
   764  3711  3709    1
   765  3875  3896    2
   766  3875  3897    1
   767  3875  3861    1
   768   751   762    1
   769   751   749    1
   770  3743  3745   ar
   771  2954  2953    1
   772  3998  3999    1
   773  3862  3863    1
   774  3862  3864    1
   775  3862  3860    1
   776  3730  3709    2
   777  3729  3723   ar
   778  3729  3728   ar
   779   263   262    1
   780   760   757   ar
   781   762   756   ar
   782   261   259   ar
   783   261   262   ar
   784  3850  3849    1
   785   260   259    2
   786   254   253    1
   787  3865  3872   ar
   788  3865  3864    1
   789  3871  3872   ar
   790  3720  3719   ar
   791  3768  3766   ar
   792  3723  3724   ar
   793  3791  3790   ar
   794  3791  3792   ar
   795  3748  3746   ar
   796  4027  4028   ar
   797  4027  4024   ar
   798   259   258   ar
   799   262   264   ar
   800   255   256    1
   801   255   253    1
   802   255   257    1
   803   747   749    1
   804   747   748    1
   805  2934  2933    1
   806  3861  3860    1
   807  3797  3796    1
   808  4012  4011    1
   809  3695  3694    1
   810  3763  3764    2
   811  3763  3765   ar
   812  3709  3693    1
   813  3709  3731    1
   814  3864  3859    1
   815   253   251    1
   816  3860  3858    1
   817  4028  4029   ar
   818  4026  4025    1
   819  3781  3779    1
   820  3781  3792    1
   821   750   749    1
   822  3779  3780    1
   823  2969  2967    1
   824  2969  2970    1
   825  2969  2971    1
   826  2938  2937    2
   827   757   756   ar
   828   757   758   ar
   829   756   755   ar
   830  2967  2968    1
   831  2974  2973    1
   832  2950  2949    1
   833  2950  2955    1
   834  2970  2975    1
   835  3745  3746   ar
   836  3728  3727   ar
   837  3790  3787   ar
   838  2949  2951    1
   839  2949  2947    1
   840  2955  2953    1
   841  2955  2956    1
   842  3693  3692    1
   843  3830  3829    2
   844  2953  2951    1
   845   748   765    1
   846  3849  3848   ar
   847  3849  3851   ar
   848  3792  3786   ar
   849   258   265   ar
   850   258   257    1
   851   264   265   ar
   852  4011  4013    1
   853  3811  3812   ar
   854  3811  3809   ar
   855  4024  4025   ar
   856  4024  4023   ar
   857  3746  3747    2
   858  3848  3846   ar
   859  2952  2951    1
   860  2952  2966    1
   861  3834  3815    2
   862  3719  3725   ar
   863  3810  3809    2
   864  3796  3798    1
   865  3766  3765   ar
   866  3766  3767    1
   867  4025  4020   ar
   868   755   753   ar
   869  3724  3727   ar
   870  3724  3725   ar
   871   257   252    1
   872  2958  2957    2
   873  4014  4013    1
   874  4014  4019    1
   875   758   759    2
   876   758   752   ar
   877  2975  2973    1
   878  2975  2986    1
   879  3694  3692    1
   880  3694  3696    1
   881  2972  2971    1
   882  2972  2989    1
   883  2947  2948    1
   884  2933  2935    1
   885  2933  2931    1
   886  2935  2930    1
   887  2935  2936    1
   888  4029  4023   ar
   889  4029  4019    1
   890  3851  3852   ar
   891  2971  2973    1
   892  3812  3805   ar
   893  2915  2914   ar
   894  2915  2916   ar
   895  3809  3808   ar
   896  2937  2936   ar
   897  2937  2939   ar
   898  3859  3858    1
   899   787   765    2
   900  3829  3831   ar
   901  3829  3828   ar
   902  3692  3690    1
   903  3858  3856    1
   904  2987  2966    2
   905  2968  2966    1
   906   251   252    1
   907   251   249    1
   908  3725  3726    2
   909  4013  4015    1
   910  4023  4022   ar
   911  2956  2957   ar
   912  2956  2963   ar
   913  3007  2989    2
   914   753   752   ar
   915   753   754    1
   916  3831  3832   ar
   917  3787  3786   ar
   918  3787  3788   ar
   919   765   786    1
   920   765   767    1
   921  3786  3785   ar
   922  2957  2959   ar
   923   250   249    1
   924   250   248    1
   925  2914  2919   ar
   926  2930  2929    1
   927  2966  2988    1
   928  4019  4017    1
   929  3846  3847    2
   930  3846  3845   ar
   931  3874  3855    2
   932  3857  3856    1
   933  3857  3855    1
   934  4020  4021   ar
   935  2936  2943   ar
   936  2916  2917   ar
   937  3699  3698   ar
   938  3699  3700   ar
   939  4048  4047    1
   940  2939  2940   ar
   941   267   248    2
   942  3815  3833    1
   943  3815  3801    1
   944  3815  3817    1
   945  3698  3697   ar
   946  3690  3691    1
   947  3690  3688    1
   948  2929  2931    1
   949  2929  2927    1
   950  2989  3008    1
   951  2989  2991    1
   952  2986  2985   ar
   953  2986  2980   ar
   954  2932  2931    1
   955  2932  2946    1
   956  3798  3800    1
   957  3798  3799    1
   958  3696  3691    1
   959  3696  3706    1
   960  3852  3845   ar
   961  2948  2946    1
   962  2893  2892    1
   963   266   248    1
   964  3482  3481    1
   965  2990  2991    1
   966  2990  2992    1
   967  3800  3801    1
   968  3800  3802    1
   969   243   242    1
   970  3828  3826   ar
   971  3799  3804    1
   972  3854  3835    2
   973   248   234    1
   974  2963  2962   ar
   975  3845  3844    1
   976  4022  4021   ar
   977  3805  3804    1
   978  3805  3806   ar
   979  3808  3806   ar
   980  4015  4017    1
   981  4015  4016    1
   982  3855  3873    1
   983  3855  3841    1
   984  2985  2984   ar
   985  3514  3494    2
   986  1639  1621    2
   987  3832  3825   ar
   988  3785  3783   ar
   989  3788  3789    2
   990  3788  3782   ar
   991   767   766    1
   992  1607  1606    1
   993  2959  2960   ar
   994  2979  2980   ar
   995  2979  2977   ar
   996  3495  3497    1
   997  3495  3496    1
   998  1600  1602    1
   999  1600  1601    1
  1000  1602  1603    1
  1001  1602  1604    1
  1002  3700  3706   ar
  1003  3700  3701   ar
  1004  1605  1604    1
  1005  1605  1621    1
  1006   783   784   ar
  1007   783   780   ar
  1008  2980  2981   ar
  1009  3817  3816    1
  1010   784   785   ar
  1011  2919  2920    1
  1012  2919  2918   ar
  1013  2912  2911    1
  1014  4047  4042   ar
  1015  4047  4046   ar
  1016  4017  4018    1
  1017  3697  3702   ar
  1018  3480  3494    1
  1019  3480  3479    1
  1020  2946  2964    2
  1021  2946  2965    1
  1022  3688  3689    1
  1023  3706  3705   ar
  1024  2993  2992    1
  1025  2993  2998    1
  1026  2992  2994    1
  1027  1585  1584    1
  1028   242   241   ar
  1029   242   244   ar
  1030   241   239   ar
  1031  2917  2918   ar
  1032  2917  2923   ar
  1033  2943  2942   ar
  1034  2940  2942   ar
  1035  2940  2941    1
  1036  2891  2892   ar
  1037  2891  2897   ar
  1038  4049  4046   ar
  1039  4049  4050   ar
  1040  3804  3802    1
  1041   769   774    1
  1042   769   768    1
  1043  3806  3807    2
  1044  4053  4032    2
  1045  3497  3498    1
  1046  3497  3499    1
  1047  3842  3840    1
  1048  3842  3844    1
  1049  3842  3843    1
  1050  2892  2894   ar
  1051  2927  2928    1
  1052  3477  3479    1
  1053  3477  3475    1
  1054  3477  3478    1
  1055   766   768    1
  1056  4042  4043   ar
  1057  1603  1608    1
  1058  4046  4045   ar
  1059  3802  3803    1
  1060  4016  4032    1
  1061  1619  1599    2
  1062  3826  3825   ar
  1063  3826  3827    2
  1064  3840  3841    1
  1065  3840  3838    1
  1066  2962  2960   ar
  1067  3536  3516    2
  1068  1874  1853    2
  1069  1604  1606    1
  1070  1622  1623    1
  1071  1622  1624    1
  1072  3494  3496    1
  1073  3494  3515    1
  1074  3481  3479    1
  1075  3481  3483    1
  1076  1621  1623    1
  1077  1621  1640    1
  1078  3825  3824    1
  1079  3500  3499    1
  1080  3500  3516    1
  1081  3844  3839    1
  1082  2984  2981   ar
  1083  2918  2921   ar
  1084   785   774    1
  1085   785   779   ar
  1086   780   781   ar
  1087   780   779   ar
  1088   244   245   ar
  1089  3835  3837    1
  1090  3835  3853    1
  1091  3835  3821    1
  1092  2977  2978    1
  1093  2977  2976   ar
  1094   782   781    2
  1095  3837  3836    1
  1096  3783  3782   ar
  1097  3783  3784    1
  1098   239   240    2
  1099   239   238   ar
  1100  2911  2913    1
  1101  2911  2909    1
  1102  2960  2961    2
  1103  3689  3687    1
  1104  1583  1599    1
  1105  1583  1582    1
  1106  2913  2923    1
  1107  2913  2908    1
  1108  1606  1608    1
  1109  2981  2982   ar
  1110  3502  3501    1
  1111   234   233    1
  1112  3701  3702   ar
  1113  3701  3704   ar
  1114  2898  2897    2
  1115  3498  3503    1
  1116  3475  3476    1
  1117   774   772    1
  1118  3702  3703    1
  1119  2923  2922   ar
  1120  3478  3483    1
  1121   768   770    1
  1122   781   775   ar
  1123  4050  4051   ar
  1124  1601  1599    1
  1125   223   222    1
  1126  1608  1618    1
  1127  3705  3704   ar
  1128  2897  2896   ar
  1129  2998  2999    1
  1130  2998  2996    1
  1131   779   778   ar
  1132  3483  3484    1
  1133   235   233    1
  1134   235   236    1
  1135   235   237    1
  1136  3499  3501    1
  1137  4032  4052    1
  1138  4032  4034    1
  1139  3816  3818    1
  1140  1851  1830    2
  1141   233   231    1
  1142  1599  1620    1
  1143   245   238   ar
  1144  2928  2926    1
  1145  1584  1582    1
  1146  1584  1586    1
  1147  3820  3821    1
  1148  3820  3822    1
  1149  3820  3818    1
  1150   238   237    1
  1151  2894  2895   ar
  1152  1624  1625    1
  1153  1624  1626    1
  1154  3707  3687    2
  1155  1580  1582    1
  1156  1580  1581    1
  1157  1580  1578    1
  1158  2994  2995    1
  1159  2994  2996    1
  1160  3516  3518    1
  1161  3516  3537    1
  1162  3462  3461    1
  1163  4043  4044   ar
  1164  3839  3838    1
  1165  4045  4051   ar
  1166  4045  4044   ar
  1167  2997  2996    1
  1168  3006  2999   ar
  1169  3006  3005   ar
  1170  2995  3009    1
  1171  2976  2982   ar
  1172  3838  3836    1
  1173  3517  3518    1
  1174  3517  3519    1
  1175  3501  3503    1
  1176  1894  1876    2
  1177  3824  3822    1
  1178  3824  3819    1
  1179   775   776   ar
  1180  2982  2983    2
  1181  2999  3000   ar
  1182  3503  3513    1
  1183  3822  3823    1
  1184  4051  4041    1
  1185  2908  2907    1
  1186  1853  1836    1
  1187  1853  1875    1
  1188  1853  1855    1
  1189  3687  3708    1
  1190  3687  3660    1
  1191  3819  3818    1
  1192  2921  2922   ar
  1193  1581  1586    1
  1194  1625  1630    1
  1195   778   776   ar
  1196   247   228    2
  1197   222   224   ar
  1198   222   221   ar
  1199  1836  1835    1
  1200  1586  1596    1
  1201  3579  3558    2
  1202  3486  3485    2
  1203   237   232    1
  1204  2909  2910    1
  1205  2909  2907    1
  1206  1578  1579    1
  1207  4034  4033    1
  1208  1831  1833    1
  1209  1831  1832    1
  1210  2910  2926    1
  1211  3030  3009    2
  1212  3476  3474    1
  1213   776   777    1
  1214  3005  3003   ar
  1215   770   772    1
  1216   770   771    1
  1217  2896  2895   ar
  1218  2896  2899   ar
  1219  1627  1626    1
  1220  1627  1641    1
  1221   772   773    1
  1222  2895  2901   ar
  1223  3492  3474    2
  1224   224   225   ar
  1225  1854  1855    1
  1226  1854  1856    1
  1227  1618  1617   ar
  1228  1618  1612   ar
  1229   804   803    1
  1230   230   228    1
  1231   230   229    1
  1232  3466  3465    2
  1233  2907  2905    1
  1234  1566  1565    1
  1235   221   219   ar
  1236  1403  1383    2
  1237  3484  3485   ar
  1238  3484  3491   ar
  1239  1895  1876    1
  1240  1626  1628    1
  1241  3009  3029    1
  1242  3009  3011    1
  1243  1830  1813    1
  1244  1830  1832    1
  1245  1830  1852    1
  1246  3663  3662    1
  1247  1423  1405    2
  1248  2926  2944    2
  1249  2926  2945    1
  1250  4036  4041    1
  1251  4036  4035    1
  1252  3461  3463    1
  1253  3461  3459    1
  1254  3671  3670    2
  1255  1661  1641    2
  1256  3519  3520    1
  1257  3519  3521    1
  1258   231   232    1
  1259   231   229    1
  1260  3559  3561    1
  1261  3559  3560    1
  1262  3000  3001    2
  1263  3000  3002   ar
  1264  1813  1812    1
  1265  1876  1859    1
  1266  1876  1878    1
  1267  3659  3658    1
  1268  1833  1835    1
  1269  1833  1834    1
  1270  3601  3581    2
  1271  3485  3487   ar
  1272  4041  4039    1
  1273  3460  3474    1
  1274  3460  3459    1
  1275   228   246    1
  1276   228   214    1
  1277  1629  1628    1
  1278  3661  3658    1
  1279  3661  3666    1
  1280  3474  3493    1
  1281  1611  1612   ar
  1282  1611  1610   ar
  1283  1385  1383    1
  1284  1385  1384    1
  1285  4033  4035    1
  1286  1835  1837    1
  1287  3513  3512   ar
  1288  3513  3507   ar
  1289  1630  1628    1
  1290  1630  1631    1
  1291  1859  1858    1
  1292  1617  1616   ar
  1293  3558  3580    1
  1294  3558  3560    1
  1295  3558  3544    1
  1296  3003  3002   ar
  1297  3003  3004    1
  1298  1589  1590   ar
  1299  1589  1588   ar
  1300  1562  1561    1
  1301   225   218   ar
  1302  3557  3538    2
  1303  1612  1613   ar
  1304  1641  1662    1
  1305  1641  1643    1
  1306  3564  3581    1
  1307  3564  3563    1
  1308  3520  3525    1
  1309   771   788    1
  1310   803   802   ar
  1311   803   798   ar
  1312  1596  1590   ar
  1313  1596  1595   ar
  1314  3561  3563    1
  1315  3561  3562    1
  1316  3463  3458    1
  1317  3463  3464    1
  1318  1579  1577    1
  1319  3512  3511   ar
  1320  3669  3668    3
  1321   219   218   ar
  1322   219   220    2
  1323  3491  3490   ar
  1324  1815  1814    1
  1325  3522  3521    1
  1326  3522  3538    1
  1327  3673  3676    3
  1328  1838  1837    1
  1329   805   802   ar
  1330   805   806   ar
  1331  1856  1858    1
  1332  1856  1857    1
  1333  1424  1405    1
  1334  2899  2900   ar
  1335  1383  1404    1
  1336  1383  1367    1
  1337  3459  3457    1
  1338  2901  2890    1
  1339  2901  2900   ar
  1340  4035  4037    1
  1341  3465  3464   ar
  1342  3465  3467   ar
  1343  1565  1567   ar
  1344  1565  1564   ar
  1345  1405  1389    1
  1346  1405  1407    1
  1347  1384  1386    1
  1348   802   801   ar
  1349  1597  1577    2
  1350  3521  3523    1
  1351   798   799   ar
  1352   218   217    1
  1353  1590  1591   ar
  1354  3581  3583    1
  1355  3581  3602    1
  1356  1638  1631   ar
  1357  1638  1637   ar
  1358  2905  2906    1
  1359  1858  1860    1
  1360  3011  3010    1
  1361  3457  3458    1
  1362  3457  3455    1
  1363  1381  1361    2
  1364  1567  1568   ar
  1365  3540  3538    1
  1366  3540  3539    1
  1367   227   208    2
  1368  1812  1810    1
  1369  1812  1814    1
  1370  1878  1877    1
  1371  2890  2888    1
  1372  2890  2885    1
  1373  1588  1587   ar
  1374  1834  1839    1
  1375  1837  1839    1
  1376  1610  1609   ar
  1377  3538  3556    1
  1378  3563  3565    1
  1379   809   788    2
  1380  1631  1632   ar
  1381  3583  3582    1
  1382  3665  3656    2
  1383   213   214    1
  1384   213   215    1
  1385   213   211    1
  1386  2889  2888    1
  1387  3487  3488   ar
  1388  1388  1389    1
  1389  1388  1386    1
  1390  1388  1390    1
  1391  4039  4037    1
  1392  4039  4040    1
  1393   806   807   ar
  1394  3464  3471   ar
  1395  3667  3682    3
  1396  4037  4038    1
  1397  1810  1808    1
  1398  1810  1811    1
  1399  3507  3506   ar
  1400  3507  3508   ar
  1401  2888  2886    1
  1402  3678  3675    1
  1403  3562  3567    1
  1404  3539  3541    1
  1405  1642  1643    1
  1406  1642  1644    1
  1407  1561  1559    1
  1408  1561  1563    1
  1409   196   195    1
  1410   215   217    1
  1411   215   216    1
  1412  1577  1560    1
  1413  1577  1598    1
  1414  1595  1594   ar
  1415  3467  3468   ar
  1416  1616  1613   ar
  1417  3544  3543    1
  1418  3543  3541    1
  1419  3543  3545    1
  1420  3506  3505   ar
  1421  1814  1816    1
  1422  1808  1809    1
  1423  2906  2904    1
  1424  1613  1614   ar
  1425  1560  1559    1
  1426  3566  3565    1
  1427  3010  3012    1
  1428   788   808    1
  1429   788   790    1
  1430  1877  1879    1
  1431  1857  1862    1
  1432  1386  1387    1
  1433  1564  1570   ar
  1434  3525  3523    1
  1435  3525  3535    1
  1436  3511  3508   ar
  1437  3524  3523    1
  1438   801   807   ar
  1439   801   800   ar
  1440   799   800   ar
  1441  1915  1896    2
  1442  3490  3488   ar
  1443  1407  1406    1
  1444  3654  3655    1
  1445  1367  1366    1
  1446  1932  1931    1
  1447  1933  1934   ar
  1448  1933  1930   ar
  1449    15    14    1
  1450   217   212    1
  1451  1637  1635   ar
  1452  1914  1896    1
  1453  1839  1850    1
  1454  3653  3650    3
  1455   807   797    1
  1456   209   211    1
  1457   209   210    1
  1458  3541  3542    1
  1459  3644  3643    1
  1460  3644  3604    1
  1461  1390  1391    1
  1462  1390  1392    1
  1463  3680  3681    3
  1464  4076  4054    2
  1465  1924  1923    1
  1466   194   208    1
  1467   194   193    1
  1468  3488  3489    1
  1469  3534  3535   ar
  1470  3534  3533   ar
  1471  3582  3584    1
  1472  3565  3567    1
  1473    55    54    2
  1474  1406  1408    1
  1475  3508  3509   ar
  1476  3455  3456    1
  1477  3643  3603    1
  1478  1591  1594   ar
  1479  1591  1592   ar
  1480  1934  1935   ar
  1481  1559  1557    1
  1482  1809  1807    1
  1483  1563  1574    1
  1484  1563  1558    1
  1485   792   797    1
  1486   792   791    1
  1487   211   212    1
  1488  1361  1382    1
  1489  1361  1363    1
  1490  1361  1347    1
  1491  1828  1807    2
  1492  1568  1574   ar
  1493  1568  1569   ar
  1494  2885  2884    1
  1495  1632  1633    2
  1496  1632  1634   ar
  1497   208   210    1
  1498   208   226    1
  1499  1609  1614   ar
  1500  1860  1861    1
  1501  1860  1862    1
  1502    13    14   ar
  1503    13    11   ar
  1504  1587  1592   ar
  1505  3545  3546    1
  1506  3545  3547    1
  1507  3567  3578    1
  1508  1811  1816    1
  1509  3535  3529   ar
  1510   790   789    1
  1511  1896  1882    1
  1512  1896  1898    1
  1513  4038  4054    1
  1514  4075  4054    1
  1515  3471  3470   ar
  1516  1930  1931   ar
  1517  1930  1929   ar
  1518  1644  1645    1
  1519  1644  1646    1
  1520  1931  1926   ar
  1521  1614  1615    1
  1522    14    16   ar
  1523  1816  1827    1
  1524  3468  3470   ar
  1525  3468  3469    1
  1526  2886  2887    1
  1527  2886  2884    1
  1528  1363  1362    1
  1529  3505  3504   ar
  1530   789   791    1
  1531   195   193    1
  1532   195   197    1
  1533  1362  1364    1
  1534  4054  4056    1
  1535  3652  3649    1
  1536  1862  1873    1
  1537  1645  1650    1
  1538  1366  1364    1
  1539  1366  1368    1
  1540   797   795    1
  1541  3651  3648    2
  1542  1574  1573   ar
  1543  3027  3026   ar
  1544  3027  3028   ar
  1545    12    11    2
  1546  1387  1392    1
  1547  1570  1569   ar
  1548  1570  1571    2
  1549  3446  3445    2
  1550  1882  1881    1
  1551   193   191    1
  1552  1592  1593    1
  1553  3026  3023   ar
  1554  1557  1558    1
  1555  1557  1555    1
  1556   191   192    1
  1557   191   189    1
  1558  1879  1881    1
  1559  1879  1880    1
  1560  2904  2887    1
  1561  2904  2925    2
  1562  2904  2924    1
  1563  3012  3013    1
  1564  3012  3014    1
  1565  3533  3530   ar
  1566  1635  1634   ar
  1567  1635  1636    1
  1568  1850  1849   ar
  1569  1850  1844   ar
  1570    54    56   ar
  1571    54    53   ar
  1572    11    10   ar
  1573  1872  1873   ar
  1574  1872  1871   ar
  1575  1923  1925    1
  1576  1923  1921    1
  1577  1807  1829    1
  1578  1807  1793    1
  1579  1935  1929   ar
  1580  1935  1925    1
  1581   791   793    1
  1582  3684  3683    1
  1583  3584  3586    1
  1584  3584  3585    1
  1585  3607  3604    1
  1586  3607  3608    1
  1587   826   825    1
  1588  1881  1883    1
  1589  3456  3454    1
  1590  1569  1572   ar
  1591  1958  1938    2
  1592  3442  3441    1
  1593  1392  1402    1
  1594  3592  3593   ar
  1595  3592  3591   ar
  1596  2884  2882    1
  1597  3586  3587    1
  1598  3586  3588    1
  1599  1849  1848   ar
  1600  1892  1893   ar
  1601  1892  1890   ar
  1602  3542  3547    1
  1603  1929  1928   ar
  1604  1347  1346    1
  1605  1926  1927   ar
  1606    56    57   ar
  1607  1364  1365    1
  1608  1893  1886   ar
  1609  3603  3646    1
  1610  3013  3018    1
  1611  3509  3504   ar
  1612  3509  3510    1
  1613  1873  1867   ar
  1614   197   192    1
  1615   197   198    1
  1616  1408  1409    1
  1617  1408  1410    1
  1618  3049  3031    2
  1619  3578  3577   ar
  1620  3578  3572   ar
  1621  3014  3016    1
  1622  3014  3015    1
  1623    16    17   ar
  1624  3593  3594   ar
  1625  3547  3548    1
  1626  1401  1402   ar
  1627  1401  1400   ar
  1628   189   190    1
  1629  1937  1916    2
  1630  3529  3530   ar
  1631  3529  3528   ar
  1632  3016  3018    1
  1633  3016  3017    1
  1634  1880  1885    1
  1635  1925  1920    1
  1636  3683  3648    1
  1637  1898  1897    1
  1638  1659  1658   ar
  1639  1659  1660   ar
  1640  1827  1821   ar
  1641  1827  1826   ar
  1642  1646  1647    1
  1643  1646  1648    1
  1644  1795  1794    1
  1645    53    51   ar
  1646  3571  3572   ar
  1647  3571  3569   ar
  1648  1409  1414    1
  1649   200   199    2
  1650  1647  1663    1
  1651  1368  1369    1
  1652  1368  1370    1
  1653  3028  3018    1
  1654  3028  3022   ar
  1655  3608  3605    1
  1656  1871  1868   ar
  1657  3445  3447   ar
  1658  3445  3444   ar
  1659  1820  1821   ar
  1660  1820  1818   ar
  1661  3591  3596   ar
  1662  3646  3645    1
  1663  3441  3443    1
  1664  3441  3439    1
  1665  1402  1396   ar
  1666  1844  1843   ar
  1667  1844  1845   ar
  1668    10    17   ar
  1669    10     9    1
  1670  1359  1341    2
  1671  1793  1792    1
  1672  3530  3531   ar
  1673   795   793    1
  1674   795   796    1
  1675  2867  2866    1
  1676  3588  3589    1
  1677  3588  3590    1
  1678  1927  1928   ar
  1679  3577  3576   ar
  1680  3647  3686    2
  1681  1650  1660    1
  1682  1650  1648    1
  1683  1573  1572   ar
  1684  1682  1663    2
  1685  3572  3573   ar
  1686  1843  1841   ar
  1687  3023  3022   ar
  1688  3023  3024   ar
  1689  3609  3614    1
  1690  3609  3610    1
  1691  1921  1922    1
  1692  1921  1919    1
  1693  4056  4055    1
  1694  3616  3615    1
  1695  3616  3613    1
  1696  3447  3448   ar
  1697  1555  1556    1
  1698  1912  1910   ar
  1699  1912  1913   ar
  1700  1911  1910    2
  1701  1891  1890    2
  1702  1890  1889   ar
  1703  1658  1655   ar
  1704  1922  1938    1
  1705  1938  1959    1
  1706  1938  1940    1
  1707  1821  1822   ar
  1708  3585  3590    1
  1709  3025  3024    1
  1710  1848  1845   ar
  1711  1443  1425    2
  1712   825   824   ar
  1713   825   820   ar
  1714    57    50   ar
  1715   793   794    1
  1716  3611  3610    1
  1717  3611  3621    1
  1718  1826  1825   ar
  1719  1660  1654   ar
  1720   174   173    1
  1721  3528  3527   ar
  1722  1422  1421   ar
  1723  1422  1415   ar
  1724  2882  2883    1
  1725  1410  1411    1
  1726  1410  1412    1
  1727  1819  1818    1
  1728  1411  1425    1
  1729  1681  1663    1
  1730  1886  1885    1
  1731  1886  1887   ar
  1732   177   178   ar
  1733   177   176   ar
  1734  3570  3569    1
  1735  1346  1344    1
  1736  1346  1348    1
  1737  1400  1397   ar
  1738   827   824   ar
  1739   827   828   ar
  1740  1883  1885    1
  1741  1883  1884    1
  1742  1663  1665    1
  1743     4     9    1
  1744     4     3    1
  1745  3555  3548   ar
  1746  3555  3554   ar
  1747  1365  1370    1
  1748  3548  3549   ar
  1749  1867  1868   ar
  1750  1867  1866   ar
  1751  3454  3472    2
  1752  3454  3440    1
  1753  3454  3473    1
  1754  3443  3444    1
  1755  3443  3438    1
  1756  3569  3568   ar
  1757  1421  1419   ar
  1758  3614  3613    1
  1759  3015  3031    1
  1760  1794  1792    1
  1761  1794  1796    1
  1762   198   199   ar
  1763   198   205   ar
  1764  2866  2868    1
  1765  2866  2864    1
  1766  1818  1817   ar
  1767  2877  2876   ar
  1768  2877  2878   ar
  1769  1918  1916    1
  1770  1918  1917    1
  1771  1648  1649    1
  1772  1444  1425    1
  1773  3022  3021   ar
  1774  3031  3050    1
  1775  3031  3033    1
  1776  3423  3422    1
  1777  1910  1909   ar
  1778  1379  1378   ar
  1779  1379  1380   ar
  1780  1897  1899    1
  1781   199   201   ar
  1782     9     7    1
  1783  3024  3019   ar
  1784  1342  1343    1
  1785  1342  1344    1
  1786  3440  3439    1
  1787  1546  1545    2
  1788  3594  3600   ar
  1789  3594  3595   ar
  1790  1916  1936    1
  1791  1916  1902    1
  1792  2876  2873   ar
  1793  1845  1846   ar
  1794  2883  2881    1
  1795   178   179   ar
  1796  3444  3451   ar
  1797    51    50   ar
  1798    51    52    2
  1799  1913  1906   ar
  1800  1868  1869   ar
  1801  1425  1427    1
  1802   190   188    1
  1803  1370  1380    1
  1804  1920  1919    1
  1805   824   823   ar
  1806  3590  3600    1
  1807  3576  3573   ar
  1808  2868  2878    1
  1809  2868  2863    1
  1810  1556  1554    1
  1811  1343  1341    1
  1812  1378  1375   ar
  1813  2878  2872   ar
  1814  1792  1790    1
  1815  3573  3574   ar
  1816   794   810    1
  1817   820   821   ar
  1818  4055  4057    1
  1819  1341  1360    1
  1820  1341  1324    1
  1821  3439  3437    1
  1822  1380  1374   ar
  1823    50    49    1
  1824  1414  1415    1
  1825  1414  1412    1
  1826  1344  1345    1
  1827  1841  1842    1
  1828  1841  1840   ar
  1829  3165  3164    1
  1830  3596  3595   ar
  1831  3596  3597    1
  1832  3613  3618    1
  1833  3610  3617    1
  1834  2873  2872   ar
  1835  2873  2874   ar
  1836  1396  1397   ar
  1837  1396  1395   ar
  1838   176   181   ar
  1839  3531  3532    1
  1840  3531  3526   ar
  1841  1919  1917    1
  1842   206   188    2
  1843  3448  3449    2
  1844  3448  3450   ar
  1845  1866  1864   ar
  1846  1822  1825   ar
  1847  1822  1823   ar
  1848  1889  1887   ar
  1849  1349  1348    1
  1850  1415  1416   ar
  1851   173   175    1
  1852   173   171    1
  1853  2872  2871   ar
  1854  1655  1654   ar
  1855  1655  1656   ar
  1856  1348  1350    1
  1857  2875  2874    1
  1858  3600  3599   ar
  1859  1542  1541    1
  1860  1654  1653   ar
  1861  3554  3552   ar
  1862  1940  1939    1
  1863  1887  1888    2
  1864  3421  3422   ar
  1865  3421  3427   ar
  1866  3621  3641    1
  1867  3621  3617    1
  1868   828   829   ar
  1869   831   810    2
  1870  2874  2869   ar
  1871  1397  1398   ar
  1872  3568  3574   ar
  1873  3527  3526   ar
  1874  3549  3550    2
  1875  3549  3551   ar
  1876    48    47    1
  1877  3033  3032    1
  1878  1799  1798    2
  1879  2851  2850    2
  1880  1412  1413    1
  1881  1375  1374   ar
  1882  1375  1376   ar
  1883  3620  3618    1
  1884  3595  3598   ar
  1885  3422  3424   ar
  1886  1374  1373   ar
  1887  1817  1823   ar
  1888   205   204   ar
  1889     3     1    1
  1890     3     5    1
  1891  1939  1941    1
  1892  1901  1899    1
  1893  1901  1902    1
  1894  1901  1903    1
  1895  3438  3437    1
  1896  1545  1547   ar
  1897  1545  1544   ar
  1898  2871  2870   ar
  1899   188   172    1
  1900   188   207    1
  1901   172   171    1
  1902  3574  3575    2
  1903  3021  3020   ar
  1904  1419  1420    2
  1905  1419  1418   ar
  1906  1796  1791    1
  1907  1796  1797    1
  1908  1547  1548   ar
  1909  1899  1900    1
  1910  1790  1791    1
  1911  1790  1788    1
  1912  3019  3020   ar
  1913  1909  1907   ar
  1914   201   202   ar
  1915  1846  1840   ar
  1916  1846  1847    2
  1917  3437  3435    1
  1918  3149  3148    2
  1919  2869  2870   ar
  1920  2864  2865    1
  1921  2864  2862    1
  1922  1665  1664    1
  1923  3451  3450   ar
  1924  2865  2881    1
  1925  1395  1394   ar
  1926     1     2    1
  1927   179   185   ar
  1928   179   180   ar
  1929  3185  3184    1
  1930  1869  1870    2
  1931  1869  1863   ar
  1932   810   830    1
  1933   810   812    1
  1934  1906  1907   ar
  1935  1906  1905    1
  1936  3032  3034    1
  1937  1541  1543    1
  1938  1541  1539    1
  1939  1823  1824    2
  1940  3641  3639   ar
  1941  3641  3629   ar
  1942  3639  3637   ar
  1943   175   185    1
  1944   175   170    1
  1945  3428  3427    2
  1946  2863  2862    1
  1947     7     8    1
  1948     7     5    1
  1949  2881  2902    2
  1950  2881  2903    1
  1951  3181  3180    1
  1952  3181  3186    1
  1953  1376  1377    1
  1954  1376  1371   ar
  1955  3180  3178    1
  1956  3180  3182    1
  1957   823   829   ar
  1958   823   822   ar
  1959  1373  1372   ar
  1960    49    47    1
  1961    49    44    1
  1962   821   822   ar
  1963  3617  3622    1
  1964  3617  3619    1
  1965    47    45    1
  1966  1900  1905    1
  1967  2852  2850   ar
  1968  2852  2853   ar
  1969  1324  1323    1
  1970  4057  4058    1
  1971  4057  4059    1
  1972  3178  3179    1
  1973   171   169    1
  1974  1427  1426    1
  1975  1864  1863   ar
  1976  1864  1865    1
  1977  3427  3426   ar
  1978  1798  1797   ar
  1979  1798  1800   ar
  1980  3145  3144    1
  1981  1656  1657    1
  1982  1656  1651   ar
  1983  1554  1575    2
  1984  1554  1540    1
  1985  1554  1576    1
  1986  3164  3166    1
  1987  3164  3162    1
  1988  1653  1652   ar
  1989  1345  1350    1
  1990  2850  2849   ar
  1991   181   180   ar
  1992   181   182    1
  1993  3166  3161    1
  1994  3166  3167    1
  1995  3551  3552   ar
  1996  1805  1787    2
  1997   829   819    1
  1998  3552  3553    2
  1999  3161  3160    1
  2000  1679  1680   ar
  2001  1679  1677   ar
  2002  1416  1418   ar
  2003  1416  1417    2
  2004  3160  3162    1
  2005  3160  3158    1
  2006  1797  1804   ar
  2007  1981  1960    2
  2008  1907  1908    2
  2009  2862  2860    1
  2010  3169  3168    2
  2011  1350  1351    1
  2012  1372  1371   ar
  2013  3622  3619    1
  2014  3424  3425   ar
  2015  3186  3184    1
  2016  3186  3197    1
  2017  3599  3598   ar
  2018   185   184   ar
  2019     5     6    1
  2020  4058  4063    1
  2021  3047  3048   ar
  2022  3047  3045   ar
  2023  2833  2832    1
  2024  3637  3631   ar
  2025  1664  1666    1
  2026  1903  1905    1
  2027  1903  1904    1
  2028  1543  1544    1
  2029  1543  1538    1
  2030     6    18    1
  2031  3629  3627   ar
  2032  3629  3631   ar
  2033  1398  1399    1
  2034  1398  1393   ar
  2035  1544  1551   ar
  2036  1788  1789    1
  2037   204   202   ar
  2038  3163  3162    1
  2039  3163  3177    1
  2040  1426  1428    1
  2041  3048  3041   ar
  2042  1549  1548    2
  2043  1540  1539    1
  2044  1358  1351   ar
  2045  1358  1357   ar
  2046  1789  1787    1
  2047   180   183   ar
  2048  1548  1550   ar
  2049  1678  1677    1
  2050  1680  1673   ar
  2051  3035  3034    1
  2052  3035  3040    1
  2053  2854  2853    1
  2054   202   203    2
  2055  3148  3150   ar
  2056  3148  3147   ar
  2057  3627  3625   ar
  2058  3184  3182    1
  2059  1941  1943    1
  2060  1941  1942    1
  2061   169   170    1
  2062   169   167    1
  2063  3068  3067    2
  2064  1351  1352   ar
  2065  3183  3182    1
  2066  3183  3200    1
  2067  2827  2832   ar
  2068  2827  2828   ar
  2069   812   811    1
  2070  1800  1801   ar
  2071  1773  1787    1
  2072  1773  1772    1
  2073  1394  1393   ar
  2074  1539  1537    1
  2075  3631  3633   ar
  2076  3034  3036    1
  2077  4073  4072   ar
  2078  4073  4074   ar
  2079  2853  2855   ar
  2080  1357  1355   ar
  2081  1339  1318    2
  2082    44    43    1
  2083  1677  1676   ar
  2084  3435  3436    1
  2085  1943  1945    1
  2086  1943  1944    1
  2087  1652  1651   ar
  2088  3146  3144    1
  2089  3146  3147    1
  2090  3146  3141    1
  2091  4059  4060    1
  2092  4059  4061    1
  2093  3144  3142    1
  2094  3628  3626   ar
  2095  3628  3630   ar
  2096  2847  2846    1
  2097  3158  3159    1
  2098  1787  1806    1
  2099  3150  3151   ar
  2100  3426  3425   ar
  2101  3426  3429   ar
  2102    38    18    2
  2103  1323  1325    1
  2104  1323  1321    1
  2105  3091  3090    2
  2106  3129  3128    2
  2107  3425  3431   ar
  2108  2832  2831   ar
  2109  3179  3177    1
  2110  1667  1666    1
  2111  1667  1672    1
  2112  1804  1803   ar
  2113  3168  3167   ar
  2114  3168  3170   ar
  2115  3046  3045    1
  2116  3167  3174   ar
  2117  1352  1353    2
  2118  1352  1354   ar
  2119    45    46    1
  2120    45    43    1
  2121  3436  3434    1
  2122  4072  4069   ar
  2123  3045  3044   ar
  2124  2849  2848    1
  2125  2849  2856   ar
  2126    79    60    2
  2127  3198  3177    2
  2128  3625  3623   ar
  2129  3197  3196   ar
  2130  3197  3191   ar
  2131   819   814    1
  2132   819   817    1
  2133   814   813    1
  2134  1355  1354   ar
  2135  1355  1356    1
  2136    18    39    1
  2137    18    20    1
  2138  3147  3154   ar
  2139  1960  1980    1
  2140  1960  1944    1
  2141  1960  1962    1
  2142  3218  3200    2
  2143  2848  2846    1
  2144  2848  2843    1
  2145  3177  3199    1
  2146  1666  1668    1
  2147  1772  1774    1
  2148  1772  1770    1
  2149  2846  2844    1
  2150  2828  2829   ar
  2151  1942  1947    1
  2152   184   183   ar
  2153  3626  3624   ar
  2154  3633  3623   ar
  2155  3633  3635    1
  2156  1551  1550   ar
  2157  3041  3040    1
  2158  3041  3042   ar
  2159  1945  1947    1
  2160  1945  1946    1
  2161  3642  3630   ar
  2162  3642  3640   ar
  2163  4063  4074    1
  2164  4063  4061    1
  2165  1538  1537    1
  2166   811   813    1
  2167  1326  1325    1
  2168  2860  2861    1
  2169  1673  1672    1
  2170  1673  1674   ar
  2171  1441  1442   ar
  2172  1441  1439   ar
  2173  1801  1803   ar
  2174  1801  1802    2
  2175    46    60    1
  2176  3067  3066   ar
  2177  3067  3061   ar
  2178  1785  1767    2
  2179  3040  3038    1
  2180  3141  3140    1
  2181  1325  1327    1
  2182  4074  4068   ar
  2183  1537  1535    1
  2184  3201  3203    1
  2185  3201  3202    1
  2186  1340  1318    1
  2187  1467  1445    2
  2188   817   818    1
  2189   817   815    1
  2190    43    41    1
  2191  3630  3632   ar
  2192  3190  3191   ar
  2193  3190  3188   ar
  2194  1775  1774    1
  2195  1318  1320    1
  2196  1318  1304    1
  2197  1428  1429    1
  2198  1428  1430    1
  2199  3130  3128   ar
  2200  3130  3131   ar
  2201  1442  1435   ar
  2202  3200  3202    1
  2203  3200  3219    1
  2204  3196  3195   ar
  2205    78    60    1
  2206  3069  3066   ar
  2207  3069  3070   ar
  2208  1319  1320    1
  2209  1319  1321    1
  2210  1676  1674   ar
  2211  3406  3405    2
  2212   167   168    1
  2213  3036  3037    1
  2214  3036  3038    1
  2215  3084  3090   ar
  2216  3084  3085   ar
  2217  3128  3127   ar
  2218  1956  1955   ar
  2219  1956  1957   ar
  2220  3090  3089   ar
  2221    60    62    1
  2222  1321  1322    1
  2223   844   843    1
  2224  1698  1697    2
  2225  3191  3192   ar
  2226  1529  1528    2
  2227  2855  2856   ar
  2228  3073  3051    2
  2229  4061  4062    1
  2230  1672  1670    1
  2231  3429  3430   ar
  2232  3419  3418    1
  2233   158   157    2
  2234    41    42    1
  2235  3151  3152    1
  2236  3151  3153   ar
  2237  1429  1434    1
  2238  3170  3171   ar
  2239  3159  3157    1
  2240  3142  3140    1
  2241  3142  3143    1
  2242  3174  3173   ar
  2243  2861  2859    1
  2244  3418  3420    1
  2245  3418  3416    1
  2246  1527  1528   ar
  2247  1527  1525   ar
  2248  3140  3138    1
  2249  3431  3420    1
  2250  3431  3430   ar
  2251   813   815    1
  2252  1947  1957    1
  2253  3044  3042   ar
  2254  3066  3065   ar
  2255  3143  3157    1
  2256  3385  3384    2
  2257  1774  1776    1
  2258  1674  1675    2
  2259  1526  1525    2
  2260  1770  1768    1
  2261  1770  1771    1
  2262  2831  2834   ar
  2263  2831  2830   ar
  2264  3061  3062   ar
  2265  1508  1507    2
  2266  1961  1962    1
  2267  1961  1963    1
  2268  3203  3204    1
  2269  3203  3205    1
  2270  3042  3043    2
  2271  1668  1670    1
  2272  1668  1669    1
  2273  3204  3209    1
  2274   843   842   ar
  2275   843   845   ar
  2276  1440  1439    1
  2277  1430  1431    1
  2278  1430  1432    1
  2279  4069  4068   ar
  2280  4069  4070   ar
  2281  3189  3188    1
  2282  1955  1952   ar
  2283  1768  1769    1
  2284  3037  3051    1
  2285   842   848   ar
  2286  1957  1951   ar
  2287  3154  3153   ar
  2288    20    19    1
  2289  3188  3187   ar
  2290  3132  3131    1
  2291  2843  2842    1
  2292    26    25    1
  2293  3640  3638   ar
  2294  1431  1445    1
  2295  3434  3453    2
  2296  3434  3452    1
  2297  3434  3417    1
  2298  1439  1438   ar
  2299  1466  1445    1
  2300  3086  3085    1
  2301   168   166    1
  2302  3624  3634   ar
  2303  1702  1683    2
  2304  1769  1767    1
  2305  1445  1447    1
  2306  3038  3039    1
  2307  1528  1530   ar
  2308  2829  2830   ar
  2309  3112  3111    1
  2310   159   157   ar
  2311   159   160   ar
  2312  3420  3415    1
  2313   845   846   ar
  2314   815   816    1
  2315  3131  3133   ar
  2316  3110  3111   ar
  2317  3110  3108   ar
  2318  1697  1699   ar
  2319  1697  1696   ar
  2320  3070  3071   ar
  2321  4068  4067   ar
  2322  3195  3192   ar
  2323  1525  1524   ar
  2324  3125  3124    1
  2325   140   139    2
  2326  1699  1700   ar
  2327  2844  2845    1
  2328  2844  2842    1
  2329  1767  1786    1
  2330  1767  1751    1
  2331  3085  3087   ar
  2332  3109  3108    2
  2333  3405  3404   ar
  2334  3405  3407   ar
  2335    25    23    1
  2336    25    27    1
  2337  3192  3193   ar
  2338   157   156   ar
  2339    75    74    1
  2340  1435  1434    1
  2341  1435  1436   ar
  2342   848   849    2
  2343   848   847   ar
  2344  3157  3175    2
  2345  3157  3176    1
  2346  3632  3634   ar
  2347  3632  3638   ar
  2348  1327  1322    1
  2349  1327  1338    1
  2350  3127  3126    1
  2351  3127  3134   ar
  2352  1535  1536    1
  2353  3404  3402   ar
  2354  3051  3072    1
  2355  3051  3053    1
  2356  2834  2835   ar
  2357    36    35   ar
  2358    36    37   ar
  2359  2830  2836   ar
  2360  3089  3092   ar
  2361  3089  3088   ar
  2362  2002  1982    2
  2363  1304  1303    1
  2364    23    24    1
  2365    23    21    1
  2366  1670  1671    1
  2367  3126  3124    1
  2368  3126  3121    1
  2369    76    74   ar
  2370    76    77   ar
  2371  1669  1683    1
  2372   846   847   ar
  2373   846   852   ar
  2374  2845  2859    1
  2375  3173  3171   ar
  2376    35    32   ar
  2377  3171  3172    2
  2378  3416  3417    1
  2379  3416  3414    1
  2380   161   160    2
  2381  1434  1432    1
  2382   847   850   ar
  2383  1337  1338   ar
  2384  1337  1336   ar
  2385  3111  3113   ar
  2386    19    21    1
  2387  1338  1332   ar
  2388    59    40    2
  2389  3124  3122    1
  2390  1507  1501   ar
  2391  1507  1506   ar
  2392  3384  3378   ar
  2393  3384  3383   ar
  2394  4071  4070    2
  2395  3108  3107   ar
  2396  1501  1502   ar
  2397  2842  2840    1
  2398    62    61    1
  2399  1536  1534    1
  2400  1776  1771    1
  2401  1776  1777    1
  2402  3065  3071   ar
  2403  3065  3064   ar
  2404    42    40    1
  2405   133   139   ar
  2406   133   134   ar
  2407  4070  4064   ar
  2408   154   153    1
  2409  3138  3139    1
  2410  3634  3636    1
  2411  2859  2880    2
  2412  2859  2879    1
  2413  2680  2679    1
  2414  3187  3193   ar
  2415  3092  3093   ar
  2416  1718  1717    2
  2417  3062  3063    1
  2418  3062  3064   ar
  2419   160   162   ar
  2420   852   841    1
  2421   852   851   ar
  2422  1952  1951   ar
  2423  1952  1953   ar
  2424  3209  3210    1
  2425  3209  3207    1
  2426   841   836    1
  2427   841   839    1
  2428  1951  1950   ar
  2429  1336  1333   ar
  2430  1963  1965    1
  2431  1963  1964    1
  2432    74    73   ar
  2433  1332  1331   ar
  2434  1332  1333   ar
  2435   139   138   ar
  2436  1432  1433    1
  2437  1683  1701    1
  2438  1683  1685    1
  2439  3378  3379   ar
  2440  1316  1298    2
  2441    24    40    1
  2442   153   155    1
  2443   153   151    1
  2444  3205  3206    1
  2445  3205  3207    1
  2446  3193  3194    2
  2447  3071  3060    1
  2448  1696  1694   ar
  2449  1438  1436   ar
  2450  1700  1693   ar
  2451   850   851   ar
  2452  1331  1329   ar
  2453  1751  1750    1
  2454  3217  3210   ar
  2455  3217  3216   ar
  2456   836   835    1
  2457  1333  1334   ar
  2458   816   832    1
  2459  1485  1484    2
  2460  3133  3134   ar
  2461   135   134    1
  2462    77    70   ar
  2463  3407  3408   ar
  2464  3087  3088   ar
  2465  3206  3220    1
  2466  4067  4065   ar
  2467  1530  1531   ar
  2468  1463  1464   ar
  2469  1463  1460   ar
  2470  1436  1437    2
  2471    21    22    1
  2472  3088  3094   ar
  2473  1779  1778    2
  2474    37    27    1
  2475    37    31   ar
  2476  1447  1446    1
  2477  3053  3052    1
  2478  3415  3414    1
  2479  1462  1461    2
  2480    40    58    1
  2481  1524  1531   ar
  2482  1524  1523    1
  2483  3402  3403    2
  2484  3402  3401   ar
  2485   156   155    1
  2486   156   163   ar
  2487  3208  3207    1
  2488  1965  1966    1
  2489  1965  1967    1
  2490   166   186    2
  2491   166   187    1
  2492   166   152    1
  2493    27    22    1
  2494  1329  1330    1
  2495  1329  1328   ar
  2496  3121  3120    1
  2497  1303  1305    1
  2498  1303  1301    1
  2499   840   839    1
  2500  2835  2836   ar
  2501  3210  3211   ar
  2502  1334  1328   ar
  2503  1334  1335    2
  2504  1503  1502    1
  2505    32    31   ar
  2506    32    33   ar
  2507  3139  3137    1
  2508    95    94    1
  2509  2836  2826    1
  2510    61    63    1
  2511   134   136   ar
  2512   117   116    2
  2513  1982  2003    1
  2514  1982  1966    1
  2515  1982  1984    1
  2516  3383  3386   ar
  2517  3383  3382   ar
  2518   155   150    1
  2519  3216  3214   ar
  2520  3386  3387   ar
  2521  1521  1522    1
  2522  1521  1523    1
  2523  1521  1519    1
  2524  3414  3412    1
  2525  1317  1298    1
  2526  1502  1504   ar
  2527    34    33    1
  2528  2679  2674   ar
  2529  2679  2678   ar
  2530  1464  1465   ar
  2531  1950  1949   ar
  2532  1717  1716   ar
  2533  1717  1719   ar
  2534  1506  1509   ar
  2535  1506  1505   ar
  2536  1953  1954    1
  2537  1953  1948   ar
  2538  1964  1969    1
  2539  1298  1300    1
  2540  1298  1282    1
  2541  3113  3114   ar
  2542  1300  1299    1
  2543   839   837    1
  2544  4064  4065   ar
  2545  3107  3114   ar
  2546  3107  3106    1
  2547  1777  1778   ar
  2548  1777  1784   ar
  2549  3093  3094   ar
  2550  1685  1684    1
  2551   152   151    1
  2552  2840  2841    1
  2553  1523  1518    1
  2554  1693  1694   ar
  2555  1693  1692    1
  2556   162   163   ar
  2557  1694  1695    2
  2558    31    30   ar
  2559  3122  3120    1
  2560  3122  3123    1
  2561  1778  1780   ar
  2562  3238  3220    2
  2563  2674  2675   ar
  2564  1534  1553    2
  2565  1534  1552    1
  2566  1534  1520    1
  2567   151   149    1
  2568  4065  4066    1
  2569   834   832    1
  2570   834   833    1
  2571    73    71   ar
  2572  3055  3060    1
  2573  3055  3054    1
  2574  2841  2839    1
  2575    33    28   ar
  2576  3379  3380    1
  2577  3379  3381   ar
  2578  3390  3368    2
  2579  2696  2697   ar
  2580  2696  2701   ar
  2581  1305  1306    1
  2582  1305  1307    1
  2583  1967  1969    1
  2584  1967  1968    1
  2585  1461  1460   ar
  2586  1461  1455   ar
  2587  1716  1714   ar
  2588  1460  1459   ar
  2589  1299  1301    1
  2590  3060  3058    1
  2591  1509  1510   ar
  2592  3408  3401   ar
  2593  3094  3083    1
  2594   853   832    2
  2595   138   141   ar
  2596   138   137   ar
  2597   835   837    1
  2598   835   833    1
  2599  1484  1483   ar
  2600  1484  1478   ar
  2601  2702  2701    1
  2602  3220  3239    1
  2603  3220  3222    1
  2604   832   854    1
  2605  1490  1468    2
  2606  3401  3400    1
  2607  3120  3118    1
  2608  1983  1984    1
  2609  1983  1985    1
  2610  1446  1448    1
  2611   867   866    2
  2612  1750  1752    1
  2613  1750  1748    1
  2614  1753  1752    1
  2615  3052  3054    1
  2616    70    71   ar
  2617    70    69    1
  2618  1301  1302    1
  2619  3413  3412    1
  2620  3413  3411    1
  2621  3211  3212    2
  2622  3211  3213   ar
  2623    64    63    1
  2624    64    69    1
  2625  2681  2678   ar
  2626  2681  2682   ar
  2627  3123  3137    1
  2628  1486  1483   ar
  2629  1486  1487   ar
  2630  2678  2677   ar
  2631  2792  2774    2
  2632  3106  3104    1
  2633  3106  3101    1
  2634  1719  1720   ar
  2635  1978  1979   ar
  2636  1978  1977   ar
  2637  1519  1520    1
  2638  1519  1517    1
  2639  3214  3213   ar
  2640  3214  3215    1
  2641    94    96   ar
  2642    94    93   ar
  2643  1949  1948   ar
  2644  2697  2698   ar
  2645   116   110   ar
  2646   116   115   ar
  2647  3360  3359    2
  2648  2826  2824    1
  2649  2826  2821    1
  2650    99    80    2
  2651  1687  1692    1
  2652  1687  1686    1
  2653    63    65    1
  2654  3382  3381   ar
  2655  3382  3388   ar
  2656    96    97   ar
  2657   866   868   ar
  2658   866   865   ar
  2659   136   137   ar
  2660  2837  2817    2
  2661  1296  1276    2
  2662  3387  3388   ar
  2663  1969  1979    1
  2664  2701  2700   ar
  2665  1505  1504   ar
  2666  1505  1511   ar
  2667  2824  2822    1
  2668  2824  2825    1
  2669  3433  3411    2
  2670  3356  3355    1
  2671  3137  3155    2
  2672  3137  3156    1
  2673   859   864    1
  2674   859   858    1
  2675   141   142   ar
  2676    71    72    2
  2677  2022  2004    2
  2678   868   869   ar
  2679  1752  1754    1
  2680   150   149    1
  2681   837   838    1
  2682  1483  1482   ar
  2683  1784  1783   ar
  2684   864   865    1
  2685   864   862    1
  2686  3104  3105    1
  2687  3104  3102    1
  2688  3054  3056    1
  2689   110   111   ar
  2690   137   143   ar
  2691  1684  1686    1
  2692  1478  1479   ar
  2693  1692  1690    1
  2694  1465  1459   ar
  2695  1465  1454    1
  2696    30    29   ar
  2697  2675  2676   ar
  2698   865   872   ar
  2699  1748  1746    1
  2700  1748  1749    1
  2701  1985  1986    1
  2702  1985  1987    1
  2703    28    29   ar
  2704   149   147    1
  2705  1746  1747    1
  2706  1315  1314   ar
  2707  1315  1308   ar
  2708    69    67    1
  2709  2858  2839    2
  2710  1780  1781   ar
  2711  1282  1281    1
  2712  1714  1715    2
  2713  1714  1713   ar
  2714  1979  1973   ar
  2715  1518  1517    1
  2716  1314  1312   ar
  2717  3058  3056    1
  2718  3058  3059    1
  2719  1977  1974   ar
  2720  1459  1458   ar
  2721  3398  3400    1
  2722  3398  3396    1
  2723  3398  3399    1
  2724  3056  3057    1
  2725   869   870    2
  2726   869   871   ar
  2727    65    66    1
  2728    65    67    1
  2729  1297  1276    1
  2730  3355  3353    1
  2731  3355  3357    1
  2732  1455  1456   ar
  2733  1510  1511   ar
  2734  3083  3078    1
  2735  3083  3081    1
  2736  1449  1448    1
  2737  1449  1454    1
  2738  1988  2004    1
  2739  1988  1987    1
  2740  1307  1308    1
  2741  1307  1302    1
  2742  2839  2823    1
  2743  2839  2857    1
  2744  3359  3361   ar
  2745  3359  3358   ar
  2746  3400  3395    1
  2747  2682  2683   ar
  2748  3361  3362   ar
  2749  1448  1450    1
  2750  3411  3432    1
  2751  3411  3397    1
  2752  3388  3377    1
  2753  3222  3221    1
  2754  3368  3354    1
  2755  3368  3370    1
  2756  3368  3389    1
  2757  2822  2823    1
  2758  2822  2820    1
  2759  1308  1309   ar
  2760  2759  2758    1
  2761  2677  2676   ar
  2762  2677  2683   ar
  2763  1487  1488   ar
  2764   872   871   ar
  2765  3096  3074    2
  2766   863   862    1
  2767  2757  2774    1
  2768  2757  2756    1
  2769  2684  2664    2
  2770  1468  1489    1
  2771  1468  1451    1
  2772  1468  1470    1
  2773  3118  3119    1
  2774  1765  1745    2
  2775  1450  1451    1
  2776  1450  1452    1
  2777  3101  3100    1
  2778  1686  1688    1
  2779  3221  3223    1
  2780  1747  1745    1
  2781    93    91   ar
  2782  1312  1313    2
  2783  1312  1311   ar
  2784  1720  1713   ar
  2785  2821  2820    1
  2786  1276  1278    1
  2787  1276  1259    1
  2788  2720  2719    2
  2789  3354  3353    1
  2790  3410  3391    2
  2791  2838  2817    1
  2792  2817  2819    1
  2793  2817  2800    1
  2794  2774  2776    1
  2795  2774  2793    1
  2796   115   118   ar
  2797   115   114   ar
  2798  1517  1515    1
  2799  2698  2699   ar
  2800   838   855    1
  2801  1511  1500    1
  2802  2819  2818    1
  2803   858   856    1
  2804   858   860    1
  2805  2004  2023    1
  2806  2004  2006    1
  2807  1309  1311   ar
  2808  1309  1310    2
  2809    97    90   ar
  2810   118   119   ar
  2811  3119  3117    1
  2812  1986  1991    1
  2813  2700  2699   ar
  2814  2700  2703   ar
  2815  3396  3397    1
  2816  3396  3394    1
  2817  1454  1452    1
  2818    80    66    1
  2819    80    98    1
  2820    80    82    1
  2821  1713  1712    1
  2822   142   143   ar
  2823  1987  1989    1
  2824   862   860    1
  2825  3078  3077    1
  2826  3370  3369    1
  2827  1783  1781   ar
  2828    67    68    1
  2829  2683  2673    1
  2830  3363  3362    2
  2831  2650  2664    1
  2832  2650  2649    1
  2833   143   132    1
  2834   111   112    1
  2835   111   113   ar
  2836  2652  2651    1
  2837  1688  1690    1
  2838  1688  1689    1
  2839  1482  1488   ar
  2840  1482  1481   ar
  2841  2775  2776    1
  2842  2775  2777    1
  2843  1281  1279    1
  2844  1281  1283    1
  2845  3081  3082    1
  2846  3081  3079    1
  2847  3353  3351    1
  2848  1690  1691    1
  2849  3362  3364   ar
  2850  1754  1749    1
  2851  1754  1764    1
  2852  3102  3100    1
  2853  3102  3103    1
  2854  1274  1253    2
  2855   856   857    1
  2856  3357  3358    1
  2857  3357  3352    1
  2858  1781  1782    2
  2859  1479  1480    1
  2860  1479  1481   ar
  2861  2754  2756    1
  2862  2754  2752    1
  2863  2754  2755    1
  2864  3358  3365   ar
  2865  1278  1277    1
  2866  1516  1515    1
  2867  1516  1514    1
  2868   886   885   ar
  2869   886   887   ar
  2870  2699  2705   ar
  2871  2721  2719   ar
  2872  2721  2722   ar
  2873  2820  2818    1
  2874  1470  1469    1
  2875  1745  1766    1
  2876  1745  1729    1
  2877  1513  1491    2
  2878  1973  1974   ar
  2879  1973  1972   ar
  2880   147   148    1
  2881  1456  1458   ar
  2882  1456  1457    1
  2883  2647  2645    1
  2884  2647  2649    1
  2885  2647  2648    1
  2886   148   146    1
  2887   885   890   ar
  2888  1974  1975   ar
  2889  3395  3394    1
  2890  1990  1989    1
  2891  3057  3074    1
  2892  1452  1453    1
  2893  2645  2646    1
  2894  2736  2735    1
  2895  1533  1514    2
  2896  2756  2758    1
  2897  2719  2718   ar
  2898  1488  1477    1
  2899  3393  3391    1
  2900  3393  3392    1
  2901  2752  2753    1
  2902  3076  3074    1
  2903  3076  3075    1
  2904   887   888   ar
  2905  2632  2631    1
  2906  1277  1279    1
  2907  1722  1703    2
  2908  2664  2685    1
  2909  2664  2666    1
  2910  3074  3095    1
  2911  2758  2760    1
  2912  3224  3223    1
  2913  3224  3229    1
  2914  3100  3098    1
  2915  3236  3237   ar
  2916  3236  3234   ar
  2917    91    90   ar
  2918    91    92    2
  2919  2703  2704   ar
  2920  3223  3225    1
  2921  3377  3375    1
  2922  3377  3372    1
  2923   860   861    1
  2924  3342  3341    2
  2925  1259  1258    1
  2926   890   891    1
  2927   890   889   ar
  2928  3237  3230   ar
  2929  2816  2794    2
  2930    82    81    1
  2931  2005  2006    1
  2932  2005  2007    1
  2933   114   113   ar
  2934   114   120   ar
  2935  3391  3374    1
  2936  3391  3409    1
  2937    90    89    1
  2938   857   855    1
  2939  1989  1991    1
  2940  2649  2651    1
  2941  3079  3077    1
  2942  3079  3080    1
  2943  3394  3392    1
  2944  3375  3373    1
  2945  3375  3376    1
  2946   888   889   ar
  2947   888   894   ar
  2948  3373  3371    1
  2949  3373  3374    1
  2950  1991  2001    1
  2951  2755  2760    1
  2952  3103  3117    1
  2953  2723  2722    1
  2954  3335  3341   ar
  2955  3335  3336   ar
  2956  1500  1498    1
  2957  1500  1495    1
  2958  2800  2799    1
  2959  1279  1280    1
  2960  1283  1284    1
  2961  1283  1285    1
  2962  1764  1763   ar
  2963  1764  1758   ar
  2964   119   120   ar
  2965  3337  3336    1
  2966  3365  3364   ar
  2967   879   884    1
  2968   879   878    1
  2969  1498  1496    1
  2970  1498  1499    1
  2971  2662  2644    2
  2972   855   874    2
  2973   855   873    1
  2974   889   892   ar
  2975  2648  2653    1
  2976  1712  1707    1
  2977  1712  1710    1
  2978  3117  3136    2
  2979  3117  3135    1
  2980  3077  3075    1
  2981  2799  2797    1
  2982  2799  2801    1
  2983  2673  2668    1
  2984  2673  2671    1
  2985  1763  1762   ar
  2986  3372  3371    1
  2987  2651  2653    1
  2988  1514  1497    1
  2989  1514  1532    1
  2990  2722  2724   ar
  2991  2795  2796    1
  2992  2795  2797    1
  2993  2760  2771    1
  2994   130   132    1
  2995   130   128    1
  2996   130   131    1
  2997  2777  2778    1
  2998  2777  2779    1
  2999   165   146    2
  3000  1689  1703    1
  3001   132   127    1
  3002   894   884    1
  3003   894   893   ar
  3004  3369  3371    1
  3005   884   882    1
  3006  2668  2667    1
  3007  1972  1971   ar
  3008  3099  3098    1
  3009  3099  3097    1
  3010  1253  1275    1
  3011  1253  1255    1
  3012  1253  1239    1
  3013  3351  3352    1
  3014  3351  3349    1
  3015  3341  3340   ar
  3016  2705  2704   ar
  3017  2705  2695    1
  3018  1707  1706    1
  3019  1729  1728    1
  3020  2796  2794    1
  3021  1975  1976    1
  3022  1975  1970   ar
  3023  1496  1497    1
  3024  1496  1494    1
  3025   892   893   ar
  3026  3235  3234    1
  3027   861   875    1
  3028  3116  3097    2
  3029  3336  3338   ar
  3030  3234  3233   ar
  3031  2653  2654    1
  3032  1493  1491    1
  3033  1493  1492    1
  3034  2666  2665    1
  3035  1255  1254    1
  3036   146   129    1
  3037   146   164    1
  3038  2646  2644    1
  3039  2630  2644    1
  3040  2630  2629    1
  3041  2797  2798    1
  3042  1491  1512    1
  3043  1491  1474    1
  3044  1469  1471    1
  3045  2780  2794    1
  3046  2780  2779    1
  3047  2718  2717    1
  3048  2718  2725   ar
  3049  1703  1705    1
  3050  1703  1721    1
  3051   128   129    1
  3052   128   126    1
  3053   120   109    1
  3054  3230  3229    1
  3055  3230  3231   ar
  3056  2735  2737    1
  3057  2735  2733    1
  3058  1258  1256    1
  3059  1258  1260    1
  3060   122   100    2
  3061  2772  2751    2
  3062  1477  1472    1
  3063  1477  1475    1
  3064  2794  2815    1
  3065  1758  1757   ar
  3066  1758  1759   ar
  3067  3229  3227    1
  3068  1254  1256    1
  3069  2631  2629    1
  3070  2631  2633    1
  3071  2753  2751    1
  3072  1495  1494    1
  3073  1294  1293   ar
  3074  1294  1295   ar
  3075  2717  2715    1
  3076  2717  2712    1
  3077  1473  1475    1
  3078  1473  1471    1
  3079  1473  1474    1
  3080  1472  1471    1
  3081  2716  2715    1
  3082  2734  2751    1
  3083  2734  2733    1
  3084  2740  2739    1
  3085  3225  3226    1
  3086  3225  3227    1
  3087  2644  2663    1
  3088  1293  1290   ar
  3089  1705  1704    1
  3090  1762  1759   ar
  3091  1757  1756   ar
  3092    81    83    1
  3093  2778  2783    1
  3094  3080  3097    1
  3095    84    89    1
  3096    84    83    1
  3097  2001  2000   ar
  3098  2001  1995   ar
  3099  2000  1999   ar
  3100  2007  2008    1
  3101  2007  2009    1
  3102  2779  2781    1
  3103    89    87    1
  3104   878   876    1
  3105   878   880    1
  3106  1280  1285    1
  3107  1285  1295    1
  3108  1295  1289   ar
  3109  3097  3115    1
  3110  1710  1708    1
  3111  1710  1711    1
  3112  2801  2802    1
  3113  2801  2803    1
  3114  1475  1476    1
  3115   127   126    1
  3116  2737  2732    1
  3117  2737  2748    1
  3118  2695  2690    1
  3119  2695  2693    1
  3120  2046  2024    2
  3121   876   877    1
  3122  1971  1970   ar
  3123  2665  2667    1
  3124  2636  2635    2
  3125  2715  2713    1
  3126  2671  2669    1
  3127  2671  2672    1
  3128   883   882    1
  3129  1290  1289   ar
  3130  1290  1291   ar
  3131  2751  2773    1
  3132  1759  1760   ar
  3133  2741  2739   ar
  3134  2741  2742   ar
  3135  2045  2024    1
  3136  2629  2627    1
  3137  3259  3240    2
  3138  1494  1492    1
  3139  2724  2725   ar
  3140  1256  1257    1
  3141  3226  3240    1
  3142  2733  2731    1
  3143  2667  2669    1
  3144  3233  3231   ar
  3145  1289  1288   ar
  3146  1239  1238    1
  3147  3340  3339   ar
  3148  3340  3343   ar
  3149  3349  3350    1
  3150  1251  1233    2
  3151   882   880    1
  3152  2633  2628    1
  3153  2633  2634    1
  3154  1292  1291    1
  3155    85    83    1
  3156    85    87    1
  3157    85    86    1
  3158  3231  3232    2
  3159  2771  2765   ar
  3160  2771  2770   ar
  3161  1731  1730    1
  3162  1728  1730    1
  3163  1728  1726    1
  3164  2627  2628    1
  3165  2627  2625    1
  3166  2731  2732    1
  3167  2731  2729    1
  3168  3338  3339   ar
  3169  1291  1286   ar
  3170  3255  3254    2
  3171   126   124    1
  3172  3319  3318    2
  3173  1706  1704    1
  3174  1706  1708    1
  3175  3350  3348    1
  3176  2764  2765   ar
  3177  2764  2762   ar
  3178  2010  2024    1
  3179  2010  2009    1
  3180  2712  2711    1
  3181  2739  2738   ar
  3182  2008  2013    1
  3183  3227  3228    1
  3184  1260  1261    1
  3185  1260  1262    1
  3186   877   875    1
  3187    87    88    1
  3188  1756  1755   ar
  3189  2024  2026    1
  3190  1708  1709    1
  3191   145   123    2
  3192  1288  1287   ar
  3193  2669  2670    1
  3194   124   125    1
  3195   875   896    2
  3196   875   895    1
  3197  1730  1732    1
  3198  2654  2655   ar
  3199  2654  2661   ar
  3200  2656  2655    2
  3201  2009  2011    1
  3202  2798  2803    1
  3203  2690  2689    1
  3204  1286  1287   ar
  3205  3339  3345   ar
  3206   109   107    1
  3207   109   104    1
  3208   100   102    1
  3209   100    86    1
  3210   100   121    1
  3211  2693  2694    1
  3212  2693  2691    1
  3213   880   881    1
  3214  3240  3258    1
  3215  3240  3242    1
  3216  1999  1996   ar
  3217  2765  2766   ar
  3218  3343  3344   ar
  3219  1760  1755   ar
  3220  1760  1761    1
  3221  1995  1994   ar
  3222  1995  1996   ar
  3223  2783  2781    1
  3224  2783  2784    1
  3225  2763  2762    1
  3226  2748  2742   ar
  3227  2748  2747   ar
  3228   102   101    1
  3229  2803  2814    1
  3230  3256  3254   ar
  3231  3256  3257   ar
  3232  2781  2782    1
  3233  2742  2743   ar
  3234  3254  3253   ar
  3235  2791  2784   ar
  3236  2791  2790   ar
  3237  1252  1233    1
  3238  2635  2634   ar
  3239  2635  2637   ar
  3240  2770  2769   ar
  3241   107   105    1
  3242   107   108    1
  3243  1233  1235    1
  3244  1233  1217    1
  3245  2655  2657   ar
  3246  2625  2626    1
  3247   909   908    2
  3248  1257  1262    1
  3249  2762  2761   ar
  3250  2661  2660   ar
  3251   104   103    1
  3252   910   908   ar
  3253   910   911   ar
  3254  2634  2641   ar
  3255  3318  3312   ar
  3256  3318  3317   ar
  3257  1238  1236    1
  3258  1238  1240    1
  3259   912   911    2
  3260  2021  2020   ar
  3261  2021  2014   ar
  3262  1744  1723    2
  3263  1726  1724    1
  3264  1726  1727    1
  3265  1235  1234    1
  3266  2713  2711    1
  3267  2713  2714    1
  3268  1272  1271   ar
  3269  1272  1273   ar
  3270  1994  1993   ar
  3271  2729  2730    1
  3272   125   123    1
  3273  3367  3348    2
  3274   908   907   ar
  3275  2711  2709    1
  3276   105   103    1
  3277   105   106    1
  3278  2730  2728    1
  3279   911   913   ar
  3280  1262  1273    1
  3281  3312  3313   ar
  3282  2738  2744   ar
  3283  3348  3366    1
  3284  3348  3331    1
  3285  2784  2785   ar
  3286  1271  1268   ar
  3287  1996  1997   ar
  3288  1724  1725    1
  3289  2790  2788   ar
  3290  1273  1267   ar
  3291  1234  1236    1
  3292  2013  2011    1
  3293  2013  2014    1
  3294  2020  2018   ar
  3295   123   106    1
  3296   123   144    1
  3297  1709  1723    1
  3298  3345  3344   ar
  3299  3345  3334    1
  3300   901   906    1
  3301   901   900    1
  3302  3257  3250   ar
  3303   881   897    1
  3304   907   906    1
  3305   907   914   ar
  3306  2670  2686    1
  3307  2011  2012    1
  3308  1725  1723    1
  3309   913   914   ar
  3310  2026  2025    1
  3311  2707  2686    2
  3312  3253  3251   ar
  3313  2691  2689    1
  3314  2691  2692    1
  3315  2689  2687    1
  3316  1732  1727    1
  3317  1732  1742    1
  3318  3242  3241    1
  3319  2637  2638   ar
  3320   906   904    1
  3321  1268  1267   ar
  3322  1268  1269   ar
  3323  2714  2728    1
  3324   103   101    1
  3325  1267  1266   ar
  3326  1236  1237    1
  3327  2814  2813   ar
  3328  2814  2808   ar
  3329  1231  1211    2
  3330  2014  2015   ar
  3331  2766  2769   ar
  3332  2766  2767   ar
  3333  3332  3330    1
  3334  3332  3334    1
  3335  3332  3333    1
  3336  2688  2686    1
  3337  2688  2687    1
  3338  2747  2746   ar
  3339  1723  1743    1
  3340  1240  1241    1
  3341  1240  1242    1
  3342  3317  3320   ar
  3343  3317  3316   ar
  3344  2743  2744   ar
  3345  2743  2746   ar
  3346  3320  3321   ar
  3347  2813  2812   ar
  3348  2612  2611    1
  3349  2626  2624    1
  3350  1735  1734   ar
  3351  1735  1736   ar
  3352  1266  1264   ar
  3353  1269  1270    2
  3354  1269  1263   ar
  3355  2657  2658   ar
  3356  1217  1216    1
  3357  2641  2640   ar
  3358  2761  2767   ar
  3359  2660  2658   ar
  3360  1742  1736   ar
  3361  1742  1741   ar
  3362  2686  2706    1
  3363  3301  3280    1
  3364  3313  3314    1
  3365  3313  3315   ar
  3366  2744  2745    2
  3367  2709  2710    1
  3368  2616  2615    2
  3369  1993  1992   ar
  3370  3330  3331    1
  3371  3330  3328    1
  3372  2728  2750    2
  3373  2728  2749    1
  3374  1734  1733   ar
  3375  3334  3329    1
  3376  1736  1737   ar
  3377  2025  2027    1
  3378  3250  3251   ar
  3379  3250  3249    1
  3380  1232  1211    1
  3381  1264  1263   ar
  3382  1264  1265    1
  3383  3324  3302    2
  3384  2785  2786    2
  3385  2785  2787   ar
  3386  2710  2708    1
  3387  3251  3252    2
  3388  2788  2787   ar
  3389  2788  2789    1
  3390   900   898    1
  3391   900   902    1
  3392  1997  1992   ar
  3393  1997  1998    1
  3394  1741  1740   ar
  3395  2018  2019    1
  3396  2018  2017   ar
  3397  2692  2708    1
  3398  2767  2768    2
  3399  1211  1213    1
  3400  1211  1197    1
  3401  3241  3243    1
  3402   898   899    1
  3403  2808  2807   ar
  3404  2808  2809   ar
  3405  3296  3295    1
  3406  3244  3249    1
  3407  3244  3243    1
  3408  1733  1738   ar
  3409  2658  2659    2
  3410  2638  2640   ar
  3411  2638  2639    1
  3412  2807  2805   ar
  3413  1737  1740   ar
  3414  1737  1738   ar
  3415  3297  3298   ar
  3416  3297  3294   ar
  3417  3347  3325    2
  3418  3275  3274    1
  3419   897   899    1
  3420   897   916    2
  3421   897   915    1
  3422  3316  3315   ar
  3423  3316  3322   ar
  3424   905   904    1
  3425  1250  1249   ar
  3426  1250  1243   ar
  3427  2611  2613    1
  3428  2611  2609    1
  3429  1237  1242    1
  3430  2642  2624    2
  3431   904   902    1
  3432  3321  3322   ar
  3433  2015  2017   ar
  3434  2015  2016    2
  3435  2812  2809   ar
  3436  1242  1243    1
  3437  1249  1247   ar
  3438  1209  1191    2
  3439  1738  1739    1
  3440  1213  1212    1
  3441  3282  3280    1
  3442  3282  3281    1
  3443  1216  1218    1
  3444  1216  1214    1
  3445  2727  2708    2
  3446  2624  2610    1
  3447  2624  2643    1
  3448   929   928    2
  3449  1243  1244   ar
  3450   930   928   ar
  3451   930   931   ar
  3452  3249  3247    1
  3453  2708  2726    1
  3454  3327  3325    1
  3455  3327  3326    1
  3456  2615  2617   ar
  3457  2615  2614   ar
  3458  3329  3328    1
  3459   932   931    1
  3460  3280  3300    1
  3461  3298  3299   ar
  3462  2043  2042   ar
  3463  2043  2044   ar
  3464  2610  2609    1
  3465  2042  2039   ar
  3466  2809  2810   ar
  3467   928   927   ar
  3468  3276  3274   ar
  3469  3276  3277   ar
  3470  3243  3245    1
  3471  3328  3326    1
  3472   931   933   ar
  3473  1247  1248    2
  3474  1247  1246   ar
  3475   902   903    1
  3476  3322  3311    1
  3477  1212  1214    1
  3478  3295  3294   ar
  3479  3295  3290   ar
  3480  2613  2614    1
  3481  2613  2608    1
  3482  2027  2028    1
  3483  2027  2029    1
  3484  3274  3273   ar
  3485  3294  3293   ar
  3486  3281  3283    1
  3487  3302  3304    1
  3488  3302  3323    1
  3489  3302  3286    1
  3490  2028  2033    1
  3491  1244  1246   ar
  3492  1244  1245    2
  3493  2617  2618   ar
  3494  3325  3346    1
  3495  3325  3308    1
  3496  2805  2806    1
  3497  2805  2804   ar
  3498  1197  1196    1
  3499  2609  2607    1
  3500  1218  1219    1
  3501  1218  1220    1
  3502  1214  1215    1
  3503   927   926    1
  3504   927   934   ar
  3505  2069  2047    2
  3506  3304  3303    1
  3507   933   934   ar
  3508  2614  2621   ar
  3509  3279  3260    2
  3510  3245  3247    1
  3511  3245  3246    1
  3512   926   921    1
  3513   926   924    1
  3514  1191  1210    1
  3515  1191  1193    1
  3516  1191  1177    1
  3517  3277  3270   ar
  3518  2029  2030    1
  3519  2029  2031    1
  3520  3285  3286    1
  3521  3285  3283    1
  3522  3285  3287    1
  3523  3247  3248    1
  3524   921   920    1
  3525  2044  2033    1
  3526  2044  2038   ar
  3527  3299  3293   ar
  3528  3299  3289    1
  3529  1193  1192    1
  3530  3307  3309    1
  3531  3307  3308    1
  3532  3307  3305    1
  3533  2810  2804   ar
  3534  2810  2811    2
  3535   903   917    1
  3536  3309  3311    1
  3537  3309  3310    1
  3538  3273  3271   ar
  3539  2607  2608    1
  3540  2607  2605    1
  3541  3290  3291   ar
  3542  2039  2040   ar
  3543  2039  2038   ar
  3544  3283  3284    1
  3545  3293  3292   ar
  3546  3311  3306    1
  3547  1192  1194    1
  3548  2030  2047    1
  3549  2033  2031    1
  3550   947   948   ar
  3551   947   952   ar
  3552  1196  1194    1
  3553  1196  1198    1
  3554  2041  2040    2
  3555   948   949   ar
  3556  2068  2047    1
  3557  2618  2619    1
  3558  2618  2620   ar
  3559  2047  2049    1
  3560  2509  2508    1
  3561  3284  3289    1
  3562  1229  1228   ar
  3563  1229  1230   ar
  3564  2513  2512    2
  3565   953   952    1
  3566   925   924    1
  3567  3261  3262    1
  3568  3261  3263    1
  3569  1215  1220    1
  3570  1220  1230    1
  3571   952   951   ar
  3572  3246  3260    1
  3573  3303  3305    1
  3574  2040  2034   ar
  3575  3306  3305    1
  3576  1177  1176    1
  3577  1228  1225   ar
  3578  3270  3271   ar
  3579  3270  3269    1
  3580  3265  3266    1
  3581  3265  3263    1
  3582  3265  3267    1
  3583   949   950   ar
  3584  2621  2620   ar
  3585   924   922    1
  3586  2038  2037   ar
  3587  3287  3289    1
  3588  3287  3288    1
  3589  1230  1224   ar
  3590  3260  3262    1
  3591  3260  3278    1
  3592  1189  1171    2
  3593  1194  1195    1
  3594  3271  3272    2
  3595  2596  2595    2
  3596  2031  2032    1
  3597  2578  2577    2
  3598  3291  3292   ar
  3599  2064  2063    2
  3600   951   950   ar
  3601   951   954   ar
  3602  2510  2505    1
  3603  2510  2508    1
  3604  2510  2511    1
  3605  2505  2504    1
  3606   920   918    1
  3607   920   922    1
  3608   950   956   ar
  3609  2597  2595   ar
  3610  2597  2598   ar
  3611  2065  2066   ar
  3612  2065  2062   ar
  3613  1225  1224   ar
  3614  1225  1226   ar
  3615  2536  2535    1
  3616  2504  2502    1
  3617  2504  2506    1
  3618  1224  1223   ar
  3619  1198  1199    1
  3620  1198  1200    1
  3621  2599  2598    2
  3622  2605  2606    1
  3623  3263  3264    1
  3624   917   936    2
  3625   917   919    1
  3626   917   935    1
  3627  2571  2577   ar
  3628  2571  2572   ar
  3629  3267  3269    1
  3630  3267  3268    1
  3631  2508  2506    1
  3632  2512  2511   ar
  3633  2512  2514   ar
  3634   919   918    1
  3635  2595  2594   ar
  3636  2107  2106    2
  3637   954   955   ar
  3638   956   946    1
  3639   956   955   ar
  3640  3264  3269    1
  3641  2573  2572    1
  3642  2049  2048    1
  3643  1223  1222   ar
  3644  2577  2576   ar
  3645   922   923    1
  3646  1226  1227    1
  3647  1226  1221   ar
  3648  2598  2600   ar
  3649  2066  2067   ar
  3650   946   941    1
  3651   946   944    1
  3652  2503  2502    1
  3653  2503  2501    1
  3654   941   940    1
  3655  1176  1174    1
  3656  1176  1178    1
  3657  2511  2518   ar
  3658  2034  2035   ar
  3659  2063  2062   ar
  3660  2063  2057   ar
  3661  2037  2035   ar
  3662  2556  2555    1
  3663  2507  2506    1
  3664  2507  2521    1
  3665  2606  2604    1
  3666  1171  1190    1
  3667  1171  1173    1
  3668  1171  1155    1
  3669  1195  1200    1
  3670  2062  2061   ar
  3671  1172  1173    1
  3672  1172  1174    1
  3673  2572  2574   ar
  3674  1222  1221   ar
  3675  2514  2515   ar
  3676  1208  1207   ar
  3677  1208  1201   ar
  3678  2540  2521    2
  3679  2535  2537   ar
  3680  2535  2534   ar
  3681  2537  2538   ar
  3682  1200  1201    1
  3683  2085  2084    2
  3684  2520  2501    2
  3685  1174  1175    1
  3686  1207  1205   ar
  3687  2035  2036    1
  3688  2106  2100   ar
  3689  2106  2105   ar
  3690  1201  1202   ar
  3691  2100  2101   ar
  3692  2048  2050    1
  3693  2592  2591    1
  3694  2594  2593    1
  3695  2594  2601   ar
  3696  1179  1178    1
  3697  2591  2593    1
  3698  2591  2589    1
  3699   923   937    1
  3700  1178  1180    1
  3701   945   944    1
  3702  2501  2485    1
  3703  2501  2519    1
  3704  2521  2539    1
  3705  2521  2523    1
  3706   971   970    2
  3707   944   942    1
  3708  2600  2601   ar
  3709  2067  2061   ar
  3710  2067  2056    1
  3711  2576  2575   ar
  3712  2576  2579   ar
  3713   940   938    1
  3714   940   942    1
  3715  2518  2517   ar
  3716  2057  2058   ar
  3717  1155  1154    1
  3718  2555  2554   ar
  3719  2555  2557   ar
  3720   972   970   ar
  3721   972   973   ar
  3722  2593  2588    1
  3723  2061  2060   ar
  3724  1205  1206    1
  3725  1205  1204   ar
  3726   970   969   ar
  3727  2084  2086   ar
  3728  2084  2083   ar
  3729  1202  1204   ar
  3730  1202  1203    2
  3731   974   973    2
  3732  2534  2532   ar
  3733  2574  2575   ar
  3734  2515  2517   ar
  3735  2515  2516    2
  3736  2485  2484    1
  3737  2051  2050    1
  3738  2051  2056    1
  3739  2538  2531   ar
  3740  2086  2087   ar
  3741   938   939    1
  3742  2604  2622    2
  3743  2604  2623    1
  3744  2604  2590    1
  3745   973   975   ar
  3746  2089  2070    2
  3747  2554  2552   ar
  3748  2105  2108   ar
  3749  2105  2104   ar
  3750  2102  2101    1
  3751  2575  2581   ar
  3752  2050  2052    1
  3753  2579  2580   ar
  3754  2101  2103   ar
  3755   969   968    1
  3756   969   976   ar
  3757   939   937    1
  3758  1175  1180    1
  3759   942   943    1
  3760  2589  2590    1
  3761  2589  2587    1
  3762  2523  2522    1
  3763  2490  2491   ar
  3764  2490  2489   ar
  3765  2491  2492   ar
  3766   968   963    1
  3767   968   966    1
  3768  2557  2558   ar
  3769  2056  2054    1
  3770  2487  2486    1
  3771  2108  2109   ar
  3772   975   976   ar
  3773  1180  1181    1
  3774   937   958    2
  3775   937   957    1
  3776   963   962    1
  3777   991   990    1
  3778  2052  2054    1
  3779  2052  2053    1
  3780  2058  2060   ar
  3781  2058  2059    1
  3782  1154  1156    1
  3783  1154  1152    1
  3784  1188  1181   ar
  3785  1188  1187   ar
  3786  2083  2081   ar
  3787  2532  2531   ar
  3788  2532  2533    2
  3789  2588  2587    1
  3790  2531  2530    1
  3791  1181  1182   ar
  3792  2087  2080   ar
  3793   990   989   ar
  3794   990   992   ar
  3795  2484  2486    1
  3796  2484  2482    1
  3797  2488  2486    1
  3798  2488  2483    1
  3799  2488  2498    1
  3800   989   995   ar
  3801  2104  2103   ar
  3802  2104  2110   ar
  3803  1169  1149    2
  3804  2489  2494   ar
  3805  1157  1156    1
  3806  1187  1185   ar
  3807  2054  2055    1
  3808  2580  2581   ar
  3809  2552  2553    2
  3810  2552  2551   ar
  3811  2070  2053    1
  3812  2070  2088    1
  3813  2070  2072    1
  3814   967   966    1
  3815  2581  2570    1
  3816  1150  1152    1
  3817  1150  1151    1
  3818   992   993   ar
  3819   943   959    1
  3820  2587  2585    1
  3821  2492  2498   ar
  3822  2492  2493   ar
  3823  1156  1158    1
  3824   966   964    1
  3825  1152  1153    1
  3826  1182  1183    2
  3827  1182  1184   ar
  3828   995   996    2
  3829   995   994   ar
  3830  2522  2524    1
  3831  2483  2482    1
  3832  1151  1149    1
  3833  2558  2551   ar
  3834  2109  2110   ar
  3835   962   960    1
  3836   962   964    1
  3837  2482  2480    1
  3838   993   994   ar
  3839   993   999   ar
  3840  2498  2497   ar
  3841  1185  1184   ar
  3842  1185  1186    1
  3843  2525  2530    1
  3844  2525  2524    1
  3845   994   997   ar
  3846  2081  2080   ar
  3847  2081  2082    2
  3848  2080  2079    1
  3849  2551  2550    1
  3850  2072  2071    1
  3851  1149  1170    1
  3852  1149  1135    1
  3853  2110  2099    1
  3854  2530  2528    1
  3855   960   961    1
  3856   999   988    1
  3857   999   998   ar
  3858   988   983    1
  3859   988   986    1
  3860  2560  2541    2
  3861  1014  1013    1
  3862  2494  2493   ar
  3863  2494  2495    1
  3864   997   998   ar
  3865  2586  2585    1
  3866  2586  2584    1
  3867  2524  2526    1
  3868  2570  2568    1
  3869  2570  2565    1
  3870   964   965    1
  3871   961   959    1
  3872  2493  2496   ar
  3873   983   982    1
  3874  2568  2569    1
  3875  2568  2566    1
  3876  2526  2528    1
  3877  2526  2527    1
  3878   959   978    2
  3879   959   977    1
  3880  1153  1158    1
  3881  1158  1168    1
  3882  1013  1015   ar
  3883  1013  1012   ar
  3884   987   986    1
  3885  2528  2529    1
  3886  2603  2584    2
  3887  1015  1016   ar
  3888  2480  2481    1
  3889  2112  2090    2
  3890  2497  2496   ar
  3891  1012  1018   ar
  3892  2074  2079    1
  3893  2074  2073    1
  3894   986   984    1
  3895  2079  2077    1
  3896  1135  1134    1
  3897  2134  2113    2
  3898  2071  2073    1
  3899  1168  1162   ar
  3900  1168  1167   ar
  3901  2566  2567    1
  3902  2566  2564    1
  3903  2099  2097    1
  3904  2099  2094    1
  3905  2550  2548    1
  3906  2550  2545    1
  3907  1161  1162   ar
  3908  1161  1160   ar
  3909  1016  1022   ar
  3910  1016  1017   ar
  3911  2565  2564    1
  3912  2584  2567    1
  3913  2584  2602    1
  3914   965   979    1
  3915  2541  2527    1
  3916  2541  2543    1
  3917  2541  2559    1
  3918  2583  2561    2
  3919  1011  1006    1
  3920  1011  1022    1
  3921  1011  1009    1
  3922  2448  2449   ar
  3923  2448  2447   ar
  3924  1018  1017   ar
  3925  1018  1019    2
  3926  1162  1163   ar
  3927   982   984    1
  3928   982   980    1
  3929  2097  2095    1
  3930  2097  2098    1
  3931  1167  1166   ar
  3932  2543  2542    1
  3933  2255  2254    1
  3934  1006  1005    1
  3935  2481  2479    1
  3936  1022  1021   ar
  3937  2075  2073    1
  3938  2075  2077    1
  3939  2075  2076    1
  3940  1017  1020   ar
  3941  1160  1159   ar
  3942  2548  2546    1
  3943  2548  2549    1
  3944  2425  2426   ar
  3945  2425  2430   ar
  3946  2251  2256    1
  3947  2251  2250    1
  3948  1010  1009    1
  3949  2077  2078    1
  3950  2449  2450   ar
  3951  2256  2254    1
  3952  2256  2267    1
  3953  2545  2544    1
  3954  2426  2427   ar
  3955  1163  1166   ar
  3956  1163  1164   ar
  3957  2563  2561    1
  3958  2563  2562    1
  3959  2094  2093    1
  3960  2447  2452   ar
  3961  2092  2090    1
  3962  2092  2091    1
  3963  1021  1020   ar
  3964  2095  2093    1
  3965  2095  2096    1
  3966  2546  2544    1
  3967  2546  2547    1
  3968  2564  2562    1
  3969  2445  2444    1
  3970   984   985    1
  3971  2090  2076    1
  3972  2090  2111    1
  3973  1159  1164   ar
  3974   980   981    1
  3975  1134  1136    1
  3976  1134  1132    1
  3977  1164  1165    1
  3978  2250  2248    1
  3979  2250  2252    1
  3980  1009  1007    1
  3981  2113  2135    1
  3982  2113  2096    1
  3983  2113  2115    1
  3984   981   979    1
  3985  2431  2430    1
  3986  2254  2252    1
  3987  2561  2547    1
  3988  2561  2582    1
  3989  2267  2261   ar
  3990  2267  2266   ar
  3991  1005  1003    1
  3992  1005  1007    1
  3993  2260  2261   ar
  3994  2260  2258   ar
  3995   979  1001    2
  3996   979  1000    1
  3997  2544  2542    1
  3998  2430  2429   ar
  3999  1136  1137    1
  4000  1136  1138    1
  4001  2259  2258    1
  4002  2093  2091    1
  4003  2261  2262   ar
  4004  2467  2466    1
  4005  2248  2249    1
  4006  2427  2428   ar
  4007  2258  2257   ar
  4008  2450  2456   ar
  4009  2450  2451   ar
  4010  2266  2265   ar
  4011  2479  2499    2
  4012  2479  2500    1
  4013  2479  2465    1
  4014   985  1002    1
  4015  2444  2446    1
  4016  2444  2442    1
  4017  2252  2253    1
  4018  2452  2451   ar
  4019  2452  2453    1
  4020  1003  1004    1
  4021  2446  2456    1
  4022  2446  2441    1
  4023  1132  1130    1
  4024  1132  1133    1
  4025  1130  1131    1
  4026  2114  2115    1
  4027  2114  2116    1
  4028  1007  1008    1
  4029  2464  2466    1
  4030  2464  2465    1
  4031  2464  2462    1
  4032  2466  2468    1
  4033  2253  2270    1
  4034  1029  1034    1
  4035  1029  1028    1
  4036  2262  2265   ar
  4037  2262  2263   ar
  4038  2257  2263   ar
  4039  2268  2247    2
  4040  2456  2455   ar
  4041  1141  1140    2
  4042  1034  1035    1
  4043  1034  1032    1
  4044  2451  2454   ar
  4045  2274  2273    1
  4046  2274  2279    1
  4047  1004  1002    1
  4048  2429  2428   ar
  4049  2429  2432   ar
  4050  1037  1036    2
  4051  2428  2434   ar
  4052  2271  2273    1
  4053  2271  2272    1
  4054  2263  2264    2
  4055  1140  1142   ar
  4056  1140  1139   ar
  4057  1138  1139    1
  4058  1138  1133    1
  4059  2460  2462    1
  4060  2460  2461    1
  4061  2249  2247    1
  4062  1008  1025    1
  4063  1033  1032    1
  4064  2273  2275    1
  4065  1035  1036   ar
  4066  1035  1042   ar
  4067  2441  2440    1
  4068  1142  1143   ar
  4069  1036  1038   ar
  4070  1139  1146   ar
  4071  2478  2459    2
  4072  1028  1026    1
  4073  1028  1030    1
  4074  1002  1024    2
  4075  1002  1023    1
  4076  2443  2442    1
  4077  2443  2459    1
  4078  2442  2440    1
  4079  1131  1129    1
  4080  2462  2463    1
  4081  1042  1041   ar
  4082  1143  1144    1
  4083  1143  1145   ar
  4084  2247  2269    1
  4085  2247  2233    1
  4086  2279  2289    1
  4087  2279  2277    1
  4088  1146  1145   ar
  4089  1038  1039   ar
  4090  1026  1027    1
  4091  2440  2438    1
  4092  2116  2117    1
  4093  2116  2118    1
  4094  1147  1129    2
  4095  1032  1030    1
  4096  2270  2272    1
  4097  2270  2290    2
  4098  2270  2291    1
  4099  2455  2454   ar
  4100  2476  2475   ar
  4101  2476  2469   ar
  4102  1041  1039   ar
  4103  2468  2469    1
  4104  2468  2463    1
  4105  1148  1129    1
  4106  1039  1040    1
  4107  2432  2433   ar
  4108  2278  2277    1
  4109  2459  2461    1
  4110  2459  2477    1
  4111  1129  1115    1
  4112  2117  2122    1
  4113  2434  2424    1
  4114  2434  2433   ar
  4115  2289  2288   ar
  4116  2289  2283   ar
  4117  2475  2473   ar
  4118  1027  1025    1
  4119  2469  2470   ar
  4120  2288  2287   ar
  4121  1030  1031    1
  4122  2423  2422    1
  4123  1025  1043    2
  4124  1025  1044    1
  4125  2275  2277    1
  4126  2275  2276    1
  4127  2158  2136    2
  4128  2119  2118    1
  4129  2119  2136    1
  4130  2157  2136    1
  4131  2422  2424    1
  4132  2422  2420    1
  4133  2118  2120    1
  4134  2283  2282   ar
  4135  2283  2284   ar
  4136  2424  2419    1
  4137  2282  2281   ar
  4138  2233  2232    1
  4139  2287  2284   ar
  4140  2276  2292    1
  4141  2136  2138    1
  4142  2132  2131   ar
  4143  2132  2133   ar
  4144  2438  2439    1
  4145  1031  1045    1
  4146  2473  2474    1
  4147  2473  2472   ar
  4148  2470  2471    2
  4149  2470  2472   ar
  4150  2284  2285   ar
  4151  2235  2234    1
  4152  2281  2280   ar
  4153  2122  2133    1
  4154  2122  2120    1
  4155  1115  1114    1
  4156  2131  2128   ar
  4157  2407  2406    2
  4158  2285  2280   ar
  4159  2285  2286    1
  4160  2439  2437    1
  4161  2133  2127   ar
  4162  2120  2121    1
  4163  2420  2421    1
  4164  2420  2418    1
  4165  2234  2232    1
  4166  2234  2236    1
  4167  2403  2402    1
  4168  2232  2230    1
  4169  2419  2418    1
  4170  1116  1117    1
  4171  1116  1114    1
  4172  1116  1118    1
  4173  2292  2310    2
  4174  2292  2311    1
  4175  2292  2294    1
  4176  2421  2437    1
  4177  2384  2383    1
  4178  1114  1112    1
  4179  2138  2137    1
  4180  2239  2238    2
  4181  1045  1064    2
  4182  1045  1047    1
  4183  1045  1063    1
  4184  1121  1120    2
  4185  1049  1048    1
  4186  1049  1054    1
  4187  1046  1047    1
  4188  1046  1048    1
  4189  1122  1120   ar
  4190  1122  1123   ar
  4191  1124  1123    2
  4192  2406  2408   ar
  4193  2406  2405   ar
  4194  1120  1119   ar
  4195  2418  2416    1
  4196  2128  2127   ar
  4197  2128  2129   ar
  4198  1123  1125   ar
  4199  2293  2294    1
  4200  2293  2295    1
  4201  2402  2404    1
  4202  2402  2400    1
  4203  2437  2458    2
  4204  2437  2457    1
  4205  2127  2126   ar
  4206  2408  2409   ar
  4207  2230  2228    1
  4208  2230  2231    1
  4209  1062  1061   ar
  4210  1062  1055   ar
  4211  1061  1059   ar
  4212  2137  2139    1
  4213  1119  1118    1
  4214  1119  1126   ar
  4215  1048  1050    1
  4216  1125  1126   ar
  4217  2404  2405    1
  4218  2404  2399    1
  4219  2382  2383   ar
  4220  2382  2388   ar
  4221  2236  2231    1
  4222  2236  2237    1
  4223  1118  1113    1
  4224  2383  2385   ar
  4225  1054  1055    1
  4226  1054  1052    1
  4227  1055  1056   ar
  4228  2296  2295    1
  4229  2296  2301    1
  4230  2199  2198    2
  4231  1059  1060    2
  4232  1059  1058   ar
  4233  2238  2237   ar
  4234  2238  2240   ar
  4235  2417  2416    1
  4236  2417  2415    1
  4237  2405  2412   ar
  4238  1112  1110    1
  4239  1112  1113    1
  4240  2295  2297    1
  4241  2228  2229    1
  4242  1111  1110    1
  4243  1111  1109    1
  4244  2308  2306   ar
  4245  2308  2309   ar
  4246  2307  2306    2
  4247  2154  2155   ar
  4248  2154  2151   ar
  4249  2129  2130    2
  4250  2129  2123   ar
  4251  1056  1058   ar
  4252  1056  1057    2
  4253  2155  2156   ar
  4254  2401  2400    1
  4255  2401  2415    1
  4256  2306  2305   ar
  4257  2237  2244   ar
  4258  2309  2302   ar
  4259  2126  2124   ar
  4260  1128  1109    2
  4261  2389  2388    2
  4262  2400  2398    1
  4263  2435  2415    2
  4264  2409  2410    2
  4265  2409  2411   ar
  4266  2240  2241   ar
  4267  2229  2227    1
  4268  2388  2387   ar
  4269  2399  2398    1
  4270  2305  2303   ar
  4271  2245  2227    2
  4272  2302  2303   ar
  4273  2302  2301    1
  4274  2415  2436    1
  4275  2385  2386   ar
  4276  2139  2140    1
  4277  2139  2141    1
  4278  1050  1052    1
  4279  1050  1051    1
  4280  1109  1127    1
  4281  1109  1093    1
  4282  2303  2304    2
  4283  2398  2396    1
  4284  2198  2192   ar
  4285  2198  2197   ar
  4286  2301  2299    1
  4287  2181  2159    2
  4288  2140  2145    1
  4289  1052  1053    1
  4290  1103  1102    1
  4291  2412  2411   ar
  4292  2192  2193   ar
  4293  2153  2152    2
  4294  2123  2124   ar
  4295  2124  2125    1
  4296  2141  2142    1
  4297  2141  2143    1
  4298  2151  2152   ar
  4299  2151  2150   ar
  4300  2297  2299    1
  4301  2297  2298    1
  4302  2227  2246    1
  4303  2227  2211    1
  4304  2244  2243   ar
  4305  2156  2145    1
  4306  2156  2150   ar
  4307  2327  2326    1
  4308  1102  1097   ar
  4309  1102  1101   ar
  4310  1097  1098   ar
  4311  2142  2159    1
  4312  2180  2159    1
  4313  2176  2175    2
  4314  1051  1065    1
  4315  2241  2243   ar
  4316  2241  2242    1
  4317  2386  2387   ar
  4318  2386  2392   ar
  4319  2387  2390   ar
  4320  2331  2312    2
  4321  2159  2161    1
  4322  2299  2300    1
  4323  2152  2146   ar
  4324  2145  2143    1
  4325  2197  2200   ar
  4326  2197  2196   ar
  4327  2177  2178   ar
  4328  2177  2174   ar
  4329  1101  1104   ar
  4330  1101  1100   ar
  4331  1098  1099   ar
  4332  2298  2312    1
  4333  2200  2201   ar
  4334  1104  1105   ar
  4335  2150  2149   ar
  4336  1093  1092    1
  4337  2396  2397    1
  4338  2367  2366    1
  4339  2347  2346    1
  4340  2193  2194    1
  4341  2193  2195   ar
  4342  2328  2326   ar
  4343  2328  2329   ar
  4344  2143  2144    1
  4345  1100  1099   ar
  4346  1100  1106   ar
  4347  1108  1087    2
  4348  2326  2325   ar
  4349  2211  2210    1
  4350  2213  2212    1
  4351  1092  1094    1
  4352  1092  1090    1
  4353  1094  1095    1
  4354  1094  1096    1
  4355  2175  2174   ar
  4356  2175  2169   ar
  4357  1086  1065    2
  4358  2312  2330    1
  4359  2312  2314    1
  4360  1105  1106   ar
  4361  2178  2179   ar
  4362  2174  2173   ar
  4363  2390  2391   ar
  4364  2392  2381    1
  4365  2392  2391   ar
  4366  1065  1085    1
  4367  1065  1067    1
  4368  1106  1096    1
  4369  2397  2395    1
  4370  2380  2379    1
  4371  2146  2147   ar
  4372  2196  2195   ar
  4373  2196  2202   ar
  4374  2379  2381    1
  4375  2379  2377    1
  4376  2161  2160    1
  4377  1089  1087    1
  4378  1089  1088    1
  4379  2201  2202   ar
  4380  2365  2366   ar
  4381  2365  2363   ar
  4382  2366  2368   ar
  4383  1081  1080    1
  4384  2210  2212    1
  4385  2210  2208    1
  4386  2381  2376    1
  4387  2149  2147   ar
  4388  2329  2322   ar
  4389  2160  2162    1
  4390  1096  1091    1
  4391  1087  1107    1
  4392  1087  1071    1
  4393  2346  2348   ar
  4394  2346  2345   ar
  4395  2212  2214    1
  4396  2325  2323   ar
  4397  1067  1066    1
  4398  2169  2170   ar
  4399  2204  2182    2
  4400  2314  2313    1
  4401  1082  1079   ar
  4402  1082  1083   ar
  4403  2147  2148    1
  4404  1090  1088    1
  4405  1090  1091    1
  4406  2179  2173   ar
  4407  2179  2168    1
  4408  2202  2191    1
  4409  2173  2172   ar
  4410  2348  2349   ar
  4411  1080  1079   ar
  4412  1080  1075   ar
  4413  2345  2343   ar
  4414  1079  1078   ar
  4415  2377  2378    1
  4416  2377  2375    1
  4417  1083  1084   ar
  4418  2163  2162    1
  4419  2163  2168    1
  4420  2395  2378    1
  4421  2395  2414    2
  4422  2395  2413    1
  4423  2363  2364    2
  4424  2363  2362   ar
  4425  2368  2369   ar
  4426  2214  2209    1
  4427  2214  2224    1
  4428  2322  2323   ar
  4429  2322  2321    1
  4430  2162  2164    1
  4431  2208  2209    1
  4432  2208  2206    1
  4433  2323  2324    2
  4434  2376  2375    1
  4435  1075  1076   ar
  4436  1070  1071    1
  4437  1070  1072    1
  4438  1070  1068    1
  4439  1066  1068    1
  4440  2170  2172   ar
  4441  2170  2171    1
  4442  2313  2315    1
  4443  2168  2166    1
  4444  2164  2166    1
  4445  2164  2165    1
  4446  2351  2332    2
  4447  2182  2184    1
  4448  2182  2165    1
  4449  2182  2203    1
  4450  1078  1084   ar
  4451  1078  1077   ar
  4452  1084  1074    1
  4453  2207  2206    1
  4454  2207  2205    1
  4455  2375  2373    1
  4456  2191  2189    1
  4457  2191  2186    1
  4458  2349  2342   ar
  4459  2224  2223   ar
  4460  2224  2218   ar
  4461  1072  1074    1
  4462  1072  1073    1
  4463  2184  2183    1
  4464  2316  2321    1
  4465  2316  2315    1
  4466  2343  2342   ar
  4467  2343  2344    2
  4468  2226  2205    2
  4469  2362  2369   ar
  4470  2362  2361    1
  4471  1076  1077   ar
  4472  1068  1069    1
  4473  2189  2187    1
  4474  2189  2190    1
  4475  2223  2222   ar
  4476  2166  2167    1
  4477  2321  2319    1
  4478  2315  2317    1
  4479  2187  2188    1
  4480  2187  2185    1
  4481  2317  2319    1
  4482  2317  2318    1
  4483  1074  1069    1
  4484  2186  2185    1
  4485  2342  2341    1
  4486  2218  2217   ar
  4487  2218  2219   ar
  4488  2217  2216   ar
  4489  2205  2188    1
  4490  2205  2225    1
  4491  2374  2373    1
  4492  2374  2372    1
  4493  2319  2320    1
  4494  2332  2318    1
  4495  2332  2334    1
  4496  2332  2350    1
  4497  2222  2219   ar
  4498  2185  2183    1
  4499  2361  2359    1
  4500  2361  2356    1
  4501  2219  2220   ar
  4502  2359  2360    1
  4503  2359  2357    1
  4504  2216  2215   ar
  4505  2334  2333    1
  4506  2394  2372    2
  4507  2371  2352    2
  4508  2341  2336    1
  4509  2341  2339    1
  4510  2372  2358    1
  4511  2372  2393    1
  4512  2220  2215   ar
  4513  2220  2221    1
  4514  2357  2358    1
  4515  2357  2355    1
  4516  2356  2355    1
  4517  2336  2335    1
  4518  2339  2337    1
  4519  2339  2340    1
  4520  2337  2335    1
  4521  2337  2338    1
  4522  2354  2352    1
  4523  2354  2353    1
  4524  2333  2335    1
  4525  2352  2338    1
  4526  2352  2370    1
  4527  2355  2353    1
