ligand
 OpenBabel11021811463D
libRbt.so/2013.1/901 2013/11/27
 10  9  0  0  0  0  0  0  0  0999 V2000
   24.1485   41.5710   22.9729 N   0  0  0  0  0  0  0  0  0  0  0  0
   23.9193   40.3625   22.1905 C   0  0  2  0  0  0  0  0  0  0  0  0
   23.9927   39.1188   23.0744 C   0  0  0  0  0  0  0  0  0  0  0  0
   23.2170   38.1791   22.8764 O   0  0  0  0  0  0  0  0  0  0  0  0
   24.9160   40.2689   21.0311 C   0  0  0  0  0  0  0  0  0  0  0  0
   24.6656   41.2895   19.9275 C   0  0  0  0  0  0  0  0  0  0  0  0
   25.7475   41.2542   18.8519 C   0  0  0  0  0  0  0  0  0  0  0  0
   25.4457   42.2254   17.6996 C   0  0  0  0  0  0  0  0  0  0  0  0
   25.2968   43.6558   18.1160 N   0  0  0  0  0  0  0  0  0  0  0  0
   24.8273   39.0199   23.9836 O   0  0  0  0  0  0  0  0  0  0  0  0
  2  1  1  1  0  0  0
  2  3  1  0  0  0  0
  2  5  1  0  0  0  0
  3  4  1  0  0  0  0
  3 10  1  0  0  0  0
  5  6  1  0  0  0  0
  6  7  1  0  0  0  0
  7  8  1  0  0  0  0
  8  9  1  0  0  0  0
M  END
>  <CHROM.1>
141.97431400,-70.74196790,174.79856900,176.55772113,58.24544096,24.61486269
40.66027899,21.10186525,2.98317138,-1.34357860,-2.71130220

>  <Name>
ligand

>  <RI>
0

>  <Rbt.Current_Directory>
/home/itssahil/PROJECTS/Mol_Feturizer/New_Systems/rnas/3D0U

>  <Rbt.Executable>
rbdock ($Id: //depot/dev/client3/rdock/2013.1/src/exe/rbdock.cxx#4 $)

>  <Rbt.Library>
libRbt.so (2013.1, Build901 2013/11/27)

>  <Rbt.Parameter_File>
/export/apps/rDock/src/rDock_2013.1_src/data/scripts/dock_solv.prm

>  <Rbt.Receptor>
prm/blind_docking_60.prm

>  <SCORE>
-7.77652

>  <SCORE.INTER>
-7.49986

>  <SCORE.INTER.CONST>
1

>  <SCORE.INTER.POLAR>
0

>  <SCORE.INTER.ROT>
5

>  <SCORE.INTER.SOLV>
15.4449

>  <SCORE.INTER.VDW>
-17.0815

>  <SCORE.INTER.norm>
-0.749986

>  <SCORE.INTRA>
-0.276654

>  <SCORE.INTRA.DIHEDRAL>
-0.133717

>  <SCORE.INTRA.DIHEDRAL.0>
2.22229

>  <SCORE.INTRA.POLAR>
0

>  <SCORE.INTRA.POLAR.0>
0

>  <SCORE.INTRA.REPUL>
0

>  <SCORE.INTRA.REPUL.0>
0

>  <SCORE.INTRA.SOLV>
0.0627976

>  <SCORE.INTRA.SOLV.lig_0>
-31.87

>  <SCORE.INTRA.VDW>
-0.241195

>  <SCORE.INTRA.VDW.0>
-0.575321

>  <SCORE.INTRA.norm>
-0.0276654

>  <SCORE.RESTR>
0

>  <SCORE.RESTR.CAVITY>
0

>  <SCORE.RESTR.norm>
0

>  <SCORE.SYSTEM>
0

>  <SCORE.SYSTEM.CONST>
0

>  <SCORE.SYSTEM.DIHEDRAL>
0

>  <SCORE.SYSTEM.SOLV>
0

>  <SCORE.SYSTEM.norm>
0

>  <SCORE.heavy>
10

>  <SCORE.norm>
-0.777652

>  <RMSD>
0.908

$$$$
ligand
 OpenBabel11021811463D
libRbt.so/2013.1/901 2013/11/27
 10  9  0  0  0  0  0  0  0  0999 V2000
   24.3588   41.4856   23.1204 N   0  0  0  0  0  0  0  0  0  0  0  0
   24.0755   40.2834   22.3460 C   0  0  2  0  0  0  0  0  0  0  0  0
   24.0649   39.0470   23.2432 C   0  0  0  0  0  0  0  0  0  0  0  0
   24.9404   38.9051   24.1019 O   0  0  0  0  0  0  0  0  0  0  0  0
   25.0844   40.1221   21.2048 C   0  0  0  0  0  0  0  0  0  0  0  0
   24.9195   41.1530   20.0946 C   0  0  0  0  0  0  0  0  0  0  0  0
   26.0110   41.0393   19.0342 C   0  0  0  0  0  0  0  0  0  0  0  0
   25.7305   41.9393   17.8205 C   0  0  0  0  0  0  0  0  0  0  0  0
   25.4766   43.3757   18.1580 N   0  0  0  0  0  0  0  0  0  0  0  0
   23.1848   38.1821   23.1421 O   0  0  0  0  0  0  0  0  0  0  0  0
  2  1  1  1  0  0  0
  2  3  1  0  0  0  0
  2  5  1  0  0  0  0
  3  4  1  0  0  0  0
  3 10  1  0  0  0  0
  5  6  1  0  0  0  0
  6  7  1  0  0  0  0
  7  8  1  0  0  0  0
  8  9  1  0  0  0  0
M  END
>  <CHROM.1>
-43.34408009,-70.09038485,175.14126415,171.80913269,53.24736009,24.77976824
40.51998473,21.25689633,2.95480755,-1.31190418,-2.77497444

>  <Name>
ligand

>  <RI>
0

>  <Rbt.Current_Directory>
/home/itssahil/PROJECTS/Mol_Feturizer/New_Systems/rnas/3D0U

>  <Rbt.Executable>
rbdock ($Id: //depot/dev/client3/rdock/2013.1/src/exe/rbdock.cxx#4 $)

>  <Rbt.Library>
libRbt.so (2013.1, Build901 2013/11/27)

>  <Rbt.Parameter_File>
/export/apps/rDock/src/rDock_2013.1_src/data/scripts/dock_solv.prm

>  <Rbt.Receptor>
prm/pocket_docking_3.prm

>  <SCORE>
-7.65488

>  <SCORE.INTER>
-7.66532

>  <SCORE.INTER.CONST>
1

>  <SCORE.INTER.POLAR>
0

>  <SCORE.INTER.ROT>
5

>  <SCORE.INTER.SOLV>
15.2828

>  <SCORE.INTER.VDW>
-17.1378

>  <SCORE.INTER.norm>
-0.766532

>  <SCORE.INTRA>
0.0104491

>  <SCORE.INTRA.DIHEDRAL>
0.236852

>  <SCORE.INTRA.DIHEDRAL.0>
2.22229

>  <SCORE.INTRA.POLAR>
0

>  <SCORE.INTRA.POLAR.0>
0

>  <SCORE.INTRA.REPUL>
0

>  <SCORE.INTRA.REPUL.0>
0

>  <SCORE.INTRA.SOLV>
0.127828

>  <SCORE.INTRA.SOLV.lig_0>
-31.87

>  <SCORE.INTRA.VDW>
-0.171891

>  <SCORE.INTRA.VDW.0>
-0.575321

>  <SCORE.INTRA.norm>
0.00104491

>  <SCORE.RESTR>
0

>  <SCORE.RESTR.CAVITY>
0

>  <SCORE.RESTR.norm>
0

>  <SCORE.SYSTEM>
0

>  <SCORE.SYSTEM.CONST>
0

>  <SCORE.SYSTEM.DIHEDRAL>
0

>  <SCORE.SYSTEM.SOLV>
0

>  <SCORE.SYSTEM.norm>
0

>  <SCORE.heavy>
10

>  <SCORE.norm>
-0.765488

>  <RMSD>
1.047

$$$$
ligand
 OpenBabel11021811463D
libRbt.so/2013.1/901 2013/11/27
 10  9  0  0  0  0  0  0  0  0999 V2000
   23.4680   41.2502   22.8000 N   0  0  0  0  0  0  0  0  0  0  0  0
   23.6686   39.9709   22.1304 C   0  0  2  0  0  0  0  0  0  0  0  0
   23.8158   38.8405   23.1475 C   0  0  0  0  0  0  0  0  0  0  0  0
   23.2286   37.7702   22.9639 O   0  0  0  0  0  0  0  0  0  0  0  0
   24.8832   40.0299   21.1990 C   0  0  0  0  0  0  0  0  0  0  0  0
   24.7075   40.9886   20.0276 C   0  0  0  0  0  0  0  0  0  0  0  0
   25.9507   41.0562   19.1451 C   0  0  0  0  0  0  0  0  0  0  0  0
   25.7500   41.9858   17.9379 C   0  0  0  0  0  0  0  0  0  0  0  0
   25.3579   43.3869   18.2914 N   0  0  0  0  0  0  0  0  0  0  0  0
   24.5271   38.9641   24.1532 O   0  0  0  0  0  0  0  0  0  0  0  0
  2  1  1  1  0  0  0
  2  3  1  0  0  0  0
  2  5  1  0  0  0  0
  3  4  1  0  0  0  0
  3 10  1  0  0  0  0
  5  6  1  0  0  0  0
  6  7  1  0  0  0  0
  7  8  1  0  0  0  0
  8  9  1  0  0  0  0
M  END
>  <CHROM.1>
136.32532058,-65.39504797,178.20109978,177.96063990,56.65297340,24.53385740
40.39213653,21.21140675,2.28692408,-1.11758455,2.84648448

>  <Name>
ligand

>  <RI>
0

>  <Rbt.Current_Directory>
/home/itssahil/PROJECTS/Mol_Feturizer/New_Systems/rnas/3D0U

>  <Rbt.Executable>
rbdock ($Id: //depot/dev/client3/rdock/2013.1/src/exe/rbdock.cxx#4 $)

>  <Rbt.Library>
libRbt.so (2013.1, Build901 2013/11/27)

>  <Rbt.Parameter_File>
/export/apps/rDock/src/rDock_2013.1_src/data/scripts/dock_solv.prm

>  <Rbt.Receptor>
prm/pocket_docking_6.prm

>  <SCORE>
-8.17833

>  <SCORE.INTER>
-7.77192

>  <SCORE.INTER.CONST>
1

>  <SCORE.INTER.POLAR>
0

>  <SCORE.INTER.ROT>
5

>  <SCORE.INTER.SOLV>
14.6585

>  <SCORE.INTER.VDW>
-17.0008

>  <SCORE.INTER.norm>
-0.777192

>  <SCORE.INTRA>
-0.406413

>  <SCORE.INTRA.DIHEDRAL>
-0.569796

>  <SCORE.INTRA.DIHEDRAL.0>
2.22229

>  <SCORE.INTRA.POLAR>
0

>  <SCORE.INTRA.POLAR.0>
0

>  <SCORE.INTRA.REPUL>
0

>  <SCORE.INTRA.REPUL.0>
0

>  <SCORE.INTRA.SOLV>
0.137142

>  <SCORE.INTRA.SOLV.lig_0>
-31.87

>  <SCORE.INTRA.VDW>
-0.190086

>  <SCORE.INTRA.VDW.0>
-0.575321

>  <SCORE.INTRA.norm>
-0.0406413

>  <SCORE.RESTR>
0

>  <SCORE.RESTR.CAVITY>
0

>  <SCORE.RESTR.norm>
0

>  <SCORE.SYSTEM>
0

>  <SCORE.SYSTEM.CONST>
0

>  <SCORE.SYSTEM.DIHEDRAL>
0

>  <SCORE.SYSTEM.SOLV>
0

>  <SCORE.SYSTEM.norm>
0

>  <SCORE.heavy>
10

>  <SCORE.norm>
-0.817833

>  <RMSD>
1.071

$$$$
ligand
 OpenBabel11021811463D
libRbt.so/2013.1/901 2013/11/27
 10  9  0  0  0  0  0  0  0  0999 V2000
   23.4470   41.2551   22.7724 N   0  0  0  0  0  0  0  0  0  0  0  0
   23.6813   39.9652   22.1349 C   0  0  2  0  0  0  0  0  0  0  0  0
   23.8391   38.8616   23.1795 C   0  0  0  0  0  0  0  0  0  0  0  0
   24.5773   39.0396   24.1527 O   0  0  0  0  0  0  0  0  0  0  0  0
   24.9055   40.0276   21.2164 C   0  0  0  0  0  0  0  0  0  0  0  0
   24.7283   40.9632   20.0267 C   0  0  0  0  0  0  0  0  0  0  0  0
   25.9789   41.0319   19.1547 C   0  0  0  0  0  0  0  0  0  0  0  0
   25.7673   41.9126   17.9131 C   0  0  0  0  0  0  0  0  0  0  0  0
   25.3720   43.3250   18.2137 N   0  0  0  0  0  0  0  0  0  0  0  0
   23.2290   37.7886   23.0837 O   0  0  0  0  0  0  0  0  0  0  0  0
  2  1  1  1  0  0  0
  2  3  1  0  0  0  0
  2  5  1  0  0  0  0
  3  4  1  0  0  0  0
  3 10  1  0  0  0  0
  5  6  1  0  0  0  0
  6  7  1  0  0  0  0
  7  8  1  0  0  0  0
  8  9  1  0  0  0  0
M  END
>  <CHROM.1>
-46.95562367,-64.97091257,178.39507440,176.69587132,58.24427854,24.55086100
40.38594917,21.21774007,2.24267340,-1.08996675,2.77868561

>  <Name>
ligand

>  <RI>
0

>  <Rbt.Current_Directory>
/home/itssahil/PROJECTS/Mol_Feturizer/New_Systems/rnas/3D0U

>  <Rbt.Executable>
rbdock ($Id: //depot/dev/client3/rdock/2013.1/src/exe/rbdock.cxx#4 $)

>  <Rbt.Library>
libRbt.so (2013.1, Build901 2013/11/27)

>  <Rbt.Parameter_File>
/export/apps/rDock/src/rDock_2013.1_src/data/scripts/dock_solv.prm

>  <Rbt.Receptor>
prm/pocket_docking_8.prm

>  <SCORE>
-8.09864

>  <SCORE.INTER>
-7.70951

>  <SCORE.INTER.CONST>
1

>  <SCORE.INTER.POLAR>
0

>  <SCORE.INTER.ROT>
5

>  <SCORE.INTER.SOLV>
14.7913

>  <SCORE.INTER.VDW>
-17.0034

>  <SCORE.INTER.norm>
-0.770951

>  <SCORE.INTRA>
-0.389132

>  <SCORE.INTRA.DIHEDRAL>
-0.552122

>  <SCORE.INTRA.DIHEDRAL.0>
2.22229

>  <SCORE.INTRA.POLAR>
0

>  <SCORE.INTRA.POLAR.0>
0

>  <SCORE.INTRA.REPUL>
0

>  <SCORE.INTRA.REPUL.0>
0

>  <SCORE.INTRA.SOLV>
0.126218

>  <SCORE.INTRA.SOLV.lig_0>
-31.87

>  <SCORE.INTRA.VDW>
-0.17618

>  <SCORE.INTRA.VDW.0>
-0.575321

>  <SCORE.INTRA.norm>
-0.0389132

>  <SCORE.RESTR>
0

>  <SCORE.RESTR.CAVITY>
0

>  <SCORE.RESTR.norm>
0

>  <SCORE.SYSTEM>
0

>  <SCORE.SYSTEM.CONST>
0

>  <SCORE.SYSTEM.DIHEDRAL>
0

>  <SCORE.SYSTEM.SOLV>
0

>  <SCORE.SYSTEM.norm>
0

>  <SCORE.heavy>
10

>  <SCORE.norm>
-0.809864

>  <RMSD>
1.083

$$$$
ligand
 OpenBabel11021811463D
libRbt.so/2013.1/901 2013/11/27
 10  9  0  0  0  0  0  0  0  0999 V2000
   23.5486   41.2719   22.8208 N   0  0  0  0  0  0  0  0  0  0  0  0
   23.6883   39.9937   22.1338 C   0  0  2  0  0  0  0  0  0  0  0  0
   23.7939   38.8452   23.1356 C   0  0  0  0  0  0  0  0  0  0  0  0
   24.4837   38.9784   24.1506 O   0  0  0  0  0  0  0  0  0  0  0  0
   24.8973   40.0118   21.1935 C   0  0  0  0  0  0  0  0  0  0  0  0
   24.7411   40.9682   20.0174 C   0  0  0  0  0  0  0  0  0  0  0  0
   25.9703   40.9773   19.1130 C   0  0  0  0  0  0  0  0  0  0  0  0
   25.7903   41.9116   17.9062 C   0  0  0  0  0  0  0  0  0  0  0  0
   25.4903   43.3347   18.2619 N   0  0  0  0  0  0  0  0  0  0  0  0
   23.1884   37.7791   22.9632 O   0  0  0  0  0  0  0  0  0  0  0  0
  2  1  1  1  0  0  0
  2  3  1  0  0  0  0
  2  5  1  0  0  0  0
  3  4  1  0  0  0  0
  3 10  1  0  0  0  0
  5  6  1  0  0  0  0
  6  7  1  0  0  0  0
  7  8  1  0  0  0  0
  8  9  1  0  0  0  0
M  END
>  <CHROM.1>
-41.66082450,-66.74237118,179.14135139,178.29007463,57.61081944,24.55615985
40.37520439,21.20154630,2.41459158,-1.15473024,2.96836884

>  <Name>
ligand

>  <RI>
0

>  <Rbt.Current_Directory>
/home/itssahil/PROJECTS/Mol_Feturizer/New_Systems/rnas/3D0U

>  <Rbt.Executable>
rbdock ($Id: //depot/dev/client3/rdock/2013.1/src/exe/rbdock.cxx#4 $)

>  <Rbt.Library>
libRbt.so (2013.1, Build901 2013/11/27)

>  <Rbt.Parameter_File>
/export/apps/rDock/src/rDock_2013.1_src/data/scripts/dock_solv.prm

>  <Rbt.Receptor>
prm/pocket_docking_8.prm

>  <SCORE>
-8.08281

>  <SCORE.INTER>
-7.70805

>  <SCORE.INTER.CONST>
1

>  <SCORE.INTER.POLAR>
0

>  <SCORE.INTER.ROT>
5

>  <SCORE.INTER.SOLV>
14.8111

>  <SCORE.INTER.VDW>
-17.0091

>  <SCORE.INTER.norm>
-0.770805

>  <SCORE.INTRA>
-0.374762

>  <SCORE.INTRA.DIHEDRAL>
-0.49291

>  <SCORE.INTRA.DIHEDRAL.0>
2.22229

>  <SCORE.INTRA.POLAR>
0

>  <SCORE.INTRA.POLAR.0>
0

>  <SCORE.INTRA.REPUL>
0

>  <SCORE.INTRA.REPUL.0>
0

>  <SCORE.INTRA.SOLV>
0.117884

>  <SCORE.INTRA.SOLV.lig_0>
-31.87

>  <SCORE.INTRA.VDW>
-0.187249

>  <SCORE.INTRA.VDW.0>
-0.575321

>  <SCORE.INTRA.norm>
-0.0374762

>  <SCORE.RESTR>
0

>  <SCORE.RESTR.CAVITY>
0

>  <SCORE.RESTR.norm>
0

>  <SCORE.SYSTEM>
0

>  <SCORE.SYSTEM.CONST>
0

>  <SCORE.SYSTEM.DIHEDRAL>
0

>  <SCORE.SYSTEM.SOLV>
0

>  <SCORE.SYSTEM.norm>
0

>  <SCORE.heavy>
10

>  <SCORE.norm>
-0.808281

>  <RMSD>
1.095

$$$$
ligand
 OpenBabel11021811463D
libRbt.so/2013.1/901 2013/11/27
 10  9  0  0  0  0  0  0  0  0999 V2000
   23.4699   41.3735   21.9366 N   0  0  0  0  0  0  0  0  0  0  0  0
   24.0501   40.0636   21.6670 C   0  0  2  0  0  0  0  0  0  0  0  0
   23.9024   39.1426   22.8768 C   0  0  0  0  0  0  0  0  0  0  0  0
   24.4140   39.4594   23.9547 O   0  0  0  0  0  0  0  0  0  0  0  0
   25.5198   40.1947   21.2558 C   0  0  0  0  0  0  0  0  0  0  0  0
   25.7141   40.8013   19.8714 C   0  0  0  0  0  0  0  0  0  0  0  0
   25.2841   42.2645   19.8165 C   0  0  0  0  0  0  0  0  0  0  0  0
   25.3718   42.8373   18.3931 C   0  0  0  0  0  0  0  0  0  0  0  0
   24.9310   44.2628   18.2690 N   0  0  0  0  0  0  0  0  0  0  0  0
   23.2645   38.0836   22.8094 O   0  0  0  0  0  0  0  0  0  0  0  0
  2  1  1  1  0  0  0
  2  3  1  0  0  0  0
  2  5  1  0  0  0  0
  3  4  1  0  0  0  0
  3 10  1  0  0  0  0
  5  6  1  0  0  0  0
  6  7  1  0  0  0  0
  7  8  1  0  0  0  0
  8  9  1  0  0  0  0
M  END
>  <CHROM.1>
-60.08133318,-70.86615354,67.09696698,-175.24836478,178.61748040,24.58495063
40.81967893,21.11976844,1.87946930,-0.74688263,2.54280369

>  <Name>
ligand

>  <RI>
0

>  <Rbt.Current_Directory>
/home/itssahil/PROJECTS/Mol_Feturizer/New_Systems/rnas/3D0U

>  <Rbt.Executable>
rbdock ($Id: //depot/dev/client3/rdock/2013.1/src/exe/rbdock.cxx#4 $)

>  <Rbt.Library>
libRbt.so (2013.1, Build901 2013/11/27)

>  <Rbt.Parameter_File>
/export/apps/rDock/src/rDock_2013.1_src/data/scripts/dock_solv.prm

>  <Rbt.Receptor>
prm/blind_docking_60.prm

>  <SCORE>
-6.15899

>  <SCORE.INTER>
-6.64032

>  <SCORE.INTER.CONST>
1

>  <SCORE.INTER.POLAR>
0

>  <SCORE.INTER.ROT>
5

>  <SCORE.INTER.SOLV>
14.479

>  <SCORE.INTER.VDW>
-16.1866

>  <SCORE.INTER.norm>
-0.664032

>  <SCORE.INTRA>
0.481333

>  <SCORE.INTRA.DIHEDRAL>
0.0388827

>  <SCORE.INTRA.DIHEDRAL.0>
2.22229

>  <SCORE.INTRA.POLAR>
0

>  <SCORE.INTRA.POLAR.0>
0

>  <SCORE.INTRA.REPUL>
0

>  <SCORE.INTRA.REPUL.0>
0

>  <SCORE.INTRA.SOLV>
0.583096

>  <SCORE.INTRA.SOLV.lig_0>
-31.87

>  <SCORE.INTRA.VDW>
0.170344

>  <SCORE.INTRA.VDW.0>
-0.575321

>  <SCORE.INTRA.norm>
0.0481333

>  <SCORE.RESTR>
0

>  <SCORE.RESTR.CAVITY>
0

>  <SCORE.RESTR.norm>
0

>  <SCORE.SYSTEM>
0

>  <SCORE.SYSTEM.CONST>
0

>  <SCORE.SYSTEM.DIHEDRAL>
0

>  <SCORE.SYSTEM.SOLV>
0

>  <SCORE.SYSTEM.norm>
0

>  <SCORE.heavy>
10

>  <SCORE.norm>
-0.615899

>  <RMSD>
1.104

$$$$
ligand
 OpenBabel11021811463D
libRbt.so/2013.1/901 2013/11/27
 10  9  0  0  0  0  0  0  0  0999 V2000
   24.0726   41.7054   23.9924 N   0  0  0  0  0  0  0  0  0  0  0  0
   23.9747   40.9063   22.7770 C   0  0  2  0  0  0  0  0  0  0  0  0
   24.0408   39.4144   23.0988 C   0  0  0  0  0  0  0  0  0  0  0  0
   23.3031   38.6251   22.5016 O   0  0  0  0  0  0  0  0  0  0  0  0
   25.0683   41.2993   21.7791 C   0  0  0  0  0  0  0  0  0  0  0  0
   24.9999   40.5304   20.4651 C   0  0  0  0  0  0  0  0  0  0  0  0
   26.0310   41.0227   19.4535 C   0  0  0  0  0  0  0  0  0  0  0  0
   25.7208   42.4450   18.9610 C   0  0  0  0  0  0  0  0  0  0  0  0
   24.3978   42.5900   18.2752 N   0  0  0  0  0  0  0  0  0  0  0  0
   24.8325   38.9687   23.9399 O   0  0  0  0  0  0  0  0  0  0  0  0
  2  1  1  1  0  0  0
  2  3  1  0  0  0  0
  2  5  1  0  0  0  0
  3  4  1  0  0  0  0
  3 10  1  0  0  0  0
  5  6  1  0  0  0  0
  6  7  1  0  0  0  0
  7  8  1  0  0  0  0
  8  9  1  0  0  0  0
M  END
>  <CHROM.1>
139.52369738,-178.27158403,175.43055751,-67.87140560,-60.33057039,24.64154513
40.71368382,21.54045860,3.04554976,-1.34523891,-2.74283124

>  <Name>
ligand

>  <RI>
0

>  <Rbt.Current_Directory>
/home/itssahil/PROJECTS/Mol_Feturizer/New_Systems/rnas/3D0U

>  <Rbt.Executable>
rbdock ($Id: //depot/dev/client3/rdock/2013.1/src/exe/rbdock.cxx#4 $)

>  <Rbt.Library>
libRbt.so (2013.1, Build901 2013/11/27)

>  <Rbt.Parameter_File>
/export/apps/rDock/src/rDock_2013.1_src/data/scripts/dock_solv.prm

>  <Rbt.Receptor>
prm/pocket_docking_5.prm

>  <SCORE>
-6.79532

>  <SCORE.INTER>
-6.82996

>  <SCORE.INTER.CONST>
1

>  <SCORE.INTER.POLAR>
0

>  <SCORE.INTER.ROT>
5

>  <SCORE.INTER.SOLV>
15.9736

>  <SCORE.INTER.VDW>
-16.8112

>  <SCORE.INTER.norm>
-0.682996

>  <SCORE.INTRA>
0.0346417

>  <SCORE.INTRA.DIHEDRAL>
-0.418174

>  <SCORE.INTRA.DIHEDRAL.0>
2.22229

>  <SCORE.INTRA.POLAR>
0

>  <SCORE.INTRA.POLAR.0>
0

>  <SCORE.INTRA.REPUL>
0

>  <SCORE.INTRA.REPUL.0>
0

>  <SCORE.INTRA.SOLV>
-0.185207

>  <SCORE.INTRA.SOLV.lig_0>
-31.87

>  <SCORE.INTRA.VDW>
0.336332

>  <SCORE.INTRA.VDW.0>
-0.575321

>  <SCORE.INTRA.norm>
0.00346417

>  <SCORE.RESTR>
0

>  <SCORE.RESTR.CAVITY>
0

>  <SCORE.RESTR.norm>
0

>  <SCORE.SYSTEM>
0

>  <SCORE.SYSTEM.CONST>
0

>  <SCORE.SYSTEM.DIHEDRAL>
0

>  <SCORE.SYSTEM.SOLV>
0

>  <SCORE.SYSTEM.norm>
0

>  <SCORE.heavy>
10

>  <SCORE.norm>
-0.679532

>  <RMSD>
1.115

$$$$
ligand
 OpenBabel11021811463D
libRbt.so/2013.1/901 2013/11/27
 10  9  0  0  0  0  0  0  0  0999 V2000
   23.5617   41.2225   22.8483 N   0  0  0  0  0  0  0  0  0  0  0  0
   23.7016   39.9497   22.1515 C   0  0  2  0  0  0  0  0  0  0  0  0
   23.8105   38.7938   23.1445 C   0  0  0  0  0  0  0  0  0  0  0  0
   24.5215   38.9114   24.1467 O   0  0  0  0  0  0  0  0  0  0  0  0
   24.9087   39.9762   21.2090 C   0  0  0  0  0  0  0  0  0  0  0  0
   24.7562   40.9539   20.0500 C   0  0  0  0  0  0  0  0  0  0  0  0
   25.9919   40.9860   19.1551 C   0  0  0  0  0  0  0  0  0  0  0  0
   25.8097   41.9293   17.9556 C   0  0  0  0  0  0  0  0  0  0  0  0
   25.4639   43.3394   18.3213 N   0  0  0  0  0  0  0  0  0  0  0  0
   23.1870   37.7372   22.9778 O   0  0  0  0  0  0  0  0  0  0  0  0
  2  1  1  1  0  0  0
  2  3  1  0  0  0  0
  2  5  1  0  0  0  0
  3  4  1  0  0  0  0
  3 10  1  0  0  0  0
  5  6  1  0  0  0  0
  6  7  1  0  0  0  0
  7  8  1  0  0  0  0
  8  9  1  0  0  0  0
M  END
>  <CHROM.1>
-42.98192598,-66.02621153,178.28336622,177.60973978,56.48428981,24.56832465
40.34766956,21.22765348,2.38060709,-1.14346521,2.94486418

>  <Name>
ligand

>  <RI>
0

>  <Rbt.Current_Directory>
/home/itssahil/PROJECTS/Mol_Feturizer/New_Systems/rnas/3D0U

>  <Rbt.Executable>
rbdock ($Id: //depot/dev/client3/rdock/2013.1/src/exe/rbdock.cxx#4 $)

>  <Rbt.Library>
libRbt.so (2013.1, Build901 2013/11/27)

>  <Rbt.Parameter_File>
/export/apps/rDock/src/rDock_2013.1_src/data/scripts/dock_solv.prm

>  <Rbt.Receptor>
prm/blind_docking_60.prm

>  <SCORE>
-8.12473

>  <SCORE.INTER>
-7.78146

>  <SCORE.INTER.CONST>
1

>  <SCORE.INTER.POLAR>
0

>  <SCORE.INTER.ROT>
5

>  <SCORE.INTER.SOLV>
14.5844

>  <SCORE.INTER.VDW>
-16.9824

>  <SCORE.INTER.norm>
-0.778146

>  <SCORE.INTRA>
-0.343277

>  <SCORE.INTRA.DIHEDRAL>
-0.485201

>  <SCORE.INTRA.DIHEDRAL.0>
2.22229

>  <SCORE.INTRA.POLAR>
0

>  <SCORE.INTRA.POLAR.0>
0

>  <SCORE.INTRA.REPUL>
0

>  <SCORE.INTRA.REPUL.0>
0

>  <SCORE.INTRA.SOLV>
0.142491

>  <SCORE.INTRA.SOLV.lig_0>
-31.87

>  <SCORE.INTRA.VDW>
-0.171922

>  <SCORE.INTRA.VDW.0>
-0.575321

>  <SCORE.INTRA.norm>
-0.0343277

>  <SCORE.RESTR>
0

>  <SCORE.RESTR.CAVITY>
0

>  <SCORE.RESTR.norm>
0

>  <SCORE.SYSTEM>
0

>  <SCORE.SYSTEM.CONST>
0

>  <SCORE.SYSTEM.DIHEDRAL>
0

>  <SCORE.SYSTEM.SOLV>
0

>  <SCORE.SYSTEM.norm>
0

>  <SCORE.heavy>
10

>  <SCORE.norm>
-0.812473

>  <RMSD>
1.118

$$$$
ligand
 OpenBabel11021811463D
libRbt.so/2013.1/901 2013/11/27
 10  9  0  0  0  0  0  0  0  0999 V2000
   23.5882   41.2269   22.8875 N   0  0  0  0  0  0  0  0  0  0  0  0
   23.6696   39.9766   22.1423 C   0  0  2  0  0  0  0  0  0  0  0  0
   23.7219   38.7796   23.0900 C   0  0  0  0  0  0  0  0  0  0  0  0
   23.1704   37.7217   22.7728 O   0  0  0  0  0  0  0  0  0  0  0  0
   24.8786   39.9825   21.2018 C   0  0  0  0  0  0  0  0  0  0  0  0
   24.7478   40.9677   20.0465 C   0  0  0  0  0  0  0  0  0  0  0  0
   25.9870   40.9812   19.1559 C   0  0  0  0  0  0  0  0  0  0  0  0
   25.8136   41.9077   17.9421 C   0  0  0  0  0  0  0  0  0  0  0  0
   25.4942   43.3293   18.2866 N   0  0  0  0  0  0  0  0  0  0  0  0
   24.3213   38.8370   24.1719 O   0  0  0  0  0  0  0  0  0  0  0  0
  2  1  1  1  0  0  0
  2  3  1  0  0  0  0
  2  5  1  0  0  0  0
  3  4  1  0  0  0  0
  3 10  1  0  0  0  0
  5  6  1  0  0  0  0
  6  7  1  0  0  0  0
  7  8  1  0  0  0  0
  8  9  1  0  0  0  0
M  END
>  <CHROM.1>
144.99791856,-68.52899248,178.12884671,176.27938001,57.40257556,24.53496478
40.33754545,21.19990746,2.50983449,-1.17195897,3.08482706

>  <Name>
ligand

>  <RI>
0

>  <Rbt.Current_Directory>
/home/itssahil/PROJECTS/Mol_Feturizer/New_Systems/rnas/3D0U

>  <Rbt.Executable>
rbdock ($Id: //depot/dev/client3/rdock/2013.1/src/exe/rbdock.cxx#4 $)

>  <Rbt.Library>
libRbt.so (2013.1, Build901 2013/11/27)

>  <Rbt.Parameter_File>
/export/apps/rDock/src/rDock_2013.1_src/data/scripts/dock_solv.prm

>  <Rbt.Receptor>
prm/pocket_docking_3.prm

>  <SCORE>
-8.02269

>  <SCORE.INTER>
-7.66713

>  <SCORE.INTER.CONST>
1

>  <SCORE.INTER.POLAR>
0

>  <SCORE.INTER.ROT>
5

>  <SCORE.INTER.SOLV>
14.717

>  <SCORE.INTER.VDW>
-16.9504

>  <SCORE.INTER.norm>
-0.766713

>  <SCORE.INTRA>
-0.355556

>  <SCORE.INTRA.DIHEDRAL>
-0.377474

>  <SCORE.INTRA.DIHEDRAL.0>
2.22229

>  <SCORE.INTRA.POLAR>
0

>  <SCORE.INTRA.POLAR.0>
0

>  <SCORE.INTRA.REPUL>
0

>  <SCORE.INTRA.REPUL.0>
0

>  <SCORE.INTRA.SOLV>
0.0843561

>  <SCORE.INTRA.SOLV.lig_0>
-31.87

>  <SCORE.INTRA.VDW>
-0.208997

>  <SCORE.INTRA.VDW.0>
-0.575321

>  <SCORE.INTRA.norm>
-0.0355556

>  <SCORE.RESTR>
0

>  <SCORE.RESTR.CAVITY>
0

>  <SCORE.RESTR.norm>
0

>  <SCORE.SYSTEM>
0

>  <SCORE.SYSTEM.CONST>
0

>  <SCORE.SYSTEM.DIHEDRAL>
0

>  <SCORE.SYSTEM.SOLV>
0

>  <SCORE.SYSTEM.norm>
0

>  <SCORE.heavy>
10

>  <SCORE.norm>
-0.802269

>  <RMSD>
1.122

$$$$
ligand
 OpenBabel11021811463D
libRbt.so/2013.1/901 2013/11/27
 10  9  0  0  0  0  0  0  0  0999 V2000
   23.4844   41.3644   21.9172 N   0  0  0  0  0  0  0  0  0  0  0  0
   24.0358   40.0502   21.6108 C   0  0  2  0  0  0  0  0  0  0  0  0
   23.8931   39.1073   22.8043 C   0  0  0  0  0  0  0  0  0  0  0  0
   23.2222   38.0769   22.6949 O   0  0  0  0  0  0  0  0  0  0  0  0
   25.5001   40.1636   21.1757 C   0  0  0  0  0  0  0  0  0  0  0  0
   25.6797   40.7775   19.7926 C   0  0  0  0  0  0  0  0  0  0  0  0
   25.2855   42.2514   19.7593 C   0  0  0  0  0  0  0  0  0  0  0  0
   25.3494   42.8324   18.3380 C   0  0  0  0  0  0  0  0  0  0  0  0
   24.9515   44.2723   18.2372 N   0  0  0  0  0  0  0  0  0  0  0  0
   24.4498   39.3430   23.8848 O   0  0  0  0  0  0  0  0  0  0  0  0
  2  1  1  1  0  0  0
  2  3  1  0  0  0  0
  2  5  1  0  0  0  0
  3  4  1  0  0  0  0
  3 10  1  0  0  0  0
  5  6  1  0  0  0  0
  6  7  1  0  0  0  0
  7  8  1  0  0  0  0
  8  9  1  0  0  0  0
M  END
>  <CHROM.1>
118.62005796,-71.65234039,67.78555311,-174.93554194,179.05555099,24.57810100
40.79426815,21.05547268,1.88210037,-0.75669633,2.55531939

>  <Name>
ligand

>  <RI>
0

>  <Rbt.Current_Directory>
/home/itssahil/PROJECTS/Mol_Feturizer/New_Systems/rnas/3D0U

>  <Rbt.Executable>
rbdock ($Id: //depot/dev/client3/rdock/2013.1/src/exe/rbdock.cxx#4 $)

>  <Rbt.Library>
libRbt.so (2013.1, Build901 2013/11/27)

>  <Rbt.Parameter_File>
/export/apps/rDock/src/rDock_2013.1_src/data/scripts/dock_solv.prm

>  <Rbt.Receptor>
prm/pocket_docking_7.prm

>  <SCORE>
-6.24369

>  <SCORE.INTER>
-6.69757

>  <SCORE.INTER.CONST>
1

>  <SCORE.INTER.POLAR>
0

>  <SCORE.INTER.ROT>
5

>  <SCORE.INTER.SOLV>
14.6185

>  <SCORE.INTER.VDW>
-16.2712

>  <SCORE.INTER.norm>
-0.669757

>  <SCORE.INTRA>
0.453876

>  <SCORE.INTRA.DIHEDRAL>
0.162931

>  <SCORE.INTRA.DIHEDRAL.0>
2.22229

>  <SCORE.INTRA.POLAR>
0

>  <SCORE.INTRA.POLAR.0>
0

>  <SCORE.INTRA.REPUL>
0

>  <SCORE.INTRA.REPUL.0>
0

>  <SCORE.INTRA.SOLV>
0.541993

>  <SCORE.INTRA.SOLV.lig_0>
-31.87

>  <SCORE.INTRA.VDW>
0.101414

>  <SCORE.INTRA.VDW.0>
-0.575321

>  <SCORE.INTRA.norm>
0.0453876

>  <SCORE.RESTR>
0

>  <SCORE.RESTR.CAVITY>
0

>  <SCORE.RESTR.norm>
0

>  <SCORE.SYSTEM>
0

>  <SCORE.SYSTEM.CONST>
0

>  <SCORE.SYSTEM.DIHEDRAL>
0

>  <SCORE.SYSTEM.SOLV>
0

>  <SCORE.SYSTEM.norm>
0

>  <SCORE.heavy>
10

>  <SCORE.norm>
-0.624369

>  <RMSD>
1.138

$$$$
ligand
 OpenBabel11021811463D
libRbt.so/2013.1/901 2013/11/27
 10  9  0  0  0  0  0  0  0  0999 V2000
   24.1959   42.0805   23.2038 N   0  0  0  0  0  0  0  0  0  0  0  0
   24.1531   41.2205   22.0275 C   0  0  2  0  0  0  0  0  0  0  0  0
   24.3543   39.7565   22.4151 C   0  0  0  0  0  0  0  0  0  0  0  0
   25.2225   39.4540   23.2389 O   0  0  0  0  0  0  0  0  0  0  0  0
   25.1951   41.6607   20.9946 C   0  0  0  0  0  0  0  0  0  0  0  0
   25.2444   40.7690   19.7598 C   0  0  0  0  0  0  0  0  0  0  0  0
   26.0785   41.3815   18.6381 C   0  0  0  0  0  0  0  0  0  0  0  0
   25.2924   42.4399   17.8483 C   0  0  0  0  0  0  0  0  0  0  0  0
   24.8458   43.6159   18.6603 N   0  0  0  0  0  0  0  0  0  0  0  0
   23.6533   38.8575   21.9321 O   0  0  0  0  0  0  0  0  0  0  0  0
  2  1  1  1  0  0  0
  2  3  1  0  0  0  0
  2  5  1  0  0  0  0
  3  4  1  0  0  0  0
  3 10  1  0  0  0  0
  5  6  1  0  0  0  0
  6  7  1  0  0  0  0
  7  8  1  0  0  0  0
  8  9  1  0  0  0  0
M  END
>  <CHROM.1>
-43.12476019,177.67404786,168.51278797,-80.28277330,61.56230605,24.82432563
41.08694272,20.88945071,2.37383014,-1.30467976,2.89817403

>  <Name>
ligand

>  <RI>
0

>  <Rbt.Current_Directory>
/home/itssahil/PROJECTS/Mol_Feturizer/New_Systems/rnas/3D0U

>  <Rbt.Executable>
rbdock ($Id: //depot/dev/client3/rdock/2013.1/src/exe/rbdock.cxx#4 $)

>  <Rbt.Library>
libRbt.so (2013.1, Build901 2013/11/27)

>  <Rbt.Parameter_File>
/export/apps/rDock/src/rDock_2013.1_src/data/scripts/dock_solv.prm

>  <Rbt.Receptor>
prm/pocket_docking_6.prm

>  <SCORE>
-6.76293

>  <SCORE.INTER>
-8.01254

>  <SCORE.INTER.CONST>
1

>  <SCORE.INTER.POLAR>
0

>  <SCORE.INTER.ROT>
5

>  <SCORE.INTER.SOLV>
14.7156

>  <SCORE.INTER.VDW>
-17.1802

>  <SCORE.INTER.norm>
-0.801254

>  <SCORE.INTRA>
1.24961

>  <SCORE.INTRA.DIHEDRAL>
1.4192

>  <SCORE.INTRA.DIHEDRAL.0>
2.22229

>  <SCORE.INTRA.POLAR>
0

>  <SCORE.INTRA.POLAR.0>
0

>  <SCORE.INTRA.REPUL>
0

>  <SCORE.INTRA.REPUL.0>
0

>  <SCORE.INTRA.SOLV>
0.689448

>  <SCORE.INTRA.SOLV.lig_0>
-31.87

>  <SCORE.INTRA.VDW>
0.195293

>  <SCORE.INTRA.VDW.0>
-0.575321

>  <SCORE.INTRA.norm>
0.124961

>  <SCORE.RESTR>
0

>  <SCORE.RESTR.CAVITY>
0

>  <SCORE.RESTR.norm>
0

>  <SCORE.SYSTEM>
0

>  <SCORE.SYSTEM.CONST>
0

>  <SCORE.SYSTEM.DIHEDRAL>
0

>  <SCORE.SYSTEM.SOLV>
0

>  <SCORE.SYSTEM.norm>
0

>  <SCORE.heavy>
10

>  <SCORE.norm>
-0.676293

>  <RMSD>
1.140

$$$$
ligand
 OpenBabel11021811463D
libRbt.so/2013.1/901 2013/11/27
 10  9  0  0  0  0  0  0  0  0999 V2000
   24.2192   42.0358   23.2407 N   0  0  0  0  0  0  0  0  0  0  0  0
   24.1588   41.1925   22.0531 C   0  0  2  0  0  0  0  0  0  0  0  0
   24.3861   39.7256   22.4141 C   0  0  0  0  0  0  0  0  0  0  0  0
   23.7373   38.8455   21.8411 O   0  0  0  0  0  0  0  0  0  0  0  0
   25.1709   41.6603   21.0028 C   0  0  0  0  0  0  0  0  0  0  0  0
   25.1932   40.7942   19.7491 C   0  0  0  0  0  0  0  0  0  0  0  0
   26.0233   41.4182   18.6308 C   0  0  0  0  0  0  0  0  0  0  0  0
   25.2306   42.4760   17.8470 C   0  0  0  0  0  0  0  0  0  0  0  0
   24.7266   43.6156   18.6770 N   0  0  0  0  0  0  0  0  0  0  0  0
   25.2225   39.3907   23.2633 O   0  0  0  0  0  0  0  0  0  0  0  0
  2  1  1  1  0  0  0
  2  3  1  0  0  0  0
  2  5  1  0  0  0  0
  3  4  1  0  0  0  0
  3 10  1  0  0  0  0
  5  6  1  0  0  0  0
  6  7  1  0  0  0  0
  7  8  1  0  0  0  0
  8  9  1  0  0  0  0
M  END
>  <CHROM.1>
141.56634385,178.16146876,169.95752360,-81.90197546,59.07640156,24.80843371
41.07843986,20.88840240,2.30257644,-1.32306746,2.83701436

>  <Name>
ligand

>  <RI>
0

>  <Rbt.Current_Directory>
/home/itssahil/PROJECTS/Mol_Feturizer/New_Systems/rnas/3D0U

>  <Rbt.Executable>
rbdock ($Id: //depot/dev/client3/rdock/2013.1/src/exe/rbdock.cxx#4 $)

>  <Rbt.Library>
libRbt.so (2013.1, Build901 2013/11/27)

>  <Rbt.Parameter_File>
/export/apps/rDock/src/rDock_2013.1_src/data/scripts/dock_solv.prm

>  <Rbt.Receptor>
prm/pocket_docking_7.prm

>  <SCORE>
-6.81556

>  <SCORE.INTER>
-8.0685

>  <SCORE.INTER.CONST>
1

>  <SCORE.INTER.POLAR>
0

>  <SCORE.INTER.ROT>
5

>  <SCORE.INTER.SOLV>
14.4754

>  <SCORE.INTER.VDW>
-17.1375

>  <SCORE.INTER.norm>
-0.80685

>  <SCORE.INTRA>
1.25295

>  <SCORE.INTRA.DIHEDRAL>
1.46178

>  <SCORE.INTRA.DIHEDRAL.0>
2.22229

>  <SCORE.INTRA.POLAR>
0

>  <SCORE.INTRA.POLAR.0>
0

>  <SCORE.INTRA.REPUL>
0

>  <SCORE.INTRA.REPUL.0>
0

>  <SCORE.INTRA.SOLV>
0.688205

>  <SCORE.INTRA.SOLV.lig_0>
-31.87

>  <SCORE.INTRA.VDW>
0.177957

>  <SCORE.INTRA.VDW.0>
-0.575321

>  <SCORE.INTRA.norm>
0.125295

>  <SCORE.RESTR>
0

>  <SCORE.RESTR.CAVITY>
0

>  <SCORE.RESTR.norm>
0

>  <SCORE.SYSTEM>
0

>  <SCORE.SYSTEM.CONST>
0

>  <SCORE.SYSTEM.DIHEDRAL>
0

>  <SCORE.SYSTEM.SOLV>
0

>  <SCORE.SYSTEM.norm>
0

>  <SCORE.heavy>
10

>  <SCORE.norm>
-0.681556

>  <RMSD>
1.140

$$$$
ligand
 OpenBabel11021811463D
libRbt.so/2013.1/901 2013/11/27
 10  9  0  0  0  0  0  0  0  0999 V2000
   23.7658   41.4985   22.5282 N   0  0  0  0  0  0  0  0  0  0  0  0
   24.0740   40.3309   21.7115 C   0  0  2  0  0  0  0  0  0  0  0  0
   23.6813   39.0425   22.4323 C   0  0  0  0  0  0  0  0  0  0  0  0
   23.0730   38.1590   21.8213 O   0  0  0  0  0  0  0  0  0  0  0  0
   25.5568   40.3125   21.3278 C   0  0  0  0  0  0  0  0  0  0  0  0
   25.9411   41.3946   20.3260 C   0  0  0  0  0  0  0  0  0  0  0  0
   25.2899   41.1773   18.9630 C   0  0  0  0  0  0  0  0  0  0  0  0
   25.5833   42.3335   17.9940 C   0  0  0  0  0  0  0  0  0  0  0  0
   25.0032   43.6511   18.4056 N   0  0  0  0  0  0  0  0  0  0  0  0
   23.9725   38.8517   23.6205 O   0  0  0  0  0  0  0  0  0  0  0  0
  2  1  1  1  0  0  0
  2  3  1  0  0  0  0
  2  5  1  0  0  0  0
  3  4  1  0  0  0  0
  3 10  1  0  0  0  0
  5  6  1  0  0  0  0
  6  7  1  0  0  0  0
  7  8  1  0  0  0  0
  8  9  1  0  0  0  0
M  END
>  <CHROM.1>
134.57943481,-70.28398512,-66.43454787,175.10942808,-64.68135637,24.58094945
40.63973127,20.93629292,3.03433995,-1.25917677,-2.54476285

>  <Name>
ligand

>  <RI>
0

>  <Rbt.Current_Directory>
/home/itssahil/PROJECTS/Mol_Feturizer/New_Systems/rnas/3D0U

>  <Rbt.Executable>
rbdock ($Id: //depot/dev/client3/rdock/2013.1/src/exe/rbdock.cxx#4 $)

>  <Rbt.Library>
libRbt.so (2013.1, Build901 2013/11/27)

>  <Rbt.Parameter_File>
/export/apps/rDock/src/rDock_2013.1_src/data/scripts/dock_solv.prm

>  <Rbt.Receptor>
prm/pocket_docking_3.prm

>  <SCORE>
-8.00136

>  <SCORE.INTER>
-8.099

>  <SCORE.INTER.CONST>
1

>  <SCORE.INTER.POLAR>
0

>  <SCORE.INTER.ROT>
5

>  <SCORE.INTER.SOLV>
13.7428

>  <SCORE.INTER.VDW>
-16.9136

>  <SCORE.INTER.norm>
-0.8099

>  <SCORE.INTRA>
0.0976353

>  <SCORE.INTRA.DIHEDRAL>
0.0169261

>  <SCORE.INTRA.DIHEDRAL.0>
2.22229

>  <SCORE.INTRA.POLAR>
0

>  <SCORE.INTRA.POLAR.0>
0

>  <SCORE.INTRA.REPUL>
0

>  <SCORE.INTRA.REPUL.0>
0

>  <SCORE.INTRA.SOLV>
0.441943

>  <SCORE.INTRA.SOLV.lig_0>
-31.87

>  <SCORE.INTRA.VDW>
-0.131799

>  <SCORE.INTRA.VDW.0>
-0.575321

>  <SCORE.INTRA.norm>
0.00976353

>  <SCORE.RESTR>
0

>  <SCORE.RESTR.CAVITY>
0

>  <SCORE.RESTR.norm>
0

>  <SCORE.SYSTEM>
0

>  <SCORE.SYSTEM.CONST>
0

>  <SCORE.SYSTEM.DIHEDRAL>
0

>  <SCORE.SYSTEM.SOLV>
0

>  <SCORE.SYSTEM.norm>
0

>  <SCORE.heavy>
10

>  <SCORE.norm>
-0.800136

>  <RMSD>
1.198

$$$$
ligand
 OpenBabel11021811463D
libRbt.so/2013.1/901 2013/11/27
 10  9  0  0  0  0  0  0  0  0999 V2000
   23.6820   41.4841   22.4435 N   0  0  0  0  0  0  0  0  0  0  0  0
   24.0441   40.2978   21.6775 C   0  0  2  0  0  0  0  0  0  0  0  0
   23.6735   39.0248   22.4364 C   0  0  0  0  0  0  0  0  0  0  0  0
   23.0705   38.1180   21.8550 O   0  0  0  0  0  0  0  0  0  0  0  0
   25.5354   40.3113   21.3279 C   0  0  0  0  0  0  0  0  0  0  0  0
   25.9192   41.4014   20.3346 C   0  0  0  0  0  0  0  0  0  0  0  0
   25.2970   41.1750   18.9596 C   0  0  0  0  0  0  0  0  0  0  0  0
   25.5772   42.3434   18.0015 C   0  0  0  0  0  0  0  0  0  0  0  0
   24.9807   43.6500   18.4242 N   0  0  0  0  0  0  0  0  0  0  0  0
   23.9776   38.8697   23.6264 O   0  0  0  0  0  0  0  0  0  0  0  0
  2  1  1  1  0  0  0
  2  3  1  0  0  0  0
  2  5  1  0  0  0  0
  3  4  1  0  0  0  0
  3 10  1  0  0  0  0
  5  6  1  0  0  0  0
  6  7  1  0  0  0  0
  7  8  1  0  0  0  0
  8  9  1  0  0  0  0
M  END
>  <CHROM.1>
132.39458863,-68.14313652,-66.06762456,174.59560629,-63.47434943,24.56306829
40.63235391,20.93268684,2.85657720,-1.24758665,-2.72613937

>  <Name>
ligand

>  <RI>
0

>  <Rbt.Current_Directory>
/home/itssahil/PROJECTS/Mol_Feturizer/New_Systems/rnas/3D0U

>  <Rbt.Executable>
rbdock ($Id: //depot/dev/client3/rdock/2013.1/src/exe/rbdock.cxx#4 $)

>  <Rbt.Library>
libRbt.so (2013.1, Build901 2013/11/27)

>  <Rbt.Parameter_File>
/export/apps/rDock/src/rDock_2013.1_src/data/scripts/dock_solv.prm

>  <Rbt.Receptor>
prm/pocket_docking_5.prm

>  <SCORE>
-7.99931

>  <SCORE.INTER>
-8.06705

>  <SCORE.INTER.CONST>
1

>  <SCORE.INTER.POLAR>
0

>  <SCORE.INTER.ROT>
5

>  <SCORE.INTER.SOLV>
13.5676

>  <SCORE.INTER.VDW>
-16.8339

>  <SCORE.INTER.norm>
-0.806705

>  <SCORE.INTRA>
0.0677402

>  <SCORE.INTRA.DIHEDRAL>
-0.1684

>  <SCORE.INTRA.DIHEDRAL.0>
2.22229

>  <SCORE.INTRA.POLAR>
0

>  <SCORE.INTRA.POLAR.0>
0

>  <SCORE.INTRA.REPUL>
0

>  <SCORE.INTRA.REPUL.0>
0

>  <SCORE.INTRA.SOLV>
0.505246

>  <SCORE.INTRA.SOLV.lig_0>
-31.87

>  <SCORE.INTRA.VDW>
-0.100683

>  <SCORE.INTRA.VDW.0>
-0.575321

>  <SCORE.INTRA.norm>
0.00677402

>  <SCORE.RESTR>
0

>  <SCORE.RESTR.CAVITY>
0

>  <SCORE.RESTR.norm>
0

>  <SCORE.SYSTEM>
0

>  <SCORE.SYSTEM.CONST>
0

>  <SCORE.SYSTEM.DIHEDRAL>
0

>  <SCORE.SYSTEM.SOLV>
0

>  <SCORE.SYSTEM.norm>
0

>  <SCORE.heavy>
10

>  <SCORE.norm>
-0.799931

>  <RMSD>
1.200

$$$$
ligand
 OpenBabel11021811463D
libRbt.so/2013.1/901 2013/11/27
 10  9  0  0  0  0  0  0  0  0999 V2000
   23.3947   41.3892   22.4886 N   0  0  0  0  0  0  0  0  0  0  0  0
   23.9069   40.1606   21.8941 C   0  0  2  0  0  0  0  0  0  0  0  0
   23.4926   38.9425   22.7178 C   0  0  0  0  0  0  0  0  0  0  0  0
   23.4575   39.0183   23.9494 O   0  0  0  0  0  0  0  0  0  0  0  0
   25.4297   40.2250   21.7412 C   0  0  0  0  0  0  0  0  0  0  0  0
   25.8977   41.2641   20.7296 C   0  0  0  0  0  0  0  0  0  0  0  0
   25.5074   40.8960   19.3009 C   0  0  0  0  0  0  0  0  0  0  0  0
   25.7994   42.0359   18.3125 C   0  0  0  0  0  0  0  0  0  0  0  0
   24.9877   43.2742   18.5351 N   0  0  0  0  0  0  0  0  0  0  0  0
   23.1733   37.8751   22.1779 O   0  0  0  0  0  0  0  0  0  0  0  0
  2  1  1  1  0  0  0
  2  3  1  0  0  0  0
  2  5  1  0  0  0  0
  3  4  1  0  0  0  0
  3 10  1  0  0  0  0
  5  6  1  0  0  0  0
  6  7  1  0  0  0  0
  7  8  1  0  0  0  0
  8  9  1  0  0  0  0
M  END
>  <CHROM.1>
-37.19932359,-66.77308220,-67.65872424,171.76082617,-65.08644324,24.49027175
40.47478876,21.21047559,2.44915898,-1.07414057,3.05923976

>  <Name>
ligand

>  <RI>
0

>  <Rbt.Current_Directory>
/home/itssahil/PROJECTS/Mol_Feturizer/New_Systems/rnas/3D0U

>  <Rbt.Executable>
rbdock ($Id: //depot/dev/client3/rdock/2013.1/src/exe/rbdock.cxx#4 $)

>  <Rbt.Library>
libRbt.so (2013.1, Build901 2013/11/27)

>  <Rbt.Parameter_File>
/export/apps/rDock/src/rDock_2013.1_src/data/scripts/dock_solv.prm

>  <Rbt.Receptor>
prm/pocket_docking_6.prm

>  <SCORE>
-8.00639

>  <SCORE.INTER>
-8.21255

>  <SCORE.INTER.CONST>
1

>  <SCORE.INTER.POLAR>
0

>  <SCORE.INTER.ROT>
5

>  <SCORE.INTER.SOLV>
12.8143

>  <SCORE.INTER.VDW>
-16.6798

>  <SCORE.INTER.norm>
-0.821255

>  <SCORE.INTRA>
0.206155

>  <SCORE.INTRA.DIHEDRAL>
0.0960418

>  <SCORE.INTRA.DIHEDRAL.0>
2.22229

>  <SCORE.INTRA.POLAR>
0

>  <SCORE.INTRA.POLAR.0>
0

>  <SCORE.INTRA.REPUL>
0

>  <SCORE.INTRA.REPUL.0>
0

>  <SCORE.INTRA.SOLV>
0.52684

>  <SCORE.INTRA.SOLV.lig_0>
-31.87

>  <SCORE.INTRA.VDW>
-0.105285

>  <SCORE.INTRA.VDW.0>
-0.575321

>  <SCORE.INTRA.norm>
0.0206155

>  <SCORE.RESTR>
0

>  <SCORE.RESTR.CAVITY>
0

>  <SCORE.RESTR.norm>
0

>  <SCORE.SYSTEM>
0

>  <SCORE.SYSTEM.CONST>
0

>  <SCORE.SYSTEM.DIHEDRAL>
0

>  <SCORE.SYSTEM.SOLV>
0

>  <SCORE.SYSTEM.norm>
0

>  <SCORE.heavy>
10

>  <SCORE.norm>
-0.800639

>  <RMSD>
1.213

$$$$
ligand
 OpenBabel11021811463D
libRbt.so/2013.1/901 2013/11/27
 10  9  0  0  0  0  0  0  0  0999 V2000
   23.3678   41.3333   22.5185 N   0  0  0  0  0  0  0  0  0  0  0  0
   23.9074   40.1290   21.8991 C   0  0  2  0  0  0  0  0  0  0  0  0
   23.5383   38.8873   22.7090 C   0  0  0  0  0  0  0  0  0  0  0  0
   23.0791   37.8953   22.1353 O   0  0  0  0  0  0  0  0  0  0  0  0
   25.4256   40.2393   21.7289 C   0  0  0  0  0  0  0  0  0  0  0  0
   25.8498   41.2748   20.6944 C   0  0  0  0  0  0  0  0  0  0  0  0
   25.4544   40.8707   19.2770 C   0  0  0  0  0  0  0  0  0  0  0  0
   25.8032   41.9590   18.2496 C   0  0  0  0  0  0  0  0  0  0  0  0
   25.0983   43.2627   18.4623 N   0  0  0  0  0  0  0  0  0  0  0  0
   23.7028   38.8426   23.9352 O   0  0  0  0  0  0  0  0  0  0  0  0
  2  1  1  1  0  0  0
  2  3  1  0  0  0  0
  2  5  1  0  0  0  0
  3  4  1  0  0  0  0
  3 10  1  0  0  0  0
  5  6  1  0  0  0  0
  6  7  1  0  0  0  0
  7  8  1  0  0  0  0
  8  9  1  0  0  0  0
M  END
>  <CHROM.1>
132.36830699,-68.65774420,-67.53351777,176.31448424,-62.01287081,24.50956901
40.43519414,21.18614191,2.62849981,-1.14908972,-3.02040852

>  <Name>
ligand

>  <RI>
0

>  <Rbt.Current_Directory>
/home/itssahil/PROJECTS/Mol_Feturizer/New_Systems/rnas/3D0U

>  <Rbt.Executable>
rbdock ($Id: //depot/dev/client3/rdock/2013.1/src/exe/rbdock.cxx#4 $)

>  <Rbt.Library>
libRbt.so (2013.1, Build901 2013/11/27)

>  <Rbt.Parameter_File>
/export/apps/rDock/src/rDock_2013.1_src/data/scripts/dock_solv.prm

>  <Rbt.Receptor>
prm/pocket_docking_8.prm

>  <SCORE>
-8.11972

>  <SCORE.INTER>
-8.17207

>  <SCORE.INTER.CONST>
1

>  <SCORE.INTER.POLAR>
0

>  <SCORE.INTER.ROT>
5

>  <SCORE.INTER.SOLV>
13.2077

>  <SCORE.INTER.VDW>
-16.784

>  <SCORE.INTER.norm>
-0.817207

>  <SCORE.INTRA>
0.0523538

>  <SCORE.INTRA.DIHEDRAL>
-0.147512

>  <SCORE.INTRA.DIHEDRAL.0>
2.22229

>  <SCORE.INTRA.POLAR>
0

>  <SCORE.INTRA.POLAR.0>
0

>  <SCORE.INTRA.REPUL>
0

>  <SCORE.INTRA.REPUL.0>
0

>  <SCORE.INTRA.SOLV>
0.487539

>  <SCORE.INTRA.SOLV.lig_0>
-31.87

>  <SCORE.INTRA.VDW>
-0.117659

>  <SCORE.INTRA.VDW.0>
-0.575321

>  <SCORE.INTRA.norm>
0.00523538

>  <SCORE.RESTR>
0

>  <SCORE.RESTR.CAVITY>
0

>  <SCORE.RESTR.norm>
0

>  <SCORE.SYSTEM>
0

>  <SCORE.SYSTEM.CONST>
0

>  <SCORE.SYSTEM.DIHEDRAL>
0

>  <SCORE.SYSTEM.SOLV>
0

>  <SCORE.SYSTEM.norm>
0

>  <SCORE.heavy>
10

>  <SCORE.norm>
-0.811972

>  <RMSD>
1.235

$$$$
ligand
 OpenBabel11021811463D
libRbt.so/2013.1/901 2013/11/27
 10  9  0  0  0  0  0  0  0  0999 V2000
   23.4900   41.4054   22.2683 N   0  0  0  0  0  0  0  0  0  0  0  0
   23.9218   40.1992   21.5727 C   0  0  2  0  0  0  0  0  0  0  0  0
   23.5461   38.9486   22.3657 C   0  0  0  0  0  0  0  0  0  0  0  0
   23.1334   37.9476   21.7727 O   0  0  0  0  0  0  0  0  0  0  0  0
   25.4282   40.2404   21.2982 C   0  0  0  0  0  0  0  0  0  0  0  0
   25.8448   41.3571   20.3486 C   0  0  0  0  0  0  0  0  0  0  0  0
   25.2839   41.1593   18.9431 C   0  0  0  0  0  0  0  0  0  0  0  0
   25.5841   42.3581   18.0295 C   0  0  0  0  0  0  0  0  0  0  0  0
   24.9643   43.6470   18.4725 N   0  0  0  0  0  0  0  0  0  0  0  0
   23.6596   38.9058   23.5978 O   0  0  0  0  0  0  0  0  0  0  0  0
  2  1  1  1  0  0  0
  2  3  1  0  0  0  0
  2  5  1  0  0  0  0
  3  4  1  0  0  0  0
  3 10  1  0  0  0  0
  5  6  1  0  0  0  0
  6  7  1  0  0  0  0
  7  8  1  0  0  0  0
  8  9  1  0  0  0  0
M  END
>  <CHROM.1>
140.30258712,-64.42425415,-65.53167889,174.08774193,-62.67525267,24.47267907
40.58190939,20.89145045,2.53140670,-1.16061768,-3.05471768

>  <Name>
ligand

>  <RI>
0

>  <Rbt.Current_Directory>
/home/itssahil/PROJECTS/Mol_Feturizer/New_Systems/rnas/3D0U

>  <Rbt.Executable>
rbdock ($Id: //depot/dev/client3/rdock/2013.1/src/exe/rbdock.cxx#4 $)

>  <Rbt.Library>
libRbt.so (2013.1, Build901 2013/11/27)

>  <Rbt.Parameter_File>
/export/apps/rDock/src/rDock_2013.1_src/data/scripts/dock_solv.prm

>  <Rbt.Receptor>
prm/pocket_docking_6.prm

>  <SCORE>
-8.13

>  <SCORE.INTER>
-8.16524

>  <SCORE.INTER.CONST>
1

>  <SCORE.INTER.POLAR>
0

>  <SCORE.INTER.ROT>
5

>  <SCORE.INTER.SOLV>
13.2571

>  <SCORE.INTER.VDW>
-16.7959

>  <SCORE.INTER.norm>
-0.816524

>  <SCORE.INTRA>
0.0352423

>  <SCORE.INTRA.DIHEDRAL>
-0.386289

>  <SCORE.INTRA.DIHEDRAL.0>
2.22229

>  <SCORE.INTRA.POLAR>
0

>  <SCORE.INTRA.POLAR.0>
0

>  <SCORE.INTRA.REPUL>
0

>  <SCORE.INTRA.REPUL.0>
0

>  <SCORE.INTRA.SOLV>
0.599991

>  <SCORE.INTRA.SOLV.lig_0>
-31.87

>  <SCORE.INTRA.VDW>
-0.0716088

>  <SCORE.INTRA.VDW.0>
-0.575321

>  <SCORE.INTRA.norm>
0.00352423

>  <SCORE.RESTR>
0

>  <SCORE.RESTR.CAVITY>
0

>  <SCORE.RESTR.norm>
0

>  <SCORE.SYSTEM>
0

>  <SCORE.SYSTEM.CONST>
0

>  <SCORE.SYSTEM.DIHEDRAL>
0

>  <SCORE.SYSTEM.SOLV>
0

>  <SCORE.SYSTEM.norm>
0

>  <SCORE.heavy>
10

>  <SCORE.norm>
-0.813

>  <RMSD>
1.253

$$$$
ligand
 OpenBabel11021811463D
libRbt.so/2013.1/901 2013/11/27
 10  9  0  0  0  0  0  0  0  0999 V2000
   23.4091   41.3875   22.4298 N   0  0  0  0  0  0  0  0  0  0  0  0
   23.8997   40.1607   21.8139 C   0  0  2  0  0  0  0  0  0  0  0  0
   23.4578   38.9354   22.6122 C   0  0  0  0  0  0  0  0  0  0  0  0
   23.0795   37.9210   22.0191 O   0  0  0  0  0  0  0  0  0  0  0  0
   25.4241   40.1978   21.6686 C   0  0  0  0  0  0  0  0  0  0  0  0
   25.9154   41.2248   20.6556 C   0  0  0  0  0  0  0  0  0  0  0  0
   25.5016   40.8731   19.2294 C   0  0  0  0  0  0  0  0  0  0  0  0
   25.8340   42.0002   18.2390 C   0  0  0  0  0  0  0  0  0  0  0  0
   25.0690   43.2679   18.4613 N   0  0  0  0  0  0  0  0  0  0  0  0
   23.4831   38.9265   23.8500 O   0  0  0  0  0  0  0  0  0  0  0  0
  2  1  1  1  0  0  0
  2  3  1  0  0  0  0
  2  5  1  0  0  0  0
  3  4  1  0  0  0  0
  3 10  1  0  0  0  0
  5  6  1  0  0  0  0
  6  7  1  0  0  0  0
  7  8  1  0  0  0  0
  8  9  1  0  0  0  0
M  END
>  <CHROM.1>
139.25094627,-68.08904295,-66.49670165,172.37148705,-65.43827469,24.49246693
40.45576340,21.12267394,2.55363282,-1.09867993,-3.10722331

>  <Name>
ligand

>  <RI>
0

>  <Rbt.Current_Directory>
/home/itssahil/PROJECTS/Mol_Feturizer/New_Systems/rnas/3D0U

>  <Rbt.Executable>
rbdock ($Id: //depot/dev/client3/rdock/2013.1/src/exe/rbdock.cxx#4 $)

>  <Rbt.Library>
libRbt.so (2013.1, Build901 2013/11/27)

>  <Rbt.Parameter_File>
/export/apps/rDock/src/rDock_2013.1_src/data/scripts/dock_solv.prm

>  <Rbt.Receptor>
prm/pocket_docking_6.prm

>  <SCORE>
-8.08478

>  <SCORE.INTER>
-8.21884

>  <SCORE.INTER.CONST>
1

>  <SCORE.INTER.POLAR>
0

>  <SCORE.INTER.ROT>
5

>  <SCORE.INTER.SOLV>
13.1496

>  <SCORE.INTER.VDW>
-16.7958

>  <SCORE.INTER.norm>
-0.821884

>  <SCORE.INTRA>
0.134062

>  <SCORE.INTRA.DIHEDRAL>
0.0271444

>  <SCORE.INTRA.DIHEDRAL.0>
2.22229

>  <SCORE.INTRA.POLAR>
0

>  <SCORE.INTRA.POLAR.0>
0

>  <SCORE.INTRA.REPUL>
0

>  <SCORE.INTRA.REPUL.0>
0

>  <SCORE.INTRA.SOLV>
0.492361

>  <SCORE.INTRA.SOLV.lig_0>
-31.87

>  <SCORE.INTRA.VDW>
-0.125691

>  <SCORE.INTRA.VDW.0>
-0.575321

>  <SCORE.INTRA.norm>
0.0134062

>  <SCORE.RESTR>
0

>  <SCORE.RESTR.CAVITY>
0

>  <SCORE.RESTR.norm>
0

>  <SCORE.SYSTEM>
0

>  <SCORE.SYSTEM.CONST>
0

>  <SCORE.SYSTEM.DIHEDRAL>
0

>  <SCORE.SYSTEM.SOLV>
0

>  <SCORE.SYSTEM.norm>
0

>  <SCORE.heavy>
10

>  <SCORE.norm>
-0.808478

>  <RMSD>
1.265

$$$$
ligand
 OpenBabel11021811463D
libRbt.so/2013.1/901 2013/11/27
 10  9  0  0  0  0  0  0  0  0999 V2000
   23.4280   41.3852   22.1278 N   0  0  0  0  0  0  0  0  0  0  0  0
   23.9318   40.1891   21.4640 C   0  0  2  0  0  0  0  0  0  0  0  0
   23.5910   38.9353   22.2676 C   0  0  0  0  0  0  0  0  0  0  0  0
   23.7070   38.9444   23.4966 O   0  0  0  0  0  0  0  0  0  0  0  0
   25.4417   40.2938   21.2284 C   0  0  0  0  0  0  0  0  0  0  0  0
   25.8363   41.4357   20.2996 C   0  0  0  0  0  0  0  0  0  0  0  0
   25.3185   41.2298   18.8789 C   0  0  0  0  0  0  0  0  0  0  0  0
   25.5240   42.4771   18.0049 C   0  0  0  0  0  0  0  0  0  0  0  0
   24.7662   43.6857   18.4595 N   0  0  0  0  0  0  0  0  0  0  0  0
   23.1832   37.9046   21.7160 O   0  0  0  0  0  0  0  0  0  0  0  0
  2  1  1  1  0  0  0
  2  3  1  0  0  0  0
  2  5  1  0  0  0  0
  3  4  1  0  0  0  0
  3 10  1  0  0  0  0
  5  6  1  0  0  0  0
  6  7  1  0  0  0  0
  7  8  1  0  0  0  0
  8  9  1  0  0  0  0
M  END
>  <CHROM.1>
-41.83512046,-62.94453370,-65.48688578,170.98354523,-63.59049137,24.46058843
40.61311870,20.81929576,2.33506312,-1.11036628,3.03996238

>  <Name>
ligand

>  <RI>
0

>  <Rbt.Current_Directory>
/home/itssahil/PROJECTS/Mol_Feturizer/New_Systems/rnas/3D0U

>  <Rbt.Executable>
rbdock ($Id: //depot/dev/client3/rdock/2013.1/src/exe/rbdock.cxx#4 $)

>  <Rbt.Library>
libRbt.so (2013.1, Build901 2013/11/27)

>  <Rbt.Parameter_File>
/export/apps/rDock/src/rDock_2013.1_src/data/scripts/dock_solv.prm

>  <Rbt.Receptor>
prm/pocket_docking_5.prm

>  <SCORE>
-8.069

>  <SCORE.INTER>
-8.25678

>  <SCORE.INTER.CONST>
1

>  <SCORE.INTER.POLAR>
0

>  <SCORE.INTER.ROT>
5

>  <SCORE.INTER.SOLV>
13.1616

>  <SCORE.INTER.VDW>
-16.8251

>  <SCORE.INTER.norm>
-0.825678

>  <SCORE.INTRA>
0.187777

>  <SCORE.INTRA.DIHEDRAL>
-0.172307

>  <SCORE.INTRA.DIHEDRAL.0>
2.22229

>  <SCORE.INTRA.POLAR>
0

>  <SCORE.INTRA.POLAR.0>
0

>  <SCORE.INTRA.REPUL>
0

>  <SCORE.INTRA.REPUL.0>
0

>  <SCORE.INTRA.SOLV>
0.648781

>  <SCORE.INTRA.SOLV.lig_0>
-31.87

>  <SCORE.INTRA.VDW>
-0.0504605

>  <SCORE.INTRA.VDW.0>
-0.575321

>  <SCORE.INTRA.norm>
0.0187777

>  <SCORE.RESTR>
0

>  <SCORE.RESTR.CAVITY>
0

>  <SCORE.RESTR.norm>
0

>  <SCORE.SYSTEM>
0

>  <SCORE.SYSTEM.CONST>
0

>  <SCORE.SYSTEM.DIHEDRAL>
0

>  <SCORE.SYSTEM.SOLV>
0

>  <SCORE.SYSTEM.norm>
0

>  <SCORE.heavy>
10

>  <SCORE.norm>
-0.8069

>  <RMSD>
1.283

$$$$
ligand
 OpenBabel11021811463D
libRbt.so/2013.1/901 2013/11/27
 10  9  0  0  0  0  0  0  0  0999 V2000
   23.4371   41.3612   22.1491 N   0  0  0  0  0  0  0  0  0  0  0  0
   23.9180   40.1456   21.5041 C   0  0  2  0  0  0  0  0  0  0  0  0
   23.5571   38.9115   22.3291 C   0  0  0  0  0  0  0  0  0  0  0  0
   23.6535   38.9466   23.5593 O   0  0  0  0  0  0  0  0  0  0  0  0
   25.4290   40.2196   21.2636 C   0  0  0  0  0  0  0  0  0  0  0  0
   25.8439   41.3545   20.3351 C   0  0  0  0  0  0  0  0  0  0  0  0
   25.3000   41.1718   18.9210 C   0  0  0  0  0  0  0  0  0  0  0  0
   25.6009   42.3853   18.0272 C   0  0  0  0  0  0  0  0  0  0  0  0
   24.9446   43.6576   18.4657 N   0  0  0  0  0  0  0  0  0  0  0  0
   23.1520   37.8714   21.7934 O   0  0  0  0  0  0  0  0  0  0  0  0
  2  1  1  1  0  0  0
  2  3  1  0  0  0  0
  2  5  1  0  0  0  0
  3  4  1  0  0  0  0
  3 10  1  0  0  0  0
  5  6  1  0  0  0  0
  6  7  1  0  0  0  0
  7  8  1  0  0  0  0
  8  9  1  0  0  0  0
M  END
>  <CHROM.1>
-40.55103688,-61.90237596,-64.63850613,174.25722253,-63.81822274,24.47073750
40.56805962,20.86027047,2.41665680,-1.11952233,3.11407724

>  <Name>
ligand

>  <RI>
0

>  <Rbt.Current_Directory>
/home/itssahil/PROJECTS/Mol_Feturizer/New_Systems/rnas/3D0U

>  <Rbt.Executable>
rbdock ($Id: //depot/dev/client3/rdock/2013.1/src/exe/rbdock.cxx#4 $)

>  <Rbt.Library>
libRbt.so (2013.1, Build901 2013/11/27)

>  <Rbt.Parameter_File>
/export/apps/rDock/src/rDock_2013.1_src/data/scripts/dock_solv.prm

>  <Rbt.Receptor>
prm/pocket_docking_3.prm

>  <SCORE>
-8.09486

>  <SCORE.INTER>
-8.1967

>  <SCORE.INTER.CONST>
1

>  <SCORE.INTER.POLAR>
0

>  <SCORE.INTER.ROT>
5

>  <SCORE.INTER.SOLV>
13.2161

>  <SCORE.INTER.VDW>
-16.8032

>  <SCORE.INTER.norm>
-0.81967

>  <SCORE.INTRA>
0.101831

>  <SCORE.INTRA.DIHEDRAL>
-0.419612

>  <SCORE.INTRA.DIHEDRAL.0>
2.22229

>  <SCORE.INTRA.POLAR>
0

>  <SCORE.INTRA.POLAR.0>
0

>  <SCORE.INTRA.REPUL>
0

>  <SCORE.INTRA.REPUL.0>
0

>  <SCORE.INTRA.SOLV>
0.654914

>  <SCORE.INTRA.SOLV.lig_0>
-31.87

>  <SCORE.INTRA.VDW>
-0.0158201

>  <SCORE.INTRA.VDW.0>
-0.575321

>  <SCORE.INTRA.norm>
0.0101831

>  <SCORE.RESTR>
0

>  <SCORE.RESTR.CAVITY>
0

>  <SCORE.RESTR.norm>
0

>  <SCORE.SYSTEM>
0

>  <SCORE.SYSTEM.CONST>
0

>  <SCORE.SYSTEM.DIHEDRAL>
0

>  <SCORE.SYSTEM.SOLV>
0

>  <SCORE.SYSTEM.norm>
0

>  <SCORE.heavy>
10

>  <SCORE.norm>
-0.809486

>  <RMSD>
1.284

$$$$
ligand
 OpenBabel11021811463D
libRbt.so/2013.1/901 2013/11/27
 10  9  0  0  0  0  0  0  0  0999 V2000
   23.3726   41.2933   22.5203 N   0  0  0  0  0  0  0  0  0  0  0  0
   23.8882   40.0768   21.9044 C   0  0  2  0  0  0  0  0  0  0  0  0
   23.4750   38.8431   22.7051 C   0  0  0  0  0  0  0  0  0  0  0  0
   23.0818   37.8326   22.1150 O   0  0  0  0  0  0  0  0  0  0  0  0
   25.4111   40.1469   21.7554 C   0  0  0  0  0  0  0  0  0  0  0  0
   25.8775   41.1833   20.7402 C   0  0  0  0  0  0  0  0  0  0  0  0
   25.4815   40.8133   19.3136 C   0  0  0  0  0  0  0  0  0  0  0  0
   25.9072   41.8880   18.3008 C   0  0  0  0  0  0  0  0  0  0  0  0
   25.2533   43.2205   18.4975 N   0  0  0  0  0  0  0  0  0  0  0  0
   23.5386   38.8234   23.9414 O   0  0  0  0  0  0  0  0  0  0  0  0
  2  1  1  1  0  0  0
  2  3  1  0  0  0  0
  2  5  1  0  0  0  0
  3  4  1  0  0  0  0
  3 10  1  0  0  0  0
  5  6  1  0  0  0  0
  6  7  1  0  0  0  0
  7  8  1  0  0  0  0
  8  9  1  0  0  0  0
M  END
>  <CHROM.1>
137.22538778,-68.08881359,-67.13312933,177.81451211,-63.18428207,24.51429449
40.37813320,21.20427423,2.64582762,-1.11764770,-3.00628913

>  <Name>
ligand

>  <RI>
0

>  <Rbt.Current_Directory>
/home/itssahil/PROJECTS/Mol_Feturizer/New_Systems/rnas/3D0U

>  <Rbt.Executable>
rbdock ($Id: //depot/dev/client3/rdock/2013.1/src/exe/rbdock.cxx#4 $)

>  <Rbt.Library>
libRbt.so (2013.1, Build901 2013/11/27)

>  <Rbt.Parameter_File>
/export/apps/rDock/src/rDock_2013.1_src/data/scripts/dock_solv.prm

>  <Rbt.Receptor>
prm/pocket_docking_8.prm

>  <SCORE>
-8.09124

>  <SCORE.INTER>
-8.10227

>  <SCORE.INTER.CONST>
1

>  <SCORE.INTER.POLAR>
0

>  <SCORE.INTER.ROT>
5

>  <SCORE.INTER.SOLV>
13.345

>  <SCORE.INTER.VDW>
-16.7832

>  <SCORE.INTER.norm>
-0.810227

>  <SCORE.INTRA>
0.0110285

>  <SCORE.INTRA.DIHEDRAL>
-0.228927

>  <SCORE.INTRA.DIHEDRAL.0>
2.22229

>  <SCORE.INTRA.POLAR>
0

>  <SCORE.INTRA.POLAR.0>
0

>  <SCORE.INTRA.REPUL>
0

>  <SCORE.INTRA.REPUL.0>
0

>  <SCORE.INTRA.SOLV>
0.480613

>  <SCORE.INTRA.SOLV.lig_0>
-31.87

>  <SCORE.INTRA.VDW>
-0.114815

>  <SCORE.INTRA.VDW.0>
-0.575321

>  <SCORE.INTRA.norm>
0.00110285

>  <SCORE.RESTR>
0

>  <SCORE.RESTR.CAVITY>
0

>  <SCORE.RESTR.norm>
0

>  <SCORE.SYSTEM>
0

>  <SCORE.SYSTEM.CONST>
0

>  <SCORE.SYSTEM.DIHEDRAL>
0

>  <SCORE.SYSTEM.SOLV>
0

>  <SCORE.SYSTEM.norm>
0

>  <SCORE.heavy>
10

>  <SCORE.norm>
-0.809124

>  <RMSD>
1.295

$$$$
ligand
 OpenBabel11021811463D
libRbt.so/2013.1/901 2013/11/27
 10  9  0  0  0  0  0  0  0  0999 V2000
   23.2864   41.7254   23.5746 N   0  0  0  0  0  0  0  0  0  0  0  0
   23.8120   41.1318   22.3512 C   0  0  2  0  0  0  0  0  0  0  0  0
   23.7843   39.6064   22.4299 C   0  0  0  0  0  0  0  0  0  0  0  0
   23.3001   38.9532   21.5010 O   0  0  0  0  0  0  0  0  0  0  0  0
   25.2291   41.6388   22.0668 C   0  0  0  0  0  0  0  0  0  0  0  0
   25.7704   41.2072   20.7093 C   0  0  0  0  0  0  0  0  0  0  0  0
   25.1308   41.9809   19.5599 C   0  0  0  0  0  0  0  0  0  0  0  0
   25.7876   41.6536   18.2096 C   0  0  0  0  0  0  0  0  0  0  0  0
   25.2662   42.4523   17.0555 N   0  0  0  0  0  0  0  0  0  0  0  0
   24.2524   39.0004   23.4028 O   0  0  0  0  0  0  0  0  0  0  0  0
  2  1  1  1  0  0  0
  2  3  1  0  0  0  0
  2  5  1  0  0  0  0
  3  4  1  0  0  0  0
  3 10  1  0  0  0  0
  5  6  1  0  0  0  0
  6  7  1  0  0  0  0
  7  8  1  0  0  0  0
  8  9  1  0  0  0  0
M  END
>  <CHROM.1>
130.65803367,-172.25698002,74.15578811,173.72455864,-175.99447684,24.55651803
40.89750136,21.09623842,-2.71736270,-1.22341293,-2.28579706

>  <Name>
ligand

>  <RI>
0

>  <Rbt.Current_Directory>
/home/itssahil/PROJECTS/Mol_Feturizer/New_Systems/rnas/3D0U

>  <Rbt.Executable>
rbdock ($Id: //depot/dev/client3/rdock/2013.1/src/exe/rbdock.cxx#4 $)

>  <Rbt.Library>
libRbt.so (2013.1, Build901 2013/11/27)

>  <Rbt.Parameter_File>
/export/apps/rDock/src/rDock_2013.1_src/data/scripts/dock_solv.prm

>  <Rbt.Receptor>
prm/pocket_docking_7.prm

>  <SCORE>
-6.39242

>  <SCORE.INTER>
-5.66027

>  <SCORE.INTER.CONST>
1

>  <SCORE.INTER.POLAR>
0

>  <SCORE.INTER.ROT>
5

>  <SCORE.INTER.SOLV>
20.856

>  <SCORE.INTER.VDW>
-17.6588

>  <SCORE.INTER.norm>
-0.566027

>  <SCORE.INTRA>
-0.732153

>  <SCORE.INTRA.DIHEDRAL>
0.48876

>  <SCORE.INTRA.DIHEDRAL.0>
2.22229

>  <SCORE.INTRA.POLAR>
0

>  <SCORE.INTRA.POLAR.0>
0

>  <SCORE.INTRA.REPUL>
0

>  <SCORE.INTRA.REPUL.0>
0

>  <SCORE.INTRA.SOLV>
-1.38453

>  <SCORE.INTRA.SOLV.lig_0>
-31.87

>  <SCORE.INTRA.VDW>
-0.284268

>  <SCORE.INTRA.VDW.0>
-0.575321

>  <SCORE.INTRA.norm>
-0.0732153

>  <SCORE.RESTR>
0

>  <SCORE.RESTR.CAVITY>
0

>  <SCORE.RESTR.norm>
0

>  <SCORE.SYSTEM>
0

>  <SCORE.SYSTEM.CONST>
0

>  <SCORE.SYSTEM.DIHEDRAL>
0

>  <SCORE.SYSTEM.SOLV>
0

>  <SCORE.SYSTEM.norm>
0

>  <SCORE.heavy>
10

>  <SCORE.norm>
-0.639242

>  <RMSD>
1.326

$$$$
ligand
 OpenBabel11021811463D
libRbt.so/2013.1/901 2013/11/27
 10  9  0  0  0  0  0  0  0  0999 V2000
   23.6741   40.7178   24.2982 N   0  0  0  0  0  0  0  0  0  0  0  0
   23.6446   40.3534   22.8870 C   0  0  2  0  0  0  0  0  0  0  0  0
   23.3821   38.8582   22.7155 C   0  0  0  0  0  0  0  0  0  0  0  0
   23.6163   38.0837   23.6478 O   0  0  0  0  0  0  0  0  0  0  0  0
   24.9472   40.7629   22.1930 C   0  0  0  0  0  0  0  0  0  0  0  0
   24.8526   40.7677   20.6720 C   0  0  0  0  0  0  0  0  0  0  0  0
   26.1643   41.1850   20.0131 C   0  0  0  0  0  0  0  0  0  0  0  0
   25.9910   41.4646   18.5119 C   0  0  0  0  0  0  0  0  0  0  0  0
   25.1165   42.6380   18.1956 N   0  0  0  0  0  0  0  0  0  0  0  0
   22.9221   38.3992   21.6617 O   0  0  0  0  0  0  0  0  0  0  0  0
  2  1  1  1  0  0  0
  2  3  1  0  0  0  0
  2  5  1  0  0  0  0
  3  4  1  0  0  0  0
  3 10  1  0  0  0  0
  5  6  1  0  0  0  0
  6  7  1  0  0  0  0
  7  8  1  0  0  0  0
  8  9  1  0  0  0  0
M  END
>  <CHROM.1>
-21.32306688,-164.25747769,179.77668952,-168.41532626,65.35003160,24.41921031
40.28518430,21.48478800,-2.55695234,-1.08870399,-1.94307399

>  <Name>
ligand

>  <RI>
0

>  <Rbt.Current_Directory>
/home/itssahil/PROJECTS/Mol_Feturizer/New_Systems/rnas/3D0U

>  <Rbt.Executable>
rbdock ($Id: //depot/dev/client3/rdock/2013.1/src/exe/rbdock.cxx#4 $)

>  <Rbt.Library>
libRbt.so (2013.1, Build901 2013/11/27)

>  <Rbt.Parameter_File>
/export/apps/rDock/src/rDock_2013.1_src/data/scripts/dock_solv.prm

>  <Rbt.Receptor>
prm/blind_docking_60.prm

>  <SCORE>
-7.78252

>  <SCORE.INTER>
-7.62616

>  <SCORE.INTER.CONST>
1

>  <SCORE.INTER.POLAR>
0

>  <SCORE.INTER.ROT>
5

>  <SCORE.INTER.SOLV>
15.3507

>  <SCORE.INTER.VDW>
-17.1343

>  <SCORE.INTER.norm>
-0.762616

>  <SCORE.INTRA>
-0.156359

>  <SCORE.INTRA.DIHEDRAL>
0.844091

>  <SCORE.INTRA.DIHEDRAL.0>
2.22229

>  <SCORE.INTRA.POLAR>
0

>  <SCORE.INTRA.POLAR.0>
0

>  <SCORE.INTRA.REPUL>
0

>  <SCORE.INTRA.REPUL.0>
0

>  <SCORE.INTRA.SOLV>
-0.691067

>  <SCORE.INTRA.SOLV.lig_0>
-31.87

>  <SCORE.INTRA.VDW>
-0.232872

>  <SCORE.INTRA.VDW.0>
-0.575321

>  <SCORE.INTRA.norm>
-0.0156359

>  <SCORE.RESTR>
0

>  <SCORE.RESTR.CAVITY>
0

>  <SCORE.RESTR.norm>
0

>  <SCORE.SYSTEM>
0

>  <SCORE.SYSTEM.CONST>
0

>  <SCORE.SYSTEM.DIHEDRAL>
0

>  <SCORE.SYSTEM.SOLV>
0

>  <SCORE.SYSTEM.norm>
0

>  <SCORE.heavy>
10

>  <SCORE.norm>
-0.778252

>  <RMSD>
1.484

$$$$
ligand
 OpenBabel11021811463D
libRbt.so/2013.1/901 2013/11/27
 10  9  0  0  0  0  0  0  0  0999 V2000
   25.4398   39.7393   22.1788 N   0  0  0  0  0  0  0  0  0  0  0  0
   24.6236   40.9086   22.4818 C   0  0  2  0  0  0  0  0  0  0  0  0
   23.7497   40.6599   23.7098 C   0  0  0  0  0  0  0  0  0  0  0  0
   23.5384   41.5775   24.5081 O   0  0  0  0  0  0  0  0  0  0  0  0
   23.7689   41.3023   21.2732 C   0  0  0  0  0  0  0  0  0  0  0  0
   24.5835   41.8097   20.0894 C   0  0  0  0  0  0  0  0  0  0  0  0
   23.7006   42.2190   18.9138 C   0  0  0  0  0  0  0  0  0  0  0  0
   24.5201   42.8153   17.7586 C   0  0  0  0  0  0  0  0  0  0  0  0
   25.2572   44.0720   18.1040 N   0  0  0  0  0  0  0  0  0  0  0  0
   23.2297   39.5562   23.9208 O   0  0  0  0  0  0  0  0  0  0  0  0
  2  1  1  6  0  0  0
  2  3  1  0  0  0  0
  2  5  1  0  0  0  0
  3  4  1  0  0  0  0
  3 10  1  0  0  0  0
  5  6  1  0  0  0  0
  6  7  1  0  0  0  0
  7  8  1  0  0  0  0
  8  9  1  0  0  0  0
M  END
>  <CHROM.1>
143.19751454,-66.94245825,-178.85922481,176.26339493,-62.25488469,24.22118024
41.45622617,21.33282188,-1.89095930,1.11725461,-0.83625066

>  <Name>
ligand

>  <RI>
0

>  <Rbt.Current_Directory>
/home/itssahil/PROJECTS/Mol_Feturizer/New_Systems/rnas/3D0U

>  <Rbt.Executable>
rbdock ($Id: //depot/dev/client3/rdock/2013.1/src/exe/rbdock.cxx#4 $)

>  <Rbt.Library>
libRbt.so (2013.1, Build901 2013/11/27)

>  <Rbt.Parameter_File>
/export/apps/rDock/src/rDock_2013.1_src/data/scripts/dock_solv.prm

>  <Rbt.Receptor>
prm/pocket_docking_3.prm

>  <SCORE>
-6.36009

>  <SCORE.INTER>
-5.90595

>  <SCORE.INTER.CONST>
1

>  <SCORE.INTER.POLAR>
0

>  <SCORE.INTER.ROT>
5

>  <SCORE.INTER.SOLV>
16.6861

>  <SCORE.INTER.VDW>
-16.4327

>  <SCORE.INTER.norm>
-0.590595

>  <SCORE.INTRA>
-0.454143

>  <SCORE.INTRA.DIHEDRAL>
-0.488994

>  <SCORE.INTRA.DIHEDRAL.0>
2.22229

>  <SCORE.INTRA.POLAR>
0

>  <SCORE.INTRA.POLAR.0>
0

>  <SCORE.INTRA.REPUL>
0

>  <SCORE.INTRA.REPUL.0>
0

>  <SCORE.INTRA.SOLV>
0.0611115

>  <SCORE.INTRA.SOLV.lig_0>
-31.87

>  <SCORE.INTRA.VDW>
-0.240201

>  <SCORE.INTRA.VDW.0>
-0.575321

>  <SCORE.INTRA.norm>
-0.0454143

>  <SCORE.RESTR>
0

>  <SCORE.RESTR.CAVITY>
0

>  <SCORE.RESTR.norm>
0

>  <SCORE.SYSTEM>
0

>  <SCORE.SYSTEM.CONST>
0

>  <SCORE.SYSTEM.DIHEDRAL>
0

>  <SCORE.SYSTEM.SOLV>
0

>  <SCORE.SYSTEM.norm>
0

>  <SCORE.heavy>
10

>  <SCORE.norm>
-0.636009

>  <RMSD>
1.513

$$$$
ligand
 OpenBabel11021811463D
libRbt.so/2013.1/901 2013/11/27
 10  9  0  0  0  0  0  0  0  0999 V2000
   23.7041   40.4212   24.3553 N   0  0  0  0  0  0  0  0  0  0  0  0
   23.6347   40.1440   22.9258 C   0  0  2  0  0  0  0  0  0  0  0  0
   23.3126   38.6725   22.6710 C   0  0  0  0  0  0  0  0  0  0  0  0
   23.4360   37.8508   23.5840 O   0  0  0  0  0  0  0  0  0  0  0  0
   24.9389   40.5465   22.2305 C   0  0  0  0  0  0  0  0  0  0  0  0
   24.8069   40.6833   20.7185 C   0  0  0  0  0  0  0  0  0  0  0  0
   26.1168   41.1078   20.0605 C   0  0  0  0  0  0  0  0  0  0  0  0
   25.9174   41.5182   18.5930 C   0  0  0  0  0  0  0  0  0  0  0  0
   25.0605   42.7304   18.3982 N   0  0  0  0  0  0  0  0  0  0  0  0
   22.9127   38.2799   21.5670 O   0  0  0  0  0  0  0  0  0  0  0  0
  2  1  1  1  0  0  0
  2  3  1  0  0  0  0
  2  5  1  0  0  0  0
  3  4  1  0  0  0  0
  3 10  1  0  0  0  0
  5  6  1  0  0  0  0
  6  7  1  0  0  0  0
  7  8  1  0  0  0  0
  8  9  1  0  0  0  0
M  END
>  <CHROM.1>
-15.69246974,-162.68849463,179.03575057,-168.46570122,64.33852948,24.37090804
40.15764130,21.51351164,-2.51972392,-1.07556879,-1.84450567

>  <Name>
ligand

>  <RI>
0

>  <Rbt.Current_Directory>
/home/itssahil/PROJECTS/Mol_Feturizer/New_Systems/rnas/3D0U

>  <Rbt.Executable>
rbdock ($Id: //depot/dev/client3/rdock/2013.1/src/exe/rbdock.cxx#4 $)

>  <Rbt.Library>
libRbt.so (2013.1, Build901 2013/11/27)

>  <Rbt.Parameter_File>
/export/apps/rDock/src/rDock_2013.1_src/data/scripts/dock_solv.prm

>  <Rbt.Receptor>
prm/pocket_docking_6.prm

>  <SCORE>
-7.73497

>  <SCORE.INTER>
-7.69961

>  <SCORE.INTER.CONST>
1

>  <SCORE.INTER.POLAR>
0

>  <SCORE.INTER.ROT>
5

>  <SCORE.INTER.SOLV>
14.4424

>  <SCORE.INTER.VDW>
-16.8805

>  <SCORE.INTER.norm>
-0.769961

>  <SCORE.INTRA>
-0.0353662

>  <SCORE.INTRA.DIHEDRAL>
0.981437

>  <SCORE.INTRA.DIHEDRAL.0>
2.22229

>  <SCORE.INTRA.POLAR>
0

>  <SCORE.INTRA.POLAR.0>
0

>  <SCORE.INTRA.REPUL>
0

>  <SCORE.INTRA.REPUL.0>
0

>  <SCORE.INTRA.SOLV>
-0.673171

>  <SCORE.INTRA.SOLV.lig_0>
-31.87

>  <SCORE.INTRA.VDW>
-0.189499

>  <SCORE.INTRA.VDW.0>
-0.575321

>  <SCORE.INTRA.norm>
-0.00353662

>  <SCORE.RESTR>
0

>  <SCORE.RESTR.CAVITY>
0

>  <SCORE.RESTR.norm>
0

>  <SCORE.SYSTEM>
0

>  <SCORE.SYSTEM.CONST>
0

>  <SCORE.SYSTEM.DIHEDRAL>
0

>  <SCORE.SYSTEM.SOLV>
0

>  <SCORE.SYSTEM.norm>
0

>  <SCORE.heavy>
10

>  <SCORE.norm>
-0.773497

>  <RMSD>
1.600

$$$$
ligand
 OpenBabel11021811463D
libRbt.so/2013.1/901 2013/11/27
 10  9  0  0  0  0  0  0  0  0999 V2000
   25.2176   39.6957   22.2680 N   0  0  0  0  0  0  0  0  0  0  0  0
   24.6243   41.0084   22.4911 C   0  0  2  0  0  0  0  0  0  0  0  0
   23.8161   41.0282   23.7874 C   0  0  0  0  0  0  0  0  0  0  0  0
   23.7567   42.0634   24.4572 O   0  0  0  0  0  0  0  0  0  0  0  0
   23.7558   41.4217   21.2990 C   0  0  0  0  0  0  0  0  0  0  0  0
   24.5568   41.7430   20.0431 C   0  0  0  0  0  0  0  0  0  0  0  0
   23.6702   42.2361   18.9030 C   0  0  0  0  0  0  0  0  0  0  0  0
   24.4950   42.7084   17.6953 C   0  0  0  0  0  0  0  0  0  0  0  0
   25.3870   43.8786   17.9719 N   0  0  0  0  0  0  0  0  0  0  0  0
   23.2004   40.0287   24.1808 O   0  0  0  0  0  0  0  0  0  0  0  0
  2  1  1  6  0  0  0
  2  3  1  0  0  0  0
  2  5  1  0  0  0  0
  3  4  1  0  0  0  0
  3 10  1  0  0  0  0
  5  6  1  0  0  0  0
  6  7  1  0  0  0  0
  7  8  1  0  0  0  0
  8  9  1  0  0  0  0
M  END
>  <CHROM.1>
147.07947326,-70.06608117,-176.34618208,173.54347877,-62.69736111,24.22967011
41.57818145,21.35030542,-2.06483521,1.28108293,-0.73017227

>  <Name>
ligand

>  <RI>
0

>  <Rbt.Current_Directory>
/home/itssahil/PROJECTS/Mol_Feturizer/New_Systems/rnas/3D0U

>  <Rbt.Executable>
rbdock ($Id: //depot/dev/client3/rdock/2013.1/src/exe/rbdock.cxx#4 $)

>  <Rbt.Library>
libRbt.so (2013.1, Build901 2013/11/27)

>  <Rbt.Parameter_File>
/export/apps/rDock/src/rDock_2013.1_src/data/scripts/dock_solv.prm

>  <Rbt.Receptor>
prm/pocket_docking_3.prm

>  <SCORE>
-6.68565

>  <SCORE.INTER>
-6.38562

>  <SCORE.INTER.CONST>
1

>  <SCORE.INTER.POLAR>
0

>  <SCORE.INTER.ROT>
5

>  <SCORE.INTER.SOLV>
16.4423

>  <SCORE.INTER.VDW>
-16.6712

>  <SCORE.INTER.norm>
-0.638562

>  <SCORE.INTRA>
-0.300036

>  <SCORE.INTRA.DIHEDRAL>
-0.108221

>  <SCORE.INTRA.DIHEDRAL.0>
2.22229

>  <SCORE.INTRA.POLAR>
0

>  <SCORE.INTRA.POLAR.0>
0

>  <SCORE.INTRA.REPUL>
0

>  <SCORE.INTRA.REPUL.0>
0

>  <SCORE.INTRA.SOLV>
0.0208715

>  <SCORE.INTRA.SOLV.lig_0>
-31.87

>  <SCORE.INTRA.VDW>
-0.256361

>  <SCORE.INTRA.VDW.0>
-0.575321

>  <SCORE.INTRA.norm>
-0.0300036

>  <SCORE.RESTR>
0

>  <SCORE.RESTR.CAVITY>
0

>  <SCORE.RESTR.norm>
0

>  <SCORE.SYSTEM>
0

>  <SCORE.SYSTEM.CONST>
0

>  <SCORE.SYSTEM.DIHEDRAL>
0

>  <SCORE.SYSTEM.SOLV>
0

>  <SCORE.SYSTEM.norm>
0

>  <SCORE.heavy>
10

>  <SCORE.norm>
-0.668565

>  <RMSD>
1.643

$$$$
ligand
 OpenBabel11021811463D
libRbt.so/2013.1/901 2013/11/27
 10  9  0  0  0  0  0  0  0  0999 V2000
   25.6712   40.3301   21.6683 N   0  0  0  0  0  0  0  0  0  0  0  0
   24.5673   41.2493   21.9167 C   0  0  2  0  0  0  0  0  0  0  0  0
   23.8891   40.9390   23.2499 C   0  0  0  0  0  0  0  0  0  0  0  0
   23.5681   41.8622   24.0040 O   0  0  0  0  0  0  0  0  0  0  0  0
   23.5566   41.2076   20.7664 C   0  0  0  0  0  0  0  0  0  0  0  0
   24.0946   41.7801   19.4606 C   0  0  0  0  0  0  0  0  0  0  0  0
   24.3663   43.2788   19.5556 C   0  0  0  0  0  0  0  0  0  0  0  0
   24.8801   43.8560   18.2272 C   0  0  0  0  0  0  0  0  0  0  0  0
   25.1753   45.3235   18.2606 N   0  0  0  0  0  0  0  0  0  0  0  0
   23.6363   39.7762   23.5918 O   0  0  0  0  0  0  0  0  0  0  0  0
  2  1  1  6  0  0  0
  2  3  1  0  0  0  0
  2  5  1  0  0  0  0
  3  4  1  0  0  0  0
  3 10  1  0  0  0  0
  5  6  1  0  0  0  0
  6  7  1  0  0  0  0
  7  8  1  0  0  0  0
  8  9  1  0  0  0  0
M  END
>  <CHROM.1>
137.24054348,-68.18699932,-66.19666292,-178.78017247,-179.55163927,24.32437093
41.94780217,21.10950555,-2.11334961,1.27852415,-0.41540607

>  <Name>
ligand

>  <RI>
0

>  <Rbt.Current_Directory>
/home/itssahil/PROJECTS/Mol_Feturizer/New_Systems/rnas/3D0U

>  <Rbt.Executable>
rbdock ($Id: //depot/dev/client3/rdock/2013.1/src/exe/rbdock.cxx#4 $)

>  <Rbt.Library>
libRbt.so (2013.1, Build901 2013/11/27)

>  <Rbt.Parameter_File>
/export/apps/rDock/src/rDock_2013.1_src/data/scripts/dock_solv.prm

>  <Rbt.Receptor>
prm/blind_docking_60.prm

>  <SCORE>
-6.19865

>  <SCORE.INTER>
-5.73736

>  <SCORE.INTER.CONST>
1

>  <SCORE.INTER.POLAR>
0

>  <SCORE.INTER.ROT>
5

>  <SCORE.INTER.SOLV>
17.2193

>  <SCORE.INTER.VDW>
-16.498

>  <SCORE.INTER.norm>
-0.573736

>  <SCORE.INTRA>
-0.461283

>  <SCORE.INTRA.DIHEDRAL>
-0.325203

>  <SCORE.INTRA.DIHEDRAL.0>
2.22229

>  <SCORE.INTRA.POLAR>
0

>  <SCORE.INTRA.POLAR.0>
0

>  <SCORE.INTRA.REPUL>
0

>  <SCORE.INTRA.REPUL.0>
0

>  <SCORE.INTRA.SOLV>
-0.365914

>  <SCORE.INTRA.SOLV.lig_0>
-31.87

>  <SCORE.INTRA.VDW>
-0.115725

>  <SCORE.INTRA.VDW.0>
-0.575321

>  <SCORE.INTRA.norm>
-0.0461283

>  <SCORE.RESTR>
0

>  <SCORE.RESTR.CAVITY>
0

>  <SCORE.RESTR.norm>
0

>  <SCORE.SYSTEM>
0

>  <SCORE.SYSTEM.CONST>
0

>  <SCORE.SYSTEM.DIHEDRAL>
0

>  <SCORE.SYSTEM.SOLV>
0

>  <SCORE.SYSTEM.norm>
0

>  <SCORE.heavy>
10

>  <SCORE.norm>
-0.619865

>  <RMSD>
1.665

$$$$
ligand
 OpenBabel11021811463D
libRbt.so/2013.1/901 2013/11/27
 10  9  0  0  0  0  0  0  0  0999 V2000
   24.0759   39.2829   21.5314 N   0  0  0  0  0  0  0  0  0  0  0  0
   24.9296   40.2034   22.2723 C   0  0  2  0  0  0  0  0  0  0  0  0
   24.1468   40.8957   23.3867 C   0  0  0  0  0  0  0  0  0  0  0  0
   24.3496   42.0892   23.6282 O   0  0  0  0  0  0  0  0  0  0  0  0
   25.5658   41.2311   21.3313 C   0  0  0  0  0  0  0  0  0  0  0  0
   24.5499   42.1077   20.6090 C   0  0  0  0  0  0  0  0  0  0  0  0
   25.2178   43.1579   19.7259 C   0  0  0  0  0  0  0  0  0  0  0  0
   24.2003   44.1514   19.1431 C   0  0  0  0  0  0  0  0  0  0  0  0
   24.8040   45.2503   18.3247 N   0  0  0  0  0  0  0  0  0  0  0  0
   23.2951   40.2905   24.0509 O   0  0  0  0  0  0  0  0  0  0  0  0
  2  1  1  6  0  0  0
  2  3  1  0  0  0  0
  2  5  1  0  0  0  0
  3  4  1  0  0  0  0
  3 10  1  0  0  0  0
  5  6  1  0  0  0  0
  6  7  1  0  0  0  0
  7  8  1  0  0  0  0
  8  9  1  0  0  0  0
M  END
>  <CHROM.1>
-140.86377742,61.40896130,177.58333454,-172.65797713,176.95291666,24.49645587
41.87273672,21.43435933,-2.00501264,1.28519431,-0.40970984

>  <Name>
ligand

>  <RI>
0

>  <Rbt.Current_Directory>
/home/itssahil/PROJECTS/Mol_Feturizer/New_Systems/rnas/3D0U

>  <Rbt.Executable>
rbdock ($Id: //depot/dev/client3/rdock/2013.1/src/exe/rbdock.cxx#4 $)

>  <Rbt.Library>
libRbt.so (2013.1, Build901 2013/11/27)

>  <Rbt.Parameter_File>
/export/apps/rDock/src/rDock_2013.1_src/data/scripts/dock_solv.prm

>  <Rbt.Receptor>
prm/pocket_docking_4.prm

>  <SCORE>
-5.74317

>  <SCORE.INTER>
-5.95043

>  <SCORE.INTER.CONST>
1

>  <SCORE.INTER.POLAR>
0

>  <SCORE.INTER.ROT>
5

>  <SCORE.INTER.SOLV>
16.4665

>  <SCORE.INTER.VDW>
-16.3891

>  <SCORE.INTER.norm>
-0.595043

>  <SCORE.INTRA>
0.207262

>  <SCORE.INTRA.DIHEDRAL>
-0.428403

>  <SCORE.INTRA.DIHEDRAL.0>
2.22229

>  <SCORE.INTRA.POLAR>
0

>  <SCORE.INTRA.POLAR.0>
0

>  <SCORE.INTRA.REPUL>
0

>  <SCORE.INTRA.REPUL.0>
0

>  <SCORE.INTRA.SOLV>
-0.753384

>  <SCORE.INTRA.SOLV.lig_0>
-31.87

>  <SCORE.INTRA.VDW>
0.798155

>  <SCORE.INTRA.VDW.0>
-0.575321

>  <SCORE.INTRA.norm>
0.0207262

>  <SCORE.RESTR>
0

>  <SCORE.RESTR.CAVITY>
0

>  <SCORE.RESTR.norm>
0

>  <SCORE.SYSTEM>
0

>  <SCORE.SYSTEM.CONST>
0

>  <SCORE.SYSTEM.DIHEDRAL>
0

>  <SCORE.SYSTEM.SOLV>
0

>  <SCORE.SYSTEM.norm>
0

>  <SCORE.heavy>
10

>  <SCORE.norm>
-0.574317

>  <RMSD>
1.823

$$$$
ligand
 OpenBabel11021811463D
libRbt.so/2013.1/901 2013/11/27
 10  9  0  0  0  0  0  0  0  0999 V2000
   25.1774   39.7227   22.5483 N   0  0  0  0  0  0  0  0  0  0  0  0
   24.7205   41.0922   22.3461 C   0  0  2  0  0  0  0  0  0  0  0  0
   23.8509   41.5548   23.5138 C   0  0  0  0  0  0  0  0  0  0  0  0
   23.2533   40.7214   24.2010 O   0  0  0  0  0  0  0  0  0  0  0  0
   23.9678   41.2232   21.0185 C   0  0  0  0  0  0  0  0  0  0  0  0
   24.8482   41.0043   19.7940 C   0  0  0  0  0  0  0  0  0  0  0  0
   25.9224   42.0793   19.6554 C   0  0  0  0  0  0  0  0  0  0  0  0
   25.3169   43.4687   19.4007 C   0  0  0  0  0  0  0  0  0  0  0  0
   24.5140   43.5749   18.1414 N   0  0  0  0  0  0  0  0  0  0  0  0
   23.7398   42.7537   23.8022 O   0  0  0  0  0  0  0  0  0  0  0  0
  2  1  1  1  0  0  0
  2  3  1  0  0  0  0
  2  5  1  0  0  0  0
  3  4  1  0  0  0  0
  3 10  1  0  0  0  0
  5  6  1  0  0  0  0
  6  7  1  0  0  0  0
  7  8  1  0  0  0  0
  8  9  1  0  0  0  0
M  END
>  <CHROM.1>
-24.64820873,-66.15024636,-65.00539026,-64.74995025,-61.19701086,24.51047064
41.72688904,21.47796340,-2.15662786,1.12272895,-0.68565513

>  <Name>
ligand

>  <RI>
0

>  <Rbt.Current_Directory>
/home/itssahil/PROJECTS/Mol_Feturizer/New_Systems/rnas/3D0U

>  <Rbt.Executable>
rbdock ($Id: //depot/dev/client3/rdock/2013.1/src/exe/rbdock.cxx#4 $)

>  <Rbt.Library>
libRbt.so (2013.1, Build901 2013/11/27)

>  <Rbt.Parameter_File>
/export/apps/rDock/src/rDock_2013.1_src/data/scripts/dock_solv.prm

>  <Rbt.Receptor>
prm/blind_docking_60.prm

>  <SCORE>
-5.80758

>  <SCORE.INTER>
-6.77874

>  <SCORE.INTER.CONST>
1

>  <SCORE.INTER.POLAR>
0

>  <SCORE.INTER.ROT>
5

>  <SCORE.INTER.SOLV>
14.7159

>  <SCORE.INTER.VDW>
-16.3578

>  <SCORE.INTER.norm>
-0.677874

>  <SCORE.INTRA>
0.97116

>  <SCORE.INTRA.DIHEDRAL>
-0.350738

>  <SCORE.INTRA.DIHEDRAL.0>
2.22229

>  <SCORE.INTRA.POLAR>
0

>  <SCORE.INTRA.POLAR.0>
0

>  <SCORE.INTRA.REPUL>
0

>  <SCORE.INTRA.REPUL.0>
0

>  <SCORE.INTRA.SOLV>
1.16659

>  <SCORE.INTRA.SOLV.lig_0>
-31.87

>  <SCORE.INTRA.VDW>
0.563237

>  <SCORE.INTRA.VDW.0>
-0.575321

>  <SCORE.INTRA.norm>
0.097116

>  <SCORE.RESTR>
0

>  <SCORE.RESTR.CAVITY>
0

>  <SCORE.RESTR.norm>
0

>  <SCORE.SYSTEM>
0

>  <SCORE.SYSTEM.CONST>
0

>  <SCORE.SYSTEM.DIHEDRAL>
0

>  <SCORE.SYSTEM.SOLV>
0

>  <SCORE.SYSTEM.norm>
0

>  <SCORE.heavy>
10

>  <SCORE.norm>
-0.580758

>  <RMSD>
1.837

$$$$
ligand
 OpenBabel11021811463D
libRbt.so/2013.1/901 2013/11/27
 10  9  0  0  0  0  0  0  0  0999 V2000
   24.4896   39.4027   21.8745 N   0  0  0  0  0  0  0  0  0  0  0  0
   24.5344   40.8388   22.1208 C   0  0  2  0  0  0  0  0  0  0  0  0
   23.8335   41.1891   23.4323 C   0  0  0  0  0  0  0  0  0  0  0  0
   23.3502   40.2911   24.1280 O   0  0  0  0  0  0  0  0  0  0  0  0
   23.9192   41.6103   20.9492 C   0  0  0  0  0  0  0  0  0  0  0  0
   24.7897   41.6161   19.6985 C   0  0  0  0  0  0  0  0  0  0  0  0
   24.1593   42.4128   18.5597 C   0  0  0  0  0  0  0  0  0  0  0  0
   23.9361   43.8846   18.9414 C   0  0  0  0  0  0  0  0  0  0  0  0
   25.1897   44.6432   19.2496 N   0  0  0  0  0  0  0  0  0  0  0  0
   23.7493   42.3591   23.8281 O   0  0  0  0  0  0  0  0  0  0  0  0
  2  1  1  6  0  0  0
  2  3  1  0  0  0  0
  2  5  1  0  0  0  0
  3  4  1  0  0  0  0
  3 10  1  0  0  0  0
  5  6  1  0  0  0  0
  6  7  1  0  0  0  0
  7  8  1  0  0  0  0
  8  9  1  0  0  0  0
M  END
>  <CHROM.1>
1.29064474,-72.38606782,-178.99972670,60.32353730,62.44158113,24.17961896
41.82688027,21.31709233,-2.39503289,1.38855534,-0.20460871

>  <Name>
ligand

>  <RI>
0

>  <Rbt.Current_Directory>
/home/itssahil/PROJECTS/Mol_Feturizer/New_Systems/rnas/3D0U

>  <Rbt.Executable>
rbdock ($Id: //depot/dev/client3/rdock/2013.1/src/exe/rbdock.cxx#4 $)

>  <Rbt.Library>
libRbt.so (2013.1, Build901 2013/11/27)

>  <Rbt.Parameter_File>
/export/apps/rDock/src/rDock_2013.1_src/data/scripts/dock_solv.prm

>  <Rbt.Receptor>
prm/pocket_docking_5.prm

>  <SCORE>
-6.48625

>  <SCORE.INTER>
-7.47236

>  <SCORE.INTER.CONST>
1

>  <SCORE.INTER.POLAR>
0

>  <SCORE.INTER.ROT>
5

>  <SCORE.INTER.SOLV>
12.4015

>  <SCORE.INTER.VDW>
-16.0487

>  <SCORE.INTER.norm>
-0.747236

>  <SCORE.INTRA>
0.986111

>  <SCORE.INTRA.DIHEDRAL>
-0.108664

>  <SCORE.INTRA.DIHEDRAL.0>
2.22229

>  <SCORE.INTRA.POLAR>
0

>  <SCORE.INTRA.POLAR.0>
0

>  <SCORE.INTRA.REPUL>
0

>  <SCORE.INTRA.REPUL.0>
0

>  <SCORE.INTRA.SOLV>
0.621074

>  <SCORE.INTRA.SOLV.lig_0>
-31.87

>  <SCORE.INTRA.VDW>
0.729906

>  <SCORE.INTRA.VDW.0>
-0.575321

>  <SCORE.INTRA.norm>
0.0986111

>  <SCORE.RESTR>
0

>  <SCORE.RESTR.CAVITY>
0

>  <SCORE.RESTR.norm>
0

>  <SCORE.SYSTEM>
0

>  <SCORE.SYSTEM.CONST>
0

>  <SCORE.SYSTEM.DIHEDRAL>
0

>  <SCORE.SYSTEM.SOLV>
0

>  <SCORE.SYSTEM.norm>
0

>  <SCORE.heavy>
10

>  <SCORE.norm>
-0.648625

>  <RMSD>
1.840

$$$$
ligand
 OpenBabel11021811463D
libRbt.so/2013.1/901 2013/11/27
 10  9  0  0  0  0  0  0  0  0999 V2000
   25.5063   40.2141   22.1945 N   0  0  0  0  0  0  0  0  0  0  0  0
   24.6852   41.4136   22.0841 C   0  0  2  0  0  0  0  0  0  0  0  0
   23.8471   41.6184   23.3449 C   0  0  0  0  0  0  0  0  0  0  0  0
   23.6850   42.7563   23.7953 O   0  0  0  0  0  0  0  0  0  0  0  0
   23.7941   41.3493   20.8399 C   0  0  0  0  0  0  0  0  0  0  0  0
   24.5746   41.3273   19.5312 C   0  0  0  0  0  0  0  0  0  0  0  0
   25.2869   42.6497   19.2613 C   0  0  0  0  0  0  0  0  0  0  0  0
   24.2964   43.7887   18.9725 C   0  0  0  0  0  0  0  0  0  0  0  0
   24.9363   45.1164   18.7092 N   0  0  0  0  0  0  0  0  0  0  0  0
   23.3081   40.6665   23.9248 O   0  0  0  0  0  0  0  0  0  0  0  0
  2  1  1  1  0  0  0
  2  3  1  0  0  0  0
  2  5  1  0  0  0  0
  3  4  1  0  0  0  0
  3 10  1  0  0  0  0
  5  6  1  0  0  0  0
  6  7  1  0  0  0  0
  7  8  1  0  0  0  0
  8  9  1  0  0  0  0
M  END
>  <CHROM.1>
140.71652833,-63.87939636,-68.14588646,-68.02381240,179.58006921,24.37241062
42.09084829,21.30298541,-2.06163639,1.20669327,-0.59529777

>  <Name>
ligand

>  <RI>
0

>  <Rbt.Current_Directory>
/home/itssahil/PROJECTS/Mol_Feturizer/New_Systems/rnas/3D0U

>  <Rbt.Executable>
rbdock ($Id: //depot/dev/client3/rdock/2013.1/src/exe/rbdock.cxx#4 $)

>  <Rbt.Library>
libRbt.so (2013.1, Build901 2013/11/27)

>  <Rbt.Parameter_File>
/export/apps/rDock/src/rDock_2013.1_src/data/scripts/dock_solv.prm

>  <Rbt.Receptor>
prm/blind_docking_60.prm

>  <SCORE>
-6.4307

>  <SCORE.INTER>
-6.6241

>  <SCORE.INTER.CONST>
1

>  <SCORE.INTER.POLAR>
0

>  <SCORE.INTER.ROT>
5

>  <SCORE.INTER.SOLV>
16.3192

>  <SCORE.INTER.VDW>
-16.7891

>  <SCORE.INTER.norm>
-0.66241

>  <SCORE.INTRA>
0.193399

>  <SCORE.INTRA.DIHEDRAL>
-0.164475

>  <SCORE.INTRA.DIHEDRAL.0>
2.22229

>  <SCORE.INTRA.POLAR>
0

>  <SCORE.INTRA.POLAR.0>
0

>  <SCORE.INTRA.REPUL>
0

>  <SCORE.INTRA.REPUL.0>
0

>  <SCORE.INTRA.SOLV>
-0.102096

>  <SCORE.INTRA.SOLV.lig_0>
-31.87

>  <SCORE.INTRA.VDW>
0.326684

>  <SCORE.INTRA.VDW.0>
-0.575321

>  <SCORE.INTRA.norm>
0.0193399

>  <SCORE.RESTR>
0

>  <SCORE.RESTR.CAVITY>
0

>  <SCORE.RESTR.norm>
0

>  <SCORE.SYSTEM>
0

>  <SCORE.SYSTEM.CONST>
0

>  <SCORE.SYSTEM.DIHEDRAL>
0

>  <SCORE.SYSTEM.SOLV>
0

>  <SCORE.SYSTEM.norm>
0

>  <SCORE.heavy>
10

>  <SCORE.norm>
-0.64307

>  <RMSD>
1.849

$$$$
ligand
 OpenBabel11021811463D
libRbt.so/2013.1/901 2013/11/27
 10  9  0  0  0  0  0  0  0  0999 V2000
   24.2138   39.4302   21.9142 N   0  0  0  0  0  0  0  0  0  0  0  0
   24.4895   40.8515   22.0842 C   0  0  2  0  0  0  0  0  0  0  0  0
   23.8209   41.3891   23.3482 C   0  0  0  0  0  0  0  0  0  0  0  0
   23.2445   40.6120   24.1148 O   0  0  0  0  0  0  0  0  0  0  0  0
   24.0431   41.6427   20.8509 C   0  0  0  0  0  0  0  0  0  0  0  0
   24.8568   41.3331   19.6002 C   0  0  0  0  0  0  0  0  0  0  0  0
   24.4016   42.1543   18.3971 C   0  0  0  0  0  0  0  0  0  0  0  0
   24.8387   43.6238   18.5045 C   0  0  0  0  0  0  0  0  0  0  0  0
   24.1881   44.3855   19.6172 N   0  0  0  0  0  0  0  0  0  0  0  0
   23.8546   42.5929   23.6356 O   0  0  0  0  0  0  0  0  0  0  0  0
  2  1  1  6  0  0  0
  2  3  1  0  0  0  0
  2  5  1  0  0  0  0
  3  4  1  0  0  0  0
  3 10  1  0  0  0  0
  5  6  1  0  0  0  0
  6  7  1  0  0  0  0
  7  8  1  0  0  0  0
  8  9  1  0  0  0  0
M  END
>  <CHROM.1>
5.62135452,-67.00561456,-179.04941193,73.65651573,-66.38703549,24.18035245
41.80859516,21.24455589,-2.40223591,1.34969295,-0.31131007

>  <Name>
ligand

>  <RI>
0

>  <Rbt.Current_Directory>
/home/itssahil/PROJECTS/Mol_Feturizer/New_Systems/rnas/3D0U

>  <Rbt.Executable>
rbdock ($Id: //depot/dev/client3/rdock/2013.1/src/exe/rbdock.cxx#4 $)

>  <Rbt.Library>
libRbt.so (2013.1, Build901 2013/11/27)

>  <Rbt.Parameter_File>
/export/apps/rDock/src/rDock_2013.1_src/data/scripts/dock_solv.prm

>  <Rbt.Receptor>
prm/pocket_docking_7.prm

>  <SCORE>
-7.2461

>  <SCORE.INTER>
-8.586

>  <SCORE.INTER.CONST>
1

>  <SCORE.INTER.POLAR>
0

>  <SCORE.INTER.ROT>
5

>  <SCORE.INTER.SOLV>
11.2099

>  <SCORE.INTER.VDW>
-16.394

>  <SCORE.INTER.norm>
-0.8586

>  <SCORE.INTRA>
1.33991

>  <SCORE.INTRA.DIHEDRAL>
0.358872

>  <SCORE.INTRA.DIHEDRAL.0>
2.22229

>  <SCORE.INTRA.POLAR>
0

>  <SCORE.INTRA.POLAR.0>
0

>  <SCORE.INTRA.REPUL>
0

>  <SCORE.INTRA.REPUL.0>
0

>  <SCORE.INTRA.SOLV>
1.40812

>  <SCORE.INTRA.SOLV.lig_0>
-31.87

>  <SCORE.INTRA.VDW>
0.456411

>  <SCORE.INTRA.VDW.0>
-0.575321

>  <SCORE.INTRA.norm>
0.133991

>  <SCORE.RESTR>
0

>  <SCORE.RESTR.CAVITY>
0

>  <SCORE.RESTR.norm>
0

>  <SCORE.SYSTEM>
0

>  <SCORE.SYSTEM.CONST>
0

>  <SCORE.SYSTEM.DIHEDRAL>
0

>  <SCORE.SYSTEM.SOLV>
0

>  <SCORE.SYSTEM.norm>
0

>  <SCORE.heavy>
10

>  <SCORE.norm>
-0.72461

>  <RMSD>
1.874

$$$$
ligand
 OpenBabel11021811463D
libRbt.so/2013.1/901 2013/11/27
 10  9  0  0  0  0  0  0  0  0999 V2000
   24.1843   39.4605   21.8762 N   0  0  0  0  0  0  0  0  0  0  0  0
   24.5094   40.8689   22.0656 C   0  0  2  0  0  0  0  0  0  0  0  0
   23.8592   41.4122   23.3368 C   0  0  0  0  0  0  0  0  0  0  0  0
   23.2670   40.6431   24.0995 O   0  0  0  0  0  0  0  0  0  0  0  0
   24.0916   41.6919   20.8431 C   0  0  0  0  0  0  0  0  0  0  0  0
   24.8504   41.3261   19.5732 C   0  0  0  0  0  0  0  0  0  0  0  0
   24.4098   42.1633   18.3758 C   0  0  0  0  0  0  0  0  0  0  0  0
   24.9049   43.6148   18.4748 C   0  0  0  0  0  0  0  0  0  0  0  0
   24.2924   44.4052   19.5892 N   0  0  0  0  0  0  0  0  0  0  0  0
   23.9235   42.6124   23.6338 O   0  0  0  0  0  0  0  0  0  0  0  0
  2  1  1  6  0  0  0
  2  3  1  0  0  0  0
  2  5  1  0  0  0  0
  3  4  1  0  0  0  0
  3 10  1  0  0  0  0
  5  6  1  0  0  0  0
  6  7  1  0  0  0  0
  7  8  1  0  0  0  0
  8  9  1  0  0  0  0
M  END
>  <CHROM.1>
6.34516154,-64.33725607,179.97168612,72.23979117,-66.84580318,24.21480602
41.82707364,21.22486321,-2.53433994,1.36634028,-0.18322095

>  <Name>
ligand

>  <RI>
0

>  <Rbt.Current_Directory>
/home/itssahil/PROJECTS/Mol_Feturizer/New_Systems/rnas/3D0U

>  <Rbt.Executable>
rbdock ($Id: //depot/dev/client3/rdock/2013.1/src/exe/rbdock.cxx#4 $)

>  <Rbt.Library>
libRbt.so (2013.1, Build901 2013/11/27)

>  <Rbt.Parameter_File>
/export/apps/rDock/src/rDock_2013.1_src/data/scripts/dock_solv.prm

>  <Rbt.Receptor>
prm/pocket_docking_8.prm

>  <SCORE>
-7.28103

>  <SCORE.INTER>
-8.60434

>  <SCORE.INTER.CONST>
1

>  <SCORE.INTER.POLAR>
0

>  <SCORE.INTER.ROT>
5

>  <SCORE.INTER.SOLV>
11.2137

>  <SCORE.INTER.VDW>
-16.4075

>  <SCORE.INTER.norm>
-0.860434

>  <SCORE.INTRA>
1.32332

>  <SCORE.INTRA.DIHEDRAL>
0.111038

>  <SCORE.INTRA.DIHEDRAL.0>
2.22229

>  <SCORE.INTRA.POLAR>
0

>  <SCORE.INTRA.POLAR.0>
0

>  <SCORE.INTRA.REPUL>
0

>  <SCORE.INTRA.REPUL.0>
0

>  <SCORE.INTRA.SOLV>
1.45402

>  <SCORE.INTRA.SOLV.lig_0>
-31.87

>  <SCORE.INTRA.VDW>
0.540789

>  <SCORE.INTRA.VDW.0>
-0.575321

>  <SCORE.INTRA.norm>
0.132332

>  <SCORE.RESTR>
0

>  <SCORE.RESTR.CAVITY>
0

>  <SCORE.RESTR.norm>
0

>  <SCORE.SYSTEM>
0

>  <SCORE.SYSTEM.CONST>
0

>  <SCORE.SYSTEM.DIHEDRAL>
0

>  <SCORE.SYSTEM.SOLV>
0

>  <SCORE.SYSTEM.norm>
0

>  <SCORE.heavy>
10

>  <SCORE.norm>
-0.728103

>  <RMSD>
1.874

$$$$
ligand
 OpenBabel11021811463D
libRbt.so/2013.1/901 2013/11/27
 10  9  0  0  0  0  0  0  0  0999 V2000
   24.3088   39.4406   21.8678 N   0  0  0  0  0  0  0  0  0  0  0  0
   24.5557   40.8656   22.0507 C   0  0  2  0  0  0  0  0  0  0  0  0
   23.8760   41.3782   23.3192 C   0  0  0  0  0  0  0  0  0  0  0  0
   23.9319   42.5784   23.6026 O   0  0  0  0  0  0  0  0  0  0  0  0
   24.0938   41.6587   20.8244 C   0  0  0  0  0  0  0  0  0  0  0  0
   24.8829   41.3411   19.5599 C   0  0  0  0  0  0  0  0  0  0  0  0
   24.4246   42.1767   18.3680 C   0  0  0  0  0  0  0  0  0  0  0  0
   24.9018   43.6340   18.4690 C   0  0  0  0  0  0  0  0  0  0  0  0
   24.2915   44.4108   19.5941 N   0  0  0  0  0  0  0  0  0  0  0  0
   23.2514   40.6178   24.0706 O   0  0  0  0  0  0  0  0  0  0  0  0
  2  1  1  6  0  0  0
  2  3  1  0  0  0  0
  2  5  1  0  0  0  0
  3  4  1  0  0  0  0
  3 10  1  0  0  0  0
  5  6  1  0  0  0  0
  6  7  1  0  0  0  0
  7  8  1  0  0  0  0
  8  9  1  0  0  0  0
M  END
>  <CHROM.1>
-176.94262116,-65.00642193,-178.34372009,74.23721754,-66.54196547,24.23657904
41.81715530,21.21030616,-2.42864595,1.35284838,-0.28058933

>  <Name>
ligand

>  <RI>
0

>  <Rbt.Current_Directory>
/home/itssahil/PROJECTS/Mol_Feturizer/New_Systems/rnas/3D0U

>  <Rbt.Executable>
rbdock ($Id: //depot/dev/client3/rdock/2013.1/src/exe/rbdock.cxx#4 $)

>  <Rbt.Library>
libRbt.so (2013.1, Build901 2013/11/27)

>  <Rbt.Parameter_File>
/export/apps/rDock/src/rDock_2013.1_src/data/scripts/dock_solv.prm

>  <Rbt.Receptor>
prm/pocket_docking_3.prm

>  <SCORE>
-7.29486

>  <SCORE.INTER>
-8.61095

>  <SCORE.INTER.CONST>
1

>  <SCORE.INTER.POLAR>
0

>  <SCORE.INTER.ROT>
5

>  <SCORE.INTER.SOLV>
11.2459

>  <SCORE.INTER.VDW>
-16.4226

>  <SCORE.INTER.norm>
-0.861095

>  <SCORE.INTRA>
1.31609

>  <SCORE.INTRA.DIHEDRAL>
0.349577

>  <SCORE.INTRA.DIHEDRAL.0>
2.22229

>  <SCORE.INTRA.POLAR>
0

>  <SCORE.INTRA.POLAR.0>
0

>  <SCORE.INTRA.REPUL>
0

>  <SCORE.INTRA.REPUL.0>
0

>  <SCORE.INTRA.SOLV>
1.41065

>  <SCORE.INTRA.SOLV.lig_0>
-31.87

>  <SCORE.INTRA.VDW>
0.435972

>  <SCORE.INTRA.VDW.0>
-0.575321

>  <SCORE.INTRA.norm>
0.131609

>  <SCORE.RESTR>
0

>  <SCORE.RESTR.CAVITY>
0

>  <SCORE.RESTR.norm>
0

>  <SCORE.SYSTEM>
0

>  <SCORE.SYSTEM.CONST>
0

>  <SCORE.SYSTEM.DIHEDRAL>
0

>  <SCORE.SYSTEM.SOLV>
0

>  <SCORE.SYSTEM.norm>
0

>  <SCORE.heavy>
10

>  <SCORE.norm>
-0.729486

>  <RMSD>
1.875

$$$$
ligand
 OpenBabel11021811463D
libRbt.so/2013.1/901 2013/11/27
 10  9  0  0  0  0  0  0  0  0999 V2000
   24.2614   39.4084   21.8683 N   0  0  0  0  0  0  0  0  0  0  0  0
   24.5148   40.8341   22.0369 C   0  0  2  0  0  0  0  0  0  0  0  0
   23.8456   41.3604   23.3053 C   0  0  0  0  0  0  0  0  0  0  0  0
   23.2525   40.5793   24.0550 O   0  0  0  0  0  0  0  0  0  0  0  0
   24.0476   41.6180   20.8067 C   0  0  0  0  0  0  0  0  0  0  0  0
   24.8609   41.3250   19.5517 C   0  0  0  0  0  0  0  0  0  0  0  0
   24.4073   42.1643   18.3605 C   0  0  0  0  0  0  0  0  0  0  0  0
   24.8520   43.6300   18.4863 C   0  0  0  0  0  0  0  0  0  0  0  0
   24.2261   44.3734   19.6253 N   0  0  0  0  0  0  0  0  0  0  0  0
   23.8950   42.5586   23.6131 O   0  0  0  0  0  0  0  0  0  0  0  0
  2  1  1  6  0  0  0
  2  3  1  0  0  0  0
  2  5  1  0  0  0  0
  3  4  1  0  0  0  0
  3 10  1  0  0  0  0
  5  6  1  0  0  0  0
  6  7  1  0  0  0  0
  7  8  1  0  0  0  0
  8  9  1  0  0  0  0
M  END
>  <CHROM.1>
3.46339485,-67.17609398,-177.61399040,73.89832776,-65.35255488,24.20149829
41.79191883,21.20882228,-2.41402657,1.35415561,-0.29251170

>  <Name>
ligand

>  <RI>
0

>  <Rbt.Current_Directory>
/home/itssahil/PROJECTS/Mol_Feturizer/New_Systems/rnas/3D0U

>  <Rbt.Executable>
rbdock ($Id: //depot/dev/client3/rdock/2013.1/src/exe/rbdock.cxx#4 $)

>  <Rbt.Library>
libRbt.so (2013.1, Build901 2013/11/27)

>  <Rbt.Parameter_File>
/export/apps/rDock/src/rDock_2013.1_src/data/scripts/dock_solv.prm

>  <Rbt.Receptor>
prm/pocket_docking_7.prm

>  <SCORE>
-7.21739

>  <SCORE.INTER>
-8.56061

>  <SCORE.INTER.CONST>
1

>  <SCORE.INTER.POLAR>
0

>  <SCORE.INTER.ROT>
5

>  <SCORE.INTER.SOLV>
11.1673

>  <SCORE.INTER.VDW>
-16.3628

>  <SCORE.INTER.norm>
-0.856061

>  <SCORE.INTRA>
1.34322

>  <SCORE.INTRA.DIHEDRAL>
0.372442

>  <SCORE.INTRA.DIHEDRAL.0>
2.22229

>  <SCORE.INTRA.POLAR>
0

>  <SCORE.INTRA.POLAR.0>
0

>  <SCORE.INTRA.REPUL>
0

>  <SCORE.INTRA.REPUL.0>
0

>  <SCORE.INTRA.SOLV>
1.43414

>  <SCORE.INTRA.SOLV.lig_0>
-31.87

>  <SCORE.INTRA.VDW>
0.439928

>  <SCORE.INTRA.VDW.0>
-0.575321

>  <SCORE.INTRA.norm>
0.134322

>  <SCORE.RESTR>
0

>  <SCORE.RESTR.CAVITY>
0

>  <SCORE.RESTR.norm>
0

>  <SCORE.SYSTEM>
0

>  <SCORE.SYSTEM.CONST>
0

>  <SCORE.SYSTEM.DIHEDRAL>
0

>  <SCORE.SYSTEM.SOLV>
0

>  <SCORE.SYSTEM.norm>
0

>  <SCORE.heavy>
10

>  <SCORE.norm>
-0.721739

>  <RMSD>
1.875

$$$$
ligand
 OpenBabel11021811463D
libRbt.so/2013.1/901 2013/11/27
 10  9  0  0  0  0  0  0  0  0999 V2000
   25.6585   40.2036   21.7362 N   0  0  0  0  0  0  0  0  0  0  0  0
   24.8052   41.3854   21.7537 C   0  0  2  0  0  0  0  0  0  0  0  0
   24.0358   41.4827   23.0699 C   0  0  0  0  0  0  0  0  0  0  0  0
   23.5950   40.4585   23.5997 O   0  0  0  0  0  0  0  0  0  0  0  0
   23.8464   41.3808   20.5591 C   0  0  0  0  0  0  0  0  0  0  0  0
   24.5534   41.4140   19.2095 C   0  0  0  0  0  0  0  0  0  0  0  0
   25.2918   42.7291   18.9765 C   0  0  0  0  0  0  0  0  0  0  0  0
   24.3233   43.9058   18.7781 C   0  0  0  0  0  0  0  0  0  0  0  0
   24.9898   45.2275   18.5533 N   0  0  0  0  0  0  0  0  0  0  0  0
   23.8534   42.5699   23.6335 O   0  0  0  0  0  0  0  0  0  0  0  0
  2  1  1  1  0  0  0
  2  3  1  0  0  0  0
  2  5  1  0  0  0  0
  3  4  1  0  0  0  0
  3 10  1  0  0  0  0
  5  6  1  0  0  0  0
  6  7  1  0  0  0  0
  7  8  1  0  0  0  0
  8  9  1  0  0  0  0
M  END
>  <CHROM.1>
-38.37637391,-61.68346142,-66.52989057,-69.32278520,179.63282136,24.47779875
42.07326622,21.02548251,-2.01209008,1.25202115,-0.59026789

>  <Name>
ligand

>  <RI>
0

>  <Rbt.Current_Directory>
/home/itssahil/PROJECTS/Mol_Feturizer/New_Systems/rnas/3D0U

>  <Rbt.Executable>
rbdock ($Id: //depot/dev/client3/rdock/2013.1/src/exe/rbdock.cxx#4 $)

>  <Rbt.Library>
libRbt.so (2013.1, Build901 2013/11/27)

>  <Rbt.Parameter_File>
/export/apps/rDock/src/rDock_2013.1_src/data/scripts/dock_solv.prm

>  <Rbt.Receptor>
prm/pocket_docking_8.prm

>  <SCORE>
-6.36211

>  <SCORE.INTER>
-6.62384

>  <SCORE.INTER.CONST>
1

>  <SCORE.INTER.POLAR>
0

>  <SCORE.INTER.ROT>
5

>  <SCORE.INTER.SOLV>
16.5678

>  <SCORE.INTER.VDW>
-16.8718

>  <SCORE.INTER.norm>
-0.662384

>  <SCORE.INTRA>
0.261735

>  <SCORE.INTRA.DIHEDRAL>
-0.168324

>  <SCORE.INTRA.DIHEDRAL.0>
2.22229

>  <SCORE.INTRA.POLAR>
0

>  <SCORE.INTRA.POLAR.0>
0

>  <SCORE.INTRA.REPUL>
0

>  <SCORE.INTRA.REPUL.0>
0

>  <SCORE.INTRA.SOLV>
-0.0364908

>  <SCORE.INTRA.SOLV.lig_0>
-31.87

>  <SCORE.INTRA.VDW>
0.364143

>  <SCORE.INTRA.VDW.0>
-0.575321

>  <SCORE.INTRA.norm>
0.0261735

>  <SCORE.RESTR>
0

>  <SCORE.RESTR.CAVITY>
0

>  <SCORE.RESTR.norm>
0

>  <SCORE.SYSTEM>
0

>  <SCORE.SYSTEM.CONST>
0

>  <SCORE.SYSTEM.DIHEDRAL>
0

>  <SCORE.SYSTEM.SOLV>
0

>  <SCORE.SYSTEM.norm>
0

>  <SCORE.heavy>
10

>  <SCORE.norm>
-0.636211

>  <RMSD>
1.881

$$$$
ligand
 OpenBabel11021811463D
libRbt.so/2013.1/901 2013/11/27
 10  9  0  0  0  0  0  0  0  0999 V2000
   23.8635   39.5051   21.5940 N   0  0  0  0  0  0  0  0  0  0  0  0
   24.7824   40.5301   22.0738 C   0  0  2  0  0  0  0  0  0  0  0  0
   24.1877   41.2815   23.2635 C   0  0  0  0  0  0  0  0  0  0  0  0
   23.7963   40.6537   24.2517 O   0  0  0  0  0  0  0  0  0  0  0  0
   25.1533   41.4979   20.9460 C   0  0  0  0  0  0  0  0  0  0  0  0
   25.6934   40.8052   19.7007 C   0  0  0  0  0  0  0  0  0  0  0  0
   26.0378   41.7958   18.5922 C   0  0  0  0  0  0  0  0  0  0  0  0
   24.7843   42.4702   18.0128 C   0  0  0  0  0  0  0  0  0  0  0  0
   24.0864   43.3994   18.9569 N   0  0  0  0  0  0  0  0  0  0  0  0
   24.1005   42.5165   23.2703 O   0  0  0  0  0  0  0  0  0  0  0  0
  2  1  1  6  0  0  0
  2  3  1  0  0  0  0
  2  5  1  0  0  0  0
  3  4  1  0  0  0  0
  3 10  1  0  0  0  0
  5  6  1  0  0  0  0
  6  7  1  0  0  0  0
  7  8  1  0  0  0  0
  8  9  1  0  0  0  0
M  END
>  <CHROM.1>
54.46666841,-53.71110986,179.34861471,-67.94649160,68.02343930,24.63479755
41.45832324,21.10315847,-2.19706556,1.19427406,-0.72161461

>  <Name>
ligand

>  <RI>
0

>  <Rbt.Current_Directory>
/home/itssahil/PROJECTS/Mol_Feturizer/New_Systems/rnas/3D0U

>  <Rbt.Executable>
rbdock ($Id: //depot/dev/client3/rdock/2013.1/src/exe/rbdock.cxx#4 $)

>  <Rbt.Library>
libRbt.so (2013.1, Build901 2013/11/27)

>  <Rbt.Parameter_File>
/export/apps/rDock/src/rDock_2013.1_src/data/scripts/dock_solv.prm

>  <Rbt.Receptor>
prm/pocket_docking_7.prm

>  <SCORE>
-8.06017

>  <SCORE.INTER>
-10.0521

>  <SCORE.INTER.CONST>
1

>  <SCORE.INTER.POLAR>
0

>  <SCORE.INTER.ROT>
5

>  <SCORE.INTER.SOLV>
11.537

>  <SCORE.INTER.VDW>
-17.4804

>  <SCORE.INTER.norm>
-1.00521

>  <SCORE.INTRA>
1.99193

>  <SCORE.INTRA.DIHEDRAL>
-0.107673

>  <SCORE.INTRA.DIHEDRAL.0>
2.22229

>  <SCORE.INTRA.POLAR>
0

>  <SCORE.INTRA.POLAR.0>
0

>  <SCORE.INTRA.REPUL>
0

>  <SCORE.INTRA.REPUL.0>
0

>  <SCORE.INTRA.SOLV>
1.61365

>  <SCORE.INTRA.SOLV.lig_0>
-31.87

>  <SCORE.INTRA.VDW>
1.23895

>  <SCORE.INTRA.VDW.0>
-0.575321

>  <SCORE.INTRA.norm>
0.199193

>  <SCORE.RESTR>
0

>  <SCORE.RESTR.CAVITY>
0

>  <SCORE.RESTR.norm>
0

>  <SCORE.SYSTEM>
0

>  <SCORE.SYSTEM.CONST>
0

>  <SCORE.SYSTEM.DIHEDRAL>
0

>  <SCORE.SYSTEM.SOLV>
0

>  <SCORE.SYSTEM.norm>
0

>  <SCORE.heavy>
10

>  <SCORE.norm>
-0.806017

>  <RMSD>
1.893

$$$$
ligand
 OpenBabel11021811463D
libRbt.so/2013.1/901 2013/11/27
 10  9  0  0  0  0  0  0  0  0999 V2000
   23.5492   38.8711   22.0497 N   0  0  0  0  0  0  0  0  0  0  0  0
   24.5246   39.7633   22.6644 C   0  0  2  0  0  0  0  0  0  0  0  0
   23.8462   41.0171   23.2137 C   0  0  0  0  0  0  0  0  0  0  0  0
   23.0829   41.6668   22.4933 O   0  0  0  0  0  0  0  0  0  0  0  0
   25.6282   40.1309   21.6678 C   0  0  0  0  0  0  0  0  0  0  0  0
   25.1094   40.8120   20.4071 C   0  0  0  0  0  0  0  0  0  0  0  0
   26.2326   41.1574   19.4334 C   0  0  0  0  0  0  0  0  0  0  0  0
   25.7110   41.8986   18.1923 C   0  0  0  0  0  0  0  0  0  0  0  0
   25.0567   43.2134   18.4836 N   0  0  0  0  0  0  0  0  0  0  0  0
   24.0311   41.3948   24.3782 O   0  0  0  0  0  0  0  0  0  0  0  0
  2  1  1  6  0  0  0
  2  3  1  0  0  0  0
  2  5  1  0  0  0  0
  3  4  1  0  0  0  0
  3 10  1  0  0  0  0
  5  6  1  0  0  0  0
  6  7  1  0  0  0  0
  7  8  1  0  0  0  0
  8  9  1  0  0  0  0
M  END
>  <CHROM.1>
-50.57641317,58.71287116,-179.68317788,-177.50495145,61.51307290,24.65894780
41.01600868,21.32129248,-2.34596787,1.05865360,-0.55869674

>  <Name>
ligand

>  <RI>
0

>  <Rbt.Current_Directory>
/home/itssahil/PROJECTS/Mol_Feturizer/New_Systems/rnas/3D0U

>  <Rbt.Executable>
rbdock ($Id: //depot/dev/client3/rdock/2013.1/src/exe/rbdock.cxx#4 $)

>  <Rbt.Library>
libRbt.so (2013.1, Build901 2013/11/27)

>  <Rbt.Parameter_File>
/export/apps/rDock/src/rDock_2013.1_src/data/scripts/dock_solv.prm

>  <Rbt.Receptor>
prm/pocket_docking_8.prm

>  <SCORE>
-8.05969

>  <SCORE.INTER>
-7.8459

>  <SCORE.INTER.CONST>
1

>  <SCORE.INTER.POLAR>
0

>  <SCORE.INTER.ROT>
5

>  <SCORE.INTER.SOLV>
13.8056

>  <SCORE.INTER.VDW>
-16.7658

>  <SCORE.INTER.norm>
-0.78459

>  <SCORE.INTRA>
-0.213793

>  <SCORE.INTRA.DIHEDRAL>
-0.687769

>  <SCORE.INTRA.DIHEDRAL.0>
2.22229

>  <SCORE.INTRA.POLAR>
0

>  <SCORE.INTRA.POLAR.0>
0

>  <SCORE.INTRA.REPUL>
0

>  <SCORE.INTRA.REPUL.0>
0

>  <SCORE.INTRA.SOLV>
0.173703

>  <SCORE.INTRA.SOLV.lig_0>
-31.87

>  <SCORE.INTRA.VDW>
0.0432398

>  <SCORE.INTRA.VDW.0>
-0.575321

>  <SCORE.INTRA.norm>
-0.0213793

>  <SCORE.RESTR>
0

>  <SCORE.RESTR.CAVITY>
0

>  <SCORE.RESTR.norm>
0

>  <SCORE.SYSTEM>
0

>  <SCORE.SYSTEM.CONST>
0

>  <SCORE.SYSTEM.DIHEDRAL>
0

>  <SCORE.SYSTEM.SOLV>
0

>  <SCORE.SYSTEM.norm>
0

>  <SCORE.heavy>
10

>  <SCORE.norm>
-0.805969

>  <RMSD>
1.895

$$$$
ligand
 OpenBabel11021811463D
libRbt.so/2013.1/901 2013/11/27
 10  9  0  0  0  0  0  0  0  0999 V2000
   24.1384   39.3867   21.8129 N   0  0  0  0  0  0  0  0  0  0  0  0
   24.8916   40.5666   22.2200 C   0  0  2  0  0  0  0  0  0  0  0  0
   24.1846   41.2981   23.3596 C   0  0  0  0  0  0  0  0  0  0  0  0
   23.7142   40.6550   24.3025 O   0  0  0  0  0  0  0  0  0  0  0  0
   25.1210   41.5021   21.0290 C   0  0  0  0  0  0  0  0  0  0  0  0
   25.7765   40.8194   19.8345 C   0  0  0  0  0  0  0  0  0  0  0  0
   26.0624   41.7954   18.6967 C   0  0  0  0  0  0  0  0  0  0  0  0
   24.7717   42.3805   18.1022 C   0  0  0  0  0  0  0  0  0  0  0  0
   24.0854   43.3849   18.9751 N   0  0  0  0  0  0  0  0  0  0  0  0
   24.0828   42.5320   23.3713 O   0  0  0  0  0  0  0  0  0  0  0  0
  2  1  1  6  0  0  0
  2  3  1  0  0  0  0
  2  5  1  0  0  0  0
  3  4  1  0  0  0  0
  3 10  1  0  0  0  0
  5  6  1  0  0  0  0
  6  7  1  0  0  0  0
  7  8  1  0  0  0  0
  8  9  1  0  0  0  0
M  END
>  <CHROM.1>
44.07544969,-54.20683434,-176.76426663,-64.43803453,72.98403874,24.66671082
41.44467778,21.20636660,-2.11985892,1.14575541,-0.80648049

>  <Name>
ligand

>  <RI>
0

>  <Rbt.Current_Directory>
/home/itssahil/PROJECTS/Mol_Feturizer/New_Systems/rnas/3D0U

>  <Rbt.Executable>
rbdock ($Id: //depot/dev/client3/rdock/2013.1/src/exe/rbdock.cxx#4 $)

>  <Rbt.Library>
libRbt.so (2013.1, Build901 2013/11/27)

>  <Rbt.Parameter_File>
/export/apps/rDock/src/rDock_2013.1_src/data/scripts/dock_solv.prm

>  <Rbt.Receptor>
prm/pocket_docking_8.prm

>  <SCORE>
-7.99791

>  <SCORE.INTER>
-10.0464

>  <SCORE.INTER.CONST>
1

>  <SCORE.INTER.POLAR>
0

>  <SCORE.INTER.ROT>
5

>  <SCORE.INTER.SOLV>
11.0478

>  <SCORE.INTER.VDW>
-17.3135

>  <SCORE.INTER.norm>
-1.00464

>  <SCORE.INTRA>
2.04852

>  <SCORE.INTRA.DIHEDRAL>
0.0928594

>  <SCORE.INTRA.DIHEDRAL.0>
2.22229

>  <SCORE.INTRA.POLAR>
0

>  <SCORE.INTRA.POLAR.0>
0

>  <SCORE.INTRA.REPUL>
0

>  <SCORE.INTRA.REPUL.0>
0

>  <SCORE.INTRA.SOLV>
1.48392

>  <SCORE.INTRA.SOLV.lig_0>
-31.87

>  <SCORE.INTRA.VDW>
1.26013

>  <SCORE.INTRA.VDW.0>
-0.575321

>  <SCORE.INTRA.norm>
0.204852

>  <SCORE.RESTR>
0

>  <SCORE.RESTR.CAVITY>
0

>  <SCORE.RESTR.norm>
0

>  <SCORE.SYSTEM>
0

>  <SCORE.SYSTEM.CONST>
0

>  <SCORE.SYSTEM.DIHEDRAL>
0

>  <SCORE.SYSTEM.SOLV>
0

>  <SCORE.SYSTEM.norm>
0

>  <SCORE.heavy>
10

>  <SCORE.norm>
-0.799791

>  <RMSD>
1.896

$$$$
ligand
 OpenBabel11021811463D
libRbt.so/2013.1/901 2013/11/27
 10  9  0  0  0  0  0  0  0  0999 V2000
   23.7884   39.8627   24.5219 N   0  0  0  0  0  0  0  0  0  0  0  0
   23.6434   39.8216   23.0719 C   0  0  2  0  0  0  0  0  0  0  0  0
   23.2047   38.4341   22.6071 C   0  0  0  0  0  0  0  0  0  0  0  0
   22.7286   38.2880   21.4775 O   0  0  0  0  0  0  0  0  0  0  0  0
   24.9455   40.2424   22.3837 C   0  0  0  0  0  0  0  0  0  0  0  0
   24.7821   40.5376   20.8976 C   0  0  0  0  0  0  0  0  0  0  0  0
   26.0916   40.9771   20.2487 C   0  0  0  0  0  0  0  0  0  0  0  0
   25.8988   41.3790   18.7779 C   0  0  0  0  0  0  0  0  0  0  0  0
   25.0291   42.5800   18.5712 N   0  0  0  0  0  0  0  0  0  0  0  0
   23.3287   37.4394   23.3338 O   0  0  0  0  0  0  0  0  0  0  0  0
  2  1  1  1  0  0  0
  2  3  1  0  0  0  0
  2  5  1  0  0  0  0
  3  4  1  0  0  0  0
  3 10  1  0  0  0  0
  5  6  1  0  0  0  0
  6  7  1  0  0  0  0
  7  8  1  0  0  0  0
  8  9  1  0  0  0  0
M  END
>  <CHROM.1>
162.81532834,-166.51790985,178.99463497,-175.52090482,64.43208077,24.32856755
39.92003562,21.58683167,-2.33622590,-0.96603786,-1.57791033

>  <Name>
ligand

>  <RI>
0

>  <Rbt.Current_Directory>
/home/itssahil/PROJECTS/Mol_Feturizer/New_Systems/rnas/3D0U

>  <Rbt.Executable>
rbdock ($Id: //depot/dev/client3/rdock/2013.1/src/exe/rbdock.cxx#4 $)

>  <Rbt.Library>
libRbt.so (2013.1, Build901 2013/11/27)

>  <Rbt.Parameter_File>
/export/apps/rDock/src/rDock_2013.1_src/data/scripts/dock_solv.prm

>  <Rbt.Receptor>
prm/pocket_docking_8.prm

>  <SCORE>
-7.9106

>  <SCORE.INTER>
-7.42721

>  <SCORE.INTER.CONST>
1

>  <SCORE.INTER.POLAR>
0

>  <SCORE.INTER.ROT>
5

>  <SCORE.INTER.SOLV>
14.1747

>  <SCORE.INTER.VDW>
-16.6097

>  <SCORE.INTER.norm>
-0.742721

>  <SCORE.INTRA>
-0.483396

>  <SCORE.INTRA.DIHEDRAL>
0.0633179

>  <SCORE.INTRA.DIHEDRAL.0>
2.22229

>  <SCORE.INTRA.POLAR>
0

>  <SCORE.INTRA.POLAR.0>
0

>  <SCORE.INTRA.REPUL>
0

>  <SCORE.INTRA.REPUL.0>
0

>  <SCORE.INTRA.SOLV>
-0.740658

>  <SCORE.INTRA.SOLV.lig_0>
-31.87

>  <SCORE.INTRA.VDW>
-0.144726

>  <SCORE.INTRA.VDW.0>
-0.575321

>  <SCORE.INTRA.norm>
-0.0483396

>  <SCORE.RESTR>
0

>  <SCORE.RESTR.CAVITY>
0

>  <SCORE.RESTR.norm>
0

>  <SCORE.SYSTEM>
0

>  <SCORE.SYSTEM.CONST>
0

>  <SCORE.SYSTEM.DIHEDRAL>
0

>  <SCORE.SYSTEM.SOLV>
0

>  <SCORE.SYSTEM.norm>
0

>  <SCORE.heavy>
10

>  <SCORE.norm>
-0.79106

>  <RMSD>
1.898

$$$$
ligand
 OpenBabel11021811463D
libRbt.so/2013.1/901 2013/11/27
 10  9  0  0  0  0  0  0  0  0999 V2000
   24.0824   39.3930   21.9009 N   0  0  0  0  0  0  0  0  0  0  0  0
   24.8547   40.5503   22.3363 C   0  0  2  0  0  0  0  0  0  0  0  0
   24.1282   41.3028   23.4498 C   0  0  0  0  0  0  0  0  0  0  0  0
   23.6514   40.6783   24.4019 O   0  0  0  0  0  0  0  0  0  0  0  0
   25.1554   41.4782   21.1553 C   0  0  0  0  0  0  0  0  0  0  0  0
   25.8287   40.7749   19.9830 C   0  0  0  0  0  0  0  0  0  0  0  0
   26.1502   41.7348   18.8410 C   0  0  0  0  0  0  0  0  0  0  0  0
   24.8792   42.2546   18.1509 C   0  0  0  0  0  0  0  0  0  0  0  0
   24.0605   43.1927   18.9823 N   0  0  0  0  0  0  0  0  0  0  0  0
   24.0165   42.5357   23.4309 O   0  0  0  0  0  0  0  0  0  0  0  0
  2  1  1  6  0  0  0
  2  3  1  0  0  0  0
  2  5  1  0  0  0  0
  3  4  1  0  0  0  0
  3 10  1  0  0  0  0
  5  6  1  0  0  0  0
  6  7  1  0  0  0  0
  7  8  1  0  0  0  0
  8  9  1  0  0  0  0
M  END
>  <CHROM.1>
46.99686339,-53.97484809,-178.35721726,-68.25943701,69.74909391,24.66388852
41.40285526,21.29873155,-2.14444243,1.11428456,-0.81753194

>  <Name>
ligand

>  <RI>
0

>  <Rbt.Current_Directory>
/home/itssahil/PROJECTS/Mol_Feturizer/New_Systems/rnas/3D0U

>  <Rbt.Executable>
rbdock ($Id: //depot/dev/client3/rdock/2013.1/src/exe/rbdock.cxx#4 $)

>  <Rbt.Library>
libRbt.so (2013.1, Build901 2013/11/27)

>  <Rbt.Parameter_File>
/export/apps/rDock/src/rDock_2013.1_src/data/scripts/dock_solv.prm

>  <Rbt.Receptor>
prm/pocket_docking_7.prm

>  <SCORE>
-8.00889

>  <SCORE.INTER>
-9.95043

>  <SCORE.INTER.CONST>
1

>  <SCORE.INTER.POLAR>
0

>  <SCORE.INTER.ROT>
5

>  <SCORE.INTER.SOLV>
10.9684

>  <SCORE.INTER.VDW>
-17.2231

>  <SCORE.INTER.norm>
-0.995043

>  <SCORE.INTRA>
1.94153

>  <SCORE.INTRA.DIHEDRAL>
0.0116832

>  <SCORE.INTRA.DIHEDRAL.0>
2.22229

>  <SCORE.INTRA.POLAR>
0

>  <SCORE.INTRA.POLAR.0>
0

>  <SCORE.INTRA.REPUL>
0

>  <SCORE.INTRA.REPUL.0>
0

>  <SCORE.INTRA.SOLV>
1.53436

>  <SCORE.INTRA.SOLV.lig_0>
-31.87

>  <SCORE.INTRA.VDW>
1.16851

>  <SCORE.INTRA.VDW.0>
-0.575321

>  <SCORE.INTRA.norm>
0.194153

>  <SCORE.RESTR>
0

>  <SCORE.RESTR.CAVITY>
0

>  <SCORE.RESTR.norm>
0

>  <SCORE.SYSTEM>
0

>  <SCORE.SYSTEM.CONST>
0

>  <SCORE.SYSTEM.DIHEDRAL>
0

>  <SCORE.SYSTEM.SOLV>
0

>  <SCORE.SYSTEM.norm>
0

>  <SCORE.heavy>
10

>  <SCORE.norm>
-0.800889

>  <RMSD>
1.899

$$$$
ligand
 OpenBabel11021811463D
libRbt.so/2013.1/901 2013/11/27
 10  9  0  0  0  0  0  0  0  0999 V2000
   24.1206   39.3903   21.9409 N   0  0  0  0  0  0  0  0  0  0  0  0
   24.8666   40.5679   22.3673 C   0  0  2  0  0  0  0  0  0  0  0  0
   24.1113   41.3266   23.4572 C   0  0  0  0  0  0  0  0  0  0  0  0
   23.6117   40.7076   24.4012 O   0  0  0  0  0  0  0  0  0  0  0  0
   25.1686   41.4807   21.1749 C   0  0  0  0  0  0  0  0  0  0  0  0
   25.8697   40.7690   20.0242 C   0  0  0  0  0  0  0  0  0  0  0  0
   26.2126   41.7195   18.8805 C   0  0  0  0  0  0  0  0  0  0  0  0
   24.9543   42.2443   18.1712 C   0  0  0  0  0  0  0  0  0  0  0  0
   24.1450   43.2121   18.9776 N   0  0  0  0  0  0  0  0  0  0  0  0
   23.9982   42.5591   23.4273 O   0  0  0  0  0  0  0  0  0  0  0  0
  2  1  1  6  0  0  0
  2  3  1  0  0  0  0
  2  5  1  0  0  0  0
  3  4  1  0  0  0  0
  3 10  1  0  0  0  0
  5  6  1  0  0  0  0
  6  7  1  0  0  0  0
  7  8  1  0  0  0  0
  8  9  1  0  0  0  0
M  END
>  <CHROM.1>
45.76124941,-53.92078317,-177.38946310,-67.42323280,70.76838550,24.68818859
41.41126739,21.31722458,-2.17352269,1.10223607,-0.79565773

>  <Name>
ligand

>  <RI>
0

>  <Rbt.Current_Directory>
/home/itssahil/PROJECTS/Mol_Feturizer/New_Systems/rnas/3D0U

>  <Rbt.Executable>
rbdock ($Id: //depot/dev/client3/rdock/2013.1/src/exe/rbdock.cxx#4 $)

>  <Rbt.Library>
libRbt.so (2013.1, Build901 2013/11/27)

>  <Rbt.Parameter_File>
/export/apps/rDock/src/rDock_2013.1_src/data/scripts/dock_solv.prm

>  <Rbt.Receptor>
prm/pocket_docking_8.prm

>  <SCORE>
-8.00359

>  <SCORE.INTER>
-9.96931

>  <SCORE.INTER.CONST>
1

>  <SCORE.INTER.POLAR>
0

>  <SCORE.INTER.ROT>
5

>  <SCORE.INTER.SOLV>
10.7925

>  <SCORE.INTER.VDW>
-17.177

>  <SCORE.INTER.norm>
-0.996931

>  <SCORE.INTRA>
1.96572

>  <SCORE.INTRA.DIHEDRAL>
0.051819

>  <SCORE.INTRA.DIHEDRAL.0>
2.22229

>  <SCORE.INTRA.POLAR>
0

>  <SCORE.INTRA.POLAR.0>
0

>  <SCORE.INTRA.REPUL>
0

>  <SCORE.INTRA.REPUL.0>
0

>  <SCORE.INTRA.SOLV>
1.51031

>  <SCORE.INTRA.SOLV.lig_0>
-31.87

>  <SCORE.INTRA.VDW>
1.18466

>  <SCORE.INTRA.VDW.0>
-0.575321

>  <SCORE.INTRA.norm>
0.196572

>  <SCORE.RESTR>
0

>  <SCORE.RESTR.CAVITY>
0

>  <SCORE.RESTR.norm>
0

>  <SCORE.SYSTEM>
0

>  <SCORE.SYSTEM.CONST>
0

>  <SCORE.SYSTEM.DIHEDRAL>
0

>  <SCORE.SYSTEM.SOLV>
0

>  <SCORE.SYSTEM.norm>
0

>  <SCORE.heavy>
10

>  <SCORE.norm>
-0.800359

>  <RMSD>
1.905

$$$$
ligand
 OpenBabel11021811463D
libRbt.so/2013.1/901 2013/11/27
 10  9  0  0  0  0  0  0  0  0999 V2000
   23.6219   38.8332   22.1109 N   0  0  0  0  0  0  0  0  0  0  0  0
   24.5744   39.7650   22.7022 C   0  0  2  0  0  0  0  0  0  0  0  0
   23.8655   41.0177   23.2139 C   0  0  0  0  0  0  0  0  0  0  0  0
   24.0770   41.4158   24.3631 O   0  0  0  0  0  0  0  0  0  0  0  0
   25.6723   40.1296   21.6983 C   0  0  0  0  0  0  0  0  0  0  0  0
   25.1419   40.7627   20.4176 C   0  0  0  0  0  0  0  0  0  0  0  0
   26.2645   41.1803   19.4719 C   0  0  0  0  0  0  0  0  0  0  0  0
   25.7296   41.9136   18.2317 C   0  0  0  0  0  0  0  0  0  0  0  0
   24.9887   43.1799   18.5305 N   0  0  0  0  0  0  0  0  0  0  0  0
   23.0882   41.6599   22.4953 O   0  0  0  0  0  0  0  0  0  0  0  0
  2  1  1  6  0  0  0
  2  3  1  0  0  0  0
  2  5  1  0  0  0  0
  3  4  1  0  0  0  0
  3 10  1  0  0  0  0
  5  6  1  0  0  0  0
  6  7  1  0  0  0  0
  7  8  1  0  0  0  0
  8  9  1  0  0  0  0
M  END
>  <CHROM.1>
129.75481791,58.73285842,176.99582748,-175.66499402,60.79647862,24.68407937
41.00945932,21.34584495,-2.29804412,1.03930854,-0.60775554

>  <Name>
ligand

>  <RI>
0

>  <Rbt.Current_Directory>
/home/itssahil/PROJECTS/Mol_Feturizer/New_Systems/rnas/3D0U

>  <Rbt.Executable>
rbdock ($Id: //depot/dev/client3/rdock/2013.1/src/exe/rbdock.cxx#4 $)

>  <Rbt.Library>
libRbt.so (2013.1, Build901 2013/11/27)

>  <Rbt.Parameter_File>
/export/apps/rDock/src/rDock_2013.1_src/data/scripts/dock_solv.prm

>  <Rbt.Receptor>
prm/pocket_docking_8.prm

>  <SCORE>
-8.06966

>  <SCORE.INTER>
-7.81845

>  <SCORE.INTER.CONST>
1

>  <SCORE.INTER.POLAR>
0

>  <SCORE.INTER.ROT>
5

>  <SCORE.INTER.SOLV>
13.296

>  <SCORE.INTER.VDW>
-16.5776

>  <SCORE.INTER.norm>
-0.781845

>  <SCORE.INTRA>
-0.251206

>  <SCORE.INTRA.DIHEDRAL>
-0.631594

>  <SCORE.INTRA.DIHEDRAL.0>
2.22229

>  <SCORE.INTRA.POLAR>
0

>  <SCORE.INTRA.POLAR.0>
0

>  <SCORE.INTRA.REPUL>
0

>  <SCORE.INTRA.REPUL.0>
0

>  <SCORE.INTRA.SOLV>
0.166401

>  <SCORE.INTRA.SOLV.lig_0>
-31.87

>  <SCORE.INTRA.VDW>
-0.0186093

>  <SCORE.INTRA.VDW.0>
-0.575321

>  <SCORE.INTRA.norm>
-0.0251206

>  <SCORE.RESTR>
0

>  <SCORE.RESTR.CAVITY>
0

>  <SCORE.RESTR.norm>
0

>  <SCORE.SYSTEM>
0

>  <SCORE.SYSTEM.CONST>
0

>  <SCORE.SYSTEM.DIHEDRAL>
0

>  <SCORE.SYSTEM.SOLV>
0

>  <SCORE.SYSTEM.norm>
0

>  <SCORE.heavy>
10

>  <SCORE.norm>
-0.806966

>  <RMSD>
1.910

$$$$
ligand
 OpenBabel11021811463D
libRbt.so/2013.1/901 2013/11/27
 10  9  0  0  0  0  0  0  0  0999 V2000
   23.8133   39.6293   24.6203 N   0  0  0  0  0  0  0  0  0  0  0  0
   23.4495   39.5880   23.2092 C   0  0  2  0  0  0  0  0  0  0  0  0
   23.2540   38.1477   22.7387 C   0  0  0  0  0  0  0  0  0  0  0  0
   23.0539   37.9152   21.5430 O   0  0  0  0  0  0  0  0  0  0  0  0
   24.5011   40.3039   22.3560 C   0  0  0  0  0  0  0  0  0  0  0  0
   24.0141   40.6548   20.9553 C   0  0  0  0  0  0  0  0  0  0  0  0
   25.0718   41.3997   20.1458 C   0  0  0  0  0  0  0  0  0  0  0  0
   24.5309   41.8700   18.7864 C   0  0  0  0  0  0  0  0  0  0  0  0
   25.4913   42.6956   17.9878 N   0  0  0  0  0  0  0  0  0  0  0  0
   23.3063   37.1964   23.5293 O   0  0  0  0  0  0  0  0  0  0  0  0
  2  1  1  1  0  0  0
  2  3  1  0  0  0  0
  2  5  1  0  0  0  0
  3  4  1  0  0  0  0
  3 10  1  0  0  0  0
  5  6  1  0  0  0  0
  6  7  1  0  0  0  0
  7  8  1  0  0  0  0
  8  9  1  0  0  0  0
M  END
>  <CHROM.1>
-173.86095301,-163.36025476,178.45168437,-174.47760357,175.68687972,24.03979688
39.90116833,21.58573506,-2.33085116,-1.17222250,-1.59153746

>  <Name>
ligand

>  <RI>
0

>  <Rbt.Current_Directory>
/home/itssahil/PROJECTS/Mol_Feturizer/New_Systems/rnas/3D0U

>  <Rbt.Executable>
rbdock ($Id: //depot/dev/client3/rdock/2013.1/src/exe/rbdock.cxx#4 $)

>  <Rbt.Library>
libRbt.so (2013.1, Build901 2013/11/27)

>  <Rbt.Parameter_File>
/export/apps/rDock/src/rDock_2013.1_src/data/scripts/dock_solv.prm

>  <Rbt.Receptor>
prm/pocket_docking_3.prm

>  <SCORE>
-5.64464

>  <SCORE.INTER>
-5.24579

>  <SCORE.INTER.CONST>
1

>  <SCORE.INTER.POLAR>
0

>  <SCORE.INTER.ROT>
5

>  <SCORE.INTER.SOLV>
16.7159

>  <SCORE.INTER.VDW>
-16.0025

>  <SCORE.INTER.norm>
-0.524579

>  <SCORE.INTRA>
-0.398847

>  <SCORE.INTRA.DIHEDRAL>
0.478332

>  <SCORE.INTRA.DIHEDRAL.0>
2.22229

>  <SCORE.INTRA.POLAR>
0

>  <SCORE.INTRA.POLAR.0>
0

>  <SCORE.INTRA.REPUL>
0

>  <SCORE.INTRA.REPUL.0>
0

>  <SCORE.INTRA.SOLV>
-1.58111

>  <SCORE.INTRA.SOLV.lig_0>
-31.87

>  <SCORE.INTRA.VDW>
0.152542

>  <SCORE.INTRA.VDW.0>
-0.575321

>  <SCORE.INTRA.norm>
-0.0398847

>  <SCORE.RESTR>
0

>  <SCORE.RESTR.CAVITY>
0

>  <SCORE.RESTR.norm>
0

>  <SCORE.SYSTEM>
0

>  <SCORE.SYSTEM.CONST>
0

>  <SCORE.SYSTEM.DIHEDRAL>
0

>  <SCORE.SYSTEM.SOLV>
0

>  <SCORE.SYSTEM.norm>
0

>  <SCORE.heavy>
10

>  <SCORE.norm>
-0.564464

>  <RMSD>
1.916

$$$$
ligand
 OpenBabel11021811463D
libRbt.so/2013.1/901 2013/11/27
 10  9  0  0  0  0  0  0  0  0999 V2000
   23.8846   39.0273   22.7738 N   0  0  0  0  0  0  0  0  0  0  0  0
   24.3677   40.3239   22.3151 C   0  0  2  0  0  0  0  0  0  0  0  0
   23.8709   41.4445   23.2269 C   0  0  0  0  0  0  0  0  0  0  0  0
   24.3027   42.5916   23.0797 O   0  0  0  0  0  0  0  0  0  0  0  0
   23.9515   40.5758   20.8627 C   0  0  0  0  0  0  0  0  0  0  0  0
   24.6413   41.7786   20.2303 C   0  0  0  0  0  0  0  0  0  0  0  0
   24.2359   41.9763   18.7724 C   0  0  0  0  0  0  0  0  0  0  0  0
   24.9103   43.2087   18.1494 C   0  0  0  0  0  0  0  0  0  0  0  0
   24.5477   44.5090   18.7971 N   0  0  0  0  0  0  0  0  0  0  0  0
   23.0273   41.2347   24.1084 O   0  0  0  0  0  0  0  0  0  0  0  0
  2  1  1  1  0  0  0
  2  3  1  0  0  0  0
  2  5  1  0  0  0  0
  3  4  1  0  0  0  0
  3 10  1  0  0  0  0
  5  6  1  0  0  0  0
  6  7  1  0  0  0  0
  7  8  1  0  0  0  0
  8  9  1  0  0  0  0
M  END
>  <CHROM.1>
171.90120841,-168.84773655,178.30224841,178.72253160,-62.33006566,24.16268892
41.68666819,21.26150998,-2.83298241,1.39261164,0.19610873

>  <Name>
ligand

>  <RI>
0

>  <Rbt.Current_Directory>
/home/itssahil/PROJECTS/Mol_Feturizer/New_Systems/rnas/3D0U

>  <Rbt.Executable>
rbdock ($Id: //depot/dev/client3/rdock/2013.1/src/exe/rbdock.cxx#4 $)

>  <Rbt.Library>
libRbt.so (2013.1, Build901 2013/11/27)

>  <Rbt.Parameter_File>
/export/apps/rDock/src/rDock_2013.1_src/data/scripts/dock_solv.prm

>  <Rbt.Receptor>
prm/pocket_docking_3.prm

>  <SCORE>
-7.73873

>  <SCORE.INTER>
-7.31081

>  <SCORE.INTER.CONST>
1

>  <SCORE.INTER.POLAR>
0

>  <SCORE.INTER.ROT>
5

>  <SCORE.INTER.SOLV>
13.0465

>  <SCORE.INTER.VDW>
-16.156

>  <SCORE.INTER.norm>
-0.731081

>  <SCORE.INTRA>
-0.427913

>  <SCORE.INTRA.DIHEDRAL>
-0.25758

>  <SCORE.INTRA.DIHEDRAL.0>
2.22229

>  <SCORE.INTRA.POLAR>
0

>  <SCORE.INTRA.POLAR.0>
0

>  <SCORE.INTRA.REPUL>
0

>  <SCORE.INTRA.REPUL.0>
0

>  <SCORE.INTRA.SOLV>
-0.731308

>  <SCORE.INTRA.SOLV.lig_0>
-31.87

>  <SCORE.INTRA.VDW>
0.0665305

>  <SCORE.INTRA.VDW.0>
-0.575321

>  <SCORE.INTRA.norm>
-0.0427913

>  <SCORE.RESTR>
0

>  <SCORE.RESTR.CAVITY>
0

>  <SCORE.RESTR.norm>
0

>  <SCORE.SYSTEM>
0

>  <SCORE.SYSTEM.CONST>
0

>  <SCORE.SYSTEM.DIHEDRAL>
0

>  <SCORE.SYSTEM.SOLV>
0

>  <SCORE.SYSTEM.norm>
0

>  <SCORE.heavy>
10

>  <SCORE.norm>
-0.773873

>  <RMSD>
1.917

$$$$
ligand
 OpenBabel11021811463D
libRbt.so/2013.1/901 2013/11/27
 10  9  0  0  0  0  0  0  0  0999 V2000
   23.8684   38.9907   22.5823 N   0  0  0  0  0  0  0  0  0  0  0  0
   24.3430   40.3094   22.1809 C   0  0  2  0  0  0  0  0  0  0  0  0
   23.9031   41.3753   23.1829 C   0  0  0  0  0  0  0  0  0  0  0  0
   24.3480   42.5232   23.0919 O   0  0  0  0  0  0  0  0  0  0  0  0
   23.8598   40.6539   20.7688 C   0  0  0  0  0  0  0  0  0  0  0  0
   24.5451   41.8768   20.1711 C   0  0  0  0  0  0  0  0  0  0  0  0
   24.0967   42.1471   18.7376 C   0  0  0  0  0  0  0  0  0  0  0  0
   24.8350   43.3450   18.1197 C   0  0  0  0  0  0  0  0  0  0  0  0
   24.6152   44.6441   18.8309 N   0  0  0  0  0  0  0  0  0  0  0  0
   23.0928   41.1209   24.0838 O   0  0  0  0  0  0  0  0  0  0  0  0
  2  1  1  1  0  0  0
  2  3  1  0  0  0  0
  2  5  1  0  0  0  0
  3  4  1  0  0  0  0
  3 10  1  0  0  0  0
  5  6  1  0  0  0  0
  6  7  1  0  0  0  0
  7  8  1  0  0  0  0
  8  9  1  0  0  0  0
M  END
>  <CHROM.1>
171.32777888,-168.06557260,176.88970045,-177.56275470,-61.32745578,24.14081943
41.71659741,21.20671193,3.13453844,1.41433844,0.55505056

>  <Name>
ligand

>  <RI>
0

>  <Rbt.Current_Directory>
/home/itssahil/PROJECTS/Mol_Feturizer/New_Systems/rnas/3D0U

>  <Rbt.Executable>
rbdock ($Id: //depot/dev/client3/rdock/2013.1/src/exe/rbdock.cxx#4 $)

>  <Rbt.Library>
libRbt.so (2013.1, Build901 2013/11/27)

>  <Rbt.Parameter_File>
/export/apps/rDock/src/rDock_2013.1_src/data/scripts/dock_solv.prm

>  <Rbt.Receptor>
prm/pocket_docking_3.prm

>  <SCORE>
-7.80643

>  <SCORE.INTER>
-7.40151

>  <SCORE.INTER.CONST>
1

>  <SCORE.INTER.POLAR>
0

>  <SCORE.INTER.ROT>
5

>  <SCORE.INTER.SOLV>
13.2975

>  <SCORE.INTER.VDW>
-16.3002

>  <SCORE.INTER.norm>
-0.740151

>  <SCORE.INTRA>
-0.404921

>  <SCORE.INTRA.DIHEDRAL>
-0.159394

>  <SCORE.INTRA.DIHEDRAL.0>
2.22229

>  <SCORE.INTRA.POLAR>
0

>  <SCORE.INTRA.POLAR.0>
0

>  <SCORE.INTRA.REPUL>
0

>  <SCORE.INTRA.REPUL.0>
0

>  <SCORE.INTRA.SOLV>
-0.734942

>  <SCORE.INTRA.SOLV.lig_0>
-31.87

>  <SCORE.INTRA.VDW>
0.0422468

>  <SCORE.INTRA.VDW.0>
-0.575321

>  <SCORE.INTRA.norm>
-0.0404921

>  <SCORE.RESTR>
0

>  <SCORE.RESTR.CAVITY>
0

>  <SCORE.RESTR.norm>
0

>  <SCORE.SYSTEM>
0

>  <SCORE.SYSTEM.CONST>
0

>  <SCORE.SYSTEM.DIHEDRAL>
0

>  <SCORE.SYSTEM.SOLV>
0

>  <SCORE.SYSTEM.norm>
0

>  <SCORE.heavy>
10

>  <SCORE.norm>
-0.780643

>  <RMSD>
1.921

$$$$
ligand
 OpenBabel11021811463D
libRbt.so/2013.1/901 2013/11/27
 10  9  0  0  0  0  0  0  0  0999 V2000
   23.8356   39.0203   22.6339 N   0  0  0  0  0  0  0  0  0  0  0  0
   24.3266   40.3248   22.2070 C   0  0  2  0  0  0  0  0  0  0  0  0
   23.8876   41.4176   23.1801 C   0  0  0  0  0  0  0  0  0  0  0  0
   23.1150   41.1427   24.1028 O   0  0  0  0  0  0  0  0  0  0  0  0
   23.8599   40.6413   20.7828 C   0  0  0  0  0  0  0  0  0  0  0  0
   24.5534   41.8511   20.1683 C   0  0  0  0  0  0  0  0  0  0  0  0
   24.0971   42.1127   18.7358 C   0  0  0  0  0  0  0  0  0  0  0  0
   24.8321   43.3065   18.1063 C   0  0  0  0  0  0  0  0  0  0  0  0
   24.6295   44.6070   18.8200 N   0  0  0  0  0  0  0  0  0  0  0  0
   24.3016   42.5798   23.0767 O   0  0  0  0  0  0  0  0  0  0  0  0
  2  1  1  1  0  0  0
  2  3  1  0  0  0  0
  2  5  1  0  0  0  0
  3  4  1  0  0  0  0
  3 10  1  0  0  0  0
  5  6  1  0  0  0  0
  6  7  1  0  0  0  0
  7  8  1  0  0  0  0
  8  9  1  0  0  0  0
M  END
>  <CHROM.1>
-6.13103081,-168.58035545,178.24937521,-178.19326278,-60.65015130,24.13399090
41.71869640,21.21295792,3.12280349,1.41067673,0.55352956

>  <Name>
ligand

>  <RI>
0

>  <Rbt.Current_Directory>
/home/itssahil/PROJECTS/Mol_Feturizer/New_Systems/rnas/3D0U

>  <Rbt.Executable>
rbdock ($Id: //depot/dev/client3/rdock/2013.1/src/exe/rbdock.cxx#4 $)

>  <Rbt.Library>
libRbt.so (2013.1, Build901 2013/11/27)

>  <Rbt.Parameter_File>
/export/apps/rDock/src/rDock_2013.1_src/data/scripts/dock_solv.prm

>  <Rbt.Receptor>
prm/pocket_docking_7.prm

>  <SCORE>
-7.79278

>  <SCORE.INTER>
-7.40135

>  <SCORE.INTER.CONST>
1

>  <SCORE.INTER.POLAR>
0

>  <SCORE.INTER.ROT>
5

>  <SCORE.INTER.SOLV>
13.2394

>  <SCORE.INTER.VDW>
-16.2807

>  <SCORE.INTER.norm>
-0.740135

>  <SCORE.INTRA>
-0.391424

>  <SCORE.INTRA.DIHEDRAL>
-0.220924

>  <SCORE.INTRA.DIHEDRAL.0>
2.22229

>  <SCORE.INTRA.POLAR>
0

>  <SCORE.INTRA.POLAR.0>
0

>  <SCORE.INTRA.REPUL>
0

>  <SCORE.INTRA.REPUL.0>
0

>  <SCORE.INTRA.SOLV>
-0.711216

>  <SCORE.INTRA.SOLV.lig_0>
-31.87

>  <SCORE.INTRA.VDW>
0.0746455

>  <SCORE.INTRA.VDW.0>
-0.575321

>  <SCORE.INTRA.norm>
-0.0391424

>  <SCORE.RESTR>
0

>  <SCORE.RESTR.CAVITY>
0

>  <SCORE.RESTR.norm>
0

>  <SCORE.SYSTEM>
0

>  <SCORE.SYSTEM.CONST>
0

>  <SCORE.SYSTEM.DIHEDRAL>
0

>  <SCORE.SYSTEM.SOLV>
0

>  <SCORE.SYSTEM.norm>
0

>  <SCORE.heavy>
10

>  <SCORE.norm>
-0.779278

>  <RMSD>
1.924

$$$$
ligand
 OpenBabel11021811463D
libRbt.so/2013.1/901 2013/11/27
 10  9  0  0  0  0  0  0  0  0999 V2000
   24.6379   39.6775   21.6944 N   0  0  0  0  0  0  0  0  0  0  0  0
   24.7113   41.1161   21.9186 C   0  0  2  0  0  0  0  0  0  0  0  0
   23.8984   41.5184   23.1478 C   0  0  0  0  0  0  0  0  0  0  0  0
   23.2517   40.6646   23.7616 O   0  0  0  0  0  0  0  0  0  0  0  0
   24.2432   41.8836   20.6784 C   0  0  0  0  0  0  0  0  0  0  0  0
   25.1084   41.6401   19.4478 C   0  0  0  0  0  0  0  0  0  0  0  0
   24.5963   42.3936   18.2234 C   0  0  0  0  0  0  0  0  0  0  0  0
   24.8523   43.9053   18.3291 C   0  0  0  0  0  0  0  0  0  0  0  0
   24.0895   44.5895   19.4208 N   0  0  0  0  0  0  0  0  0  0  0  0
   23.8822   42.6863   23.5585 O   0  0  0  0  0  0  0  0  0  0  0  0
  2  1  1  6  0  0  0
  2  3  1  0  0  0  0
  2  5  1  0  0  0  0
  3  4  1  0  0  0  0
  3 10  1  0  0  0  0
  5  6  1  0  0  0  0
  6  7  1  0  0  0  0
  7  8  1  0  0  0  0
  8  9  1  0  0  0  0
M  END
>  <CHROM.1>
-3.00242120,-62.53963976,178.68734235,72.37352551,-65.95413109,24.30924747
42.01152186,21.05519105,-2.10084098,1.26134791,-0.59958082

>  <Name>
ligand

>  <RI>
0

>  <Rbt.Current_Directory>
/home/itssahil/PROJECTS/Mol_Feturizer/New_Systems/rnas/3D0U

>  <Rbt.Executable>
rbdock ($Id: //depot/dev/client3/rdock/2013.1/src/exe/rbdock.cxx#4 $)

>  <Rbt.Library>
libRbt.so (2013.1, Build901 2013/11/27)

>  <Rbt.Parameter_File>
/export/apps/rDock/src/rDock_2013.1_src/data/scripts/dock_solv.prm

>  <Rbt.Receptor>
prm/blind_docking_60.prm

>  <SCORE>
-6.99205

>  <SCORE.INTER>
-8.25127

>  <SCORE.INTER.CONST>
1

>  <SCORE.INTER.POLAR>
0

>  <SCORE.INTER.ROT>
5

>  <SCORE.INTER.SOLV>
12.1322

>  <SCORE.INTER.VDW>
-16.4783

>  <SCORE.INTER.norm>
-0.825127

>  <SCORE.INTRA>
1.25923

>  <SCORE.INTRA.DIHEDRAL>
0.0518397

>  <SCORE.INTRA.DIHEDRAL.0>
2.22229

>  <SCORE.INTRA.POLAR>
0

>  <SCORE.INTRA.POLAR.0>
0

>  <SCORE.INTRA.REPUL>
0

>  <SCORE.INTRA.REPUL.0>
0

>  <SCORE.INTRA.SOLV>
1.4965

>  <SCORE.INTRA.SOLV.lig_0>
-31.87

>  <SCORE.INTRA.VDW>
0.485059

>  <SCORE.INTRA.VDW.0>
-0.575321

>  <SCORE.INTRA.norm>
0.125923

>  <SCORE.RESTR>
0

>  <SCORE.RESTR.CAVITY>
0

>  <SCORE.RESTR.norm>
0

>  <SCORE.SYSTEM>
0

>  <SCORE.SYSTEM.CONST>
0

>  <SCORE.SYSTEM.DIHEDRAL>
0

>  <SCORE.SYSTEM.SOLV>
0

>  <SCORE.SYSTEM.norm>
0

>  <SCORE.heavy>
10

>  <SCORE.norm>
-0.699205

>  <RMSD>
1.934

$$$$
ligand
 OpenBabel11021811463D
libRbt.so/2013.1/901 2013/11/27
 10  9  0  0  0  0  0  0  0  0999 V2000
   23.8576   39.0760   22.7177 N   0  0  0  0  0  0  0  0  0  0  0  0
   24.3302   40.3759   22.2572 C   0  0  2  0  0  0  0  0  0  0  0  0
   23.8609   41.4890   23.1924 C   0  0  0  0  0  0  0  0  0  0  0  0
   24.2792   42.6397   23.0343 O   0  0  0  0  0  0  0  0  0  0  0  0
   23.8741   40.6414   20.8192 C   0  0  0  0  0  0  0  0  0  0  0  0
   24.5660   41.8341   20.1703 C   0  0  0  0  0  0  0  0  0  0  0  0
   24.0950   42.0655   18.7372 C   0  0  0  0  0  0  0  0  0  0  0  0
   24.8279   43.2419   18.0733 C   0  0  0  0  0  0  0  0  0  0  0  0
   24.6320   44.5603   18.7554 N   0  0  0  0  0  0  0  0  0  0  0  0
   23.0527   41.2697   24.1043 O   0  0  0  0  0  0  0  0  0  0  0  0
  2  1  1  1  0  0  0
  2  3  1  0  0  0  0
  2  5  1  0  0  0  0
  3  4  1  0  0  0  0
  3 10  1  0  0  0  0
  5  6  1  0  0  0  0
  6  7  1  0  0  0  0
  7  8  1  0  0  0  0
  8  9  1  0  0  0  0
M  END
>  <CHROM.1>
172.69098894,-167.84154440,179.67193333,-178.21090176,-60.98414914,24.12691624
41.73878543,21.21656306,-3.04007838,1.40562750,0.40536809

>  <Name>
ligand

>  <RI>
0

>  <Rbt.Current_Directory>
/home/itssahil/PROJECTS/Mol_Feturizer/New_Systems/rnas/3D0U

>  <Rbt.Executable>
rbdock ($Id: //depot/dev/client3/rdock/2013.1/src/exe/rbdock.cxx#4 $)

>  <Rbt.Library>
libRbt.so (2013.1, Build901 2013/11/27)

>  <Rbt.Parameter_File>
/export/apps/rDock/src/rDock_2013.1_src/data/scripts/dock_solv.prm

>  <Rbt.Receptor>
prm/pocket_docking_5.prm

>  <SCORE>
-7.80227

>  <SCORE.INTER>
-7.40604

>  <SCORE.INTER.CONST>
1

>  <SCORE.INTER.POLAR>
0

>  <SCORE.INTER.ROT>
5

>  <SCORE.INTER.SOLV>
13.1583

>  <SCORE.INTER.VDW>
-16.2568

>  <SCORE.INTER.norm>
-0.740604

>  <SCORE.INTRA>
-0.396228

>  <SCORE.INTRA.DIHEDRAL>
-0.192153

>  <SCORE.INTRA.DIHEDRAL.0>
2.22229

>  <SCORE.INTRA.POLAR>
0

>  <SCORE.INTRA.POLAR.0>
0

>  <SCORE.INTRA.REPUL>
0

>  <SCORE.INTRA.REPUL.0>
0

>  <SCORE.INTRA.SOLV>
-0.726722

>  <SCORE.INTRA.SOLV.lig_0>
-31.87

>  <SCORE.INTRA.VDW>
0.0632097

>  <SCORE.INTRA.VDW.0>
-0.575321

>  <SCORE.INTRA.norm>
-0.0396228

>  <SCORE.RESTR>
0

>  <SCORE.RESTR.CAVITY>
0

>  <SCORE.RESTR.norm>
0

>  <SCORE.SYSTEM>
0

>  <SCORE.SYSTEM.CONST>
0

>  <SCORE.SYSTEM.DIHEDRAL>
0

>  <SCORE.SYSTEM.SOLV>
0

>  <SCORE.SYSTEM.norm>
0

>  <SCORE.heavy>
10

>  <SCORE.norm>
-0.780227

>  <RMSD>
1.941

$$$$
ligand
 OpenBabel11021811463D
libRbt.so/2013.1/901 2013/11/27
 10  9  0  0  0  0  0  0  0  0999 V2000
   24.0402   38.8438   23.4316 N   0  0  0  0  0  0  0  0  0  0  0  0
   24.6337   40.0404   22.8476 C   0  0  2  0  0  0  0  0  0  0  0  0
   23.9640   41.3016   23.3906 C   0  0  0  0  0  0  0  0  0  0  0  0
   23.0094   41.2031   24.1670 O   0  0  0  0  0  0  0  0  0  0  0  0
   24.5552   39.9948   21.3186 C   0  0  0  0  0  0  0  0  0  0  0  0
   25.2439   41.1710   20.6371 C   0  0  0  0  0  0  0  0  0  0  0  0
   25.1484   41.0939   19.1160 C   0  0  0  0  0  0  0  0  0  0  0  0
   25.6827   42.3667   18.4403 C   0  0  0  0  0  0  0  0  0  0  0  0
   24.8658   43.5951   18.6959 N   0  0  0  0  0  0  0  0  0  0  0  0
   24.3662   42.4312   23.0822 O   0  0  0  0  0  0  0  0  0  0  0  0
  2  1  1  1  0  0  0
  2  3  1  0  0  0  0
  2  5  1  0  0  0  0
  3  4  1  0  0  0  0
  3 10  1  0  0  0  0
  5  6  1  0  0  0  0
  6  7  1  0  0  0  0
  7  8  1  0  0  0  0
  8  9  1  0  0  0  0
M  END
>  <CHROM.1>
-3.26470435,-176.01388695,179.93517734,172.65265563,-66.76507036,24.53462337
41.22820515,21.53550238,-2.45697954,1.21148580,-0.33508155

>  <Name>
ligand

>  <RI>
0

>  <Rbt.Current_Directory>
/home/itssahil/PROJECTS/Mol_Feturizer/New_Systems/rnas/3D0U

>  <Rbt.Executable>
rbdock ($Id: //depot/dev/client3/rdock/2013.1/src/exe/rbdock.cxx#4 $)

>  <Rbt.Library>
libRbt.so (2013.1, Build901 2013/11/27)

>  <Rbt.Parameter_File>
/export/apps/rDock/src/rDock_2013.1_src/data/scripts/dock_solv.prm

>  <Rbt.Receptor>
prm/pocket_docking_4.prm

>  <SCORE>
-7.63405

>  <SCORE.INTER>
-7.44059

>  <SCORE.INTER.CONST>
1

>  <SCORE.INTER.POLAR>
0

>  <SCORE.INTER.ROT>
5

>  <SCORE.INTER.SOLV>
13.1648

>  <SCORE.INTER.VDW>
-16.282

>  <SCORE.INTER.norm>
-0.744059

>  <SCORE.INTRA>
-0.19346

>  <SCORE.INTRA.DIHEDRAL>
-0.287135

>  <SCORE.INTRA.DIHEDRAL.0>
2.22229

>  <SCORE.INTRA.POLAR>
0

>  <SCORE.INTRA.POLAR.0>
0

>  <SCORE.INTRA.REPUL>
0

>  <SCORE.INTRA.REPUL.0>
0

>  <SCORE.INTRA.SOLV>
-0.750925

>  <SCORE.INTRA.SOLV.lig_0>
-31.87

>  <SCORE.INTRA.VDW>
0.32557

>  <SCORE.INTRA.VDW.0>
-0.575321

>  <SCORE.INTRA.norm>
-0.019346

>  <SCORE.RESTR>
0

>  <SCORE.RESTR.CAVITY>
0

>  <SCORE.RESTR.norm>
0

>  <SCORE.SYSTEM>
0

>  <SCORE.SYSTEM.CONST>
0

>  <SCORE.SYSTEM.DIHEDRAL>
0

>  <SCORE.SYSTEM.SOLV>
0

>  <SCORE.SYSTEM.norm>
0

>  <SCORE.heavy>
10

>  <SCORE.norm>
-0.763405

>  <RMSD>
1.950

$$$$
ligand
 OpenBabel11021811463D
libRbt.so/2013.1/901 2013/11/27
 10  9  0  0  0  0  0  0  0  0999 V2000
   24.3178   38.8836   23.5509 N   0  0  0  0  0  0  0  0  0  0  0  0
   24.7979   40.1095   22.9249 C   0  0  2  0  0  0  0  0  0  0  0  0
   23.9956   41.3174   23.4057 C   0  0  0  0  0  0  0  0  0  0  0  0
   23.0051   41.1495   24.1231 O   0  0  0  0  0  0  0  0  0  0  0  0
   24.7504   39.9943   21.3982 C   0  0  0  0  0  0  0  0  0  0  0  0
   25.3328   41.2038   20.6769 C   0  0  0  0  0  0  0  0  0  0  0  0
   25.2591   41.0618   19.1592 C   0  0  0  0  0  0  0  0  0  0  0  0
   25.6800   42.3526   18.4391 C   0  0  0  0  0  0  0  0  0  0  0  0
   24.7874   43.5267   18.6967 N   0  0  0  0  0  0  0  0  0  0  0  0
   24.3236   42.4728   23.1051 O   0  0  0  0  0  0  0  0  0  0  0  0
  2  1  1  1  0  0  0
  2  3  1  0  0  0  0
  2  5  1  0  0  0  0
  3  4  1  0  0  0  0
  3 10  1  0  0  0  0
  5  6  1  0  0  0  0
  6  7  1  0  0  0  0
  7  8  1  0  0  0  0
  8  9  1  0  0  0  0
M  END
>  <CHROM.1>
-6.61918129,-175.84006522,-179.50787052,172.71504258,-63.94140614,24.60588902
41.23032680,21.56948561,-2.25902970,1.15773424,-0.55391013

>  <Name>
ligand

>  <RI>
0

>  <Rbt.Current_Directory>
/home/itssahil/PROJECTS/Mol_Feturizer/New_Systems/rnas/3D0U

>  <Rbt.Executable>
rbdock ($Id: //depot/dev/client3/rdock/2013.1/src/exe/rbdock.cxx#4 $)

>  <Rbt.Library>
libRbt.so (2013.1, Build901 2013/11/27)

>  <Rbt.Parameter_File>
/export/apps/rDock/src/rDock_2013.1_src/data/scripts/dock_solv.prm

>  <Rbt.Receptor>
prm/pocket_docking_3.prm

>  <SCORE>
-7.63384

>  <SCORE.INTER>
-7.32416

>  <SCORE.INTER.CONST>
1

>  <SCORE.INTER.POLAR>
0

>  <SCORE.INTER.ROT>
5

>  <SCORE.INTER.SOLV>
13.7103

>  <SCORE.INTER.VDW>
-16.3862

>  <SCORE.INTER.norm>
-0.732416

>  <SCORE.INTRA>
-0.309673

>  <SCORE.INTRA.DIHEDRAL>
-0.392153

>  <SCORE.INTRA.DIHEDRAL.0>
2.22229

>  <SCORE.INTRA.POLAR>
0

>  <SCORE.INTRA.POLAR.0>
0

>  <SCORE.INTRA.REPUL>
0

>  <SCORE.INTRA.REPUL.0>
0

>  <SCORE.INTRA.SOLV>
-0.712971

>  <SCORE.INTRA.SOLV.lig_0>
-31.87

>  <SCORE.INTRA.VDW>
0.24289

>  <SCORE.INTRA.VDW.0>
-0.575321

>  <SCORE.INTRA.norm>
-0.0309673

>  <SCORE.RESTR>
0

>  <SCORE.RESTR.CAVITY>
0

>  <SCORE.RESTR.norm>
0

>  <SCORE.SYSTEM>
0

>  <SCORE.SYSTEM.CONST>
0

>  <SCORE.SYSTEM.DIHEDRAL>
0

>  <SCORE.SYSTEM.SOLV>
0

>  <SCORE.SYSTEM.norm>
0

>  <SCORE.heavy>
10

>  <SCORE.norm>
-0.763384

>  <RMSD>
1.957

$$$$
ligand
 OpenBabel11021811463D
libRbt.so/2013.1/901 2013/11/27
 10  9  0  0  0  0  0  0  0  0999 V2000
   23.8337   39.1840   22.0573 N   0  0  0  0  0  0  0  0  0  0  0  0
   24.8335   40.1581   22.4778 C   0  0  2  0  0  0  0  0  0  0  0  0
   24.1694   41.3980   23.0741 C   0  0  0  0  0  0  0  0  0  0  0  0
   23.3174   41.2718   23.9584 O   0  0  0  0  0  0  0  0  0  0  0  0
   25.7482   40.5366   21.3089 C   0  0  0  0  0  0  0  0  0  0  0  0
   25.0019   41.1152   20.1129 C   0  0  0  0  0  0  0  0  0  0  0  0
   25.9467   41.5335   18.9898 C   0  0  0  0  0  0  0  0  0  0  0  0
   25.2103   42.2788   17.8656 C   0  0  0  0  0  0  0  0  0  0  0  0
   24.5489   43.5519   18.2939 N   0  0  0  0  0  0  0  0  0  0  0  0
   24.4764   42.5382   22.7019 O   0  0  0  0  0  0  0  0  0  0  0  0
  2  1  1  6  0  0  0
  2  3  1  0  0  0  0
  2  5  1  0  0  0  0
  3  4  1  0  0  0  0
  3 10  1  0  0  0  0
  5  6  1  0  0  0  0
  6  7  1  0  0  0  0
  7  8  1  0  0  0  0
  8  9  1  0  0  0  0
M  END
>  <CHROM.1>
50.81574922,58.28201358,177.68264292,-172.66943788,61.20976419,24.69290834
41.37990348,21.10873744,-2.22234473,1.17260433,-0.63865116

>  <Name>
ligand

>  <RI>
0

>  <Rbt.Current_Directory>
/home/itssahil/PROJECTS/Mol_Feturizer/New_Systems/rnas/3D0U

>  <Rbt.Executable>
rbdock ($Id: //depot/dev/client3/rdock/2013.1/src/exe/rbdock.cxx#4 $)

>  <Rbt.Library>
libRbt.so (2013.1, Build901 2013/11/27)

>  <Rbt.Parameter_File>
/export/apps/rDock/src/rDock_2013.1_src/data/scripts/dock_solv.prm

>  <Rbt.Receptor>
prm/pocket_docking_7.prm

>  <SCORE>
-8.43789

>  <SCORE.INTER>
-9.04635

>  <SCORE.INTER.CONST>
1

>  <SCORE.INTER.POLAR>
0

>  <SCORE.INTER.ROT>
5

>  <SCORE.INTER.SOLV>
13.5073

>  <SCORE.INTER.VDW>
-17.4667

>  <SCORE.INTER.norm>
-0.904635

>  <SCORE.INTRA>
0.608458

>  <SCORE.INTRA.DIHEDRAL>
-0.495514

>  <SCORE.INTRA.DIHEDRAL.0>
2.22229

>  <SCORE.INTRA.POLAR>
0

>  <SCORE.INTRA.POLAR.0>
0

>  <SCORE.INTRA.REPUL>
0

>  <SCORE.INTRA.REPUL.0>
0

>  <SCORE.INTRA.SOLV>
0.193343

>  <SCORE.INTRA.SOLV.lig_0>
-31.87

>  <SCORE.INTRA.VDW>
0.759543

>  <SCORE.INTRA.VDW.0>
-0.575321

>  <SCORE.INTRA.norm>
0.0608458

>  <SCORE.RESTR>
0

>  <SCORE.RESTR.CAVITY>
0

>  <SCORE.RESTR.norm>
0

>  <SCORE.SYSTEM>
0

>  <SCORE.SYSTEM.CONST>
0

>  <SCORE.SYSTEM.DIHEDRAL>
0

>  <SCORE.SYSTEM.SOLV>
0

>  <SCORE.SYSTEM.norm>
0

>  <SCORE.heavy>
10

>  <SCORE.norm>
-0.843789

>  <RMSD>
1.958

$$$$
ligand
 OpenBabel11021811463D
libRbt.so/2013.1/901 2013/11/27
 10  9  0  0  0  0  0  0  0  0999 V2000
   23.9305   39.0339   22.6433 N   0  0  0  0  0  0  0  0  0  0  0  0
   24.7339   40.1946   22.2791 C   0  0  2  0  0  0  0  0  0  0  0  0
   24.1742   41.4660   22.9148 C   0  0  0  0  0  0  0  0  0  0  0  0
   23.3843   41.3825   23.8598 O   0  0  0  0  0  0  0  0  0  0  0  0
   24.8223   40.3378   20.7566 C   0  0  0  0  0  0  0  0  0  0  0  0
   25.8928   41.3206   20.2977 C   0  0  0  0  0  0  0  0  0  0  0  0
   25.9159   41.4822   18.7803 C   0  0  0  0  0  0  0  0  0  0  0  0
   24.6514   42.1811   18.2565 C   0  0  0  0  0  0  0  0  0  0  0  0
   24.4391   43.5634   18.7911 N   0  0  0  0  0  0  0  0  0  0  0  0
   24.5062   42.5894   22.5141 O   0  0  0  0  0  0  0  0  0  0  0  0
  2  1  1  6  0  0  0
  2  3  1  0  0  0  0
  2  5  1  0  0  0  0
  3  4  1  0  0  0  0
  3 10  1  0  0  0  0
  5  6  1  0  0  0  0
  6  7  1  0  0  0  0
  7  8  1  0  0  0  0
  8  9  1  0  0  0  0
M  END
>  <CHROM.1>
17.11682569,-166.69237824,-177.66705884,67.83076247,60.55271833,24.63171891
41.37949905,21.13339166,-2.27026502,1.19064703,-0.56046546

>  <Name>
ligand

>  <RI>
0

>  <Rbt.Current_Directory>
/home/itssahil/PROJECTS/Mol_Feturizer/New_Systems/rnas/3D0U

>  <Rbt.Executable>
rbdock ($Id: //depot/dev/client3/rdock/2013.1/src/exe/rbdock.cxx#4 $)

>  <Rbt.Library>
libRbt.so (2013.1, Build901 2013/11/27)

>  <Rbt.Parameter_File>
/export/apps/rDock/src/rDock_2013.1_src/data/scripts/dock_solv.prm

>  <Rbt.Receptor>
prm/pocket_docking_8.prm

>  <SCORE>
-8.39196

>  <SCORE.INTER>
-9.2191

>  <SCORE.INTER.CONST>
1

>  <SCORE.INTER.POLAR>
0

>  <SCORE.INTER.ROT>
5

>  <SCORE.INTER.SOLV>
11.3363

>  <SCORE.INTER.VDW>
-16.8582

>  <SCORE.INTER.norm>
-0.92191

>  <SCORE.INTRA>
0.827136

>  <SCORE.INTRA.DIHEDRAL>
0.164164

>  <SCORE.INTRA.DIHEDRAL.0>
2.22229

>  <SCORE.INTRA.POLAR>
0

>  <SCORE.INTRA.POLAR.0>
0

>  <SCORE.INTRA.REPUL>
0

>  <SCORE.INTRA.REPUL.0>
0

>  <SCORE.INTRA.SOLV>
-0.0657488

>  <SCORE.INTRA.SOLV.lig_0>
-31.87

>  <SCORE.INTRA.VDW>
0.777928

>  <SCORE.INTRA.VDW.0>
-0.575321

>  <SCORE.INTRA.norm>
0.0827136

>  <SCORE.RESTR>
0

>  <SCORE.RESTR.CAVITY>
0

>  <SCORE.RESTR.norm>
0

>  <SCORE.SYSTEM>
0

>  <SCORE.SYSTEM.CONST>
0

>  <SCORE.SYSTEM.DIHEDRAL>
0

>  <SCORE.SYSTEM.SOLV>
0

>  <SCORE.SYSTEM.norm>
0

>  <SCORE.heavy>
10

>  <SCORE.norm>
-0.839196

>  <RMSD>
2.034

$$$$
ligand
 OpenBabel11021811463D
libRbt.so/2013.1/901 2013/11/27
 10  9  0  0  0  0  0  0  0  0999 V2000
   23.8556   39.4089   21.8051 N   0  0  0  0  0  0  0  0  0  0  0  0
   24.9768   40.2684   22.1649 C   0  0  2  0  0  0  0  0  0  0  0  0
   24.4876   41.5478   22.8413 C   0  0  0  0  0  0  0  0  0  0  0  0
   24.0245   41.4984   23.9846 O   0  0  0  0  0  0  0  0  0  0  0  0
   25.8295   40.5923   20.9343 C   0  0  0  0  0  0  0  0  0  0  0  0
   25.0407   41.2273   19.7955 C   0  0  0  0  0  0  0  0  0  0  0  0
   25.9322   41.6055   18.6161 C   0  0  0  0  0  0  0  0  0  0  0  0
   25.1801   42.4461   17.5723 C   0  0  0  0  0  0  0  0  0  0  0  0
   24.6324   43.7385   18.0934 N   0  0  0  0  0  0  0  0  0  0  0  0
   24.5574   42.6463   22.2745 O   0  0  0  0  0  0  0  0  0  0  0  0
  2  1  1  6  0  0  0
  2  3  1  0  0  0  0
  2  5  1  0  0  0  0
  3  4  1  0  0  0  0
  3 10  1  0  0  0  0
  5  6  1  0  0  0  0
  6  7  1  0  0  0  0
  7  8  1  0  0  0  0
  8  9  1  0  0  0  0
M  END
>  <CHROM.1>
71.23909194,56.03291840,176.92318384,-170.73180577,59.82085803,24.84048182
41.52206208,20.83462184,-2.21623052,1.28446168,-0.63929667

>  <Name>
ligand

>  <RI>
0

>  <Rbt.Current_Directory>
/home/itssahil/PROJECTS/Mol_Feturizer/New_Systems/rnas/3D0U

>  <Rbt.Executable>
rbdock ($Id: //depot/dev/client3/rdock/2013.1/src/exe/rbdock.cxx#4 $)

>  <Rbt.Library>
libRbt.so (2013.1, Build901 2013/11/27)

>  <Rbt.Parameter_File>
/export/apps/rDock/src/rDock_2013.1_src/data/scripts/dock_solv.prm

>  <Rbt.Receptor>
prm/blind_docking_60.prm

>  <SCORE>
-8.56708

>  <SCORE.INTER>
-9.37963

>  <SCORE.INTER.CONST>
1

>  <SCORE.INTER.POLAR>
0

>  <SCORE.INTER.ROT>
5

>  <SCORE.INTER.SOLV>
14.6607

>  <SCORE.INTER.VDW>
-18.0733

>  <SCORE.INTER.norm>
-0.937963

>  <SCORE.INTRA>
0.812558

>  <SCORE.INTRA.DIHEDRAL>
-0.26677

>  <SCORE.INTRA.DIHEDRAL.0>
2.22229

>  <SCORE.INTRA.POLAR>
0

>  <SCORE.INTRA.POLAR.0>
0

>  <SCORE.INTRA.REPUL>
0

>  <SCORE.INTRA.REPUL.0>
0

>  <SCORE.INTRA.SOLV>
0.237513

>  <SCORE.INTRA.SOLV.lig_0>
-31.87

>  <SCORE.INTRA.VDW>
0.827187

>  <SCORE.INTRA.VDW.0>
-0.575321

>  <SCORE.INTRA.norm>
0.0812558

>  <SCORE.RESTR>
0

>  <SCORE.RESTR.CAVITY>
0

>  <SCORE.RESTR.norm>
0

>  <SCORE.SYSTEM>
0

>  <SCORE.SYSTEM.CONST>
0

>  <SCORE.SYSTEM.DIHEDRAL>
0

>  <SCORE.SYSTEM.SOLV>
0

>  <SCORE.SYSTEM.norm>
0

>  <SCORE.heavy>
10

>  <SCORE.norm>
-0.856708

>  <RMSD>
2.038

$$$$
ligand
 OpenBabel11021811463D
libRbt.so/2013.1/901 2013/11/27
 10  9  0  0  0  0  0  0  0  0999 V2000
   23.9356   39.2053   21.7878 N   0  0  0  0  0  0  0  0  0  0  0  0
   24.9214   40.2124   22.1606 C   0  0  2  0  0  0  0  0  0  0  0  0
   24.2430   41.4457   22.7544 C   0  0  0  0  0  0  0  0  0  0  0  0
   23.3365   41.3086   23.5810 O   0  0  0  0  0  0  0  0  0  0  0  0
   25.7911   40.5924   20.9583 C   0  0  0  0  0  0  0  0  0  0  0  0
   25.0039   41.2015   19.8044 C   0  0  0  0  0  0  0  0  0  0  0  0
   25.9059   41.6169   18.6456 C   0  0  0  0  0  0  0  0  0  0  0  0
   25.1640   42.4928   17.6238 C   0  0  0  0  0  0  0  0  0  0  0  0
   24.6423   43.7835   18.1749 N   0  0  0  0  0  0  0  0  0  0  0  0
   24.5911   42.5908   22.4374 O   0  0  0  0  0  0  0  0  0  0  0  0
  2  1  1  6  0  0  0
  2  3  1  0  0  0  0
  2  5  1  0  0  0  0
  3  4  1  0  0  0  0
  3 10  1  0  0  0  0
  5  6  1  0  0  0  0
  6  7  1  0  0  0  0
  7  8  1  0  0  0  0
  8  9  1  0  0  0  0
M  END
>  <CHROM.1>
44.40201213,61.50226750,177.82689715,-167.82008868,61.22257952,24.73762692
41.46789187,20.81723714,-2.21513513,1.18672831,-0.60252038

>  <Name>
ligand

>  <RI>
0

>  <Rbt.Current_Directory>
/home/itssahil/PROJECTS/Mol_Feturizer/New_Systems/rnas/3D0U

>  <Rbt.Executable>
rbdock ($Id: //depot/dev/client3/rdock/2013.1/src/exe/rbdock.cxx#4 $)

>  <Rbt.Library>
libRbt.so (2013.1, Build901 2013/11/27)

>  <Rbt.Parameter_File>
/export/apps/rDock/src/rDock_2013.1_src/data/scripts/dock_solv.prm

>  <Rbt.Receptor>
prm/pocket_docking_3.prm

>  <SCORE>
-8.53648

>  <SCORE.INTER>
-9.29232

>  <SCORE.INTER.CONST>
1

>  <SCORE.INTER.POLAR>
0

>  <SCORE.INTER.ROT>
5

>  <SCORE.INTER.SOLV>
14.5175

>  <SCORE.INTER.VDW>
-17.9674

>  <SCORE.INTER.norm>
-0.929232

>  <SCORE.INTRA>
0.755838

>  <SCORE.INTRA.DIHEDRAL>
-0.135704

>  <SCORE.INTRA.DIHEDRAL.0>
2.22229

>  <SCORE.INTRA.POLAR>
0

>  <SCORE.INTRA.POLAR.0>
0

>  <SCORE.INTRA.REPUL>
0

>  <SCORE.INTRA.REPUL.0>
0

>  <SCORE.INTRA.SOLV>
0.189468

>  <SCORE.INTRA.SOLV.lig_0>
-31.87

>  <SCORE.INTRA.VDW>
0.728956

>  <SCORE.INTRA.VDW.0>
-0.575321

>  <SCORE.INTRA.norm>
0.0755838

>  <SCORE.RESTR>
0

>  <SCORE.RESTR.CAVITY>
0

>  <SCORE.RESTR.norm>
0

>  <SCORE.SYSTEM>
0

>  <SCORE.SYSTEM.CONST>
0

>  <SCORE.SYSTEM.DIHEDRAL>
0

>  <SCORE.SYSTEM.SOLV>
0

>  <SCORE.SYSTEM.norm>
0

>  <SCORE.heavy>
10

>  <SCORE.norm>
-0.853648

>  <RMSD>
2.046

$$$$
ligand
 OpenBabel11021811463D
libRbt.so/2013.1/901 2013/11/27
 10  9  0  0  0  0  0  0  0  0999 V2000
   23.7549   39.0066   22.9908 N   0  0  0  0  0  0  0  0  0  0  0  0
   24.3085   40.2446   22.4559 C   0  0  2  0  0  0  0  0  0  0  0  0
   24.1084   41.3994   23.4358 C   0  0  0  0  0  0  0  0  0  0  0  0
   24.3648   42.5543   23.0831 O   0  0  0  0  0  0  0  0  0  0  0  0
   23.6912   40.5712   21.0926 C   0  0  0  0  0  0  0  0  0  0  0  0
   24.4809   41.6035   20.2970 C   0  0  0  0  0  0  0  0  0  0  0  0
   23.7312   42.0703   19.0523 C   0  0  0  0  0  0  0  0  0  0  0  0
   24.5805   43.0175   18.1902 C   0  0  0  0  0  0  0  0  0  0  0  0
   25.7935   42.3844   17.5823 N   0  0  0  0  0  0  0  0  0  0  0  0
   23.6774   41.2087   24.5807 O   0  0  0  0  0  0  0  0  0  0  0  0
  2  1  1  1  0  0  0
  2  3  1  0  0  0  0
  2  5  1  0  0  0  0
  3  4  1  0  0  0  0
  3 10  1  0  0  0  0
  5  6  1  0  0  0  0
  6  7  1  0  0  0  0
  7  8  1  0  0  0  0
  8  9  1  0  0  0  0
M  END
>  <CHROM.1>
-171.06331970,-163.52942378,-170.90507729,-175.04866772,65.37457258,24.24418182
41.42792013,21.30852788,2.50291447,1.36306763,0.95411824

>  <Name>
ligand

>  <RI>
0

>  <Rbt.Current_Directory>
/home/itssahil/PROJECTS/Mol_Feturizer/New_Systems/rnas/3D0U

>  <Rbt.Executable>
rbdock ($Id: //depot/dev/client3/rdock/2013.1/src/exe/rbdock.cxx#4 $)

>  <Rbt.Library>
libRbt.so (2013.1, Build901 2013/11/27)

>  <Rbt.Parameter_File>
/export/apps/rDock/src/rDock_2013.1_src/data/scripts/dock_solv.prm

>  <Rbt.Receptor>
prm/pocket_docking_6.prm

>  <SCORE>
-6.20278

>  <SCORE.INTER>
-6.46111

>  <SCORE.INTER.CONST>
1

>  <SCORE.INTER.POLAR>
0

>  <SCORE.INTER.ROT>
5

>  <SCORE.INTER.SOLV>
16.3942

>  <SCORE.INTER.VDW>
-16.7055

>  <SCORE.INTER.norm>
-0.646111

>  <SCORE.INTRA>
0.258328

>  <SCORE.INTRA.DIHEDRAL>
0.807345

>  <SCORE.INTRA.DIHEDRAL.0>
2.22229

>  <SCORE.INTRA.POLAR>
0

>  <SCORE.INTRA.POLAR.0>
0

>  <SCORE.INTRA.REPUL>
0

>  <SCORE.INTRA.REPUL.0>
0

>  <SCORE.INTRA.SOLV>
-0.742359

>  <SCORE.INTRA.SOLV.lig_0>
-31.87

>  <SCORE.INTRA.VDW>
0.225834

>  <SCORE.INTRA.VDW.0>
-0.575321

>  <SCORE.INTRA.norm>
0.0258328

>  <SCORE.RESTR>
0

>  <SCORE.RESTR.CAVITY>
0

>  <SCORE.RESTR.norm>
0

>  <SCORE.SYSTEM>
0

>  <SCORE.SYSTEM.CONST>
0

>  <SCORE.SYSTEM.DIHEDRAL>
0

>  <SCORE.SYSTEM.SOLV>
0

>  <SCORE.SYSTEM.norm>
0

>  <SCORE.heavy>
10

>  <SCORE.norm>
-0.620278

>  <RMSD>
2.046

$$$$
ligand
 OpenBabel11021811463D
libRbt.so/2013.1/901 2013/11/27
 10  9  0  0  0  0  0  0  0  0999 V2000
   23.9017   39.1213   22.6251 N   0  0  0  0  0  0  0  0  0  0  0  0
   24.8138   40.1920   22.2421 C   0  0  2  0  0  0  0  0  0  0  0  0
   24.4124   41.5113   22.8994 C   0  0  0  0  0  0  0  0  0  0  0  0
   23.9955   41.5154   24.0613 O   0  0  0  0  0  0  0  0  0  0  0  0
   24.8727   40.3361   20.7182 C   0  0  0  0  0  0  0  0  0  0  0  0
   26.0189   41.2151   20.2325 C   0  0  0  0  0  0  0  0  0  0  0  0
   26.0315   41.3605   18.7134 C   0  0  0  0  0  0  0  0  0  0  0  0
   24.8293   42.1701   18.2025 C   0  0  0  0  0  0  0  0  0  0  0  0
   24.7826   43.5857   18.6877 N   0  0  0  0  0  0  0  0  0  0  0  0
   24.5090   42.5891   22.2980 O   0  0  0  0  0  0  0  0  0  0  0  0
  2  1  1  6  0  0  0
  2  3  1  0  0  0  0
  2  5  1  0  0  0  0
  3  4  1  0  0  0  0
  3 10  1  0  0  0  0
  5  6  1  0  0  0  0
  6  7  1  0  0  0  0
  7  8  1  0  0  0  0
  8  9  1  0  0  0  0
M  END
>  <CHROM.1>
38.62961939,-167.35779776,-178.83805271,68.08326158,62.60838318,24.80688165
41.38519127,21.09264701,-2.43269119,1.27128319,-0.41306767

>  <Name>
ligand

>  <RI>
0

>  <Rbt.Current_Directory>
/home/itssahil/PROJECTS/Mol_Feturizer/New_Systems/rnas/3D0U

>  <Rbt.Executable>
rbdock ($Id: //depot/dev/client3/rdock/2013.1/src/exe/rbdock.cxx#4 $)

>  <Rbt.Library>
libRbt.so (2013.1, Build901 2013/11/27)

>  <Rbt.Parameter_File>
/export/apps/rDock/src/rDock_2013.1_src/data/scripts/dock_solv.prm

>  <Rbt.Receptor>
prm/pocket_docking_6.prm

>  <SCORE>
-8.37826

>  <SCORE.INTER>
-9.39841

>  <SCORE.INTER.CONST>
1

>  <SCORE.INTER.POLAR>
0

>  <SCORE.INTER.ROT>
5

>  <SCORE.INTER.SOLV>
11.8057

>  <SCORE.INTER.VDW>
-17.1342

>  <SCORE.INTER.norm>
-0.939841

>  <SCORE.INTRA>
1.02016

>  <SCORE.INTRA.DIHEDRAL>
0.119867

>  <SCORE.INTRA.DIHEDRAL.0>
2.22229

>  <SCORE.INTRA.POLAR>
0

>  <SCORE.INTRA.POLAR.0>
0

>  <SCORE.INTRA.REPUL>
0

>  <SCORE.INTRA.REPUL.0>
0

>  <SCORE.INTRA.SOLV>
-0.065024

>  <SCORE.INTRA.SOLV.lig_0>
-31.87

>  <SCORE.INTRA.VDW>
0.992734

>  <SCORE.INTRA.VDW.0>
-0.575321

>  <SCORE.INTRA.norm>
0.102016

>  <SCORE.RESTR>
0

>  <SCORE.RESTR.CAVITY>
0

>  <SCORE.RESTR.norm>
0

>  <SCORE.SYSTEM>
0

>  <SCORE.SYSTEM.CONST>
0

>  <SCORE.SYSTEM.DIHEDRAL>
0

>  <SCORE.SYSTEM.SOLV>
0

>  <SCORE.SYSTEM.norm>
0

>  <SCORE.heavy>
10

>  <SCORE.norm>
-0.837826

>  <RMSD>
2.048

$$$$
ligand
 OpenBabel11021811463D
libRbt.so/2013.1/901 2013/11/27
 10  9  0  0  0  0  0  0  0  0999 V2000
   23.9053   39.4298   21.8171 N   0  0  0  0  0  0  0  0  0  0  0  0
   25.0089   40.3175   22.1623 C   0  0  2  0  0  0  0  0  0  0  0  0
   24.4938   41.5997   22.8138 C   0  0  0  0  0  0  0  0  0  0  0  0
   23.9854   41.5548   23.9378 O   0  0  0  0  0  0  0  0  0  0  0  0
   25.8576   40.6347   20.9272 C   0  0  0  0  0  0  0  0  0  0  0  0
   25.0610   41.2440   19.7799 C   0  0  0  0  0  0  0  0  0  0  0  0
   25.9487   41.6229   18.5977 C   0  0  0  0  0  0  0  0  0  0  0  0
   25.1764   42.4092   17.5267 C   0  0  0  0  0  0  0  0  0  0  0  0
   24.5941   43.7029   18.0052 N   0  0  0  0  0  0  0  0  0  0  0  0
   24.5868   42.6960   22.2461 O   0  0  0  0  0  0  0  0  0  0  0  0
  2  1  1  6  0  0  0
  2  3  1  0  0  0  0
  2  5  1  0  0  0  0
  3  4  1  0  0  0  0
  3 10  1  0  0  0  0
  5  6  1  0  0  0  0
  6  7  1  0  0  0  0
  7  8  1  0  0  0  0
  8  9  1  0  0  0  0
M  END
>  <CHROM.1>
68.62503975,56.53660790,176.64643239,-172.16494015,60.56349233,24.85007773
41.54550851,20.80733672,-2.17113333,1.27099122,-0.69944775

>  <Name>
ligand

>  <RI>
0

>  <Rbt.Current_Directory>
/home/itssahil/PROJECTS/Mol_Feturizer/New_Systems/rnas/3D0U

>  <Rbt.Executable>
rbdock ($Id: //depot/dev/client3/rdock/2013.1/src/exe/rbdock.cxx#4 $)

>  <Rbt.Library>
libRbt.so (2013.1, Build901 2013/11/27)

>  <Rbt.Parameter_File>
/export/apps/rDock/src/rDock_2013.1_src/data/scripts/dock_solv.prm

>  <Rbt.Receptor>
prm/pocket_docking_5.prm

>  <SCORE>
-8.57028

>  <SCORE.INTER>
-9.33071

>  <SCORE.INTER.CONST>
1

>  <SCORE.INTER.POLAR>
0

>  <SCORE.INTER.ROT>
5

>  <SCORE.INTER.SOLV>
14.8361

>  <SCORE.INTER.VDW>
-18.0992

>  <SCORE.INTER.norm>
-0.933071

>  <SCORE.INTRA>
0.760438

>  <SCORE.INTRA.DIHEDRAL>
-0.377132

>  <SCORE.INTRA.DIHEDRAL.0>
2.22229

>  <SCORE.INTRA.POLAR>
0

>  <SCORE.INTRA.POLAR.0>
0

>  <SCORE.INTRA.REPUL>
0

>  <SCORE.INTRA.REPUL.0>
0

>  <SCORE.INTRA.SOLV>
0.212575

>  <SCORE.INTRA.SOLV.lig_0>
-31.87

>  <SCORE.INTRA.VDW>
0.842716

>  <SCORE.INTRA.VDW.0>
-0.575321

>  <SCORE.INTRA.norm>
0.0760438

>  <SCORE.RESTR>
0

>  <SCORE.RESTR.CAVITY>
0

>  <SCORE.RESTR.norm>
0

>  <SCORE.SYSTEM>
0

>  <SCORE.SYSTEM.CONST>
0

>  <SCORE.SYSTEM.DIHEDRAL>
0

>  <SCORE.SYSTEM.SOLV>
0

>  <SCORE.SYSTEM.norm>
0

>  <SCORE.heavy>
10

>  <SCORE.norm>
-0.857028

>  <RMSD>
2.065

$$$$
ligand
 OpenBabel11021811463D
libRbt.so/2013.1/901 2013/11/27
 10  9  0  0  0  0  0  0  0  0999 V2000
   23.9556   39.1482   22.6180 N   0  0  0  0  0  0  0  0  0  0  0  0
   24.8673   40.2124   22.2161 C   0  0  2  0  0  0  0  0  0  0  0  0
   24.4492   41.5483   22.8278 C   0  0  0  0  0  0  0  0  0  0  0  0
   24.0718   41.5936   24.0023 O   0  0  0  0  0  0  0  0  0  0  0  0
   24.9475   40.3113   20.6896 C   0  0  0  0  0  0  0  0  0  0  0  0
   26.0699   41.2158   20.1951 C   0  0  0  0  0  0  0  0  0  0  0  0
   26.0615   41.3691   18.6768 C   0  0  0  0  0  0  0  0  0  0  0  0
   24.8255   42.1372   18.1826 C   0  0  0  0  0  0  0  0  0  0  0  0
   24.7249   43.5430   18.6878 N   0  0  0  0  0  0  0  0  0  0  0  0
   24.4933   42.6001   22.1761 O   0  0  0  0  0  0  0  0  0  0  0  0
  2  1  1  6  0  0  0
  2  3  1  0  0  0  0
  2  5  1  0  0  0  0
  3  4  1  0  0  0  0
  3 10  1  0  0  0  0
  5  6  1  0  0  0  0
  6  7  1  0  0  0  0
  7  8  1  0  0  0  0
  8  9  1  0  0  0  0
M  END
>  <CHROM.1>
41.84867447,-169.10151827,-176.02727975,67.16428615,61.97451048,24.83655598
41.39395961,21.05077101,-2.34843351,1.25822932,-0.50971568

>  <Name>
ligand

>  <RI>
0

>  <Rbt.Current_Directory>
/home/itssahil/PROJECTS/Mol_Feturizer/New_Systems/rnas/3D0U

>  <Rbt.Executable>
rbdock ($Id: //depot/dev/client3/rdock/2013.1/src/exe/rbdock.cxx#4 $)

>  <Rbt.Library>
libRbt.so (2013.1, Build901 2013/11/27)

>  <Rbt.Parameter_File>
/export/apps/rDock/src/rDock_2013.1_src/data/scripts/dock_solv.prm

>  <Rbt.Receptor>
prm/pocket_docking_6.prm

>  <SCORE>
-8.41874

>  <SCORE.INTER>
-9.5042

>  <SCORE.INTER.CONST>
1

>  <SCORE.INTER.POLAR>
0

>  <SCORE.INTER.ROT>
5

>  <SCORE.INTER.SOLV>
11.6837

>  <SCORE.INTER.VDW>
-17.164

>  <SCORE.INTER.norm>
-0.95042

>  <SCORE.INTRA>
1.0854

>  <SCORE.INTRA.DIHEDRAL>
-0.0362006

>  <SCORE.INTRA.DIHEDRAL.0>
2.22229

>  <SCORE.INTRA.POLAR>
0

>  <SCORE.INTRA.POLAR.0>
0

>  <SCORE.INTRA.REPUL>
0

>  <SCORE.INTRA.REPUL.0>
0

>  <SCORE.INTRA.SOLV>
0.037569

>  <SCORE.INTRA.SOLV.lig_0>
-31.87

>  <SCORE.INTRA.VDW>
1.08471

>  <SCORE.INTRA.VDW.0>
-0.575321

>  <SCORE.INTRA.norm>
0.10854

>  <SCORE.RESTR>
5.60595e-05

>  <SCORE.RESTR.CAVITY>
5.60595e-05

>  <SCORE.RESTR.norm>
5.60595e-06

>  <SCORE.SYSTEM>
0

>  <SCORE.SYSTEM.CONST>
0

>  <SCORE.SYSTEM.DIHEDRAL>
0

>  <SCORE.SYSTEM.SOLV>
0

>  <SCORE.SYSTEM.norm>
0

>  <SCORE.heavy>
10

>  <SCORE.norm>
-0.841874

>  <RMSD>
2.080

$$$$
ligand
 OpenBabel11021811463D
libRbt.so/2013.1/901 2013/11/27
 10  9  0  0  0  0  0  0  0  0999 V2000
   24.3917   39.4909   22.3931 N   0  0  0  0  0  0  0  0  0  0  0  0
   25.2086   40.5678   21.8471 C   0  0  2  0  0  0  0  0  0  0  0  0
   24.7357   41.9258   22.3627 C   0  0  0  0  0  0  0  0  0  0  0  0
   24.7764   42.9115   21.6206 O   0  0  0  0  0  0  0  0  0  0  0  0
   25.2017   40.5318   20.3158 C   0  0  0  0  0  0  0  0  0  0  0  0
   26.2670   41.4169   19.6801 C   0  0  0  0  0  0  0  0  0  0  0  0
   26.0716   41.5647   18.1738 C   0  0  0  0  0  0  0  0  0  0  0  0
   24.8090   42.3720   17.8335 C   0  0  0  0  0  0  0  0  0  0  0  0
   24.7880   43.7589   18.3974 N   0  0  0  0  0  0  0  0  0  0  0  0
   24.2941   42.0635   23.5111 O   0  0  0  0  0  0  0  0  0  0  0  0
  2  1  1  1  0  0  0
  2  3  1  0  0  0  0
  2  5  1  0  0  0  0
  3  4  1  0  0  0  0
  3 10  1  0  0  0  0
  5  6  1  0  0  0  0
  6  7  1  0  0  0  0
  7  8  1  0  0  0  0
  8  9  1  0  0  0  0
M  END
>  <CHROM.1>
-144.03464106,-167.05628902,-169.32813320,68.21048705,58.91200879,25.04343696
41.68752266,20.63436107,-2.13103571,1.25311667,-0.75595958

>  <Name>
ligand

>  <RI>
0

>  <Rbt.Current_Directory>
/home/itssahil/PROJECTS/Mol_Feturizer/New_Systems/rnas/3D0U

>  <Rbt.Executable>
rbdock ($Id: //depot/dev/client3/rdock/2013.1/src/exe/rbdock.cxx#4 $)

>  <Rbt.Library>
libRbt.so (2013.1, Build901 2013/11/27)

>  <Rbt.Parameter_File>
/export/apps/rDock/src/rDock_2013.1_src/data/scripts/dock_solv.prm

>  <Rbt.Receptor>
prm/pocket_docking_4.prm

>  <SCORE>
-8.58614

>  <SCORE.INTER>
-10.1513

>  <SCORE.INTER.CONST>
1

>  <SCORE.INTER.POLAR>
0

>  <SCORE.INTER.ROT>
5

>  <SCORE.INTER.SOLV>
13.3902

>  <SCORE.INTER.VDW>
-18.1642

>  <SCORE.INTER.norm>
-1.01513

>  <SCORE.INTRA>
1.56512

>  <SCORE.INTRA.DIHEDRAL>
0.653775

>  <SCORE.INTRA.DIHEDRAL.0>
2.22229

>  <SCORE.INTRA.POLAR>
0

>  <SCORE.INTRA.POLAR.0>
0

>  <SCORE.INTRA.REPUL>
0

>  <SCORE.INTRA.REPUL.0>
0

>  <SCORE.INTRA.SOLV>
0.26155

>  <SCORE.INTRA.SOLV.lig_0>
-31.87

>  <SCORE.INTRA.VDW>
1.10746

>  <SCORE.INTRA.VDW.0>
-0.575321

>  <SCORE.INTRA.norm>
0.156512

>  <SCORE.RESTR>
0

>  <SCORE.RESTR.CAVITY>
0

>  <SCORE.RESTR.norm>
0

>  <SCORE.SYSTEM>
0

>  <SCORE.SYSTEM.CONST>
0

>  <SCORE.SYSTEM.DIHEDRAL>
0

>  <SCORE.SYSTEM.SOLV>
0

>  <SCORE.SYSTEM.norm>
0

>  <SCORE.heavy>
10

>  <SCORE.norm>
-0.858614

>  <RMSD>
2.336

$$$$
ligand
 OpenBabel11021811463D
libRbt.so/2013.1/901 2013/11/27
 10  9  0  0  0  0  0  0  0  0999 V2000
   24.2392   39.5303   22.2362 N   0  0  0  0  0  0  0  0  0  0  0  0
   25.1321   40.5700   21.7390 C   0  0  2  0  0  0  0  0  0  0  0  0
   24.7416   41.9370   22.2982 C   0  0  0  0  0  0  0  0  0  0  0  0
   24.3980   42.0409   23.4793 O   0  0  0  0  0  0  0  0  0  0  0  0
   25.1441   40.5889   20.2074 C   0  0  0  0  0  0  0  0  0  0  0  0
   26.2464   41.4597   19.6168 C   0  0  0  0  0  0  0  0  0  0  0  0
   26.0908   41.6455   18.1101 C   0  0  0  0  0  0  0  0  0  0  0  0
   24.8680   42.5079   17.7597 C   0  0  0  0  0  0  0  0  0  0  0  0
   24.8797   43.8771   18.3653 N   0  0  0  0  0  0  0  0  0  0  0  0
   24.7752   42.9563   21.5963 O   0  0  0  0  0  0  0  0  0  0  0  0
  2  1  1  6  0  0  0
  2  3  1  0  0  0  0
  2  5  1  0  0  0  0
  3  4  1  0  0  0  0
  3 10  1  0  0  0  0
  5  6  1  0  0  0  0
  6  7  1  0  0  0  0
  7  8  1  0  0  0  0
  8  9  1  0  0  0  0
M  END
>  <CHROM.1>
40.78416931,-168.88768587,-170.42757431,68.94759947,58.23212364,25.04250106
41.73829393,20.56306790,-2.27576184,1.29246028,-0.58698827

>  <Name>
ligand

>  <RI>
0

>  <Rbt.Current_Directory>
/home/itssahil/PROJECTS/Mol_Feturizer/New_Systems/rnas/3D0U

>  <Rbt.Executable>
rbdock ($Id: //depot/dev/client3/rdock/2013.1/src/exe/rbdock.cxx#4 $)

>  <Rbt.Library>
libRbt.so (2013.1, Build901 2013/11/27)

>  <Rbt.Parameter_File>
/export/apps/rDock/src/rDock_2013.1_src/data/scripts/dock_solv.prm

>  <Rbt.Receptor>
prm/pocket_docking_7.prm

>  <SCORE>
-8.78184

>  <SCORE.INTER>
-10.0864

>  <SCORE.INTER.CONST>
1

>  <SCORE.INTER.POLAR>
0

>  <SCORE.INTER.ROT>
5

>  <SCORE.INTER.SOLV>
13.5456

>  <SCORE.INTER.VDW>
-18.1728

>  <SCORE.INTER.norm>
-1.00864

>  <SCORE.INTRA>
1.30457

>  <SCORE.INTRA.DIHEDRAL>
0.404726

>  <SCORE.INTRA.DIHEDRAL.0>
2.22229

>  <SCORE.INTRA.POLAR>
0

>  <SCORE.INTRA.POLAR.0>
0

>  <SCORE.INTRA.REPUL>
0

>  <SCORE.INTRA.REPUL.0>
0

>  <SCORE.INTRA.SOLV>
0.247061

>  <SCORE.INTRA.SOLV.lig_0>
-31.87

>  <SCORE.INTRA.VDW>
0.978676

>  <SCORE.INTRA.VDW.0>
-0.575321

>  <SCORE.INTRA.norm>
0.130457

>  <SCORE.RESTR>
0

>  <SCORE.RESTR.CAVITY>
0

>  <SCORE.RESTR.norm>
0

>  <SCORE.SYSTEM>
0

>  <SCORE.SYSTEM.CONST>
0

>  <SCORE.SYSTEM.DIHEDRAL>
0

>  <SCORE.SYSTEM.SOLV>
0

>  <SCORE.SYSTEM.norm>
0

>  <SCORE.heavy>
10

>  <SCORE.norm>
-0.878184

>  <RMSD>
2.348

$$$$
ligand
 OpenBabel11021811463D
libRbt.so/2013.1/901 2013/11/27
 10  9  0  0  0  0  0  0  0  0999 V2000
   25.9856   40.4509   19.7650 N   0  0  0  0  0  0  0  0  0  0  0  0
   25.3819   41.5773   20.4663 C   0  0  2  0  0  0  0  0  0  0  0  0
   25.1917   41.2582   21.9481 C   0  0  0  0  0  0  0  0  0  0  0  0
   24.7799   42.1329   22.7157 O   0  0  0  0  0  0  0  0  0  0  0  0
   24.0518   41.9716   19.8169 C   0  0  0  0  0  0  0  0  0  0  0  0
   24.1752   42.3236   18.3393 C   0  0  0  0  0  0  0  0  0  0  0  0
   25.1242   43.4949   18.1019 C   0  0  0  0  0  0  0  0  0  0  0  0
   24.5313   44.8249   18.5931 C   0  0  0  0  0  0  0  0  0  0  0  0
   24.3607   44.9182   20.0776 N   0  0  0  0  0  0  0  0  0  0  0  0
   25.4270   40.1307   22.4022 O   0  0  0  0  0  0  0  0  0  0  0  0
  2  1  1  6  0  0  0
  2  3  1  0  0  0  0
  2  5  1  0  0  0  0
  3  4  1  0  0  0  0
  3 10  1  0  0  0  0
  5  6  1  0  0  0  0
  6  7  1  0  0  0  0
  7  8  1  0  0  0  0
  8  9  1  0  0  0  0
M  END
>  <CHROM.1>
174.88031900,-57.25773012,-59.70710718,-70.74364297,66.77857501,24.89892559
42.29553364,20.26161570,-0.88800974,1.30966700,-1.46133026

>  <Name>
ligand

>  <RI>
0

>  <Rbt.Current_Directory>
/home/itssahil/PROJECTS/Mol_Feturizer/New_Systems/rnas/3D0U

>  <Rbt.Executable>
rbdock ($Id: //depot/dev/client3/rdock/2013.1/src/exe/rbdock.cxx#4 $)

>  <Rbt.Library>
libRbt.so (2013.1, Build901 2013/11/27)

>  <Rbt.Parameter_File>
/export/apps/rDock/src/rDock_2013.1_src/data/scripts/dock_solv.prm

>  <Rbt.Receptor>
prm/blind_docking_60.prm

>  <SCORE>
-6.09889

>  <SCORE.INTER>
-8.20298

>  <SCORE.INTER.CONST>
1

>  <SCORE.INTER.POLAR>
0

>  <SCORE.INTER.ROT>
5

>  <SCORE.INTER.SOLV>
15.3287

>  <SCORE.INTER.VDW>
-17.5116

>  <SCORE.INTER.norm>
-0.820298

>  <SCORE.INTRA>
2.10409

>  <SCORE.INTRA.DIHEDRAL>
-0.0859738

>  <SCORE.INTRA.DIHEDRAL.0>
2.22229

>  <SCORE.INTRA.POLAR>
0

>  <SCORE.INTRA.POLAR.0>
0

>  <SCORE.INTRA.REPUL>
0

>  <SCORE.INTRA.REPUL.0>
0

>  <SCORE.INTRA.SOLV>
2.83491

>  <SCORE.INTRA.SOLV.lig_0>
-31.87

>  <SCORE.INTRA.VDW>
0.72962

>  <SCORE.INTRA.VDW.0>
-0.575321

>  <SCORE.INTRA.norm>
0.210409

>  <SCORE.RESTR>
0

>  <SCORE.RESTR.CAVITY>
0

>  <SCORE.RESTR.norm>
0

>  <SCORE.SYSTEM>
0

>  <SCORE.SYSTEM.CONST>
0

>  <SCORE.SYSTEM.DIHEDRAL>
0

>  <SCORE.SYSTEM.SOLV>
0

>  <SCORE.SYSTEM.norm>
0

>  <SCORE.heavy>
10

>  <SCORE.norm>
-0.609889

>  <RMSD>
2.674

$$$$
ligand
 OpenBabel11021811463D
libRbt.so/2013.1/901 2013/11/27
 10  9  0  0  0  0  0  0  0  0999 V2000
   25.3622   42.5145   16.9136 N   0  0  0  0  0  0  0  0  0  0  0  0
   25.0109   41.8109   18.1410 C   0  0  2  0  0  0  0  0  0  0  0  0
   23.7910   42.4478   18.8043 C   0  0  0  0  0  0  0  0  0  0  0  0
   23.7545   43.6697   18.9761 O   0  0  0  0  0  0  0  0  0  0  0  0
   26.2004   41.7738   19.1053 C   0  0  0  0  0  0  0  0  0  0  0  0
   26.0368   40.7667   20.2373 C   0  0  0  0  0  0  0  0  0  0  0  0
   25.0788   41.2620   21.3170 C   0  0  0  0  0  0  0  0  0  0  0  0
   24.8425   40.2041   22.4064 C   0  0  0  0  0  0  0  0  0  0  0  0
   23.8057   40.5773   23.4200 N   0  0  0  0  0  0  0  0  0  0  0  0
   22.8215   41.7671   19.1643 O   0  0  0  0  0  0  0  0  0  0  0  0
  2  1  1  6  0  0  0
  2  3  1  0  0  0  0
  2  5  1  0  0  0  0
  3  4  1  0  0  0  0
  3 10  1  0  0  0  0
  5  6  1  0  0  0  0
  6  7  1  0  0  0  0
  7  8  1  0  0  0  0
  8  9  1  0  0  0  0
M  END
>  <CHROM.1>
-49.11680697,-165.17818462,-76.26012209,176.06319043,-174.12192275,24.64193644
41.69656111,19.85380481,-1.54390124,-0.37303180,1.99548812

>  <Name>
ligand

>  <RI>
0

>  <Rbt.Current_Directory>
/home/itssahil/PROJECTS/Mol_Feturizer/New_Systems/rnas/3D0U

>  <Rbt.Executable>
rbdock ($Id: //depot/dev/client3/rdock/2013.1/src/exe/rbdock.cxx#4 $)

>  <Rbt.Library>
libRbt.so (2013.1, Build901 2013/11/27)

>  <Rbt.Parameter_File>
/export/apps/rDock/src/rDock_2013.1_src/data/scripts/dock_solv.prm

>  <Rbt.Receptor>
prm/pocket_docking_5.prm

>  <SCORE>
-7.95337

>  <SCORE.INTER>
-7.56929

>  <SCORE.INTER.CONST>
1

>  <SCORE.INTER.POLAR>
0

>  <SCORE.INTER.ROT>
5

>  <SCORE.INTER.SOLV>
18.0734

>  <SCORE.INTER.VDW>
-18.004

>  <SCORE.INTER.norm>
-0.756929

>  <SCORE.INTRA>
-0.384082

>  <SCORE.INTRA.DIHEDRAL>
1.31595

>  <SCORE.INTRA.DIHEDRAL.0>
2.22229

>  <SCORE.INTRA.POLAR>
0

>  <SCORE.INTRA.POLAR.0>
0

>  <SCORE.INTRA.REPUL>
0

>  <SCORE.INTRA.REPUL.0>
0

>  <SCORE.INTRA.SOLV>
-1.48347

>  <SCORE.INTRA.SOLV.lig_0>
-31.87

>  <SCORE.INTRA.VDW>
-0.30032

>  <SCORE.INTRA.VDW.0>
-0.575321

>  <SCORE.INTRA.norm>
-0.0384082

>  <SCORE.RESTR>
0

>  <SCORE.RESTR.CAVITY>
0

>  <SCORE.RESTR.norm>
0

>  <SCORE.SYSTEM>
0

>  <SCORE.SYSTEM.CONST>
0

>  <SCORE.SYSTEM.DIHEDRAL>
0

>  <SCORE.SYSTEM.SOLV>
0

>  <SCORE.SYSTEM.norm>
0

>  <SCORE.heavy>
10

>  <SCORE.norm>
-0.795337

>  <RMSD>
5.019

$$$$
ligand
 OpenBabel11021811463D
libRbt.so/2013.1/901 2013/11/27
 10  9  0  0  0  0  0  0  0  0999 V2000
   25.4808   42.4142   16.9799 N   0  0  0  0  0  0  0  0  0  0  0  0
   25.0238   41.8595   18.2482 C   0  0  2  0  0  0  0  0  0  0  0  0
   23.8521   42.6660   18.8053 C   0  0  0  0  0  0  0  0  0  0  0  0
   22.8031   42.0919   19.1116 O   0  0  0  0  0  0  0  0  0  0  0  0
   26.1732   41.7958   19.2587 C   0  0  0  0  0  0  0  0  0  0  0  0
   25.8662   40.9351   20.4782 C   0  0  0  0  0  0  0  0  0  0  0  0
   24.8537   41.5945   21.4104 C   0  0  0  0  0  0  0  0  0  0  0  0
   24.5402   40.7174   22.6328 C   0  0  0  0  0  0  0  0  0  0  0  0
   23.9571   39.3784   22.3033 N   0  0  0  0  0  0  0  0  0  0  0  0
   23.9317   43.8900   18.9740 O   0  0  0  0  0  0  0  0  0  0  0  0
  2  1  1  6  0  0  0
  2  3  1  0  0  0  0
  2  5  1  0  0  0  0
  3  4  1  0  0  0  0
  3 10  1  0  0  0  0
  5  6  1  0  0  0  0
  6  7  1  0  0  0  0
  7  8  1  0  0  0  0
  8  9  1  0  0  0  0
M  END
>  <CHROM.1>
126.47542294,-166.27585868,-71.84387050,179.57406870,-60.30597564,24.62104285
41.75544900,19.82425365,-1.54595621,-0.37808662,2.11476294

>  <Name>
ligand

>  <RI>
0

>  <Rbt.Current_Directory>
/home/itssahil/PROJECTS/Mol_Feturizer/New_Systems/rnas/3D0U

>  <Rbt.Executable>
rbdock ($Id: //depot/dev/client3/rdock/2013.1/src/exe/rbdock.cxx#4 $)

>  <Rbt.Library>
libRbt.so (2013.1, Build901 2013/11/27)

>  <Rbt.Parameter_File>
/export/apps/rDock/src/rDock_2013.1_src/data/scripts/dock_solv.prm

>  <Rbt.Receptor>
prm/pocket_docking_8.prm

>  <SCORE>
-8.05025

>  <SCORE.INTER>
-7.95675

>  <SCORE.INTER.CONST>
1

>  <SCORE.INTER.POLAR>
0

>  <SCORE.INTER.ROT>
5

>  <SCORE.INTER.SOLV>
16.8887

>  <SCORE.INTER.VDW>
-17.8674

>  <SCORE.INTER.norm>
-0.795675

>  <SCORE.INTRA>
-0.0934982

>  <SCORE.INTRA.DIHEDRAL>
0.512569

>  <SCORE.INTRA.DIHEDRAL.0>
2.22229

>  <SCORE.INTRA.POLAR>
0

>  <SCORE.INTRA.POLAR.0>
0

>  <SCORE.INTRA.REPUL>
0

>  <SCORE.INTRA.REPUL.0>
0

>  <SCORE.INTRA.SOLV>
-0.590675

>  <SCORE.INTRA.SOLV.lig_0>
-31.87

>  <SCORE.INTRA.VDW>
-0.0544455

>  <SCORE.INTRA.VDW.0>
-0.575321

>  <SCORE.INTRA.norm>
-0.00934982

>  <SCORE.RESTR>
0

>  <SCORE.RESTR.CAVITY>
0

>  <SCORE.RESTR.norm>
0

>  <SCORE.SYSTEM>
0

>  <SCORE.SYSTEM.CONST>
0

>  <SCORE.SYSTEM.DIHEDRAL>
0

>  <SCORE.SYSTEM.SOLV>
0

>  <SCORE.SYSTEM.norm>
0

>  <SCORE.heavy>
10

>  <SCORE.norm>
-0.805025

>  <RMSD>
5.044

$$$$
ligand
 OpenBabel11021811463D
libRbt.so/2013.1/901 2013/11/27
 10  9  0  0  0  0  0  0  0  0999 V2000
   25.4401   42.4634   16.9134 N   0  0  0  0  0  0  0  0  0  0  0  0
   25.0289   41.8704   18.1801 C   0  0  2  0  0  0  0  0  0  0  0  0
   23.8894   42.6685   18.8112 C   0  0  0  0  0  0  0  0  0  0  0  0
   24.0105   43.8862   18.9742 O   0  0  0  0  0  0  0  0  0  0  0  0
   26.2175   41.7618   19.1401 C   0  0  0  0  0  0  0  0  0  0  0  0
   25.9885   40.7839   20.2862 C   0  0  0  0  0  0  0  0  0  0  0  0
   24.9961   41.3206   21.3138 C   0  0  0  0  0  0  0  0  0  0  0  0
   24.7151   40.3019   22.4296 C   0  0  0  0  0  0  0  0  0  0  0  0
   23.7829   40.7890   23.4951 N   0  0  0  0  0  0  0  0  0  0  0  0
   22.8311   42.1247   19.1533 O   0  0  0  0  0  0  0  0  0  0  0  0
  2  1  1  6  0  0  0
  2  3  1  0  0  0  0
  2  5  1  0  0  0  0
  3  4  1  0  0  0  0
  3 10  1  0  0  0  0
  5  6  1  0  0  0  0
  6  7  1  0  0  0  0
  7  8  1  0  0  0  0
  8  9  1  0  0  0  0
M  END
>  <CHROM.1>
-52.69425458,-162.01228824,-72.21970700,177.11907414,178.01155680,24.66357356
41.81791037,19.87425926,-1.51077663,-0.47000997,2.00436742

>  <Name>
ligand

>  <RI>
0

>  <Rbt.Current_Directory>
/home/itssahil/PROJECTS/Mol_Feturizer/New_Systems/rnas/3D0U

>  <Rbt.Executable>
rbdock ($Id: //depot/dev/client3/rdock/2013.1/src/exe/rbdock.cxx#4 $)

>  <Rbt.Library>
libRbt.so (2013.1, Build901 2013/11/27)

>  <Rbt.Parameter_File>
/export/apps/rDock/src/rDock_2013.1_src/data/scripts/dock_solv.prm

>  <Rbt.Receptor>
prm/blind_docking_60.prm

>  <SCORE>
-8.03089

>  <SCORE.INTER>
-7.62495

>  <SCORE.INTER.CONST>
1

>  <SCORE.INTER.POLAR>
0

>  <SCORE.INTER.ROT>
5

>  <SCORE.INTER.SOLV>
18.4006

>  <SCORE.INTER.VDW>
-18.1502

>  <SCORE.INTER.norm>
-0.762495

>  <SCORE.INTRA>
-0.40594

>  <SCORE.INTRA.DIHEDRAL>
1.08776

>  <SCORE.INTRA.DIHEDRAL.0>
2.22229

>  <SCORE.INTRA.POLAR>
0

>  <SCORE.INTRA.POLAR.0>
0

>  <SCORE.INTRA.REPUL>
0

>  <SCORE.INTRA.REPUL.0>
0

>  <SCORE.INTRA.SOLV>
-1.46574

>  <SCORE.INTRA.SOLV.lig_0>
-31.87

>  <SCORE.INTRA.VDW>
-0.216952

>  <SCORE.INTRA.VDW.0>
-0.575321

>  <SCORE.INTRA.norm>
-0.040594

>  <SCORE.RESTR>
0

>  <SCORE.RESTR.CAVITY>
0

>  <SCORE.RESTR.norm>
0

>  <SCORE.SYSTEM>
0

>  <SCORE.SYSTEM.CONST>
0

>  <SCORE.SYSTEM.DIHEDRAL>
0

>  <SCORE.SYSTEM.SOLV>
0

>  <SCORE.SYSTEM.norm>
0

>  <SCORE.heavy>
10

>  <SCORE.norm>
-0.803089

>  <RMSD>
5.059

$$$$
ligand
 OpenBabel11021811463D
libRbt.so/2013.1/901 2013/11/27
 10  9  0  0  0  0  0  0  0  0999 V2000
   24.2110   43.8814   18.6914 N   0  0  0  0  0  0  0  0  0  0  0  0
   24.7538   42.6509   19.2540 C   0  0  2  0  0  0  0  0  0  0  0  0
   25.4746   41.8336   18.1833 C   0  0  0  0  0  0  0  0  0  0  0  0
   25.4820   42.2269   17.0132 O   0  0  0  0  0  0  0  0  0  0  0  0
   23.6496   41.8251   19.9210 C   0  0  0  0  0  0  0  0  0  0  0  0
   24.1709   40.6154   20.6872 C   0  0  0  0  0  0  0  0  0  0  0  0
   25.0953   41.0130   21.8345 C   0  0  0  0  0  0  0  0  0  0  0  0
   24.3268   41.6707   22.9915 C   0  0  0  0  0  0  0  0  0  0  0  0
   23.4791   40.7288   23.7889 N   0  0  0  0  0  0  0  0  0  0  0  0
   26.0705   40.7848   18.4624 O   0  0  0  0  0  0  0  0  0  0  0  0
  2  1  1  6  0  0  0
  2  3  1  0  0  0  0
  2  5  1  0  0  0  0
  3  4  1  0  0  0  0
  3 10  1  0  0  0  0
  5  6  1  0  0  0  0
  6  7  1  0  0  0  0
  7  8  1  0  0  0  0
  8  9  1  0  0  0  0
M  END
>  <CHROM.1>
-3.01643281,-172.49889482,61.77169072,71.37523790,71.92032762,24.69041417
41.70862735,20.04989782,1.14768354,0.95645988,-0.98681586

>  <Name>
ligand

>  <RI>
0

>  <Rbt.Current_Directory>
/home/itssahil/PROJECTS/Mol_Feturizer/New_Systems/rnas/3D0U

>  <Rbt.Executable>
rbdock ($Id: //depot/dev/client3/rdock/2013.1/src/exe/rbdock.cxx#4 $)

>  <Rbt.Library>
libRbt.so (2013.1, Build901 2013/11/27)

>  <Rbt.Parameter_File>
/export/apps/rDock/src/rDock_2013.1_src/data/scripts/dock_solv.prm

>  <Rbt.Receptor>
prm/pocket_docking_3.prm

>  <SCORE>
-7.74055

>  <SCORE.INTER>
-8.73516

>  <SCORE.INTER.CONST>
1

>  <SCORE.INTER.POLAR>
0

>  <SCORE.INTER.ROT>
5

>  <SCORE.INTER.SOLV>
13.5326

>  <SCORE.INTER.VDW>
-17.2677

>  <SCORE.INTER.norm>
-0.873516

>  <SCORE.INTRA>
0.989622

>  <SCORE.INTRA.DIHEDRAL>
0.529984

>  <SCORE.INTRA.DIHEDRAL.0>
2.22229

>  <SCORE.INTRA.POLAR>
0

>  <SCORE.INTRA.POLAR.0>
0

>  <SCORE.INTRA.REPUL>
0

>  <SCORE.INTRA.REPUL.0>
0

>  <SCORE.INTRA.SOLV>
-0.135528

>  <SCORE.INTRA.SOLV.lig_0>
-31.87

>  <SCORE.INTRA.VDW>
0.792394

>  <SCORE.INTRA.VDW.0>
-0.575321

>  <SCORE.INTRA.norm>
0.0989622

>  <SCORE.RESTR>
0.00498751

>  <SCORE.RESTR.CAVITY>
0.00498751

>  <SCORE.RESTR.norm>
0.000498751

>  <SCORE.SYSTEM>
0

>  <SCORE.SYSTEM.CONST>
0

>  <SCORE.SYSTEM.DIHEDRAL>
0

>  <SCORE.SYSTEM.SOLV>
0

>  <SCORE.SYSTEM.norm>
0

>  <SCORE.heavy>
10

>  <SCORE.norm>
-0.774055

>  <RMSD>
5.059

$$$$
ligand
 OpenBabel11021811463D
libRbt.so/2013.1/901 2013/11/27
 10  9  0  0  0  0  0  0  0  0999 V2000
   25.8413   43.2077   18.7219 N   0  0  0  0  0  0  0  0  0  0  0  0
   24.4478   43.5429   18.4559 C   0  0  2  0  0  0  0  0  0  0  0  0
   23.9372   44.5818   19.4528 C   0  0  0  0  0  0  0  0  0  0  0  0
   24.4600   44.6707   20.5676 O   0  0  0  0  0  0  0  0  0  0  0  0
   23.5727   42.2860   18.4798 C   0  0  0  0  0  0  0  0  0  0  0  0
   23.5052   41.6156   19.8467 C   0  0  0  0  0  0  0  0  0  0  0  0
   24.8315   40.9712   20.2400 C   0  0  0  0  0  0  0  0  0  0  0  0
   24.7223   40.1870   21.5571 C   0  0  0  0  0  0  0  0  0  0  0  0
   24.3129   41.0109   22.7383 N   0  0  0  0  0  0  0  0  0  0  0  0
   23.0140   45.3551   19.1651 O   0  0  0  0  0  0  0  0  0  0  0  0
  2  1  1  1  0  0  0
  2  3  1  0  0  0  0
  2  5  1  0  0  0  0
  3  4  1  0  0  0  0
  3 10  1  0  0  0  0
  5  6  1  0  0  0  0
  6  7  1  0  0  0  0
  7  8  1  0  0  0  0
  8  9  1  0  0  0  0
M  END
>  <CHROM.1>
-25.74748838,64.82898384,-69.47233980,-174.73198520,-59.98575470,24.25287659
42.77454618,19.93789078,-2.16294306,-1.33752176,2.01701222

>  <Name>
ligand

>  <RI>
0

>  <Rbt.Current_Directory>
/home/itssahil/PROJECTS/Mol_Feturizer/New_Systems/rnas/3D0U

>  <Rbt.Executable>
rbdock ($Id: //depot/dev/client3/rdock/2013.1/src/exe/rbdock.cxx#4 $)

>  <Rbt.Library>
libRbt.so (2013.1, Build901 2013/11/27)

>  <Rbt.Parameter_File>
/export/apps/rDock/src/rDock_2013.1_src/data/scripts/dock_solv.prm

>  <Rbt.Receptor>
prm/pocket_docking_5.prm

>  <SCORE>
-6.88905

>  <SCORE.INTER>
-7.86661

>  <SCORE.INTER.CONST>
1

>  <SCORE.INTER.POLAR>
0

>  <SCORE.INTER.ROT>
5

>  <SCORE.INTER.SOLV>
12.6703

>  <SCORE.INTER.VDW>
-16.4012

>  <SCORE.INTER.norm>
-0.786661

>  <SCORE.INTRA>
0.977557

>  <SCORE.INTRA.DIHEDRAL>
-0.146098

>  <SCORE.INTRA.DIHEDRAL.0>
2.22229

>  <SCORE.INTRA.POLAR>
0

>  <SCORE.INTRA.POLAR.0>
0

>  <SCORE.INTRA.REPUL>
0

>  <SCORE.INTRA.REPUL.0>
0

>  <SCORE.INTRA.SOLV>
1.51518

>  <SCORE.INTRA.SOLV.lig_0>
-31.87

>  <SCORE.INTRA.VDW>
0.293014

>  <SCORE.INTRA.VDW.0>
-0.575321

>  <SCORE.INTRA.norm>
0.0977557

>  <SCORE.RESTR>
0

>  <SCORE.RESTR.CAVITY>
0

>  <SCORE.RESTR.norm>
0

>  <SCORE.SYSTEM>
0

>  <SCORE.SYSTEM.CONST>
0

>  <SCORE.SYSTEM.DIHEDRAL>
0

>  <SCORE.SYSTEM.SOLV>
0

>  <SCORE.SYSTEM.norm>
0

>  <SCORE.heavy>
10

>  <SCORE.norm>
-0.688905

>  <RMSD>
5.066

$$$$
ligand
 OpenBabel11021811463D
libRbt.so/2013.1/901 2013/11/27
 10  9  0  0  0  0  0  0  0  0999 V2000
   25.2757   42.5782   16.8071 N   0  0  0  0  0  0  0  0  0  0  0  0
   24.9262   41.9406   18.0706 C   0  0  2  0  0  0  0  0  0  0  0  0
   23.8222   42.7173   18.7860 C   0  0  0  0  0  0  0  0  0  0  0  0
   22.7981   42.1321   19.1504 O   0  0  0  0  0  0  0  0  0  0  0  0
   26.1607   41.7956   18.9656 C   0  0  0  0  0  0  0  0  0  0  0  0
   25.9878   40.7732   20.0824 C   0  0  0  0  0  0  0  0  0  0  0  0
   25.0655   41.2770   21.1889 C   0  0  0  0  0  0  0  0  0  0  0  0
   24.8347   40.2140   22.2745 C   0  0  0  0  0  0  0  0  0  0  0  0
   23.9227   40.6443   23.3811 N   0  0  0  0  0  0  0  0  0  0  0  0
   23.9339   43.9267   19.0263 O   0  0  0  0  0  0  0  0  0  0  0  0
  2  1  1  6  0  0  0
  2  3  1  0  0  0  0
  2  5  1  0  0  0  0
  3  4  1  0  0  0  0
  3 10  1  0  0  0  0
  5  6  1  0  0  0  0
  6  7  1  0  0  0  0
  7  8  1  0  0  0  0
  8  9  1  0  0  0  0
M  END
>  <CHROM.1>
126.72623251,-161.77261388,-73.13054772,176.92957614,-179.28778349,24.64657277
41.82020634,19.78029762,-1.56045383,-0.49351630,2.01921216

>  <Name>
ligand

>  <RI>
0

>  <Rbt.Current_Directory>
/home/itssahil/PROJECTS/Mol_Feturizer/New_Systems/rnas/3D0U

>  <Rbt.Executable>
rbdock ($Id: //depot/dev/client3/rdock/2013.1/src/exe/rbdock.cxx#4 $)

>  <Rbt.Library>
libRbt.so (2013.1, Build901 2013/11/27)

>  <Rbt.Parameter_File>
/export/apps/rDock/src/rDock_2013.1_src/data/scripts/dock_solv.prm

>  <Rbt.Receptor>
prm/pocket_docking_3.prm

>  <SCORE>
-8.26678

>  <SCORE.INTER>
-7.82948

>  <SCORE.INTER.CONST>
1

>  <SCORE.INTER.POLAR>
0

>  <SCORE.INTER.ROT>
5

>  <SCORE.INTER.SOLV>
17.9333

>  <SCORE.INTER.VDW>
-18.1308

>  <SCORE.INTER.norm>
-0.782948

>  <SCORE.INTRA>
-0.437305

>  <SCORE.INTRA.DIHEDRAL>
1.17938

>  <SCORE.INTRA.DIHEDRAL.0>
2.22229

>  <SCORE.INTRA.POLAR>
0

>  <SCORE.INTRA.POLAR.0>
0

>  <SCORE.INTRA.REPUL>
0

>  <SCORE.INTRA.REPUL.0>
0

>  <SCORE.INTRA.SOLV>
-1.48475

>  <SCORE.INTRA.SOLV.lig_0>
-31.87

>  <SCORE.INTRA.VDW>
-0.284619

>  <SCORE.INTRA.VDW.0>
-0.575321

>  <SCORE.INTRA.norm>
-0.0437305

>  <SCORE.RESTR>
0

>  <SCORE.RESTR.CAVITY>
0

>  <SCORE.RESTR.norm>
0

>  <SCORE.SYSTEM>
0

>  <SCORE.SYSTEM.CONST>
0

>  <SCORE.SYSTEM.DIHEDRAL>
0

>  <SCORE.SYSTEM.SOLV>
0

>  <SCORE.SYSTEM.norm>
0

>  <SCORE.heavy>
10

>  <SCORE.norm>
-0.826678

>  <RMSD>
5.069

$$$$
ligand
 OpenBabel11021811463D
libRbt.so/2013.1/901 2013/11/27
 10  9  0  0  0  0  0  0  0  0999 V2000
   25.3018   42.5982   16.8035 N   0  0  0  0  0  0  0  0  0  0  0  0
   24.9462   41.9546   18.0622 C   0  0  2  0  0  0  0  0  0  0  0  0
   23.8327   42.7229   18.7718 C   0  0  0  0  0  0  0  0  0  0  0  0
   22.8233   42.1247   19.1555 O   0  0  0  0  0  0  0  0  0  0  0  0
   26.1748   41.8132   18.9660 C   0  0  0  0  0  0  0  0  0  0  0  0
   25.9969   40.7903   20.0815 C   0  0  0  0  0  0  0  0  0  0  0  0
   25.0581   41.2878   21.1770 C   0  0  0  0  0  0  0  0  0  0  0  0
   24.8438   40.2333   22.2742 C   0  0  0  0  0  0  0  0  0  0  0  0
   23.9266   40.6621   23.3772 N   0  0  0  0  0  0  0  0  0  0  0  0
   23.9223   43.9386   18.9882 O   0  0  0  0  0  0  0  0  0  0  0  0
  2  1  1  6  0  0  0
  2  3  1  0  0  0  0
  2  5  1  0  0  0  0
  3  4  1  0  0  0  0
  3 10  1  0  0  0  0
  5  6  1  0  0  0  0
  6  7  1  0  0  0  0
  7  8  1  0  0  0  0
  8  9  1  0  0  0  0
M  END
>  <CHROM.1>
128.49145177,-162.00883441,-72.76598817,177.99599492,-179.81343724,24.65631906
41.83269144,19.77258087,-1.55699385,-0.48955978,2.02027503

>  <Name>
ligand

>  <RI>
0

>  <Rbt.Current_Directory>
/home/itssahil/PROJECTS/Mol_Feturizer/New_Systems/rnas/3D0U

>  <Rbt.Executable>
rbdock ($Id: //depot/dev/client3/rdock/2013.1/src/exe/rbdock.cxx#4 $)

>  <Rbt.Library>
libRbt.so (2013.1, Build901 2013/11/27)

>  <Rbt.Parameter_File>
/export/apps/rDock/src/rDock_2013.1_src/data/scripts/dock_solv.prm

>  <Rbt.Receptor>
prm/pocket_docking_3.prm

>  <SCORE>
-8.29104

>  <SCORE.INTER>
-7.82566

>  <SCORE.INTER.CONST>
1

>  <SCORE.INTER.POLAR>
0

>  <SCORE.INTER.ROT>
5

>  <SCORE.INTER.SOLV>
17.965

>  <SCORE.INTER.VDW>
-18.1388

>  <SCORE.INTER.norm>
-0.782566

>  <SCORE.INTRA>
-0.465385

>  <SCORE.INTRA.DIHEDRAL>
1.08669

>  <SCORE.INTRA.DIHEDRAL.0>
2.22229

>  <SCORE.INTRA.POLAR>
0

>  <SCORE.INTRA.POLAR.0>
0

>  <SCORE.INTRA.REPUL>
0

>  <SCORE.INTRA.REPUL.0>
0

>  <SCORE.INTRA.SOLV>
-1.48191

>  <SCORE.INTRA.SOLV.lig_0>
-31.87

>  <SCORE.INTRA.VDW>
-0.267772

>  <SCORE.INTRA.VDW.0>
-0.575321

>  <SCORE.INTRA.norm>
-0.0465385

>  <SCORE.RESTR>
0

>  <SCORE.RESTR.CAVITY>
0

>  <SCORE.RESTR.norm>
0

>  <SCORE.SYSTEM>
0

>  <SCORE.SYSTEM.CONST>
0

>  <SCORE.SYSTEM.DIHEDRAL>
0

>  <SCORE.SYSTEM.SOLV>
0

>  <SCORE.SYSTEM.norm>
0

>  <SCORE.heavy>
10

>  <SCORE.norm>
-0.829104

>  <RMSD>
5.075

$$$$
ligand
 OpenBabel11021811463D
libRbt.so/2013.1/901 2013/11/27
 10  9  0  0  0  0  0  0  0  0999 V2000
   25.5036   42.3749   16.9250 N   0  0  0  0  0  0  0  0  0  0  0  0
   25.0214   41.8208   18.1842 C   0  0  2  0  0  0  0  0  0  0  0  0
   23.8457   42.6340   18.7228 C   0  0  0  0  0  0  0  0  0  0  0  0
   22.8273   42.0554   19.1128 O   0  0  0  0  0  0  0  0  0  0  0  0
   26.1528   41.7474   19.2141 C   0  0  0  0  0  0  0  0  0  0  0  0
   25.8185   40.8880   20.4273 C   0  0  0  0  0  0  0  0  0  0  0  0
   24.8252   41.5713   21.3630 C   0  0  0  0  0  0  0  0  0  0  0  0
   24.5265   40.7196   22.6068 C   0  0  0  0  0  0  0  0  0  0  0  0
   23.9275   39.3793   22.3125 N   0  0  0  0  0  0  0  0  0  0  0  0
   23.8923   43.8692   18.7938 O   0  0  0  0  0  0  0  0  0  0  0  0
  2  1  1  6  0  0  0
  2  3  1  0  0  0  0
  2  5  1  0  0  0  0
  3  4  1  0  0  0  0
  3 10  1  0  0  0  0
  5  6  1  0  0  0  0
  6  7  1  0  0  0  0
  7  8  1  0  0  0  0
  8  9  1  0  0  0  0
M  END
>  <CHROM.1>
132.39982789,-166.35857929,-73.46202128,-178.17038978,-60.42968165,24.60694042
41.72727122,19.76974218,-1.53891575,-0.39086577,2.10942842

>  <Name>
ligand

>  <RI>
0

>  <Rbt.Current_Directory>
/home/itssahil/PROJECTS/Mol_Feturizer/New_Systems/rnas/3D0U

>  <Rbt.Executable>
rbdock ($Id: //depot/dev/client3/rdock/2013.1/src/exe/rbdock.cxx#4 $)

>  <Rbt.Library>
libRbt.so (2013.1, Build901 2013/11/27)

>  <Rbt.Parameter_File>
/export/apps/rDock/src/rDock_2013.1_src/data/scripts/dock_solv.prm

>  <Rbt.Receptor>
prm/pocket_docking_6.prm

>  <SCORE>
-8.134

>  <SCORE.INTER>
-8.08186

>  <SCORE.INTER.CONST>
1

>  <SCORE.INTER.POLAR>
0

>  <SCORE.INTER.ROT>
5

>  <SCORE.INTER.SOLV>
17.1002

>  <SCORE.INTER.VDW>
-18.0213

>  <SCORE.INTER.norm>
-0.808186

>  <SCORE.INTRA>
-0.0521411

>  <SCORE.INTRA.DIHEDRAL>
0.668743

>  <SCORE.INTRA.DIHEDRAL.0>
2.22229

>  <SCORE.INTRA.POLAR>
0

>  <SCORE.INTRA.POLAR.0>
0

>  <SCORE.INTRA.REPUL>
0

>  <SCORE.INTRA.REPUL.0>
0

>  <SCORE.INTRA.SOLV>
-0.610186

>  <SCORE.INTRA.SOLV.lig_0>
-31.87

>  <SCORE.INTRA.VDW>
-0.0814196

>  <SCORE.INTRA.VDW.0>
-0.575321

>  <SCORE.INTRA.norm>
-0.00521411

>  <SCORE.RESTR>
0

>  <SCORE.RESTR.CAVITY>
0

>  <SCORE.RESTR.norm>
0

>  <SCORE.SYSTEM>
0

>  <SCORE.SYSTEM.CONST>
0

>  <SCORE.SYSTEM.DIHEDRAL>
0

>  <SCORE.SYSTEM.SOLV>
0

>  <SCORE.SYSTEM.norm>
0

>  <SCORE.heavy>
10

>  <SCORE.norm>
-0.8134

>  <RMSD>
5.076

$$$$
ligand
 OpenBabel11021811463D
libRbt.so/2013.1/901 2013/11/27
 10  9  0  0  0  0  0  0  0  0999 V2000
   25.5004   42.3886   16.9319 N   0  0  0  0  0  0  0  0  0  0  0  0
   25.0159   41.8330   18.1896 C   0  0  2  0  0  0  0  0  0  0  0  0
   23.8392   42.6455   18.7270 C   0  0  0  0  0  0  0  0  0  0  0  0
   22.8206   42.0663   19.1155 O   0  0  0  0  0  0  0  0  0  0  0  0
   26.1455   41.7584   19.2214 C   0  0  0  0  0  0  0  0  0  0  0  0
   25.8129   40.8893   20.4282 C   0  0  0  0  0  0  0  0  0  0  0  0
   24.8211   41.5650   21.3708 C   0  0  0  0  0  0  0  0  0  0  0  0
   24.5231   40.7026   22.6075 C   0  0  0  0  0  0  0  0  0  0  0  0
   23.8940   39.3783   22.3042 N   0  0  0  0  0  0  0  0  0  0  0  0
   23.8853   43.8807   18.7986 O   0  0  0  0  0  0  0  0  0  0  0  0
  2  1  1  6  0  0  0
  2  3  1  0  0  0  0
  2  5  1  0  0  0  0
  3  4  1  0  0  0  0
  3 10  1  0  0  0  0
  5  6  1  0  0  0  0
  6  7  1  0  0  0  0
  7  8  1  0  0  0  0
  8  9  1  0  0  0  0
M  END
>  <CHROM.1>
132.45991138,-165.93095605,-73.83195043,-178.22342021,-61.76794780,24.59863303
41.73208442,19.77296945,-1.53683612,-0.38571204,2.11460097

>  <Name>
ligand

>  <RI>
0

>  <Rbt.Current_Directory>
/home/itssahil/PROJECTS/Mol_Feturizer/New_Systems/rnas/3D0U

>  <Rbt.Executable>
rbdock ($Id: //depot/dev/client3/rdock/2013.1/src/exe/rbdock.cxx#4 $)

>  <Rbt.Library>
libRbt.so (2013.1, Build901 2013/11/27)

>  <Rbt.Parameter_File>
/export/apps/rDock/src/rDock_2013.1_src/data/scripts/dock_solv.prm

>  <Rbt.Receptor>
prm/pocket_docking_6.prm

>  <SCORE>
-8.11252

>  <SCORE.INTER>
-8.04789

>  <SCORE.INTER.CONST>
1

>  <SCORE.INTER.POLAR>
0

>  <SCORE.INTER.ROT>
5

>  <SCORE.INTER.SOLV>
17.1102

>  <SCORE.INTER.VDW>
-18.002

>  <SCORE.INTER.norm>
-0.804789

>  <SCORE.INTRA>
-0.0646298

>  <SCORE.INTRA.DIHEDRAL>
0.760374

>  <SCORE.INTRA.DIHEDRAL.0>
2.22229

>  <SCORE.INTRA.POLAR>
0

>  <SCORE.INTRA.POLAR.0>
0

>  <SCORE.INTRA.REPUL>
0

>  <SCORE.INTRA.REPUL.0>
0

>  <SCORE.INTRA.SOLV>
-0.630747

>  <SCORE.INTRA.SOLV.lig_0>
-31.87

>  <SCORE.INTRA.VDW>
-0.129444

>  <SCORE.INTRA.VDW.0>
-0.575321

>  <SCORE.INTRA.norm>
-0.00646298

>  <SCORE.RESTR>
0

>  <SCORE.RESTR.CAVITY>
0

>  <SCORE.RESTR.norm>
0

>  <SCORE.SYSTEM>
0

>  <SCORE.SYSTEM.CONST>
0

>  <SCORE.SYSTEM.DIHEDRAL>
0

>  <SCORE.SYSTEM.SOLV>
0

>  <SCORE.SYSTEM.norm>
0

>  <SCORE.heavy>
10

>  <SCORE.norm>
-0.811252

>  <RMSD>
5.077

$$$$
ligand
 OpenBabel11021811463D
libRbt.so/2013.1/901 2013/11/27
 10  9  0  0  0  0  0  0  0  0999 V2000
   25.4498   42.3251   16.9538 N   0  0  0  0  0  0  0  0  0  0  0  0
   25.0103   41.9860   18.3018 C   0  0  2  0  0  0  0  0  0  0  0  0
   23.9447   42.9656   18.7903 C   0  0  0  0  0  0  0  0  0  0  0  0
   24.1359   44.1809   18.6876 O   0  0  0  0  0  0  0  0  0  0  0  0
   26.1992   41.9455   19.2666 C   0  0  0  0  0  0  0  0  0  0  0  0
   25.8045   41.6527   20.7091 C   0  0  0  0  0  0  0  0  0  0  0  0
   25.2163   40.2542   20.8744 C   0  0  0  0  0  0  0  0  0  0  0  0
   24.8319   39.9600   22.3330 C   0  0  0  0  0  0  0  0  0  0  0  0
   23.7744   40.8615   22.8905 N   0  0  0  0  0  0  0  0  0  0  0  0
   22.8775   42.5702   19.2775 O   0  0  0  0  0  0  0  0  0  0  0  0
  2  1  1  6  0  0  0
  2  3  1  0  0  0  0
  2  5  1  0  0  0  0
  3  4  1  0  0  0  0
  3 10  1  0  0  0  0
  5  6  1  0  0  0  0
  6  7  1  0  0  0  0
  7  8  1  0  0  0  0
  8  9  1  0  0  0  0
M  END
>  <CHROM.1>
-49.19399649,177.61342251,65.02006019,179.48293140,62.11857426,24.69952867
41.89585756,19.81063039,-1.58135091,-0.53725095,2.11887294

>  <Name>
ligand

>  <RI>
0

>  <Rbt.Current_Directory>
/home/itssahil/PROJECTS/Mol_Feturizer/New_Systems/rnas/3D0U

>  <Rbt.Executable>
rbdock ($Id: //depot/dev/client3/rdock/2013.1/src/exe/rbdock.cxx#4 $)

>  <Rbt.Library>
libRbt.so (2013.1, Build901 2013/11/27)

>  <Rbt.Parameter_File>
/export/apps/rDock/src/rDock_2013.1_src/data/scripts/dock_solv.prm

>  <Rbt.Receptor>
prm/blind_docking_60.prm

>  <SCORE>
-8.12391

>  <SCORE.INTER>
-7.55196

>  <SCORE.INTER.CONST>
1

>  <SCORE.INTER.POLAR>
0

>  <SCORE.INTER.ROT>
5

>  <SCORE.INTER.SOLV>
17.4597

>  <SCORE.INTER.VDW>
-17.7879

>  <SCORE.INTER.norm>
-0.755196

>  <SCORE.INTRA>
-0.571955

>  <SCORE.INTRA.DIHEDRAL>
-0.579753

>  <SCORE.INTRA.DIHEDRAL.0>
2.22229

>  <SCORE.INTRA.POLAR>
0

>  <SCORE.INTRA.POLAR.0>
0

>  <SCORE.INTRA.REPUL>
0

>  <SCORE.INTRA.REPUL.0>
0

>  <SCORE.INTRA.SOLV>
-0.528137

>  <SCORE.INTRA.SOLV.lig_0>
-31.87

>  <SCORE.INTRA.VDW>
-0.0180104

>  <SCORE.INTRA.VDW.0>
-0.575321

>  <SCORE.INTRA.norm>
-0.0571955

>  <SCORE.RESTR>
0

>  <SCORE.RESTR.CAVITY>
0

>  <SCORE.RESTR.norm>
0

>  <SCORE.SYSTEM>
0

>  <SCORE.SYSTEM.CONST>
0

>  <SCORE.SYSTEM.DIHEDRAL>
0

>  <SCORE.SYSTEM.SOLV>
0

>  <SCORE.SYSTEM.norm>
0

>  <SCORE.heavy>
10

>  <SCORE.norm>
-0.812391

>  <RMSD>
5.079

$$$$
ligand
 OpenBabel11021811463D
libRbt.so/2013.1/901 2013/11/27
 10  9  0  0  0  0  0  0  0  0999 V2000
   24.5942   43.7435   18.3217 N   0  0  0  0  0  0  0  0  0  0  0  0
   24.8865   42.6507   19.2412 C   0  0  2  0  0  0  0  0  0  0  0  0
   25.9965   41.7572   18.6907 C   0  0  0  0  0  0  0  0  0  0  0  0
   26.1311   41.6279   17.4704 O   0  0  0  0  0  0  0  0  0  0  0  0
   23.6234   41.8354   19.5348 C   0  0  0  0  0  0  0  0  0  0  0  0
   23.8354   40.7315   20.5637 C   0  0  0  0  0  0  0  0  0  0  0  0
   24.1313   41.2868   21.9540 C   0  0  0  0  0  0  0  0  0  0  0  0
   24.5036   40.1772   22.9499 C   0  0  0  0  0  0  0  0  0  0  0  0
   23.4427   39.1395   23.1486 N   0  0  0  0  0  0  0  0  0  0  0  0
   26.7824   41.1649   19.4421 O   0  0  0  0  0  0  0  0  0  0  0  0
  2  1  1  6  0  0  0
  2  3  1  0  0  0  0
  2  5  1  0  0  0  0
  3  4  1  0  0  0  0
  3 10  1  0  0  0  0
  5  6  1  0  0  0  0
  6  7  1  0  0  0  0
  7  8  1  0  0  0  0
  8  9  1  0  0  0  0
M  END
>  <CHROM.1>
-30.24412809,-176.11763872,67.06872784,-173.40728132,-59.82179902,24.82159875
41.39725388,20.11165155,1.18831047,0.50458463,-0.89053530

>  <Name>
ligand

>  <RI>
0

>  <Rbt.Current_Directory>
/home/itssahil/PROJECTS/Mol_Feturizer/New_Systems/rnas/3D0U

>  <Rbt.Executable>
rbdock ($Id: //depot/dev/client3/rdock/2013.1/src/exe/rbdock.cxx#4 $)

>  <Rbt.Library>
libRbt.so (2013.1, Build901 2013/11/27)

>  <Rbt.Parameter_File>
/export/apps/rDock/src/rDock_2013.1_src/data/scripts/dock_solv.prm

>  <Rbt.Receptor>
prm/pocket_docking_4.prm

>  <SCORE>
-9.02981

>  <SCORE.INTER>
-8.62557

>  <SCORE.INTER.CONST>
1

>  <SCORE.INTER.POLAR>
0

>  <SCORE.INTER.ROT>
5

>  <SCORE.INTER.SOLV>
13.2532

>  <SCORE.INTER.VDW>
-17.1014

>  <SCORE.INTER.norm>
-0.862557

>  <SCORE.INTRA>
-0.404239

>  <SCORE.INTRA.DIHEDRAL>
-0.273155

>  <SCORE.INTRA.DIHEDRAL.0>
2.22229

>  <SCORE.INTRA.POLAR>
0

>  <SCORE.INTRA.POLAR.0>
0

>  <SCORE.INTRA.REPUL>
0

>  <SCORE.INTRA.REPUL.0>
0

>  <SCORE.INTRA.SOLV>
-0.489092

>  <SCORE.INTRA.SOLV.lig_0>
-31.87

>  <SCORE.INTRA.VDW>
-0.0231156

>  <SCORE.INTRA.VDW.0>
-0.575321

>  <SCORE.INTRA.norm>
-0.0404239

>  <SCORE.RESTR>
0

>  <SCORE.RESTR.CAVITY>
0

>  <SCORE.RESTR.norm>
0

>  <SCORE.SYSTEM>
0

>  <SCORE.SYSTEM.CONST>
0

>  <SCORE.SYSTEM.DIHEDRAL>
0

>  <SCORE.SYSTEM.SOLV>
0

>  <SCORE.SYSTEM.norm>
0

>  <SCORE.heavy>
10

>  <SCORE.norm>
-0.902981

>  <RMSD>
5.083

$$$$
ligand
 OpenBabel11021811463D
libRbt.so/2013.1/901 2013/11/27
 10  9  0  0  0  0  0  0  0  0999 V2000
   24.1679   43.1806   18.9685 N   0  0  0  0  0  0  0  0  0  0  0  0
   24.8519   42.2808   19.8891 C   0  0  2  0  0  0  0  0  0  0  0  0
   26.0605   41.6303   19.2183 C   0  0  0  0  0  0  0  0  0  0  0  0
   26.0840   41.4996   17.9909 O   0  0  0  0  0  0  0  0  0  0  0  0
   23.8882   41.2189   20.4274 C   0  0  0  0  0  0  0  0  0  0  0  0
   24.4241   40.4672   21.6398 C   0  0  0  0  0  0  0  0  0  0  0  0
   23.4751   39.3652   22.1021 C   0  0  0  0  0  0  0  0  0  0  0  0
   23.8499   38.8283   23.4924 C   0  0  0  0  0  0  0  0  0  0  0  0
   23.7655   39.8405   24.5925 N   0  0  0  0  0  0  0  0  0  0  0  0
   27.0336   41.2403   19.8770 O   0  0  0  0  0  0  0  0  0  0  0  0
  2  1  1  6  0  0  0
  2  3  1  0  0  0  0
  2  5  1  0  0  0  0
  3  4  1  0  0  0  0
  3 10  1  0  0  0  0
  5  6  1  0  0  0  0
  6  7  1  0  0  0  0
  7  8  1  0  0  0  0
  8  9  1  0  0  0  0
M  END
>  <CHROM.1>
-25.67240914,-165.61753938,-176.77465315,-166.96741561,62.77362090,24.79136480
40.94749464,20.79631860,1.18684397,0.39110790,-0.91428412

>  <Name>
ligand

>  <RI>
0

>  <Rbt.Current_Directory>
/home/itssahil/PROJECTS/Mol_Feturizer/New_Systems/rnas/3D0U

>  <Rbt.Executable>
rbdock ($Id: //depot/dev/client3/rdock/2013.1/src/exe/rbdock.cxx#4 $)

>  <Rbt.Library>
libRbt.so (2013.1, Build901 2013/11/27)

>  <Rbt.Parameter_File>
/export/apps/rDock/src/rDock_2013.1_src/data/scripts/dock_solv.prm

>  <Rbt.Receptor>
prm/pocket_docking_3.prm

>  <SCORE>
-7.04773

>  <SCORE.INTER>
-6.88392

>  <SCORE.INTER.CONST>
1

>  <SCORE.INTER.POLAR>
0

>  <SCORE.INTER.ROT>
5

>  <SCORE.INTER.SOLV>
13.0513

>  <SCORE.INTER.VDW>
-15.873

>  <SCORE.INTER.norm>
-0.688392

>  <SCORE.INTRA>
-0.163811

>  <SCORE.INTRA.DIHEDRAL>
0.805311

>  <SCORE.INTRA.DIHEDRAL.0>
2.22229

>  <SCORE.INTRA.POLAR>
0

>  <SCORE.INTRA.POLAR.0>
0

>  <SCORE.INTRA.REPUL>
0

>  <SCORE.INTRA.REPUL.0>
0

>  <SCORE.INTRA.SOLV>
-0.650585

>  <SCORE.INTRA.SOLV.lig_0>
-31.87

>  <SCORE.INTRA.VDW>
-0.241174

>  <SCORE.INTRA.VDW.0>
-0.575321

>  <SCORE.INTRA.norm>
-0.0163811

>  <SCORE.RESTR>
0

>  <SCORE.RESTR.CAVITY>
0

>  <SCORE.RESTR.norm>
0

>  <SCORE.SYSTEM>
0

>  <SCORE.SYSTEM.CONST>
0

>  <SCORE.SYSTEM.DIHEDRAL>
0

>  <SCORE.SYSTEM.SOLV>
0

>  <SCORE.SYSTEM.norm>
0

>  <SCORE.heavy>
10

>  <SCORE.norm>
-0.704773

>  <RMSD>
5.127

$$$$
ligand
 OpenBabel11021811463D
libRbt.so/2013.1/901 2013/11/27
 10  9  0  0  0  0  0  0  0  0999 V2000
   23.3649   42.6065   18.5198 N   0  0  0  0  0  0  0  0  0  0  0  0
   24.3875   43.1853   19.3826 C   0  0  2  0  0  0  0  0  0  0  0  0
   24.3551   44.7113   19.3181 C   0  0  0  0  0  0  0  0  0  0  0  0
   24.0571   45.3613   20.3244 O   0  0  0  0  0  0  0  0  0  0  0  0
   25.7751   42.6519   19.0135 C   0  0  0  0  0  0  0  0  0  0  0  0
   25.8996   41.1382   19.1377 C   0  0  0  0  0  0  0  0  0  0  0  0
   25.7950   40.6670   20.5855 C   0  0  0  0  0  0  0  0  0  0  0  0
   24.3352   40.5741   21.0567 C   0  0  0  0  0  0  0  0  0  0  0  0
   24.1660   40.0857   22.4618 N   0  0  0  0  0  0  0  0  0  0  0  0
   24.6370   45.3208   18.2779 O   0  0  0  0  0  0  0  0  0  0  0  0
  2  1  1  6  0  0  0
  2  3  1  0  0  0  0
  2  5  1  0  0  0  0
  3  4  1  0  0  0  0
  3 10  1  0  0  0  0
  5  6  1  0  0  0  0
  6  7  1  0  0  0  0
  7  8  1  0  0  0  0
  8  9  1  0  0  0  0
M  END
>  <CHROM.1>
115.18379250,-59.81430466,-66.76980402,80.99830119,178.64548083,24.67494268
42.67266212,19.80347676,-1.74936104,-0.96347084,2.55285406

>  <Name>
ligand

>  <RI>
0

>  <Rbt.Current_Directory>
/home/itssahil/PROJECTS/Mol_Feturizer/New_Systems/rnas/3D0U

>  <Rbt.Executable>
rbdock ($Id: //depot/dev/client3/rdock/2013.1/src/exe/rbdock.cxx#4 $)

>  <Rbt.Library>
libRbt.so (2013.1, Build901 2013/11/27)

>  <Rbt.Parameter_File>
/export/apps/rDock/src/rDock_2013.1_src/data/scripts/dock_solv.prm

>  <Rbt.Receptor>
prm/pocket_docking_6.prm

>  <SCORE>
-7.64949

>  <SCORE.INTER>
-9.13674

>  <SCORE.INTER.CONST>
1

>  <SCORE.INTER.POLAR>
0

>  <SCORE.INTER.ROT>
5

>  <SCORE.INTER.SOLV>
12.8739

>  <SCORE.INTER.VDW>
-17.3158

>  <SCORE.INTER.norm>
-0.913674

>  <SCORE.INTRA>
1.48725

>  <SCORE.INTRA.DIHEDRAL>
1.13181

>  <SCORE.INTRA.DIHEDRAL.0>
2.22229

>  <SCORE.INTRA.POLAR>
0

>  <SCORE.INTRA.POLAR.0>
0

>  <SCORE.INTRA.REPUL>
0

>  <SCORE.INTRA.REPUL.0>
0

>  <SCORE.INTRA.SOLV>
1.00903

>  <SCORE.INTRA.SOLV.lig_0>
-31.87

>  <SCORE.INTRA.VDW>
0.41683

>  <SCORE.INTRA.VDW.0>
-0.575321

>  <SCORE.INTRA.norm>
0.148725

>  <SCORE.RESTR>
0

>  <SCORE.RESTR.CAVITY>
0

>  <SCORE.RESTR.norm>
0

>  <SCORE.SYSTEM>
0

>  <SCORE.SYSTEM.CONST>
0

>  <SCORE.SYSTEM.DIHEDRAL>
0

>  <SCORE.SYSTEM.SOLV>
0

>  <SCORE.SYSTEM.norm>
0

>  <SCORE.heavy>
10

>  <SCORE.norm>
-0.764949

>  <RMSD>
5.149

$$$$
ligand
 OpenBabel11021811463D
libRbt.so/2013.1/901 2013/11/27
 10  9  0  0  0  0  0  0  0  0999 V2000
   24.9551   43.9451   19.8941 N   0  0  0  0  0  0  0  0  0  0  0  0
   25.7040   42.8981   19.2100 C   0  0  2  0  0  0  0  0  0  0  0  0
   24.9308   42.3767   18.0000 C   0  0  0  0  0  0  0  0  0  0  0  0
   23.7240   42.1368   18.1004 O   0  0  0  0  0  0  0  0  0  0  0  0
   26.0462   41.7573   20.1732 C   0  0  0  0  0  0  0  0  0  0  0  0
   24.8447   41.2356   20.9521 C   0  0  0  0  0  0  0  0  0  0  0  0
   25.2294   40.1383   21.9405 C   0  0  0  0  0  0  0  0  0  0  0  0
   24.0353   39.6922   22.7989 C   0  0  0  0  0  0  0  0  0  0  0  0
   23.5299   40.7335   23.7487 N   0  0  0  0  0  0  0  0  0  0  0  0
   25.4835   42.2006   16.9062 O   0  0  0  0  0  0  0  0  0  0  0  0
  2  1  1  1  0  0  0
  2  3  1  0  0  0  0
  2  5  1  0  0  0  0
  3  4  1  0  0  0  0
  3 10  1  0  0  0  0
  5  6  1  0  0  0  0
  6  7  1  0  0  0  0
  7  8  1  0  0  0  0
  8  9  1  0  0  0  0
M  END
>  <CHROM.1>
-44.52601172,50.85051085,-177.77407422,175.59472639,-66.99921148,24.83433223
41.70604313,20.13525040,-0.83969441,1.33404938,1.28395359

>  <Name>
ligand

>  <RI>
0

>  <Rbt.Current_Directory>
/home/itssahil/PROJECTS/Mol_Feturizer/New_Systems/rnas/3D0U

>  <Rbt.Executable>
rbdock ($Id: //depot/dev/client3/rdock/2013.1/src/exe/rbdock.cxx#4 $)

>  <Rbt.Library>
libRbt.so (2013.1, Build901 2013/11/27)

>  <Rbt.Parameter_File>
/export/apps/rDock/src/rDock_2013.1_src/data/scripts/dock_solv.prm

>  <Rbt.Receptor>
prm/pocket_docking_8.prm

>  <SCORE>
-8.46226

>  <SCORE.INTER>
-8.47771

>  <SCORE.INTER.CONST>
1

>  <SCORE.INTER.POLAR>
0

>  <SCORE.INTER.ROT>
5

>  <SCORE.INTER.SOLV>
13.9318

>  <SCORE.INTER.VDW>
-17.2291

>  <SCORE.INTER.norm>
-0.847771

>  <SCORE.INTRA>
0.0108108

>  <SCORE.INTRA.DIHEDRAL>
-0.0962466

>  <SCORE.INTRA.DIHEDRAL.0>
2.22229

>  <SCORE.INTRA.POLAR>
0

>  <SCORE.INTRA.POLAR.0>
0

>  <SCORE.INTRA.REPUL>
0

>  <SCORE.INTRA.REPUL.0>
0

>  <SCORE.INTRA.SOLV>
0.214971

>  <SCORE.INTRA.SOLV.lig_0>
-31.87

>  <SCORE.INTRA.VDW>
-0.0485513

>  <SCORE.INTRA.VDW.0>
-0.575321

>  <SCORE.INTRA.norm>
0.00108108

>  <SCORE.RESTR>
0.00463433

>  <SCORE.RESTR.CAVITY>
0.00463433

>  <SCORE.RESTR.norm>
0.000463433

>  <SCORE.SYSTEM>
0

>  <SCORE.SYSTEM.CONST>
0

>  <SCORE.SYSTEM.DIHEDRAL>
0

>  <SCORE.SYSTEM.SOLV>
0

>  <SCORE.SYSTEM.norm>
0

>  <SCORE.heavy>
10

>  <SCORE.norm>
-0.846226

>  <RMSD>
5.181

$$$$
ligand
 OpenBabel11021811463D
libRbt.so/2013.1/901 2013/11/27
 10  9  0  0  0  0  0  0  0  0999 V2000
   24.9373   43.9512   19.8853 N   0  0  0  0  0  0  0  0  0  0  0  0
   25.7004   42.9149   19.2005 C   0  0  2  0  0  0  0  0  0  0  0  0
   24.9302   42.3773   17.9957 C   0  0  0  0  0  0  0  0  0  0  0  0
   23.7294   42.1125   18.1040 O   0  0  0  0  0  0  0  0  0  0  0  0
   26.0661   41.7827   20.1652 C   0  0  0  0  0  0  0  0  0  0  0  0
   24.8819   41.2604   20.9697 C   0  0  0  0  0  0  0  0  0  0  0  0
   25.2824   40.1412   21.9266 C   0  0  0  0  0  0  0  0  0  0  0  0
   24.1071   39.6888   22.8074 C   0  0  0  0  0  0  0  0  0  0  0  0
   23.6090   40.7299   23.7612 N   0  0  0  0  0  0  0  0  0  0  0  0
   25.4793   42.2125   16.8983 O   0  0  0  0  0  0  0  0  0  0  0  0
  2  1  1  1  0  0  0
  2  3  1  0  0  0  0
  2  5  1  0  0  0  0
  3  4  1  0  0  0  0
  3 10  1  0  0  0  0
  5  6  1  0  0  0  0
  6  7  1  0  0  0  0
  7  8  1  0  0  0  0
  8  9  1  0  0  0  0
M  END
>  <CHROM.1>
-44.82204519,49.80051207,-179.59971343,175.84535393,-65.25194480,24.85823761
41.71143823,20.13428383,-0.83856163,1.35466726,1.27992224

>  <Name>
ligand

>  <RI>
0

>  <Rbt.Current_Directory>
/home/itssahil/PROJECTS/Mol_Feturizer/New_Systems/rnas/3D0U

>  <Rbt.Executable>
rbdock ($Id: //depot/dev/client3/rdock/2013.1/src/exe/rbdock.cxx#4 $)

>  <Rbt.Library>
libRbt.so (2013.1, Build901 2013/11/27)

>  <Rbt.Parameter_File>
/export/apps/rDock/src/rDock_2013.1_src/data/scripts/dock_solv.prm

>  <Rbt.Receptor>
prm/blind_docking_60.prm

>  <SCORE>
-8.45563

>  <SCORE.INTER>
-8.48184

>  <SCORE.INTER.CONST>
1

>  <SCORE.INTER.POLAR>
0

>  <SCORE.INTER.ROT>
5

>  <SCORE.INTER.SOLV>
13.8485

>  <SCORE.INTER.VDW>
-17.204

>  <SCORE.INTER.norm>
-0.848184

>  <SCORE.INTRA>
0.0245088

>  <SCORE.INTRA.DIHEDRAL>
-0.12615

>  <SCORE.INTRA.DIHEDRAL.0>
2.22229

>  <SCORE.INTRA.POLAR>
0

>  <SCORE.INTRA.POLAR.0>
0

>  <SCORE.INTRA.REPUL>
0

>  <SCORE.INTRA.REPUL.0>
0

>  <SCORE.INTRA.SOLV>
0.241087

>  <SCORE.INTRA.SOLV.lig_0>
-31.87

>  <SCORE.INTRA.VDW>
-0.0329599

>  <SCORE.INTRA.VDW.0>
-0.575321

>  <SCORE.INTRA.norm>
0.00245088

>  <SCORE.RESTR>
0.00169788

>  <SCORE.RESTR.CAVITY>
0.00169788

>  <SCORE.RESTR.norm>
0.000169788

>  <SCORE.SYSTEM>
0

>  <SCORE.SYSTEM.CONST>
0

>  <SCORE.SYSTEM.DIHEDRAL>
0

>  <SCORE.SYSTEM.SOLV>
0

>  <SCORE.SYSTEM.norm>
0

>  <SCORE.heavy>
10

>  <SCORE.norm>
-0.845563

>  <RMSD>
5.182

$$$$
ligand
 OpenBabel11021811463D
libRbt.so/2013.1/901 2013/11/27
 10  9  0  0  0  0  0  0  0  0999 V2000
   24.8863   43.3819   20.2178 N   0  0  0  0  0  0  0  0  0  0  0  0
   25.7751   42.7717   19.2366 C   0  0  2  0  0  0  0  0  0  0  0  0
   25.0192   42.4322   17.9532 C   0  0  0  0  0  0  0  0  0  0  0  0
   23.7848   42.4285   17.9514 O   0  0  0  0  0  0  0  0  0  0  0  0
   26.4527   41.5268   19.8176 C   0  0  0  0  0  0  0  0  0  0  0  0
   25.4736   40.5175   20.4048 C   0  0  0  0  0  0  0  0  0  0  0  0
   24.9311   40.9605   21.7607 C   0  0  0  0  0  0  0  0  0  0  0  0
   24.0080   39.9023   22.3850 C   0  0  0  0  0  0  0  0  0  0  0  0
   23.4628   40.2697   23.7302 N   0  0  0  0  0  0  0  0  0  0  0  0
   25.6166   42.1728   16.9002 O   0  0  0  0  0  0  0  0  0  0  0  0
  2  1  1  1  0  0  0
  2  3  1  0  0  0  0
  2  5  1  0  0  0  0
  3  4  1  0  0  0  0
  3 10  1  0  0  0  0
  5  6  1  0  0  0  0
  6  7  1  0  0  0  0
  7  8  1  0  0  0  0
  8  9  1  0  0  0  0
M  END
>  <CHROM.1>
-14.58122533,52.99161077,-75.82766537,-176.69516769,178.95581780,24.92745283
41.63544655,19.99769357,1.36162070,0.30270057,-1.09759150

>  <Name>
ligand

>  <RI>
0

>  <Rbt.Current_Directory>
/home/itssahil/PROJECTS/Mol_Feturizer/New_Systems/rnas/3D0U

>  <Rbt.Executable>
rbdock ($Id: //depot/dev/client3/rdock/2013.1/src/exe/rbdock.cxx#4 $)

>  <Rbt.Library>
libRbt.so (2013.1, Build901 2013/11/27)

>  <Rbt.Parameter_File>
/export/apps/rDock/src/rDock_2013.1_src/data/scripts/dock_solv.prm

>  <Rbt.Receptor>
prm/pocket_docking_8.prm

>  <SCORE>
-8.10138

>  <SCORE.INTER>
-9.11514

>  <SCORE.INTER.CONST>
1

>  <SCORE.INTER.POLAR>
0

>  <SCORE.INTER.ROT>
5

>  <SCORE.INTER.SOLV>
13.4663

>  <SCORE.INTER.VDW>
-17.4989

>  <SCORE.INTER.norm>
-0.911514

>  <SCORE.INTRA>
1.01376

>  <SCORE.INTRA.DIHEDRAL>
0.524855

>  <SCORE.INTRA.DIHEDRAL.0>
2.22229

>  <SCORE.INTRA.POLAR>
0

>  <SCORE.INTRA.POLAR.0>
0

>  <SCORE.INTRA.REPUL>
0

>  <SCORE.INTRA.REPUL.0>
0

>  <SCORE.INTRA.SOLV>
0.814807

>  <SCORE.INTRA.SOLV.lig_0>
-31.87

>  <SCORE.INTRA.VDW>
0.343933

>  <SCORE.INTRA.VDW.0>
-0.575321

>  <SCORE.INTRA.norm>
0.101376

>  <SCORE.RESTR>
0

>  <SCORE.RESTR.CAVITY>
0

>  <SCORE.RESTR.norm>
0

>  <SCORE.SYSTEM>
0

>  <SCORE.SYSTEM.CONST>
0

>  <SCORE.SYSTEM.DIHEDRAL>
0

>  <SCORE.SYSTEM.SOLV>
0

>  <SCORE.SYSTEM.norm>
0

>  <SCORE.heavy>
10

>  <SCORE.norm>
-0.810138

>  <RMSD>
5.182

$$$$
ligand
 OpenBabel11021811463D
libRbt.so/2013.1/901 2013/11/27
 10  9  0  0  0  0  0  0  0  0999 V2000
   25.0504   43.9409   19.8915 N   0  0  0  0  0  0  0  0  0  0  0  0
   25.7555   42.8811   19.1810 C   0  0  2  0  0  0  0  0  0  0  0  0
   24.9345   42.3812   17.9936 C   0  0  0  0  0  0  0  0  0  0  0  0
   25.4810   42.2058   16.9007 O   0  0  0  0  0  0  0  0  0  0  0  0
   26.1027   41.7293   20.1292 C   0  0  0  0  0  0  0  0  0  0  0  0
   24.9172   41.2368   20.9504 C   0  0  0  0  0  0  0  0  0  0  0  0
   25.3011   40.1020   21.8958 C   0  0  0  0  0  0  0  0  0  0  0  0
   24.1348   39.6948   22.8099 C   0  0  0  0  0  0  0  0  0  0  0  0
   23.6843   40.7645   23.7557 N   0  0  0  0  0  0  0  0  0  0  0  0
   23.7270   42.1302   18.1021 O   0  0  0  0  0  0  0  0  0  0  0  0
  2  1  1  1  0  0  0
  2  3  1  0  0  0  0
  2  5  1  0  0  0  0
  3  4  1  0  0  0  0
  3 10  1  0  0  0  0
  5  6  1  0  0  0  0
  6  7  1  0  0  0  0
  7  8  1  0  0  0  0
  8  9  1  0  0  0  0
M  END
>  <CHROM.1>
134.84020265,50.42342679,-179.29281079,174.87940950,-63.91293718,24.89406277
41.70136643,20.12412043,-0.98837941,1.31531740,1.43248854

>  <Name>
ligand

>  <RI>
0

>  <Rbt.Current_Directory>
/home/itssahil/PROJECTS/Mol_Feturizer/New_Systems/rnas/3D0U

>  <Rbt.Executable>
rbdock ($Id: //depot/dev/client3/rdock/2013.1/src/exe/rbdock.cxx#4 $)

>  <Rbt.Library>
libRbt.so (2013.1, Build901 2013/11/27)

>  <Rbt.Parameter_File>
/export/apps/rDock/src/rDock_2013.1_src/data/scripts/dock_solv.prm

>  <Rbt.Receptor>
prm/pocket_docking_6.prm

>  <SCORE>
-8.56458

>  <SCORE.INTER>
-8.52034

>  <SCORE.INTER.CONST>
1

>  <SCORE.INTER.POLAR>
0

>  <SCORE.INTER.ROT>
5

>  <SCORE.INTER.SOLV>
14.0599

>  <SCORE.INTER.VDW>
-17.3002

>  <SCORE.INTER.norm>
-0.852034

>  <SCORE.INTRA>
-0.0442472

>  <SCORE.INTRA.DIHEDRAL>
-0.223056

>  <SCORE.INTRA.DIHEDRAL.0>
2.22229

>  <SCORE.INTRA.POLAR>
0

>  <SCORE.INTRA.POLAR.0>
0

>  <SCORE.INTRA.REPUL>
0

>  <SCORE.INTRA.REPUL.0>
0

>  <SCORE.INTRA.SOLV>
0.246458

>  <SCORE.INTRA.SOLV.lig_0>
-31.87

>  <SCORE.INTRA.VDW>
-0.0559481

>  <SCORE.INTRA.VDW.0>
-0.575321

>  <SCORE.INTRA.norm>
-0.00442472

>  <SCORE.RESTR>
0

>  <SCORE.RESTR.CAVITY>
0

>  <SCORE.RESTR.norm>
0

>  <SCORE.SYSTEM>
0

>  <SCORE.SYSTEM.CONST>
0

>  <SCORE.SYSTEM.DIHEDRAL>
0

>  <SCORE.SYSTEM.SOLV>
0

>  <SCORE.SYSTEM.norm>
0

>  <SCORE.heavy>
10

>  <SCORE.norm>
-0.856458

>  <RMSD>
5.184

$$$$
ligand
 OpenBabel11021811463D
libRbt.so/2013.1/901 2013/11/27
 10  9  0  0  0  0  0  0  0  0999 V2000
   25.1583   44.3296   19.4060 N   0  0  0  0  0  0  0  0  0  0  0  0
   25.7001   43.0191   19.0678 C   0  0  2  0  0  0  0  0  0  0  0  0
   24.9470   42.4058   17.8886 C   0  0  0  0  0  0  0  0  0  0  0  0
   25.5550   42.1268   16.8511 O   0  0  0  0  0  0  0  0  0  0  0  0
   25.6655   42.0871   20.2829 C   0  0  0  0  0  0  0  0  0  0  0  0
   24.2862   41.9652   20.9192 C   0  0  0  0  0  0  0  0  0  0  0  0
   24.3513   41.3998   22.3352 C   0  0  0  0  0  0  0  0  0  0  0  0
   24.7433   39.9139   22.3444 C   0  0  0  0  0  0  0  0  0  0  0  0
   23.7412   39.0033   21.7054 N   0  0  0  0  0  0  0  0  0  0  0  0
   23.7343   42.1643   17.9509 O   0  0  0  0  0  0  0  0  0  0  0  0
  2  1  1  1  0  0  0
  2  3  1  0  0  0  0
  2  5  1  0  0  0  0
  3  4  1  0  0  0  0
  3 10  1  0  0  0  0
  5  6  1  0  0  0  0
  6  7  1  0  0  0  0
  7  8  1  0  0  0  0
  8  9  1  0  0  0  0
M  END
>  <CHROM.1>
119.87823808,54.03370029,-162.50562742,-70.04841101,-65.14647447,24.77552297
41.83356543,19.83993921,-1.02360274,1.25168089,1.60774952

>  <Name>
ligand

>  <RI>
0

>  <Rbt.Current_Directory>
/home/itssahil/PROJECTS/Mol_Feturizer/New_Systems/rnas/3D0U

>  <Rbt.Executable>
rbdock ($Id: //depot/dev/client3/rdock/2013.1/src/exe/rbdock.cxx#4 $)

>  <Rbt.Library>
libRbt.so (2013.1, Build901 2013/11/27)

>  <Rbt.Parameter_File>
/export/apps/rDock/src/rDock_2013.1_src/data/scripts/dock_solv.prm

>  <Rbt.Receptor>
prm/pocket_docking_3.prm

>  <SCORE>
-5.90956

>  <SCORE.INTER>
-7.30763

>  <SCORE.INTER.CONST>
1

>  <SCORE.INTER.POLAR>
0

>  <SCORE.INTER.ROT>
5

>  <SCORE.INTER.SOLV>
14.0566

>  <SCORE.INTER.VDW>
-16.4906

>  <SCORE.INTER.norm>
-0.730763

>  <SCORE.INTRA>
1.39807

>  <SCORE.INTRA.DIHEDRAL>
1.11754

>  <SCORE.INTRA.DIHEDRAL.0>
2.22229

>  <SCORE.INTRA.POLAR>
0

>  <SCORE.INTRA.POLAR.0>
0

>  <SCORE.INTRA.REPUL>
0

>  <SCORE.INTRA.REPUL.0>
0

>  <SCORE.INTRA.SOLV>
0.732234

>  <SCORE.INTRA.SOLV.lig_0>
-31.87

>  <SCORE.INTRA.VDW>
0.473186

>  <SCORE.INTRA.VDW.0>
-0.575321

>  <SCORE.INTRA.norm>
0.139807

>  <SCORE.RESTR>
0

>  <SCORE.RESTR.CAVITY>
0

>  <SCORE.RESTR.norm>
0

>  <SCORE.SYSTEM>
0

>  <SCORE.SYSTEM.CONST>
0

>  <SCORE.SYSTEM.DIHEDRAL>
0

>  <SCORE.SYSTEM.SOLV>
0

>  <SCORE.SYSTEM.norm>
0

>  <SCORE.heavy>
10

>  <SCORE.norm>
-0.590956

>  <RMSD>
5.185

$$$$
ligand
 OpenBabel11021811463D
libRbt.so/2013.1/901 2013/11/27
 10  9  0  0  0  0  0  0  0  0999 V2000
   25.1525   44.0215   19.3341 N   0  0  0  0  0  0  0  0  0  0  0  0
   25.5804   42.6284   19.3678 C   0  0  2  0  0  0  0  0  0  0  0  0
   25.5779   42.0233   17.9651 C   0  0  0  0  0  0  0  0  0  0  0  0
   24.8636   42.5150   17.0865 O   0  0  0  0  0  0  0  0  0  0  0  0
   24.6978   41.8119   20.3169 C   0  0  0  0  0  0  0  0  0  0  0  0
   24.8224   42.2301   21.7770 C   0  0  0  0  0  0  0  0  0  0  0  0
   23.8806   41.4446   22.6852 C   0  0  0  0  0  0  0  0  0  0  0  0
   24.3320   39.9859   22.8589 C   0  0  0  0  0  0  0  0  0  0  0  0
   24.2746   39.1648   21.6082 N   0  0  0  0  0  0  0  0  0  0  0  0
   26.2913   41.0529   17.6782 O   0  0  0  0  0  0  0  0  0  0  0  0
  2  1  1  6  0  0  0
  2  3  1  0  0  0  0
  2  5  1  0  0  0  0
  3  4  1  0  0  0  0
  3 10  1  0  0  0  0
  5  6  1  0  0  0  0
  6  7  1  0  0  0  0
  7  8  1  0  0  0  0
  8  9  1  0  0  0  0
M  END
>  <CHROM.1>
-23.39177402,-65.30226550,177.18256635,71.66970742,-65.74703982,24.95147514
41.67904057,20.02762655,0.47250193,1.29237873,-0.10068089

>  <Name>
ligand

>  <RI>
0

>  <Rbt.Current_Directory>
/home/itssahil/PROJECTS/Mol_Feturizer/New_Systems/rnas/3D0U

>  <Rbt.Executable>
rbdock ($Id: //depot/dev/client3/rdock/2013.1/src/exe/rbdock.cxx#4 $)

>  <Rbt.Library>
libRbt.so (2013.1, Build901 2013/11/27)

>  <Rbt.Parameter_File>
/export/apps/rDock/src/rDock_2013.1_src/data/scripts/dock_solv.prm

>  <Rbt.Receptor>
prm/pocket_docking_8.prm

>  <SCORE>
-7.52047

>  <SCORE.INTER>
-8.67038

>  <SCORE.INTER.CONST>
1

>  <SCORE.INTER.POLAR>
0

>  <SCORE.INTER.ROT>
5

>  <SCORE.INTER.SOLV>
12.4793

>  <SCORE.INTER.VDW>
-16.8733

>  <SCORE.INTER.norm>
-0.867038

>  <SCORE.INTRA>
1.14991

>  <SCORE.INTRA.DIHEDRAL>
0.116107

>  <SCORE.INTRA.DIHEDRAL.0>
2.22229

>  <SCORE.INTRA.POLAR>
0

>  <SCORE.INTRA.POLAR.0>
0

>  <SCORE.INTRA.REPUL>
0

>  <SCORE.INTRA.REPUL.0>
0

>  <SCORE.INTRA.SOLV>
1.47498

>  <SCORE.INTRA.SOLV.lig_0>
-31.87

>  <SCORE.INTRA.VDW>
0.35437

>  <SCORE.INTRA.VDW.0>
-0.575321

>  <SCORE.INTRA.norm>
0.114991

>  <SCORE.RESTR>
0

>  <SCORE.RESTR.CAVITY>
0

>  <SCORE.RESTR.norm>
0

>  <SCORE.SYSTEM>
0

>  <SCORE.SYSTEM.CONST>
0

>  <SCORE.SYSTEM.DIHEDRAL>
0

>  <SCORE.SYSTEM.SOLV>
0

>  <SCORE.SYSTEM.norm>
0

>  <SCORE.heavy>
10

>  <SCORE.norm>
-0.752047

>  <RMSD>
5.205

$$$$
ligand
 OpenBabel11021811463D
libRbt.so/2013.1/901 2013/11/27
 10  9  0  0  0  0  0  0  0  0999 V2000
   24.5026   44.2098   19.1379 N   0  0  0  0  0  0  0  0  0  0  0  0
   25.2801   42.9787   19.2088 C   0  0  2  0  0  0  0  0  0  0  0  0
   25.4559   42.3644   17.8212 C   0  0  0  0  0  0  0  0  0  0  0  0
   24.6998   42.6961   16.9035 O   0  0  0  0  0  0  0  0  0  0  0  0
   24.6292   41.9798   20.1705 C   0  0  0  0  0  0  0  0  0  0  0  0
   25.4963   40.7614   20.4634 C   0  0  0  0  0  0  0  0  0  0  0  0
   24.7720   39.7306   21.3245 C   0  0  0  0  0  0  0  0  0  0  0  0
   24.5661   40.2260   22.7647 C   0  0  0  0  0  0  0  0  0  0  0  0
   23.5617   41.3274   22.9049 N   0  0  0  0  0  0  0  0  0  0  0  0
   26.3544   41.5459   17.5855 O   0  0  0  0  0  0  0  0  0  0  0  0
  2  1  1  6  0  0  0
  2  3  1  0  0  0  0
  2  5  1  0  0  0  0
  3  4  1  0  0  0  0
  3 10  1  0  0  0  0
  5  6  1  0  0  0  0
  6  7  1  0  0  0  0
  7  8  1  0  0  0  0
  8  9  1  0  0  0  0
M  END
>  <CHROM.1>
-18.91693067,-170.92064412,-174.98327539,-69.85200344,70.54259188,24.93873662
41.77433978,19.78903292,1.20859405,1.04114413,-0.81954399

>  <Name>
ligand

>  <RI>
0

>  <Rbt.Current_Directory>
/home/itssahil/PROJECTS/Mol_Feturizer/New_Systems/rnas/3D0U

>  <Rbt.Executable>
rbdock ($Id: //depot/dev/client3/rdock/2013.1/src/exe/rbdock.cxx#4 $)

>  <Rbt.Library>
libRbt.so (2013.1, Build901 2013/11/27)

>  <Rbt.Parameter_File>
/export/apps/rDock/src/rDock_2013.1_src/data/scripts/dock_solv.prm

>  <Rbt.Receptor>
prm/pocket_docking_8.prm

>  <SCORE>
-7.93217

>  <SCORE.INTER>
-8.88356

>  <SCORE.INTER.CONST>
1

>  <SCORE.INTER.POLAR>
0

>  <SCORE.INTER.ROT>
5

>  <SCORE.INTER.SOLV>
12.9812

>  <SCORE.INTER.VDW>
-17.1828

>  <SCORE.INTER.norm>
-0.888356

>  <SCORE.INTRA>
0.951384

>  <SCORE.INTRA.DIHEDRAL>
0.501402

>  <SCORE.INTRA.DIHEDRAL.0>
2.22229

>  <SCORE.INTRA.POLAR>
0

>  <SCORE.INTRA.POLAR.0>
0

>  <SCORE.INTRA.REPUL>
0

>  <SCORE.INTRA.REPUL.0>
0

>  <SCORE.INTRA.SOLV>
0.530788

>  <SCORE.INTRA.SOLV.lig_0>
-31.87

>  <SCORE.INTRA.VDW>
0.435289

>  <SCORE.INTRA.VDW.0>
-0.575321

>  <SCORE.INTRA.norm>
0.0951384

>  <SCORE.RESTR>
0

>  <SCORE.RESTR.CAVITY>
0

>  <SCORE.RESTR.norm>
0

>  <SCORE.SYSTEM>
0

>  <SCORE.SYSTEM.CONST>
0

>  <SCORE.SYSTEM.DIHEDRAL>
0

>  <SCORE.SYSTEM.SOLV>
0

>  <SCORE.SYSTEM.norm>
0

>  <SCORE.heavy>
10

>  <SCORE.norm>
-0.793217

>  <RMSD>
5.209

$$$$
ligand
 OpenBabel11021811463D
libRbt.so/2013.1/901 2013/11/27
 10  9  0  0  0  0  0  0  0  0999 V2000
   24.7459   44.2589   18.5755 N   0  0  0  0  0  0  0  0  0  0  0  0
   24.9887   42.9393   19.1454 C   0  0  2  0  0  0  0  0  0  0  0  0
   25.6953   42.0326   18.1392 C   0  0  0  0  0  0  0  0  0  0  0  0
   26.3906   41.0952   18.5413 O   0  0  0  0  0  0  0  0  0  0  0  0
   23.6795   42.3062   19.6266 C   0  0  0  0  0  0  0  0  0  0  0  0
   23.8813   41.0466   20.4603 C   0  0  0  0  0  0  0  0  0  0  0  0
   24.5493   41.3418   21.8003 C   0  0  0  0  0  0  0  0  0  0  0  0
   24.8426   40.0580   22.5925 C   0  0  0  0  0  0  0  0  0  0  0  0
   23.6280   39.2625   22.9578 N   0  0  0  0  0  0  0  0  0  0  0  0
   25.5763   42.2046   16.9189 O   0  0  0  0  0  0  0  0  0  0  0  0
  2  1  1  6  0  0  0
  2  3  1  0  0  0  0
  2  5  1  0  0  0  0
  3  4  1  0  0  0  0
  3 10  1  0  0  0  0
  5  6  1  0  0  0  0
  6  7  1  0  0  0  0
  7  8  1  0  0  0  0
  8  9  1  0  0  0  0
M  END
>  <CHROM.1>
154.41845989,-169.39136504,67.12627072,-175.86418638,-61.77176098,24.81689060
41.63983409,19.84555638,1.19907861,0.87499088,-0.75335459

>  <Name>
ligand

>  <RI>
0

>  <Rbt.Current_Directory>
/home/itssahil/PROJECTS/Mol_Feturizer/New_Systems/rnas/3D0U

>  <Rbt.Executable>
rbdock ($Id: //depot/dev/client3/rdock/2013.1/src/exe/rbdock.cxx#4 $)

>  <Rbt.Library>
libRbt.so (2013.1, Build901 2013/11/27)

>  <Rbt.Parameter_File>
/export/apps/rDock/src/rDock_2013.1_src/data/scripts/dock_solv.prm

>  <Rbt.Receptor>
prm/pocket_docking_5.prm

>  <SCORE>
-9.25866

>  <SCORE.INTER>
-8.8887

>  <SCORE.INTER.CONST>
1

>  <SCORE.INTER.POLAR>
0

>  <SCORE.INTER.ROT>
5

>  <SCORE.INTER.SOLV>
13.016

>  <SCORE.INTER.VDW>
-17.1978

>  <SCORE.INTER.norm>
-0.88887

>  <SCORE.INTRA>
-0.369962

>  <SCORE.INTRA.DIHEDRAL>
-0.0632677

>  <SCORE.INTRA.DIHEDRAL.0>
2.22229

>  <SCORE.INTRA.POLAR>
0

>  <SCORE.INTRA.POLAR.0>
0

>  <SCORE.INTRA.REPUL>
0

>  <SCORE.INTRA.REPUL.0>
0

>  <SCORE.INTRA.SOLV>
-0.46934

>  <SCORE.INTRA.SOLV.lig_0>
-31.87

>  <SCORE.INTRA.VDW>
-0.103658

>  <SCORE.INTRA.VDW.0>
-0.575321

>  <SCORE.INTRA.norm>
-0.0369962

>  <SCORE.RESTR>
0

>  <SCORE.RESTR.CAVITY>
0

>  <SCORE.RESTR.norm>
0

>  <SCORE.SYSTEM>
0

>  <SCORE.SYSTEM.CONST>
0

>  <SCORE.SYSTEM.DIHEDRAL>
0

>  <SCORE.SYSTEM.SOLV>
0

>  <SCORE.SYSTEM.norm>
0

>  <SCORE.heavy>
10

>  <SCORE.norm>
-0.925866

>  <RMSD>
5.224

$$$$
ligand
 OpenBabel11021811463D
libRbt.so/2013.1/901 2013/11/27
 10  9  0  0  0  0  0  0  0  0999 V2000
   26.3825   41.6168   17.4243 N   0  0  0  0  0  0  0  0  0  0  0  0
   25.4549   41.4434   18.5355 C   0  0  2  0  0  0  0  0  0  0  0  0
   24.2347   42.3482   18.3732 C   0  0  0  0  0  0  0  0  0  0  0  0
   24.3642   43.4677   17.8693 O   0  0  0  0  0  0  0  0  0  0  0  0
   26.1547   41.7040   19.8729 C   0  0  0  0  0  0  0  0  0  0  0  0
   25.2579   41.4798   21.0844 C   0  0  0  0  0  0  0  0  0  0  0  0
   24.8465   40.0181   21.2359 C   0  0  0  0  0  0  0  0  0  0  0  0
   23.7393   39.8375   22.2863 C   0  0  0  0  0  0  0  0  0  0  0  0
   24.0972   40.3252   23.6559 N   0  0  0  0  0  0  0  0  0  0  0  0
   23.1056   41.9800   18.7228 O   0  0  0  0  0  0  0  0  0  0  0  0
  2  1  1  6  0  0  0
  2  3  1  0  0  0  0
  2  5  1  0  0  0  0
  3  4  1  0  0  0  0
  3 10  1  0  0  0  0
  5  6  1  0  0  0  0
  6  7  1  0  0  0  0
  7  8  1  0  0  0  0
  8  9  1  0  0  0  0
M  END
>  <CHROM.1>
-35.15195859,-177.43360506,65.56302834,-169.14811563,-58.48428603,24.73747124
41.44521582,19.89251865,-1.43196012,-0.26139831,2.04621551

>  <Name>
ligand

>  <RI>
0

>  <Rbt.Current_Directory>
/home/itssahil/PROJECTS/Mol_Feturizer/New_Systems/rnas/3D0U

>  <Rbt.Executable>
rbdock ($Id: //depot/dev/client3/rdock/2013.1/src/exe/rbdock.cxx#4 $)

>  <Rbt.Library>
libRbt.so (2013.1, Build901 2013/11/27)

>  <Rbt.Parameter_File>
/export/apps/rDock/src/rDock_2013.1_src/data/scripts/dock_solv.prm

>  <Rbt.Receptor>
prm/pocket_docking_4.prm

>  <SCORE>
-7.13366

>  <SCORE.INTER>
-6.8409

>  <SCORE.INTER.CONST>
1

>  <SCORE.INTER.POLAR>
0

>  <SCORE.INTER.ROT>
5

>  <SCORE.INTER.SOLV>
19.2179

>  <SCORE.INTER.VDW>
-17.8999

>  <SCORE.INTER.norm>
-0.68409

>  <SCORE.INTRA>
-0.292758

>  <SCORE.INTRA.DIHEDRAL>
-0.0754437

>  <SCORE.INTRA.DIHEDRAL.0>
2.22229

>  <SCORE.INTRA.POLAR>
0

>  <SCORE.INTRA.POLAR.0>
0

>  <SCORE.INTRA.REPUL>
0

>  <SCORE.INTRA.REPUL.0>
0

>  <SCORE.INTRA.SOLV>
-0.485295

>  <SCORE.INTRA.SOLV.lig_0>
-31.87

>  <SCORE.INTRA.VDW>
-0.0123885

>  <SCORE.INTRA.VDW.0>
-0.575321

>  <SCORE.INTRA.norm>
-0.0292758

>  <SCORE.RESTR>
0

>  <SCORE.RESTR.CAVITY>
0

>  <SCORE.RESTR.norm>
0

>  <SCORE.SYSTEM>
0

>  <SCORE.SYSTEM.CONST>
0

>  <SCORE.SYSTEM.DIHEDRAL>
0

>  <SCORE.SYSTEM.SOLV>
0

>  <SCORE.SYSTEM.norm>
0

>  <SCORE.heavy>
10

>  <SCORE.norm>
-0.713366

>  <RMSD>
5.228

$$$$
ligand
 OpenBabel11021811463D
libRbt.so/2013.1/901 2013/11/27
 10  9  0  0  0  0  0  0  0  0999 V2000
   24.6847   43.4589   20.1274 N   0  0  0  0  0  0  0  0  0  0  0  0
   25.6662   42.8440   19.2421 C   0  0  2  0  0  0  0  0  0  0  0  0
   25.0215   42.4222   17.9229 C   0  0  0  0  0  0  0  0  0  0  0  0
   23.7948   42.3046   17.8499 O   0  0  0  0  0  0  0  0  0  0  0  0
   26.3427   41.6518   19.9257 C   0  0  0  0  0  0  0  0  0  0  0  0
   25.3956   40.4913   20.2058 C   0  0  0  0  0  0  0  0  0  0  0  0
   24.7011   40.6259   21.5580 C   0  0  0  0  0  0  0  0  0  0  0  0
   23.9099   39.3613   21.9273 C   0  0  0  0  0  0  0  0  0  0  0  0
   23.4170   39.3276   23.3407 N   0  0  0  0  0  0  0  0  0  0  0  0
   25.7012   42.2075   16.9105 O   0  0  0  0  0  0  0  0  0  0  0  0
  2  1  1  1  0  0  0
  2  3  1  0  0  0  0
  2  5  1  0  0  0  0
  3  4  1  0  0  0  0
  3 10  1  0  0  0  0
  5  6  1  0  0  0  0
  6  7  1  0  0  0  0
  7  8  1  0  0  0  0
  8  9  1  0  0  0  0
M  END
>  <CHROM.1>
-18.23066909,65.84173174,-88.26872125,-171.62417699,169.26146945,24.85248329
41.46809527,19.86298274,-1.24306884,0.82871332,1.88917151

>  <Name>
ligand

>  <RI>
0

>  <Rbt.Current_Directory>
/home/itssahil/PROJECTS/Mol_Feturizer/New_Systems/rnas/3D0U

>  <Rbt.Executable>
rbdock ($Id: //depot/dev/client3/rdock/2013.1/src/exe/rbdock.cxx#4 $)

>  <Rbt.Library>
libRbt.so (2013.1, Build901 2013/11/27)

>  <Rbt.Parameter_File>
/export/apps/rDock/src/rDock_2013.1_src/data/scripts/dock_solv.prm

>  <Rbt.Receptor>
prm/pocket_docking_7.prm

>  <SCORE>
-7.49798

>  <SCORE.INTER>
-8.98067

>  <SCORE.INTER.CONST>
1

>  <SCORE.INTER.POLAR>
0

>  <SCORE.INTER.ROT>
5

>  <SCORE.INTER.SOLV>
12.8628

>  <SCORE.INTER.VDW>
-17.2081

>  <SCORE.INTER.norm>
-0.898067

>  <SCORE.INTRA>
1.48269

>  <SCORE.INTRA.DIHEDRAL>
2.90335

>  <SCORE.INTRA.DIHEDRAL.0>
2.22229

>  <SCORE.INTRA.POLAR>
0

>  <SCORE.INTRA.POLAR.0>
0

>  <SCORE.INTRA.REPUL>
0

>  <SCORE.INTRA.REPUL.0>
0

>  <SCORE.INTRA.SOLV>
0.263757

>  <SCORE.INTRA.SOLV.lig_0>
-31.87

>  <SCORE.INTRA.VDW>
-0.100866

>  <SCORE.INTRA.VDW.0>
-0.575321

>  <SCORE.INTRA.norm>
0.148269

>  <SCORE.RESTR>
0

>  <SCORE.RESTR.CAVITY>
0

>  <SCORE.RESTR.norm>
0

>  <SCORE.SYSTEM>
0

>  <SCORE.SYSTEM.CONST>
0

>  <SCORE.SYSTEM.DIHEDRAL>
0

>  <SCORE.SYSTEM.SOLV>
0

>  <SCORE.SYSTEM.norm>
0

>  <SCORE.heavy>
10

>  <SCORE.norm>
-0.749798

>  <RMSD>
5.235

$$$$
ligand
 OpenBabel11021811463D
libRbt.so/2013.1/901 2013/11/27
 10  9  0  0  0  0  0  0  0  0999 V2000
   24.7719   44.2057   18.6873 N   0  0  0  0  0  0  0  0  0  0  0  0
   24.9890   42.8499   19.1769 C   0  0  2  0  0  0  0  0  0  0  0  0
   25.6396   41.9800   18.1027 C   0  0  0  0  0  0  0  0  0  0  0  0
   26.2618   40.9651   18.4294 O   0  0  0  0  0  0  0  0  0  0  0  0
   23.6743   42.2299   19.6602 C   0  0  0  0  0  0  0  0  0  0  0  0
   23.8638   40.9563   20.4753 C   0  0  0  0  0  0  0  0  0  0  0  0
   24.5681   41.2199   21.8032 C   0  0  0  0  0  0  0  0  0  0  0  0
   24.7761   39.9290   22.6107 C   0  0  0  0  0  0  0  0  0  0  0  0
   23.5108   39.2310   23.0026 N   0  0  0  0  0  0  0  0  0  0  0  0
   25.5462   42.2595   16.9002 O   0  0  0  0  0  0  0  0  0  0  0  0
  2  1  1  6  0  0  0
  2  3  1  0  0  0  0
  2  5  1  0  0  0  0
  3  4  1  0  0  0  0
  3 10  1  0  0  0  0
  5  6  1  0  0  0  0
  6  7  1  0  0  0  0
  7  8  1  0  0  0  0
  8  9  1  0  0  0  0
M  END
>  <CHROM.1>
157.92589105,-166.59935170,66.14783597,-179.10733736,-61.83437822,24.77810437
41.56871056,19.85302537,1.15799580,0.92811518,-0.70656044

>  <Name>
ligand

>  <RI>
0

>  <Rbt.Current_Directory>
/home/itssahil/PROJECTS/Mol_Feturizer/New_Systems/rnas/3D0U

>  <Rbt.Executable>
rbdock ($Id: //depot/dev/client3/rdock/2013.1/src/exe/rbdock.cxx#4 $)

>  <Rbt.Library>
libRbt.so (2013.1, Build901 2013/11/27)

>  <Rbt.Parameter_File>
/export/apps/rDock/src/rDock_2013.1_src/data/scripts/dock_solv.prm

>  <Rbt.Receptor>
prm/pocket_docking_6.prm

>  <SCORE>
-9.172

>  <SCORE.INTER>
-8.90916

>  <SCORE.INTER.CONST>
1

>  <SCORE.INTER.POLAR>
0

>  <SCORE.INTER.ROT>
5

>  <SCORE.INTER.SOLV>
12.8709

>  <SCORE.INTER.VDW>
-17.1631

>  <SCORE.INTER.norm>
-0.890916

>  <SCORE.INTRA>
-0.262833

>  <SCORE.INTRA.DIHEDRAL>
0.0629124

>  <SCORE.INTRA.DIHEDRAL.0>
2.22229

>  <SCORE.INTRA.POLAR>
0

>  <SCORE.INTRA.POLAR.0>
0

>  <SCORE.INTRA.REPUL>
0

>  <SCORE.INTRA.REPUL.0>
0

>  <SCORE.INTRA.SOLV>
-0.426059

>  <SCORE.INTRA.SOLV.lig_0>
-31.87

>  <SCORE.INTRA.VDW>
-0.0812593

>  <SCORE.INTRA.VDW.0>
-0.575321

>  <SCORE.INTRA.norm>
-0.0262833

>  <SCORE.RESTR>
0

>  <SCORE.RESTR.CAVITY>
0

>  <SCORE.RESTR.norm>
0

>  <SCORE.SYSTEM>
0

>  <SCORE.SYSTEM.CONST>
0

>  <SCORE.SYSTEM.DIHEDRAL>
0

>  <SCORE.SYSTEM.SOLV>
0

>  <SCORE.SYSTEM.norm>
0

>  <SCORE.heavy>
10

>  <SCORE.norm>
-0.9172

>  <RMSD>
5.236

$$$$
ligand
 OpenBabel11021811463D
libRbt.so/2013.1/901 2013/11/27
 10  9  0  0  0  0  0  0  0  0999 V2000
   24.8497   44.2512   18.6647 N   0  0  0  0  0  0  0  0  0  0  0  0
   25.0406   42.8976   19.1712 C   0  0  2  0  0  0  0  0  0  0  0  0
   25.6373   41.9921   18.0952 C   0  0  0  0  0  0  0  0  0  0  0  0
   25.5284   42.3004   16.9048 O   0  0  0  0  0  0  0  0  0  0  0  0
   23.7219   42.3240   19.6988 C   0  0  0  0  0  0  0  0  0  0  0  0
   23.8906   41.0274   20.4815 C   0  0  0  0  0  0  0  0  0  0  0  0
   24.6510   41.2363   21.7881 C   0  0  0  0  0  0  0  0  0  0  0  0
   24.8237   39.9244   22.5697 C   0  0  0  0  0  0  0  0  0  0  0  0
   23.5400   39.2747   22.9839 N   0  0  0  0  0  0  0  0  0  0  0  0
   26.2465   40.9547   18.3878 O   0  0  0  0  0  0  0  0  0  0  0  0
  2  1  1  6  0  0  0
  2  3  1  0  0  0  0
  2  5  1  0  0  0  0
  3  4  1  0  0  0  0
  3 10  1  0  0  0  0
  5  6  1  0  0  0  0
  6  7  1  0  0  0  0
  7  8  1  0  0  0  0
  8  9  1  0  0  0  0
M  END
>  <CHROM.1>
-21.24510277,-168.97192745,66.60314217,-179.72933107,-61.29893853,24.80991219
41.60403102,19.84244458,1.15296459,0.95479664,-0.69122723

>  <Name>
ligand

>  <RI>
0

>  <Rbt.Current_Directory>
/home/itssahil/PROJECTS/Mol_Feturizer/New_Systems/rnas/3D0U

>  <Rbt.Executable>
rbdock ($Id: //depot/dev/client3/rdock/2013.1/src/exe/rbdock.cxx#4 $)

>  <Rbt.Library>
libRbt.so (2013.1, Build901 2013/11/27)

>  <Rbt.Parameter_File>
/export/apps/rDock/src/rDock_2013.1_src/data/scripts/dock_solv.prm

>  <Rbt.Receptor>
prm/blind_docking_60.prm

>  <SCORE>
-9.22551

>  <SCORE.INTER>
-8.94083

>  <SCORE.INTER.CONST>
1

>  <SCORE.INTER.POLAR>
0

>  <SCORE.INTER.ROT>
5

>  <SCORE.INTER.SOLV>
13.0137

>  <SCORE.INTER.VDW>
-17.2318

>  <SCORE.INTER.norm>
-0.894083

>  <SCORE.INTRA>
-0.284683

>  <SCORE.INTRA.DIHEDRAL>
-0.0764327

>  <SCORE.INTRA.DIHEDRAL.0>
2.22229

>  <SCORE.INTRA.POLAR>
0

>  <SCORE.INTRA.POLAR.0>
0

>  <SCORE.INTRA.REPUL>
0

>  <SCORE.INTRA.REPUL.0>
0

>  <SCORE.INTRA.SOLV>
-0.425209

>  <SCORE.INTRA.SOLV.lig_0>
-31.87

>  <SCORE.INTRA.VDW>
-0.0338622

>  <SCORE.INTRA.VDW.0>
-0.575321

>  <SCORE.INTRA.norm>
-0.0284683

>  <SCORE.RESTR>
0

>  <SCORE.RESTR.CAVITY>
0

>  <SCORE.RESTR.norm>
0

>  <SCORE.SYSTEM>
0

>  <SCORE.SYSTEM.CONST>
0

>  <SCORE.SYSTEM.DIHEDRAL>
0

>  <SCORE.SYSTEM.SOLV>
0

>  <SCORE.SYSTEM.norm>
0

>  <SCORE.heavy>
10

>  <SCORE.norm>
-0.922551

>  <RMSD>
5.237

$$$$
ligand
 OpenBabel11021811463D
libRbt.so/2013.1/901 2013/11/27
 10  9  0  0  0  0  0  0  0  0999 V2000
   24.3638   43.5525   19.2458 N   0  0  0  0  0  0  0  0  0  0  0  0
   25.0125   42.2479   19.2958 C   0  0  2  0  0  0  0  0  0  0  0  0
   25.5581   41.8575   17.9233 C   0  0  0  0  0  0  0  0  0  0  0  0
   26.3265   40.8969   17.8195 O   0  0  0  0  0  0  0  0  0  0  0  0
   24.0480   41.1816   19.8242 C   0  0  0  0  0  0  0  0  0  0  0  0
   23.5511   41.4557   21.2385 C   0  0  0  0  0  0  0  0  0  0  0  0
   24.6533   41.2876   22.2805 C   0  0  0  0  0  0  0  0  0  0  0  0
   25.0031   39.8097   22.5154 C   0  0  0  0  0  0  0  0  0  0  0  0
   23.8717   38.9790   23.0366 N   0  0  0  0  0  0  0  0  0  0  0  0
   25.2357   42.4749   16.8997 O   0  0  0  0  0  0  0  0  0  0  0  0
  2  1  1  6  0  0  0
  2  3  1  0  0  0  0
  2  5  1  0  0  0  0
  3  4  1  0  0  0  0
  3 10  1  0  0  0  0
  5  6  1  0  0  0  0
  6  7  1  0  0  0  0
  7  8  1  0  0  0  0
  8  9  1  0  0  0  0
M  END
>  <CHROM.1>
168.04345273,-60.94649821,-69.71812551,-73.26989740,-61.51608352,24.77787546
41.36993935,19.96843789,1.19418027,0.96196578,-0.83051399

>  <Name>
ligand

>  <RI>
0

>  <Rbt.Current_Directory>
/home/itssahil/PROJECTS/Mol_Feturizer/New_Systems/rnas/3D0U

>  <Rbt.Executable>
rbdock ($Id: //depot/dev/client3/rdock/2013.1/src/exe/rbdock.cxx#4 $)

>  <Rbt.Library>
libRbt.so (2013.1, Build901 2013/11/27)

>  <Rbt.Parameter_File>
/export/apps/rDock/src/rDock_2013.1_src/data/scripts/dock_solv.prm

>  <Rbt.Receptor>
prm/pocket_docking_7.prm

>  <SCORE>
-7.26046

>  <SCORE.INTER>
-8.37156

>  <SCORE.INTER.CONST>
1

>  <SCORE.INTER.POLAR>
0

>  <SCORE.INTER.ROT>
5

>  <SCORE.INTER.SOLV>
10.315

>  <SCORE.INTER.VDW>
-15.9527

>  <SCORE.INTER.norm>
-0.837156

>  <SCORE.INTRA>
1.11083

>  <SCORE.INTRA.DIHEDRAL>
0.346298

>  <SCORE.INTRA.DIHEDRAL.0>
2.22229

>  <SCORE.INTRA.POLAR>
0

>  <SCORE.INTRA.POLAR.0>
0

>  <SCORE.INTRA.REPUL>
0

>  <SCORE.INTRA.REPUL.0>
0

>  <SCORE.INTRA.SOLV>
1.08036

>  <SCORE.INTRA.SOLV.lig_0>
-31.87

>  <SCORE.INTRA.VDW>
0.397498

>  <SCORE.INTRA.VDW.0>
-0.575321

>  <SCORE.INTRA.norm>
0.111083

>  <SCORE.RESTR>
0.000273457

>  <SCORE.RESTR.CAVITY>
0.000273457

>  <SCORE.RESTR.norm>
2.73457e-05

>  <SCORE.SYSTEM>
0

>  <SCORE.SYSTEM.CONST>
0

>  <SCORE.SYSTEM.DIHEDRAL>
0

>  <SCORE.SYSTEM.SOLV>
0

>  <SCORE.SYSTEM.norm>
0

>  <SCORE.heavy>
10

>  <SCORE.norm>
-0.726046

>  <RMSD>
5.241

$$$$
ligand
 OpenBabel11021811463D
libRbt.so/2013.1/901 2013/11/27
 10  9  0  0  0  0  0  0  0  0999 V2000
   24.4447   43.9990   18.6375 N   0  0  0  0  0  0  0  0  0  0  0  0
   25.2832   42.9518   19.2079 C   0  0  2  0  0  0  0  0  0  0  0  0
   25.6668   41.9221   18.1465 C   0  0  0  0  0  0  0  0  0  0  0  0
   25.6002   42.2205   16.9505 O   0  0  0  0  0  0  0  0  0  0  0  0
   24.5827   42.2803   20.3931 C   0  0  0  0  0  0  0  0  0  0  0  0
   25.5143   41.4346   21.2528 C   0  0  0  0  0  0  0  0  0  0  0  0
   24.7832   40.7723   22.4172 C   0  0  0  0  0  0  0  0  0  0  0  0
   23.8467   39.6490   21.9448 C   0  0  0  0  0  0  0  0  0  0  0  0
   23.1895   38.8823   23.0502 N   0  0  0  0  0  0  0  0  0  0  0  0
   26.0610   40.7901   18.4564 O   0  0  0  0  0  0  0  0  0  0  0  0
  2  1  1  6  0  0  0
  2  3  1  0  0  0  0
  2  5  1  0  0  0  0
  3  4  1  0  0  0  0
  3 10  1  0  0  0  0
  5  6  1  0  0  0  0
  6  7  1  0  0  0  0
  7  8  1  0  0  0  0
  8  9  1  0  0  0  0
M  END
>  <CHROM.1>
20.20654444,-165.38048613,-179.57084609,70.81191234,175.00476835,24.90987401
41.47403653,20.01309009,0.85242533,1.15164474,-0.34355430

>  <Name>
ligand

>  <RI>
0

>  <Rbt.Current_Directory>
/home/itssahil/PROJECTS/Mol_Feturizer/New_Systems/rnas/3D0U

>  <Rbt.Executable>
rbdock ($Id: //depot/dev/client3/rdock/2013.1/src/exe/rbdock.cxx#4 $)

>  <Rbt.Library>
libRbt.so (2013.1, Build901 2013/11/27)

>  <Rbt.Parameter_File>
/export/apps/rDock/src/rDock_2013.1_src/data/scripts/dock_solv.prm

>  <Rbt.Receptor>
prm/pocket_docking_3.prm

>  <SCORE>
-8.15285

>  <SCORE.INTER>
-8.47495

>  <SCORE.INTER.CONST>
1

>  <SCORE.INTER.POLAR>
0

>  <SCORE.INTER.ROT>
5

>  <SCORE.INTER.SOLV>
13.919

>  <SCORE.INTER.VDW>
-17.223

>  <SCORE.INTER.norm>
-0.847495

>  <SCORE.INTRA>
0.32041

>  <SCORE.INTRA.DIHEDRAL>
0.586944

>  <SCORE.INTRA.DIHEDRAL.0>
2.22229

>  <SCORE.INTRA.POLAR>
0

>  <SCORE.INTRA.POLAR.0>
0

>  <SCORE.INTRA.REPUL>
0

>  <SCORE.INTRA.REPUL.0>
0

>  <SCORE.INTRA.SOLV>
-1.42894

>  <SCORE.INTRA.SOLV.lig_0>
-31.87

>  <SCORE.INTRA.VDW>
0.741409

>  <SCORE.INTRA.VDW.0>
-0.575321

>  <SCORE.INTRA.norm>
0.032041

>  <SCORE.RESTR>
0.00169488

>  <SCORE.RESTR.CAVITY>
0.00169488

>  <SCORE.RESTR.norm>
0.000169488

>  <SCORE.SYSTEM>
0

>  <SCORE.SYSTEM.CONST>
0

>  <SCORE.SYSTEM.DIHEDRAL>
0

>  <SCORE.SYSTEM.SOLV>
0

>  <SCORE.SYSTEM.norm>
0

>  <SCORE.heavy>
10

>  <SCORE.norm>
-0.815285

>  <RMSD>
5.251

$$$$
ligand
 OpenBabel11021811463D
libRbt.so/2013.1/901 2013/11/27
 10  9  0  0  0  0  0  0  0  0999 V2000
   25.3763   42.8142   17.1995 N   0  0  0  0  0  0  0  0  0  0  0  0
   24.3537   42.7848   18.2380 C   0  0  2  0  0  0  0  0  0  0  0  0
   24.2913   44.1191   18.9794 C   0  0  0  0  0  0  0  0  0  0  0  0
   25.3359   44.6724   19.3350 O   0  0  0  0  0  0  0  0  0  0  0  0
   24.6021   41.6291   19.2122 C   0  0  0  0  0  0  0  0  0  0  0  0
   23.4572   41.4003   20.1916 C   0  0  0  0  0  0  0  0  0  0  0  0
   23.7338   40.2389   21.1422 C   0  0  0  0  0  0  0  0  0  0  0  0
   24.8186   40.5854   22.1741 C   0  0  0  0  0  0  0  0  0  0  0  0
   24.4427   41.6767   23.1278 N   0  0  0  0  0  0  0  0  0  0  0  0
   23.2115   44.6738   19.2225 O   0  0  0  0  0  0  0  0  0  0  0  0
  2  1  1  6  0  0  0
  2  3  1  0  0  0  0
  2  5  1  0  0  0  0
  3  4  1  0  0  0  0
  3 10  1  0  0  0  0
  5  6  1  0  0  0  0
  6  7  1  0  0  0  0
  7  8  1  0  0  0  0
  8  9  1  0  0  0  0
M  END
>  <CHROM.1>
-44.87021430,-170.85018602,179.71918002,71.35526727,64.82639040,24.36074443
42.49538593,19.88993112,-1.02427710,-1.44491044,2.82375993

>  <Name>
ligand

>  <RI>
0

>  <Rbt.Current_Directory>
/home/itssahil/PROJECTS/Mol_Feturizer/New_Systems/rnas/3D0U

>  <Rbt.Executable>
rbdock ($Id: //depot/dev/client3/rdock/2013.1/src/exe/rbdock.cxx#4 $)

>  <Rbt.Library>
libRbt.so (2013.1, Build901 2013/11/27)

>  <Rbt.Parameter_File>
/export/apps/rDock/src/rDock_2013.1_src/data/scripts/dock_solv.prm

>  <Rbt.Receptor>
prm/pocket_docking_4.prm

>  <SCORE>
-6.55955

>  <SCORE.INTER>
-6.54156

>  <SCORE.INTER.CONST>
1

>  <SCORE.INTER.POLAR>
0

>  <SCORE.INTER.ROT>
5

>  <SCORE.INTER.SOLV>
17.7586

>  <SCORE.INTER.VDW>
-17.2139

>  <SCORE.INTER.norm>
-0.654156

>  <SCORE.INTRA>
-0.0179932

>  <SCORE.INTRA.DIHEDRAL>
0.200294

>  <SCORE.INTRA.DIHEDRAL.0>
2.22229

>  <SCORE.INTRA.POLAR>
0

>  <SCORE.INTRA.POLAR.0>
0

>  <SCORE.INTRA.REPUL>
0

>  <SCORE.INTRA.REPUL.0>
0

>  <SCORE.INTRA.SOLV>
-0.30534

>  <SCORE.INTRA.SOLV.lig_0>
-31.87

>  <SCORE.INTRA.VDW>
0.0345301

>  <SCORE.INTRA.VDW.0>
-0.575321

>  <SCORE.INTRA.norm>
-0.00179932

>  <SCORE.RESTR>
0

>  <SCORE.RESTR.CAVITY>
0

>  <SCORE.RESTR.norm>
0

>  <SCORE.SYSTEM>
0

>  <SCORE.SYSTEM.CONST>
0

>  <SCORE.SYSTEM.DIHEDRAL>
0

>  <SCORE.SYSTEM.SOLV>
0

>  <SCORE.SYSTEM.norm>
0

>  <SCORE.heavy>
10

>  <SCORE.norm>
-0.655955

>  <RMSD>
5.255

$$$$
ligand
 OpenBabel11021811463D
libRbt.so/2013.1/901 2013/11/27
 10  9  0  0  0  0  0  0  0  0999 V2000
   25.2849   44.3589   18.7164 N   0  0  0  0  0  0  0  0  0  0  0  0
   25.1075   42.9740   19.1356 C   0  0  2  0  0  0  0  0  0  0  0  0
   25.6890   42.0125   18.1007 C   0  0  0  0  0  0  0  0  0  0  0  0
   25.6398   42.2997   16.9011 O   0  0  0  0  0  0  0  0  0  0  0  0
   23.6287   42.6700   19.3942 C   0  0  0  0  0  0  0  0  0  0  0  0
   23.3755   41.2522   19.8925 C   0  0  0  0  0  0  0  0  0  0  0  0
   23.9539   41.0176   21.2851 C   0  0  0  0  0  0  0  0  0  0  0  0
   23.7006   39.5848   21.7797 C   0  0  0  0  0  0  0  0  0  0  0  0
   24.1839   39.3134   23.1705 N   0  0  0  0  0  0  0  0  0  0  0  0
   26.2273   40.9492   18.4364 O   0  0  0  0  0  0  0  0  0  0  0  0
  2  1  1  6  0  0  0
  2  3  1  0  0  0  0
  2  5  1  0  0  0  0
  3  4  1  0  0  0  0
  3 10  1  0  0  0  0
  5  6  1  0  0  0  0
  6  7  1  0  0  0  0
  7  8  1  0  0  0  0
  8  9  1  0  0  0  0
M  END
>  <CHROM.1>
-33.91354106,-177.61772728,66.89994152,-179.76390471,-177.02776066,24.69669844
41.62786115,19.65106813,1.07559957,0.88675132,-0.56472653

>  <Name>
ligand

>  <RI>
0

>  <Rbt.Current_Directory>
/home/itssahil/PROJECTS/Mol_Feturizer/New_Systems/rnas/3D0U

>  <Rbt.Executable>
rbdock ($Id: //depot/dev/client3/rdock/2013.1/src/exe/rbdock.cxx#4 $)

>  <Rbt.Library>
libRbt.so (2013.1, Build901 2013/11/27)

>  <Rbt.Parameter_File>
/export/apps/rDock/src/rDock_2013.1_src/data/scripts/dock_solv.prm

>  <Rbt.Receptor>
prm/pocket_docking_7.prm

>  <SCORE>
-9.1403

>  <SCORE.INTER>
-8.15076

>  <SCORE.INTER.CONST>
1

>  <SCORE.INTER.POLAR>
0

>  <SCORE.INTER.ROT>
5

>  <SCORE.INTER.SOLV>
14.6909

>  <SCORE.INTER.VDW>
-17.2641

>  <SCORE.INTER.norm>
-0.815076

>  <SCORE.INTRA>
-0.989537

>  <SCORE.INTRA.DIHEDRAL>
-0.465434

>  <SCORE.INTRA.DIHEDRAL.0>
2.22229

>  <SCORE.INTRA.POLAR>
0

>  <SCORE.INTRA.POLAR.0>
0

>  <SCORE.INTRA.REPUL>
0

>  <SCORE.INTRA.REPUL.0>
0

>  <SCORE.INTRA.SOLV>
-1.36023

>  <SCORE.INTRA.SOLV.lig_0>
-31.87

>  <SCORE.INTRA.VDW>
-0.0767063

>  <SCORE.INTRA.VDW.0>
-0.575321

>  <SCORE.INTRA.norm>
-0.0989537

>  <SCORE.RESTR>
0

>  <SCORE.RESTR.CAVITY>
0

>  <SCORE.RESTR.norm>
0

>  <SCORE.SYSTEM>
0

>  <SCORE.SYSTEM.CONST>
0

>  <SCORE.SYSTEM.DIHEDRAL>
0

>  <SCORE.SYSTEM.SOLV>
0

>  <SCORE.SYSTEM.norm>
0

>  <SCORE.heavy>
10

>  <SCORE.norm>
-0.91403

>  <RMSD>
5.261

$$$$
ligand
 OpenBabel11021811463D
libRbt.so/2013.1/901 2013/11/27
 10  9  0  0  0  0  0  0  0  0999 V2000
   23.0322   42.1479   18.6575 N   0  0  0  0  0  0  0  0  0  0  0  0
   24.3753   42.6812   18.8498 C   0  0  2  0  0  0  0  0  0  0  0  0
   25.3849   41.9459   17.9702 C   0  0  0  0  0  0  0  0  0  0  0  0
   25.9938   40.9706   18.4195 O   0  0  0  0  0  0  0  0  0  0  0  0
   24.7817   42.6103   20.3250 C   0  0  0  0  0  0  0  0  0  0  0  0
   24.5872   41.2322   20.9457 C   0  0  0  0  0  0  0  0  0  0  0  0
   24.7141   41.2606   22.4662 C   0  0  0  0  0  0  0  0  0  0  0  0
   24.6151   39.8545   23.0785 C   0  0  0  0  0  0  0  0  0  0  0  0
   23.2956   39.1780   22.8704 N   0  0  0  0  0  0  0  0  0  0  0  0
   25.6003   42.2955   16.8022 O   0  0  0  0  0  0  0  0  0  0  0  0
  2  1  1  1  0  0  0
  2  3  1  0  0  0  0
  2  5  1  0  0  0  0
  3  4  1  0  0  0  0
  3 10  1  0  0  0  0
  5  6  1  0  0  0  0
  6  7  1  0  0  0  0
  7  8  1  0  0  0  0
  8  9  1  0  0  0  0
M  END
>  <CHROM.1>
-92.56311108,51.22804750,-167.85792052,-176.00752003,-63.57242279,24.66205016
41.40734701,20.00845714,1.35549685,0.51757019,-1.07074552

>  <Name>
ligand

>  <RI>
0

>  <Rbt.Current_Directory>
/home/itssahil/PROJECTS/Mol_Feturizer/New_Systems/rnas/3D0U

>  <Rbt.Executable>
rbdock ($Id: //depot/dev/client3/rdock/2013.1/src/exe/rbdock.cxx#4 $)

>  <Rbt.Library>
libRbt.so (2013.1, Build901 2013/11/27)

>  <Rbt.Parameter_File>
/export/apps/rDock/src/rDock_2013.1_src/data/scripts/dock_solv.prm

>  <Rbt.Receptor>
prm/pocket_docking_3.prm

>  <SCORE>
-6.11278

>  <SCORE.INTER>
-7.11382

>  <SCORE.INTER.CONST>
1

>  <SCORE.INTER.POLAR>
0

>  <SCORE.INTER.ROT>
5

>  <SCORE.INTER.SOLV>
15.7012

>  <SCORE.INTER.VDW>
-16.9096

>  <SCORE.INTER.norm>
-0.711382

>  <SCORE.INTRA>
1.00077

>  <SCORE.INTRA.DIHEDRAL>
0.252659

>  <SCORE.INTRA.DIHEDRAL.0>
2.22229

>  <SCORE.INTRA.POLAR>
0

>  <SCORE.INTRA.POLAR.0>
0

>  <SCORE.INTRA.REPUL>
0

>  <SCORE.INTRA.REPUL.0>
0

>  <SCORE.INTRA.SOLV>
0.250974

>  <SCORE.INTRA.SOLV.lig_0>
-31.87

>  <SCORE.INTRA.VDW>
0.74895

>  <SCORE.INTRA.VDW.0>
-0.575321

>  <SCORE.INTRA.norm>
0.100077

>  <SCORE.RESTR>
0.000273508

>  <SCORE.RESTR.CAVITY>
0.000273508

>  <SCORE.RESTR.norm>
2.73508e-05

>  <SCORE.SYSTEM>
0

>  <SCORE.SYSTEM.CONST>
0

>  <SCORE.SYSTEM.DIHEDRAL>
0

>  <SCORE.SYSTEM.SOLV>
0

>  <SCORE.SYSTEM.norm>
0

>  <SCORE.heavy>
10

>  <SCORE.norm>
-0.611278

>  <RMSD>
5.263

$$$$
ligand
 OpenBabel11021811463D
libRbt.so/2013.1/901 2013/11/27
 10  9  0  0  0  0  0  0  0  0999 V2000
   24.8834   44.0226   19.7127 N   0  0  0  0  0  0  0  0  0  0  0  0
   25.6700   43.0340   18.9853 C   0  0  2  0  0  0  0  0  0  0  0  0
   24.8837   42.4769   17.7999 C   0  0  0  0  0  0  0  0  0  0  0  0
   23.6869   42.2044   17.9316 O   0  0  0  0  0  0  0  0  0  0  0  0
   26.1236   41.9073   19.9185 C   0  0  0  0  0  0  0  0  0  0  0  0
   24.9828   41.2646   20.6982 C   0  0  0  0  0  0  0  0  0  0  0  0
   25.4853   40.2816   21.7518 C   0  0  0  0  0  0  0  0  0  0  0  0
   24.3415   39.7331   22.6193 C   0  0  0  0  0  0  0  0  0  0  0  0
   23.3439   38.8992   21.8770 N   0  0  0  0  0  0  0  0  0  0  0  0
   25.4154   42.3035   16.6953 O   0  0  0  0  0  0  0  0  0  0  0  0
  2  1  1  1  0  0  0
  2  3  1  0  0  0  0
  2  5  1  0  0  0  0
  3  4  1  0  0  0  0
  3 10  1  0  0  0  0
  5  6  1  0  0  0  0
  6  7  1  0  0  0  0
  7  8  1  0  0  0  0
  8  9  1  0  0  0  0
M  END
>  <CHROM.1>
-41.85896662,53.04519703,-172.25421755,174.82202134,64.86824956,24.86695504
41.60819566,19.76354994,-1.35996612,0.90016891,2.03378599

>  <Name>
ligand

>  <RI>
0

>  <Rbt.Current_Directory>
/home/itssahil/PROJECTS/Mol_Feturizer/New_Systems/rnas/3D0U

>  <Rbt.Executable>
rbdock ($Id: //depot/dev/client3/rdock/2013.1/src/exe/rbdock.cxx#4 $)

>  <Rbt.Library>
libRbt.so (2013.1, Build901 2013/11/27)

>  <Rbt.Parameter_File>
/export/apps/rDock/src/rDock_2013.1_src/data/scripts/dock_solv.prm

>  <Rbt.Receptor>
prm/pocket_docking_3.prm

>  <SCORE>
-8.01814

>  <SCORE.INTER>
-8.03431

>  <SCORE.INTER.CONST>
1

>  <SCORE.INTER.POLAR>
0

>  <SCORE.INTER.ROT>
5

>  <SCORE.INTER.SOLV>
14.907

>  <SCORE.INTER.VDW>
-17.2585

>  <SCORE.INTER.norm>
-0.803431

>  <SCORE.INTRA>
0.0161695

>  <SCORE.INTRA.DIHEDRAL>
-0.069156

>  <SCORE.INTRA.DIHEDRAL.0>
2.22229

>  <SCORE.INTRA.POLAR>
0

>  <SCORE.INTRA.POLAR.0>
0

>  <SCORE.INTRA.REPUL>
0

>  <SCORE.INTRA.REPUL.0>
0

>  <SCORE.INTRA.SOLV>
0.200195

>  <SCORE.INTRA.SOLV.lig_0>
-31.87

>  <SCORE.INTRA.VDW>
-0.04935

>  <SCORE.INTRA.VDW.0>
-0.575321

>  <SCORE.INTRA.norm>
0.00161695

>  <SCORE.RESTR>
0

>  <SCORE.RESTR.CAVITY>
0

>  <SCORE.RESTR.norm>
0

>  <SCORE.SYSTEM>
0

>  <SCORE.SYSTEM.CONST>
0

>  <SCORE.SYSTEM.DIHEDRAL>
0

>  <SCORE.SYSTEM.SOLV>
0

>  <SCORE.SYSTEM.norm>
0

>  <SCORE.heavy>
10

>  <SCORE.norm>
-0.801814

>  <RMSD>
5.264

$$$$
ligand
 OpenBabel11021811463D
libRbt.so/2013.1/901 2013/11/27
 10  9  0  0  0  0  0  0  0  0999 V2000
   25.0668   44.5878   18.4600 N   0  0  0  0  0  0  0  0  0  0  0  0
   24.9933   43.2368   19.0029 C   0  0  2  0  0  0  0  0  0  0  0  0
   25.7714   42.2550   18.1286 C   0  0  0  0  0  0  0  0  0  0  0  0
   25.6333   42.2836   16.9022 O   0  0  0  0  0  0  0  0  0  0  0  0
   23.5357   42.7929   19.1594 C   0  0  0  0  0  0  0  0  0  0  0  0
   23.3843   41.3766   19.7012 C   0  0  0  0  0  0  0  0  0  0  0  0
   23.8844   41.2511   21.1375 C   0  0  0  0  0  0  0  0  0  0  0  0
   23.7847   39.8085   21.6579 C   0  0  0  0  0  0  0  0  0  0  0  0
   24.3059   39.6122   23.0477 N   0  0  0  0  0  0  0  0  0  0  0  0
   26.5562   41.4331   18.6200 O   0  0  0  0  0  0  0  0  0  0  0  0
  2  1  1  6  0  0  0
  2  3  1  0  0  0  0
  2  5  1  0  0  0  0
  3  4  1  0  0  0  0
  3 10  1  0  0  0  0
  5  6  1  0  0  0  0
  6  7  1  0  0  0  0
  7  8  1  0  0  0  0
  8  9  1  0  0  0  0
M  END
>  <CHROM.1>
-46.02274842,179.00291005,66.12542642,-177.56774046,177.96995019,24.71324705
41.84814359,19.55540194,1.19177729,0.68460290,-0.70696429

>  <Name>
ligand

>  <RI>
0

>  <Rbt.Current_Directory>
/home/itssahil/PROJECTS/Mol_Feturizer/New_Systems/rnas/3D0U

>  <Rbt.Executable>
rbdock ($Id: //depot/dev/client3/rdock/2013.1/src/exe/rbdock.cxx#4 $)

>  <Rbt.Library>
libRbt.so (2013.1, Build901 2013/11/27)

>  <Rbt.Parameter_File>
/export/apps/rDock/src/rDock_2013.1_src/data/scripts/dock_solv.prm

>  <Rbt.Receptor>
prm/pocket_docking_8.prm

>  <SCORE>
-9.17417

>  <SCORE.INTER>
-8.1772

>  <SCORE.INTER.CONST>
1

>  <SCORE.INTER.POLAR>
0

>  <SCORE.INTER.ROT>
5

>  <SCORE.INTER.SOLV>
15.1503

>  <SCORE.INTER.VDW>
-17.4349

>  <SCORE.INTER.norm>
-0.81772

>  <SCORE.INTRA>
-0.996963

>  <SCORE.INTRA.DIHEDRAL>
-0.523381

>  <SCORE.INTRA.DIHEDRAL.0>
2.22229

>  <SCORE.INTRA.POLAR>
0

>  <SCORE.INTRA.POLAR.0>
0

>  <SCORE.INTRA.REPUL>
0

>  <SCORE.INTRA.REPUL.0>
0

>  <SCORE.INTRA.SOLV>
-1.38003

>  <SCORE.INTRA.SOLV.lig_0>
-31.87

>  <SCORE.INTRA.VDW>
-0.0452576

>  <SCORE.INTRA.VDW.0>
-0.575321

>  <SCORE.INTRA.norm>
-0.0996963

>  <SCORE.RESTR>
0

>  <SCORE.RESTR.CAVITY>
0

>  <SCORE.RESTR.norm>
0

>  <SCORE.SYSTEM>
0

>  <SCORE.SYSTEM.CONST>
0

>  <SCORE.SYSTEM.DIHEDRAL>
0

>  <SCORE.SYSTEM.SOLV>
0

>  <SCORE.SYSTEM.norm>
0

>  <SCORE.heavy>
10

>  <SCORE.norm>
-0.917417

>  <RMSD>
5.264

$$$$
ligand
 OpenBabel11021811463D
libRbt.so/2013.1/901 2013/11/27
 10  9  0  0  0  0  0  0  0  0999 V2000
   25.1645   44.5430   18.6153 N   0  0  0  0  0  0  0  0  0  0  0  0
   25.0435   43.1659   19.0780 C   0  0  2  0  0  0  0  0  0  0  0  0
   25.7422   42.2049   18.1177 C   0  0  0  0  0  0  0  0  0  0  0  0
   25.5868   42.3341   16.8999 O   0  0  0  0  0  0  0  0  0  0  0  0
   23.5721   42.7818   19.2615 C   0  0  0  0  0  0  0  0  0  0  0  0
   23.3723   41.3645   19.7846 C   0  0  0  0  0  0  0  0  0  0  0  0
   23.9218   41.1875   21.1973 C   0  0  0  0  0  0  0  0  0  0  0  0
   23.7426   39.7494   21.7087 C   0  0  0  0  0  0  0  0  0  0  0  0
   24.2375   39.5199   23.1030 N   0  0  0  0  0  0  0  0  0  0  0  0
   26.4795   41.3002   18.5308 O   0  0  0  0  0  0  0  0  0  0  0  0
  2  1  1  6  0  0  0
  2  3  1  0  0  0  0
  2  5  1  0  0  0  0
  3  4  1  0  0  0  0
  3 10  1  0  0  0  0
  5  6  1  0  0  0  0
  6  7  1  0  0  0  0
  7  8  1  0  0  0  0
  8  9  1  0  0  0  0
M  END
>  <CHROM.1>
-44.45359067,-178.28371073,65.08296415,-178.86492765,-178.78459520,24.70630327
41.79990694,19.60132084,1.14880001,0.76549988,-0.65369233

>  <Name>
ligand

>  <RI>
0

>  <Rbt.Current_Directory>
/home/itssahil/PROJECTS/Mol_Feturizer/New_Systems/rnas/3D0U

>  <Rbt.Executable>
rbdock ($Id: //depot/dev/client3/rdock/2013.1/src/exe/rbdock.cxx#4 $)

>  <Rbt.Library>
libRbt.so (2013.1, Build901 2013/11/27)

>  <Rbt.Parameter_File>
/export/apps/rDock/src/rDock_2013.1_src/data/scripts/dock_solv.prm

>  <Rbt.Receptor>
prm/pocket_docking_7.prm

>  <SCORE>
-9.23003

>  <SCORE.INTER>
-8.17687

>  <SCORE.INTER.CONST>
1

>  <SCORE.INTER.POLAR>
0

>  <SCORE.INTER.ROT>
5

>  <SCORE.INTER.SOLV>
14.8551

>  <SCORE.INTER.VDW>
-17.3363

>  <SCORE.INTER.norm>
-0.817687

>  <SCORE.INTRA>
-1.05331

>  <SCORE.INTRA.DIHEDRAL>
-0.596157

>  <SCORE.INTRA.DIHEDRAL.0>
2.22229

>  <SCORE.INTRA.POLAR>
0

>  <SCORE.INTRA.POLAR.0>
0

>  <SCORE.INTRA.REPUL>
0

>  <SCORE.INTRA.REPUL.0>
0

>  <SCORE.INTRA.SOLV>
-1.35956

>  <SCORE.INTRA.SOLV.lig_0>
-31.87

>  <SCORE.INTRA.VDW>
-0.0754471

>  <SCORE.INTRA.VDW.0>
-0.575321

>  <SCORE.INTRA.norm>
-0.105331

>  <SCORE.RESTR>
0.000146884

>  <SCORE.RESTR.CAVITY>
0.000146884

>  <SCORE.RESTR.norm>
1.46884e-05

>  <SCORE.SYSTEM>
0

>  <SCORE.SYSTEM.CONST>
0

>  <SCORE.SYSTEM.DIHEDRAL>
0

>  <SCORE.SYSTEM.SOLV>
0

>  <SCORE.SYSTEM.norm>
0

>  <SCORE.heavy>
10

>  <SCORE.norm>
-0.923003

>  <RMSD>
5.265

$$$$
ligand
 OpenBabel11021811463D
libRbt.so/2013.1/901 2013/11/27
 10  9  0  0  0  0  0  0  0  0999 V2000
   25.2933   42.5834   16.9052 N   0  0  0  0  0  0  0  0  0  0  0  0
   24.5933   42.3739   18.1667 C   0  0  2  0  0  0  0  0  0  0  0  0
   24.3835   43.6975   18.9000 C   0  0  0  0  0  0  0  0  0  0  0  0
   25.3404   44.4558   19.0823 O   0  0  0  0  0  0  0  0  0  0  0  0
   25.3491   41.3745   19.0477 C   0  0  0  0  0  0  0  0  0  0  0  0
   24.5647   40.9293   20.2761 C   0  0  0  0  0  0  0  0  0  0  0  0
   24.6307   41.9531   21.4058 C   0  0  0  0  0  0  0  0  0  0  0  0
   23.7999   41.5204   22.6241 C   0  0  0  0  0  0  0  0  0  0  0  0
   24.1847   40.1922   23.1982 N   0  0  0  0  0  0  0  0  0  0  0  0
   23.2660   44.0410   19.3075 O   0  0  0  0  0  0  0  0  0  0  0  0
  2  1  1  6  0  0  0
  2  3  1  0  0  0  0
  2  5  1  0  0  0  0
  3  4  1  0  0  0  0
  3 10  1  0  0  0  0
  5  6  1  0  0  0  0
  6  7  1  0  0  0  0
  7  8  1  0  0  0  0
  8  9  1  0  0  0  0
M  END
>  <CHROM.1>
-51.02471450,-170.33855196,-80.36462829,178.10288699,57.32047127,24.53572724
42.34625684,19.89832868,-1.24351691,-1.16804377,2.38814932

>  <Name>
ligand

>  <RI>
0

>  <Rbt.Current_Directory>
/home/itssahil/PROJECTS/Mol_Feturizer/New_Systems/rnas/3D0U

>  <Rbt.Executable>
rbdock ($Id: //depot/dev/client3/rdock/2013.1/src/exe/rbdock.cxx#4 $)

>  <Rbt.Library>
libRbt.so (2013.1, Build901 2013/11/27)

>  <Rbt.Parameter_File>
/export/apps/rDock/src/rDock_2013.1_src/data/scripts/dock_solv.prm

>  <Rbt.Receptor>
prm/pocket_docking_4.prm

>  <SCORE>
-6.68686

>  <SCORE.INTER>
-6.80259

>  <SCORE.INTER.CONST>
1

>  <SCORE.INTER.POLAR>
0

>  <SCORE.INTER.ROT>
5

>  <SCORE.INTER.SOLV>
16.6927

>  <SCORE.INTER.VDW>
-17.0326

>  <SCORE.INTER.norm>
-0.680259

>  <SCORE.INTRA>
0.115734

>  <SCORE.INTRA.DIHEDRAL>
1.23785

>  <SCORE.INTRA.DIHEDRAL.0>
2.22229

>  <SCORE.INTRA.POLAR>
0

>  <SCORE.INTRA.POLAR.0>
0

>  <SCORE.INTRA.REPUL>
0

>  <SCORE.INTRA.REPUL.0>
0

>  <SCORE.INTRA.SOLV>
-0.589657

>  <SCORE.INTRA.SOLV.lig_0>
-31.87

>  <SCORE.INTRA.VDW>
-0.208362

>  <SCORE.INTRA.VDW.0>
-0.575321

>  <SCORE.INTRA.norm>
0.0115734

>  <SCORE.RESTR>
0

>  <SCORE.RESTR.CAVITY>
0

>  <SCORE.RESTR.norm>
0

>  <SCORE.SYSTEM>
0

>  <SCORE.SYSTEM.CONST>
0

>  <SCORE.SYSTEM.DIHEDRAL>
0

>  <SCORE.SYSTEM.SOLV>
0

>  <SCORE.SYSTEM.norm>
0

>  <SCORE.heavy>
10

>  <SCORE.norm>
-0.668686

>  <RMSD>
5.279

$$$$
ligand
 OpenBabel11021811463D
libRbt.so/2013.1/901 2013/11/27
 10  9  0  0  0  0  0  0  0  0999 V2000
   24.5144   42.8170   16.9003 N   0  0  0  0  0  0  0  0  0  0  0  0
   24.7200   42.7083   18.3394 C   0  0  2  0  0  0  0  0  0  0  0  0
   24.7711   44.0901   18.9888 C   0  0  0  0  0  0  0  0  0  0  0  0
   24.5109   44.2135   20.1892 O   0  0  0  0  0  0  0  0  0  0  0  0
   25.9918   41.9121   18.6477 C   0  0  0  0  0  0  0  0  0  0  0  0
   26.0944   41.4653   20.1011 C   0  0  0  0  0  0  0  0  0  0  0  0
   25.0298   40.4342   20.4649 C   0  0  0  0  0  0  0  0  0  0  0  0
   25.0226   40.1204   21.9693 C   0  0  0  0  0  0  0  0  0  0  0  0
   24.4921   41.2237   22.8312 N   0  0  0  0  0  0  0  0  0  0  0  0
   25.0840   45.0978   18.3411 O   0  0  0  0  0  0  0  0  0  0  0  0
  2  1  1  6  0  0  0
  2  3  1  0  0  0  0
  2  5  1  0  0  0  0
  3  4  1  0  0  0  0
  3 10  1  0  0  0  0
  5  6  1  0  0  0  0
  6  7  1  0  0  0  0
  7  8  1  0  0  0  0
  8  9  1  0  0  0  0
M  END
>  <CHROM.1>
156.85760946,-165.86547508,66.99905598,-172.74637518,71.41396710,25.02272571
42.44501789,19.68511700,-1.68851189,-1.33239019,2.19912740

>  <Name>
ligand

>  <RI>
0

>  <Rbt.Current_Directory>
/home/itssahil/PROJECTS/Mol_Feturizer/New_Systems/rnas/3D0U

>  <Rbt.Executable>
rbdock ($Id: //depot/dev/client3/rdock/2013.1/src/exe/rbdock.cxx#4 $)

>  <Rbt.Library>
libRbt.so (2013.1, Build901 2013/11/27)

>  <Rbt.Parameter_File>
/export/apps/rDock/src/rDock_2013.1_src/data/scripts/dock_solv.prm

>  <Rbt.Receptor>
prm/pocket_docking_6.prm

>  <SCORE>
-7.92272

>  <SCORE.INTER>
-7.84346

>  <SCORE.INTER.CONST>
1

>  <SCORE.INTER.POLAR>
0

>  <SCORE.INTER.ROT>
5

>  <SCORE.INTER.SOLV>
17.481

>  <SCORE.INTER.VDW>
-17.9893

>  <SCORE.INTER.norm>
-0.784346

>  <SCORE.INTRA>
-0.0792599

>  <SCORE.INTRA.DIHEDRAL>
0.861388

>  <SCORE.INTRA.DIHEDRAL.0>
2.22229

>  <SCORE.INTRA.POLAR>
0

>  <SCORE.INTRA.POLAR.0>
0

>  <SCORE.INTRA.REPUL>
0

>  <SCORE.INTRA.REPUL.0>
0

>  <SCORE.INTRA.SOLV>
-0.5011

>  <SCORE.INTRA.SOLV.lig_0>
-31.87

>  <SCORE.INTRA.VDW>
-0.259404

>  <SCORE.INTRA.VDW.0>
-0.575321

>  <SCORE.INTRA.norm>
-0.00792599

>  <SCORE.RESTR>
0

>  <SCORE.RESTR.CAVITY>
0

>  <SCORE.RESTR.norm>
0

>  <SCORE.SYSTEM>
0

>  <SCORE.SYSTEM.CONST>
0

>  <SCORE.SYSTEM.DIHEDRAL>
0

>  <SCORE.SYSTEM.SOLV>
0

>  <SCORE.SYSTEM.norm>
0

>  <SCORE.heavy>
10

>  <SCORE.norm>
-0.792272

>  <RMSD>
5.279

$$$$
ligand
 OpenBabel11021811463D
libRbt.so/2013.1/901 2013/11/27
 10  9  0  0  0  0  0  0  0  0999 V2000
   26.2259   41.5537   17.4261 N   0  0  0  0  0  0  0  0  0  0  0  0
   25.4078   41.4742   18.6300 C   0  0  2  0  0  0  0  0  0  0  0  0
   24.2132   42.4223   18.5408 C   0  0  0  0  0  0  0  0  0  0  0  0
   24.3712   43.5690   18.1119 O   0  0  0  0  0  0  0  0  0  0  0  0
   26.2470   41.7680   19.8773 C   0  0  0  0  0  0  0  0  0  0  0  0
   25.4636   41.6564   21.1797 C   0  0  0  0  0  0  0  0  0  0  0  0
   24.9932   40.2301   21.4503 C   0  0  0  0  0  0  0  0  0  0  0  0
   24.2025   40.1241   22.7639 C   0  0  0  0  0  0  0  0  0  0  0  0
   23.6655   38.7576   23.0570 N   0  0  0  0  0  0  0  0  0  0  0  0
   23.0766   42.0638   18.8762 O   0  0  0  0  0  0  0  0  0  0  0  0
  2  1  1  6  0  0  0
  2  3  1  0  0  0  0
  2  5  1  0  0  0  0
  3  4  1  0  0  0  0
  3 10  1  0  0  0  0
  5  6  1  0  0  0  0
  6  7  1  0  0  0  0
  7  8  1  0  0  0  0
  8  9  1  0  0  0  0
M  END
>  <CHROM.1>
-43.64981624,-178.07235586,65.24513847,-179.92995622,177.62545874,24.76067147
41.38697411,19.97983242,-1.44326097,-0.19699909,2.15725136

>  <Name>
ligand

>  <RI>
0

>  <Rbt.Current_Directory>
/home/itssahil/PROJECTS/Mol_Feturizer/New_Systems/rnas/3D0U

>  <Rbt.Executable>
rbdock ($Id: //depot/dev/client3/rdock/2013.1/src/exe/rbdock.cxx#4 $)

>  <Rbt.Library>
libRbt.so (2013.1, Build901 2013/11/27)

>  <Rbt.Parameter_File>
/export/apps/rDock/src/rDock_2013.1_src/data/scripts/dock_solv.prm

>  <Rbt.Receptor>
prm/blind_docking_60.prm

>  <SCORE>
-8.17626

>  <SCORE.INTER>
-7.12991

>  <SCORE.INTER.CONST>
1

>  <SCORE.INTER.POLAR>
0

>  <SCORE.INTER.ROT>
5

>  <SCORE.INTER.SOLV>
18.9085

>  <SCORE.INTER.VDW>
-17.9894

>  <SCORE.INTER.norm>
-0.712991

>  <SCORE.INTRA>
-1.04635

>  <SCORE.INTRA.DIHEDRAL>
-0.575261

>  <SCORE.INTRA.DIHEDRAL.0>
2.22229

>  <SCORE.INTRA.POLAR>
0

>  <SCORE.INTRA.POLAR.0>
0

>  <SCORE.INTRA.REPUL>
0

>  <SCORE.INTRA.REPUL.0>
0

>  <SCORE.INTRA.SOLV>
-1.35882

>  <SCORE.INTRA.SOLV.lig_0>
-31.87

>  <SCORE.INTRA.VDW>
-0.0793063

>  <SCORE.INTRA.VDW.0>
-0.575321

>  <SCORE.INTRA.norm>
-0.104635

>  <SCORE.RESTR>
0

>  <SCORE.RESTR.CAVITY>
0

>  <SCORE.RESTR.norm>
0

>  <SCORE.SYSTEM>
0

>  <SCORE.SYSTEM.CONST>
0

>  <SCORE.SYSTEM.DIHEDRAL>
0

>  <SCORE.SYSTEM.SOLV>
0

>  <SCORE.SYSTEM.norm>
0

>  <SCORE.heavy>
10

>  <SCORE.norm>
-0.817626

>  <RMSD>
5.280

$$$$
ligand
 OpenBabel11021811463D
libRbt.so/2013.1/901 2013/11/27
 10  9  0  0  0  0  0  0  0  0999 V2000
   25.4162   42.2976   16.9008 N   0  0  0  0  0  0  0  0  0  0  0  0
   24.9774   42.0488   18.2686 C   0  0  2  0  0  0  0  0  0  0  0  0
   24.1107   43.1980   18.7805 C   0  0  0  0  0  0  0  0  0  0  0  0
   23.0244   42.9559   19.3146 O   0  0  0  0  0  0  0  0  0  0  0  0
   26.1784   41.8171   19.1906 C   0  0  0  0  0  0  0  0  0  0  0  0
   25.7970   41.6337   20.6546 C   0  0  0  0  0  0  0  0  0  0  0  0
   25.0198   40.3418   20.8914 C   0  0  0  0  0  0  0  0  0  0  0  0
   24.6384   40.1622   22.3692 C   0  0  0  0  0  0  0  0  0  0  0  0
   23.8653   38.9142   22.6638 N   0  0  0  0  0  0  0  0  0  0  0  0
   24.4784   44.3765   18.6872 O   0  0  0  0  0  0  0  0  0  0  0  0
  2  1  1  6  0  0  0
  2  3  1  0  0  0  0
  2  5  1  0  0  0  0
  3  4  1  0  0  0  0
  3 10  1  0  0  0  0
  5  6  1  0  0  0  0
  6  7  1  0  0  0  0
  7  8  1  0  0  0  0
  8  9  1  0  0  0  0
M  END
>  <CHROM.1>
130.54285832,176.51387957,67.15746506,179.98511561,179.64408752,24.73022728
41.80550688,19.77546351,-1.53015013,-0.58652381,2.30600626

>  <Name>
ligand

>  <RI>
0

>  <Rbt.Current_Directory>
/home/itssahil/PROJECTS/Mol_Feturizer/New_Systems/rnas/3D0U

>  <Rbt.Executable>
rbdock ($Id: //depot/dev/client3/rdock/2013.1/src/exe/rbdock.cxx#4 $)

>  <Rbt.Library>
libRbt.so (2013.1, Build901 2013/11/27)

>  <Rbt.Parameter_File>
/export/apps/rDock/src/rDock_2013.1_src/data/scripts/dock_solv.prm

>  <Rbt.Receptor>
prm/blind_docking_60.prm

>  <SCORE>
-8.27228

>  <SCORE.INTER>
-7.29432

>  <SCORE.INTER.CONST>
1

>  <SCORE.INTER.POLAR>
0

>  <SCORE.INTER.ROT>
5

>  <SCORE.INTER.SOLV>
17.6395

>  <SCORE.INTER.VDW>
-17.6761

>  <SCORE.INTER.norm>
-0.729432

>  <SCORE.INTRA>
-0.977964

>  <SCORE.INTRA.DIHEDRAL>
-0.492817

>  <SCORE.INTRA.DIHEDRAL.0>
2.22229

>  <SCORE.INTRA.POLAR>
0

>  <SCORE.INTRA.POLAR.0>
0

>  <SCORE.INTRA.REPUL>
0

>  <SCORE.INTRA.REPUL.0>
0

>  <SCORE.INTRA.SOLV>
-1.41326

>  <SCORE.INTRA.SOLV.lig_0>
-31.87

>  <SCORE.INTRA.VDW>
-0.0249272

>  <SCORE.INTRA.VDW.0>
-0.575321

>  <SCORE.INTRA.norm>
-0.0977964

>  <SCORE.RESTR>
0

>  <SCORE.RESTR.CAVITY>
0

>  <SCORE.RESTR.norm>
0

>  <SCORE.SYSTEM>
0

>  <SCORE.SYSTEM.CONST>
0

>  <SCORE.SYSTEM.DIHEDRAL>
0

>  <SCORE.SYSTEM.SOLV>
0

>  <SCORE.SYSTEM.norm>
0

>  <SCORE.heavy>
10

>  <SCORE.norm>
-0.827228

>  <RMSD>
5.284

$$$$
ligand
 OpenBabel11021811463D
libRbt.so/2013.1/901 2013/11/27
 10  9  0  0  0  0  0  0  0  0999 V2000
   24.6963   43.8420   19.1605 N   0  0  0  0  0  0  0  0  0  0  0  0
   25.6986   42.7847   19.2107 C   0  0  2  0  0  0  0  0  0  0  0  0
   25.7108   41.9830   17.9103 C   0  0  0  0  0  0  0  0  0  0  0  0
   26.3188   40.9099   17.8572 O   0  0  0  0  0  0  0  0  0  0  0  0
   25.4621   41.8688   20.4154 C   0  0  0  0  0  0  0  0  0  0  0  0
   24.1030   41.1796   20.4002 C   0  0  0  0  0  0  0  0  0  0  0  0
   23.8746   40.3253   21.6439 C   0  0  0  0  0  0  0  0  0  0  0  0
   23.7659   41.1794   22.9169 C   0  0  0  0  0  0  0  0  0  0  0  0
   23.5527   40.3953   24.1745 N   0  0  0  0  0  0  0  0  0  0  0  0
   25.1089   42.3764   16.9025 O   0  0  0  0  0  0  0  0  0  0  0  0
  2  1  1  6  0  0  0
  2  3  1  0  0  0  0
  2  5  1  0  0  0  0
  3  4  1  0  0  0  0
  3 10  1  0  0  0  0
  5  6  1  0  0  0  0
  6  7  1  0  0  0  0
  7  8  1  0  0  0  0
  8  9  1  0  0  0  0
M  END
>  <CHROM.1>
-167.12257379,60.07465991,-177.41062135,66.78541861,-179.50038202,24.83529261
41.67103424,20.02061721,0.64190302,1.16341856,-0.39930974

>  <Name>
ligand

>  <RI>
0

>  <Rbt.Current_Directory>
/home/itssahil/PROJECTS/Mol_Feturizer/New_Systems/rnas/3D0U

>  <Rbt.Executable>
rbdock ($Id: //depot/dev/client3/rdock/2013.1/src/exe/rbdock.cxx#4 $)

>  <Rbt.Library>
libRbt.so (2013.1, Build901 2013/11/27)

>  <Rbt.Parameter_File>
/export/apps/rDock/src/rDock_2013.1_src/data/scripts/dock_solv.prm

>  <Rbt.Receptor>
prm/pocket_docking_8.prm

>  <SCORE>
-8.84343

>  <SCORE.INTER>
-9.17563

>  <SCORE.INTER.CONST>
1

>  <SCORE.INTER.POLAR>
0

>  <SCORE.INTER.ROT>
5

>  <SCORE.INTER.SOLV>
13.5577

>  <SCORE.INTER.VDW>
-17.5697

>  <SCORE.INTER.norm>
-0.917563

>  <SCORE.INTRA>
0.3322

>  <SCORE.INTRA.DIHEDRAL>
-0.506905

>  <SCORE.INTRA.DIHEDRAL.0>
2.22229

>  <SCORE.INTRA.POLAR>
0

>  <SCORE.INTRA.POLAR.0>
0

>  <SCORE.INTRA.REPUL>
0

>  <SCORE.INTRA.REPUL.0>
0

>  <SCORE.INTRA.SOLV>
-0.499585

>  <SCORE.INTRA.SOLV.lig_0>
-31.87

>  <SCORE.INTRA.VDW>
0.835445

>  <SCORE.INTRA.VDW.0>
-0.575321

>  <SCORE.INTRA.norm>
0.03322

>  <SCORE.RESTR>
0

>  <SCORE.RESTR.CAVITY>
0

>  <SCORE.RESTR.norm>
0

>  <SCORE.SYSTEM>
0

>  <SCORE.SYSTEM.CONST>
0

>  <SCORE.SYSTEM.DIHEDRAL>
0

>  <SCORE.SYSTEM.SOLV>
0

>  <SCORE.SYSTEM.norm>
0

>  <SCORE.heavy>
10

>  <SCORE.norm>
-0.884343

>  <RMSD>
5.288

$$$$
ligand
 OpenBabel11021811463D
libRbt.so/2013.1/901 2013/11/27
 10  9  0  0  0  0  0  0  0  0999 V2000
   25.4143   42.3474   16.9230 N   0  0  0  0  0  0  0  0  0  0  0  0
   24.9573   42.1334   18.2907 C   0  0  2  0  0  0  0  0  0  0  0  0
   24.0994   43.3037   18.7681 C   0  0  0  0  0  0  0  0  0  0  0  0
   23.0153   43.0855   19.3169 O   0  0  0  0  0  0  0  0  0  0  0  0
   26.1450   41.9068   19.2310 C   0  0  0  0  0  0  0  0  0  0  0  0
   25.7462   41.7712   20.6956 C   0  0  0  0  0  0  0  0  0  0  0  0
   24.9188   40.5154   20.9550 C   0  0  0  0  0  0  0  0  0  0  0  0
   24.5869   40.3425   22.4456 C   0  0  0  0  0  0  0  0  0  0  0  0
   23.7742   39.1259   22.7637 N   0  0  0  0  0  0  0  0  0  0  0  0
   24.4721   44.4765   18.6321 O   0  0  0  0  0  0  0  0  0  0  0  0
  2  1  1  6  0  0  0
  2  3  1  0  0  0  0
  2  5  1  0  0  0  0
  3  4  1  0  0  0  0
  3 10  1  0  0  0  0
  5  6  1  0  0  0  0
  6  7  1  0  0  0  0
  7  8  1  0  0  0  0
  8  9  1  0  0  0  0
M  END
>  <CHROM.1>
131.86388578,176.02223510,65.94438155,176.78095820,179.95867363,24.69291286
41.93202954,19.80459205,-1.51273108,-0.59222864,2.28899148

>  <Name>
ligand

>  <RI>
0

>  <Rbt.Current_Directory>
/home/itssahil/PROJECTS/Mol_Feturizer/New_Systems/rnas/3D0U

>  <Rbt.Executable>
rbdock ($Id: //depot/dev/client3/rdock/2013.1/src/exe/rbdock.cxx#4 $)

>  <Rbt.Library>
libRbt.so (2013.1, Build901 2013/11/27)

>  <Rbt.Parameter_File>
/export/apps/rDock/src/rDock_2013.1_src/data/scripts/dock_solv.prm

>  <Rbt.Receptor>
prm/blind_docking_60.prm

>  <SCORE>
-8.27493

>  <SCORE.INTER>
-7.32924

>  <SCORE.INTER.CONST>
1

>  <SCORE.INTER.POLAR>
0

>  <SCORE.INTER.ROT>
5

>  <SCORE.INTER.SOLV>
17.2718

>  <SCORE.INTER.VDW>
-17.5768

>  <SCORE.INTER.norm>
-0.732924

>  <SCORE.INTRA>
-0.945691

>  <SCORE.INTRA.DIHEDRAL>
-0.501782

>  <SCORE.INTRA.DIHEDRAL.0>
2.22229

>  <SCORE.INTRA.POLAR>
0

>  <SCORE.INTRA.POLAR.0>
0

>  <SCORE.INTRA.REPUL>
0

>  <SCORE.INTRA.REPUL.0>
0

>  <SCORE.INTRA.SOLV>
-1.40892

>  <SCORE.INTRA.SOLV.lig_0>
-31.87

>  <SCORE.INTRA.VDW>
0.00966224

>  <SCORE.INTRA.VDW.0>
-0.575321

>  <SCORE.INTRA.norm>
-0.0945691

>  <SCORE.RESTR>
0

>  <SCORE.RESTR.CAVITY>
0

>  <SCORE.RESTR.norm>
0

>  <SCORE.SYSTEM>
0

>  <SCORE.SYSTEM.CONST>
0

>  <SCORE.SYSTEM.DIHEDRAL>
0

>  <SCORE.SYSTEM.SOLV>
0

>  <SCORE.SYSTEM.norm>
0

>  <SCORE.heavy>
10

>  <SCORE.norm>
-0.827493

>  <RMSD>
5.296

$$$$
ligand
 OpenBabel11021811463D
libRbt.so/2013.1/901 2013/11/27
 10  9  0  0  0  0  0  0  0  0999 V2000
   25.1323   44.7454   18.4991 N   0  0  0  0  0  0  0  0  0  0  0  0
   25.4367   43.4132   19.0067 C   0  0  2  0  0  0  0  0  0  0  0  0
   25.0968   42.3439   17.9699 C   0  0  0  0  0  0  0  0  0  0  0  0
   25.9595   41.5333   17.6197 O   0  0  0  0  0  0  0  0  0  0  0  0
   24.6989   43.1519   20.3234 C   0  0  0  0  0  0  0  0  0  0  0  0
   25.0432   41.8107   20.9598 C   0  0  0  0  0  0  0  0  0  0  0  0
   24.3383   41.6087   22.2983 C   0  0  0  0  0  0  0  0  0  0  0  0
   24.5626   40.1957   22.8594 C   0  0  0  0  0  0  0  0  0  0  0  0
   23.9889   39.0961   22.0207 N   0  0  0  0  0  0  0  0  0  0  0  0
   23.9643   42.2577   17.4773 O   0  0  0  0  0  0  0  0  0  0  0  0
  2  1  1  6  0  0  0
  2  3  1  0  0  0  0
  2  5  1  0  0  0  0
  3  4  1  0  0  0  0
  3 10  1  0  0  0  0
  5  6  1  0  0  0  0
  6  7  1  0  0  0  0
  7  8  1  0  0  0  0
  8  9  1  0  0  0  0
M  END
>  <CHROM.1>
125.43274833,-176.17636934,177.51808535,173.60520541,-63.80119309,24.81780818
41.99766007,19.87153002,-0.15722205,1.42795908,0.72972790

>  <Name>
ligand

>  <RI>
0

>  <Rbt.Current_Directory>
/home/itssahil/PROJECTS/Mol_Feturizer/New_Systems/rnas/3D0U

>  <Rbt.Executable>
rbdock ($Id: //depot/dev/client3/rdock/2013.1/src/exe/rbdock.cxx#4 $)

>  <Rbt.Library>
libRbt.so (2013.1, Build901 2013/11/27)

>  <Rbt.Parameter_File>
/export/apps/rDock/src/rDock_2013.1_src/data/scripts/dock_solv.prm

>  <Rbt.Receptor>
prm/pocket_docking_8.prm

>  <SCORE>
-8.17385

>  <SCORE.INTER>
-7.35632

>  <SCORE.INTER.CONST>
1

>  <SCORE.INTER.POLAR>
0

>  <SCORE.INTER.ROT>
5

>  <SCORE.INTER.SOLV>
15.0761

>  <SCORE.INTER.VDW>
-16.8629

>  <SCORE.INTER.norm>
-0.735632

>  <SCORE.INTRA>
-0.817533

>  <SCORE.INTRA.DIHEDRAL>
-0.450757

>  <SCORE.INTRA.DIHEDRAL.0>
2.22229

>  <SCORE.INTRA.POLAR>
0

>  <SCORE.INTRA.POLAR.0>
0

>  <SCORE.INTRA.REPUL>
0

>  <SCORE.INTRA.REPUL.0>
0

>  <SCORE.INTRA.SOLV>
-0.748059

>  <SCORE.INTRA.SOLV.lig_0>
-31.87

>  <SCORE.INTRA.VDW>
-0.218125

>  <SCORE.INTRA.VDW.0>
-0.575321

>  <SCORE.INTRA.norm>
-0.0817533

>  <SCORE.RESTR>
0

>  <SCORE.RESTR.CAVITY>
0

>  <SCORE.RESTR.norm>
0

>  <SCORE.SYSTEM>
0

>  <SCORE.SYSTEM.CONST>
0

>  <SCORE.SYSTEM.DIHEDRAL>
0

>  <SCORE.SYSTEM.SOLV>
0

>  <SCORE.SYSTEM.norm>
0

>  <SCORE.heavy>
10

>  <SCORE.norm>
-0.817385

>  <RMSD>
5.304

$$$$
ligand
 OpenBabel11021811463D
libRbt.so/2013.1/901 2013/11/27
 10  9  0  0  0  0  0  0  0  0999 V2000
   24.2115   43.6435   20.1245 N   0  0  0  0  0  0  0  0  0  0  0  0
   24.9867   42.5894   19.4817 C   0  0  2  0  0  0  0  0  0  0  0  0
   25.4132   43.0070   18.0754 C   0  0  0  0  0  0  0  0  0  0  0  0
   25.5844   44.2016   17.8160 O   0  0  0  0  0  0  0  0  0  0  0  0
   24.1958   41.2781   19.4464 C   0  0  0  0  0  0  0  0  0  0  0  0
   23.7428   40.8018   20.8212 C   0  0  0  0  0  0  0  0  0  0  0  0
   24.9173   40.4018   21.7097 C   0  0  0  0  0  0  0  0  0  0  0  0
   24.4508   39.8246   23.0554 C   0  0  0  0  0  0  0  0  0  0  0  0
   23.6488   40.7718   23.8929 N   0  0  0  0  0  0  0  0  0  0  0  0
   25.6086   42.1704   17.1838 O   0  0  0  0  0  0  0  0  0  0  0  0
  2  1  1  6  0  0  0
  2  3  1  0  0  0  0
  2  5  1  0  0  0  0
  3  4  1  0  0  0  0
  3 10  1  0  0  0  0
  5  6  1  0  0  0  0
  6  7  1  0  0  0  0
  7  8  1  0  0  0  0
  8  9  1  0  0  0  0
M  END
>  <CHROM.1>
28.79775666,-56.58852560,-66.52535473,-175.75962876,-61.09731740,24.68918885
41.88433027,20.12042995,0.71994010,1.27850497,-0.22438321

>  <Name>
ligand

>  <RI>
0

>  <Rbt.Current_Directory>
/home/itssahil/PROJECTS/Mol_Feturizer/New_Systems/rnas/3D0U

>  <Rbt.Executable>
rbdock ($Id: //depot/dev/client3/rdock/2013.1/src/exe/rbdock.cxx#4 $)

>  <Rbt.Library>
libRbt.so (2013.1, Build901 2013/11/27)

>  <Rbt.Parameter_File>
/export/apps/rDock/src/rDock_2013.1_src/data/scripts/dock_solv.prm

>  <Rbt.Receptor>
prm/pocket_docking_3.prm

>  <SCORE>
-5.59877

>  <SCORE.INTER>
-6.34792

>  <SCORE.INTER.CONST>
1

>  <SCORE.INTER.POLAR>
0

>  <SCORE.INTER.ROT>
5

>  <SCORE.INTER.SOLV>
12.7128

>  <SCORE.INTER.VDW>
-15.4029

>  <SCORE.INTER.norm>
-0.634792

>  <SCORE.INTRA>
0.745246

>  <SCORE.INTRA.DIHEDRAL>
-0.479348

>  <SCORE.INTRA.DIHEDRAL.0>
2.22229

>  <SCORE.INTRA.POLAR>
0

>  <SCORE.INTRA.POLAR.0>
0

>  <SCORE.INTRA.REPUL>
0

>  <SCORE.INTRA.REPUL.0>
0

>  <SCORE.INTRA.SOLV>
0.718251

>  <SCORE.INTRA.SOLV.lig_0>
-31.87

>  <SCORE.INTRA.VDW>
0.625794

>  <SCORE.INTRA.VDW.0>
-0.575321

>  <SCORE.INTRA.norm>
0.0745246

>  <SCORE.RESTR>
0.00390456

>  <SCORE.RESTR.CAVITY>
0.00390456

>  <SCORE.RESTR.norm>
0.000390456

>  <SCORE.SYSTEM>
0

>  <SCORE.SYSTEM.CONST>
0

>  <SCORE.SYSTEM.DIHEDRAL>
0

>  <SCORE.SYSTEM.SOLV>
0

>  <SCORE.SYSTEM.norm>
0

>  <SCORE.heavy>
10

>  <SCORE.norm>
-0.559877

>  <RMSD>
5.309

$$$$
ligand
 OpenBabel11021811463D
libRbt.so/2013.1/901 2013/11/27
 10  9  0  0  0  0  0  0  0  0999 V2000
   25.4035   42.2980   16.9055 N   0  0  0  0  0  0  0  0  0  0  0  0
   24.9779   42.1176   18.2880 C   0  0  2  0  0  0  0  0  0  0  0  0
   24.1811   43.3266   18.7752 C   0  0  0  0  0  0  0  0  0  0  0  0
   23.0758   43.1616   19.2995 O   0  0  0  0  0  0  0  0  0  0  0  0
   26.1823   41.8543   19.1971 C   0  0  0  0  0  0  0  0  0  0  0  0
   25.8116   41.6774   20.6646 C   0  0  0  0  0  0  0  0  0  0  0  0
   24.9861   40.4163   20.9039 C   0  0  0  0  0  0  0  0  0  0  0  0
   24.6136   40.2444   22.3849 C   0  0  0  0  0  0  0  0  0  0  0  0
   23.7728   39.0408   22.6782 N   0  0  0  0  0  0  0  0  0  0  0  0
   24.6245   44.4779   18.6712 O   0  0  0  0  0  0  0  0  0  0  0  0
  2  1  1  6  0  0  0
  2  3  1  0  0  0  0
  2  5  1  0  0  0  0
  3  4  1  0  0  0  0
  3 10  1  0  0  0  0
  5  6  1  0  0  0  0
  6  7  1  0  0  0  0
  7  8  1  0  0  0  0
  8  9  1  0  0  0  0
M  END
>  <CHROM.1>
128.39425944,179.09392658,66.25083090,-179.91435115,178.53565392,24.74423703
41.89380993,19.77962845,-1.50771722,-0.62654734,2.32004765

>  <Name>
ligand

>  <RI>
0

>  <Rbt.Current_Directory>
/home/itssahil/PROJECTS/Mol_Feturizer/New_Systems/rnas/3D0U

>  <Rbt.Executable>
rbdock ($Id: //depot/dev/client3/rdock/2013.1/src/exe/rbdock.cxx#4 $)

>  <Rbt.Library>
libRbt.so (2013.1, Build901 2013/11/27)

>  <Rbt.Parameter_File>
/export/apps/rDock/src/rDock_2013.1_src/data/scripts/dock_solv.prm

>  <Rbt.Receptor>
prm/pocket_docking_8.prm

>  <SCORE>
-8.34954

>  <SCORE.INTER>
-7.29948

>  <SCORE.INTER.CONST>
1

>  <SCORE.INTER.POLAR>
0

>  <SCORE.INTER.ROT>
5

>  <SCORE.INTER.SOLV>
17.4773

>  <SCORE.INTER.VDW>
-17.6254

>  <SCORE.INTER.norm>
-0.729948

>  <SCORE.INTRA>
-1.05007

>  <SCORE.INTRA.DIHEDRAL>
-0.581414

>  <SCORE.INTRA.DIHEDRAL.0>
2.22229

>  <SCORE.INTRA.POLAR>
0

>  <SCORE.INTRA.POLAR.0>
0

>  <SCORE.INTRA.REPUL>
0

>  <SCORE.INTRA.REPUL.0>
0

>  <SCORE.INTRA.SOLV>
-1.39682

>  <SCORE.INTRA.SOLV.lig_0>
-31.87

>  <SCORE.INTRA.VDW>
-0.0609497

>  <SCORE.INTRA.VDW.0>
-0.575321

>  <SCORE.INTRA.norm>
-0.105007

>  <SCORE.RESTR>
0

>  <SCORE.RESTR.CAVITY>
0

>  <SCORE.RESTR.norm>
0

>  <SCORE.SYSTEM>
0

>  <SCORE.SYSTEM.CONST>
0

>  <SCORE.SYSTEM.DIHEDRAL>
0

>  <SCORE.SYSTEM.SOLV>
0

>  <SCORE.SYSTEM.norm>
0

>  <SCORE.heavy>
10

>  <SCORE.norm>
-0.834954

>  <RMSD>
5.309

$$$$
ligand
 OpenBabel11021811463D
libRbt.so/2013.1/901 2013/11/27
 10  9  0  0  0  0  0  0  0  0999 V2000
   24.7472   44.0424   19.8972 N   0  0  0  0  0  0  0  0  0  0  0  0
   25.0495   42.6315   19.6895 C   0  0  2  0  0  0  0  0  0  0  0  0
   24.7471   42.2154   18.2510 C   0  0  0  0  0  0  0  0  0  0  0  0
   23.6275   42.4241   17.7748 O   0  0  0  0  0  0  0  0  0  0  0  0
   24.2788   41.7587   20.6847 C   0  0  0  0  0  0  0  0  0  0  0  0
   24.6466   42.0226   22.1398 C   0  0  0  0  0  0  0  0  0  0  0  0
   23.8222   41.1769   23.1063 C   0  0  0  0  0  0  0  0  0  0  0  0
   24.2050   39.6899   23.0407 C   0  0  0  0  0  0  0  0  0  0  0  0
   23.4230   38.8061   23.9621 N   0  0  0  0  0  0  0  0  0  0  0  0
   25.6074   41.6827   17.5375 O   0  0  0  0  0  0  0  0  0  0  0  0
  2  1  1  6  0  0  0
  2  3  1  0  0  0  0
  2  5  1  0  0  0  0
  3  4  1  0  0  0  0
  3 10  1  0  0  0  0
  5  6  1  0  0  0  0
  6  7  1  0  0  0  0
  7  8  1  0  0  0  0
  8  9  1  0  0  0  0
M  END
>  <CHROM.1>
-54.22391097,-62.50795281,177.73891057,70.25213342,-179.63669291,24.41190836
41.64132676,20.56569786,-0.37404242,1.40553395,0.84324179

>  <Name>
ligand

>  <RI>
0

>  <Rbt.Current_Directory>
/home/itssahil/PROJECTS/Mol_Feturizer/New_Systems/rnas/3D0U

>  <Rbt.Executable>
rbdock ($Id: //depot/dev/client3/rdock/2013.1/src/exe/rbdock.cxx#4 $)

>  <Rbt.Library>
libRbt.so (2013.1, Build901 2013/11/27)

>  <Rbt.Parameter_File>
/export/apps/rDock/src/rDock_2013.1_src/data/scripts/dock_solv.prm

>  <Rbt.Receptor>
prm/pocket_docking_3.prm

>  <SCORE>
-7.35232

>  <SCORE.INTER>
-7.19098

>  <SCORE.INTER.CONST>
1

>  <SCORE.INTER.POLAR>
0

>  <SCORE.INTER.ROT>
5

>  <SCORE.INTER.SOLV>
13.44

>  <SCORE.INTER.VDW>
-16.2073

>  <SCORE.INTER.norm>
-0.719098

>  <SCORE.INTRA>
-0.161339

>  <SCORE.INTRA.DIHEDRAL>
-0.255664

>  <SCORE.INTRA.DIHEDRAL.0>
2.22229

>  <SCORE.INTRA.POLAR>
0

>  <SCORE.INTRA.POLAR.0>
0

>  <SCORE.INTRA.REPUL>
0

>  <SCORE.INTRA.REPUL.0>
0

>  <SCORE.INTRA.SOLV>
-0.556565

>  <SCORE.INTRA.SOLV.lig_0>
-31.87

>  <SCORE.INTRA.VDW>
0.244776

>  <SCORE.INTRA.VDW.0>
-0.575321

>  <SCORE.INTRA.norm>
-0.0161339

>  <SCORE.RESTR>
0

>  <SCORE.RESTR.CAVITY>
0

>  <SCORE.RESTR.norm>
0

>  <SCORE.SYSTEM>
0

>  <SCORE.SYSTEM.CONST>
0

>  <SCORE.SYSTEM.DIHEDRAL>
0

>  <SCORE.SYSTEM.SOLV>
0

>  <SCORE.SYSTEM.norm>
0

>  <SCORE.heavy>
10

>  <SCORE.norm>
-0.735232

>  <RMSD>
5.317

$$$$
ligand
 OpenBabel11021811463D
libRbt.so/2013.1/901 2013/11/27
 10  9  0  0  0  0  0  0  0  0999 V2000
   25.1328   44.7684   18.4971 N   0  0  0  0  0  0  0  0  0  0  0  0
   25.4216   43.4271   18.9897 C   0  0  2  0  0  0  0  0  0  0  0  0
   25.0606   42.3730   17.9445 C   0  0  0  0  0  0  0  0  0  0  0  0
   25.9042   41.5426   17.5943 O   0  0  0  0  0  0  0  0  0  0  0  0
   24.6882   43.1631   20.3083 C   0  0  0  0  0  0  0  0  0  0  0  0
   25.0320   41.8191   20.9390 C   0  0  0  0  0  0  0  0  0  0  0  0
   24.3613   41.6299   22.2967 C   0  0  0  0  0  0  0  0  0  0  0  0
   24.5919   40.2191   22.8610 C   0  0  0  0  0  0  0  0  0  0  0  0
   23.9608   39.1204   22.0635 N   0  0  0  0  0  0  0  0  0  0  0  0
   23.9291   42.3188   17.4449 O   0  0  0  0  0  0  0  0  0  0  0  0
  2  1  1  6  0  0  0
  2  3  1  0  0  0  0
  2  5  1  0  0  0  0
  3  4  1  0  0  0  0
  3 10  1  0  0  0  0
  5  6  1  0  0  0  0
  6  7  1  0  0  0  0
  7  8  1  0  0  0  0
  8  9  1  0  0  0  0
M  END
>  <CHROM.1>
126.40923926,-175.38297383,175.98918050,174.07235825,-65.26144679,24.80337034
42.02045747,19.86170551,-0.28149426,1.43237612,0.85164149

>  <Name>
ligand

>  <RI>
0

>  <Rbt.Current_Directory>
/home/itssahil/PROJECTS/Mol_Feturizer/New_Systems/rnas/3D0U

>  <Rbt.Executable>
rbdock ($Id: //depot/dev/client3/rdock/2013.1/src/exe/rbdock.cxx#4 $)

>  <Rbt.Library>
libRbt.so (2013.1, Build901 2013/11/27)

>  <Rbt.Parameter_File>
/export/apps/rDock/src/rDock_2013.1_src/data/scripts/dock_solv.prm

>  <Rbt.Receptor>
prm/pocket_docking_8.prm

>  <SCORE>
-8.17737

>  <SCORE.INTER>
-7.37023

>  <SCORE.INTER.CONST>
1

>  <SCORE.INTER.POLAR>
0

>  <SCORE.INTER.ROT>
5

>  <SCORE.INTER.SOLV>
15.0812

>  <SCORE.INTER.VDW>
-16.8739

>  <SCORE.INTER.norm>
-0.737023

>  <SCORE.INTRA>
-0.807139

>  <SCORE.INTRA.DIHEDRAL>
-0.359952

>  <SCORE.INTRA.DIHEDRAL.0>
2.22229

>  <SCORE.INTRA.POLAR>
0

>  <SCORE.INTRA.POLAR.0>
0

>  <SCORE.INTRA.REPUL>
0

>  <SCORE.INTRA.REPUL.0>
0

>  <SCORE.INTRA.SOLV>
-0.769716

>  <SCORE.INTRA.SOLV.lig_0>
-31.87

>  <SCORE.INTRA.VDW>
-0.242305

>  <SCORE.INTRA.VDW.0>
-0.575321

>  <SCORE.INTRA.norm>
-0.0807139

>  <SCORE.RESTR>
0

>  <SCORE.RESTR.CAVITY>
0

>  <SCORE.RESTR.norm>
0

>  <SCORE.SYSTEM>
0

>  <SCORE.SYSTEM.CONST>
0

>  <SCORE.SYSTEM.DIHEDRAL>
0

>  <SCORE.SYSTEM.SOLV>
0

>  <SCORE.SYSTEM.norm>
0

>  <SCORE.heavy>
10

>  <SCORE.norm>
-0.817737

>  <RMSD>
5.317

$$$$
ligand
 OpenBabel11021811463D
libRbt.so/2013.1/901 2013/11/27
 10  9  0  0  0  0  0  0  0  0999 V2000
   24.7773   43.5226   19.6985 N   0  0  0  0  0  0  0  0  0  0  0  0
   25.1083   42.1633   19.2886 C   0  0  2  0  0  0  0  0  0  0  0  0
   25.4921   42.1179   17.8106 C   0  0  0  0  0  0  0  0  0  0  0  0
   26.4502   41.4296   17.4468 O   0  0  0  0  0  0  0  0  0  0  0  0
   23.9461   41.2095   19.5812 C   0  0  0  0  0  0  0  0  0  0  0  0
   23.6718   41.0203   21.0682 C   0  0  0  0  0  0  0  0  0  0  0  0
   24.8160   40.3038   21.7799 C   0  0  0  0  0  0  0  0  0  0  0  0
   24.4154   39.8368   23.1882 C   0  0  0  0  0  0  0  0  0  0  0  0
   23.8861   40.9209   24.0749 N   0  0  0  0  0  0  0  0  0  0  0  0
   24.8530   42.7468   16.9569 O   0  0  0  0  0  0  0  0  0  0  0  0
  2  1  1  6  0  0  0
  2  3  1  0  0  0  0
  2  5  1  0  0  0  0
  3  4  1  0  0  0  0
  3 10  1  0  0  0  0
  5  6  1  0  0  0  0
  6  7  1  0  0  0  0
  7  8  1  0  0  0  0
  8  9  1  0  0  0  0
M  END
>  <CHROM.1>
137.91274174,-66.52147676,-66.45002643,-167.24948537,-54.97579494,24.75385690
41.52966125,20.04640528,1.15142882,1.01014345,-0.88565185

>  <Name>
ligand

>  <RI>
0

>  <Rbt.Current_Directory>
/home/itssahil/PROJECTS/Mol_Feturizer/New_Systems/rnas/3D0U

>  <Rbt.Executable>
rbdock ($Id: //depot/dev/client3/rdock/2013.1/src/exe/rbdock.cxx#4 $)

>  <Rbt.Library>
libRbt.so (2013.1, Build901 2013/11/27)

>  <Rbt.Parameter_File>
/export/apps/rDock/src/rDock_2013.1_src/data/scripts/dock_solv.prm

>  <Rbt.Receptor>
prm/pocket_docking_4.prm

>  <SCORE>
-8.20937

>  <SCORE.INTER>
-8.66993

>  <SCORE.INTER.CONST>
1

>  <SCORE.INTER.POLAR>
0

>  <SCORE.INTER.ROT>
5

>  <SCORE.INTER.SOLV>
12.7328

>  <SCORE.INTER.VDW>
-16.9575

>  <SCORE.INTER.norm>
-0.866993

>  <SCORE.INTRA>
0.460555

>  <SCORE.INTRA.DIHEDRAL>
0.334436

>  <SCORE.INTRA.DIHEDRAL.0>
2.22229

>  <SCORE.INTRA.POLAR>
0

>  <SCORE.INTRA.POLAR.0>
0

>  <SCORE.INTRA.REPUL>
0

>  <SCORE.INTRA.REPUL.0>
0

>  <SCORE.INTRA.SOLV>
0.567097

>  <SCORE.INTRA.SOLV.lig_0>
-31.87

>  <SCORE.INTRA.VDW>
0.00978897

>  <SCORE.INTRA.VDW.0>
-0.575321

>  <SCORE.INTRA.norm>
0.0460555

>  <SCORE.RESTR>
0

>  <SCORE.RESTR.CAVITY>
0

>  <SCORE.RESTR.norm>
0

>  <SCORE.SYSTEM>
0

>  <SCORE.SYSTEM.CONST>
0

>  <SCORE.SYSTEM.DIHEDRAL>
0

>  <SCORE.SYSTEM.SOLV>
0

>  <SCORE.SYSTEM.norm>
0

>  <SCORE.heavy>
10

>  <SCORE.norm>
-0.820937

>  <RMSD>
5.318

$$$$
ligand
 OpenBabel11021811463D
libRbt.so/2013.1/901 2013/11/27
 10  9  0  0  0  0  0  0  0  0999 V2000
   25.2069   44.1868   19.5539 N   0  0  0  0  0  0  0  0  0  0  0  0
   25.6479   42.8545   19.1594 C   0  0  2  0  0  0  0  0  0  0  0  0
   24.9507   42.4075   17.8757 C   0  0  0  0  0  0  0  0  0  0  0  0
   23.7199   42.3173   17.8459 O   0  0  0  0  0  0  0  0  0  0  0  0
   25.4115   41.8475   20.2891 C   0  0  0  0  0  0  0  0  0  0  0  0
   23.9701   41.8114   20.7824 C   0  0  0  0  0  0  0  0  0  0  0  0
   23.8257   41.0342   22.0878 C   0  0  0  0  0  0  0  0  0  0  0  0
   23.9477   39.5176   21.8713 C   0  0  0  0  0  0  0  0  0  0  0  0
   23.7144   38.6942   23.0998 N   0  0  0  0  0  0  0  0  0  0  0  0
   25.5916   42.1449   16.8495 O   0  0  0  0  0  0  0  0  0  0  0  0
  2  1  1  1  0  0  0
  2  3  1  0  0  0  0
  2  5  1  0  0  0  0
  3  4  1  0  0  0  0
  3 10  1  0  0  0  0
  5  6  1  0  0  0  0
  6  7  1  0  0  0  0
  7  8  1  0  0  0  0
  8  9  1  0  0  0  0
M  END
>  <CHROM.1>
-59.98640965,54.79152038,-167.71564094,-73.82253080,-175.72291514,24.58777042
41.67828777,19.90365095,-0.71479058,1.26793665,1.34046057

>  <Name>
ligand

>  <RI>
0

>  <Rbt.Current_Directory>
/home/itssahil/PROJECTS/Mol_Feturizer/New_Systems/rnas/3D0U

>  <Rbt.Executable>
rbdock ($Id: //depot/dev/client3/rdock/2013.1/src/exe/rbdock.cxx#4 $)

>  <Rbt.Library>
libRbt.so (2013.1, Build901 2013/11/27)

>  <Rbt.Parameter_File>
/export/apps/rDock/src/rDock_2013.1_src/data/scripts/dock_solv.prm

>  <Rbt.Receptor>
prm/pocket_docking_3.prm

>  <SCORE>
-6.91396

>  <SCORE.INTER>
-7.5125

>  <SCORE.INTER.CONST>
1

>  <SCORE.INTER.POLAR>
0

>  <SCORE.INTER.ROT>
5

>  <SCORE.INTER.SOLV>
13.345

>  <SCORE.INTER.VDW>
-16.39

>  <SCORE.INTER.norm>
-0.75125

>  <SCORE.INTRA>
0.59854

>  <SCORE.INTRA.DIHEDRAL>
0.817079

>  <SCORE.INTRA.DIHEDRAL.0>
2.22229

>  <SCORE.INTRA.POLAR>
0

>  <SCORE.INTRA.POLAR.0>
0

>  <SCORE.INTRA.REPUL>
0

>  <SCORE.INTRA.REPUL.0>
0

>  <SCORE.INTRA.SOLV>
-0.46549

>  <SCORE.INTRA.SOLV.lig_0>
-31.87

>  <SCORE.INTRA.VDW>
0.422745

>  <SCORE.INTRA.VDW.0>
-0.575321

>  <SCORE.INTRA.norm>
0.059854

>  <SCORE.RESTR>
0

>  <SCORE.RESTR.CAVITY>
0

>  <SCORE.RESTR.norm>
0

>  <SCORE.SYSTEM>
0

>  <SCORE.SYSTEM.CONST>
0

>  <SCORE.SYSTEM.DIHEDRAL>
0

>  <SCORE.SYSTEM.SOLV>
0

>  <SCORE.SYSTEM.norm>
0

>  <SCORE.heavy>
10

>  <SCORE.norm>
-0.691396

>  <RMSD>
5.319

$$$$
ligand
 OpenBabel11021811463D
libRbt.so/2013.1/901 2013/11/27
 10  9  0  0  0  0  0  0  0  0999 V2000
   24.5174   43.8526   19.2359 N   0  0  0  0  0  0  0  0  0  0  0  0
   25.5674   42.8418   19.2033 C   0  0  2  0  0  0  0  0  0  0  0  0
   25.5868   42.1191   17.8575 C   0  0  0  0  0  0  0  0  0  0  0  0
   24.9122   42.5526   16.9190 O   0  0  0  0  0  0  0  0  0  0  0  0
   25.3995   41.8469   20.3558 C   0  0  0  0  0  0  0  0  0  0  0  0
   24.0632   41.1145   20.3395 C   0  0  0  0  0  0  0  0  0  0  0  0
   23.8826   40.2150   21.5590 C   0  0  0  0  0  0  0  0  0  0  0  0
   23.7163   41.0267   22.8534 C   0  0  0  0  0  0  0  0  0  0  0  0
   23.5036   40.1988   24.0826 N   0  0  0  0  0  0  0  0  0  0  0  0
   26.2792   41.1089   17.6759 O   0  0  0  0  0  0  0  0  0  0  0  0
  2  1  1  6  0  0  0
  2  3  1  0  0  0  0
  2  5  1  0  0  0  0
  3  4  1  0  0  0  0
  3 10  1  0  0  0  0
  5  6  1  0  0  0  0
  6  7  1  0  0  0  0
  7  8  1  0  0  0  0
  8  9  1  0  0  0  0
M  END
>  <CHROM.1>
10.45241728,59.09938094,-175.46081148,68.84561276,178.67226007,24.74891596
41.67718543,19.96841151,0.75663487,1.14271133,-0.46925384

>  <Name>
ligand

>  <RI>
0

>  <Rbt.Current_Directory>
/home/itssahil/PROJECTS/Mol_Feturizer/New_Systems/rnas/3D0U

>  <Rbt.Executable>
rbdock ($Id: //depot/dev/client3/rdock/2013.1/src/exe/rbdock.cxx#4 $)

>  <Rbt.Library>
libRbt.so (2013.1, Build901 2013/11/27)

>  <Rbt.Parameter_File>
/export/apps/rDock/src/rDock_2013.1_src/data/scripts/dock_solv.prm

>  <Rbt.Receptor>
prm/pocket_docking_4.prm

>  <SCORE>
-8.85264

>  <SCORE.INTER>
-9.14064

>  <SCORE.INTER.CONST>
1

>  <SCORE.INTER.POLAR>
0

>  <SCORE.INTER.ROT>
5

>  <SCORE.INTER.SOLV>
13.1484

>  <SCORE.INTER.VDW>
-17.4099

>  <SCORE.INTER.norm>
-0.914064

>  <SCORE.INTRA>
0.287999

>  <SCORE.INTRA.DIHEDRAL>
-0.340013

>  <SCORE.INTRA.DIHEDRAL.0>
2.22229

>  <SCORE.INTRA.POLAR>
0

>  <SCORE.INTRA.POLAR.0>
0

>  <SCORE.INTRA.REPUL>
0

>  <SCORE.INTRA.REPUL.0>
0

>  <SCORE.INTRA.SOLV>
-0.464299

>  <SCORE.INTRA.SOLV.lig_0>
-31.87

>  <SCORE.INTRA.VDW>
0.690155

>  <SCORE.INTRA.VDW.0>
-0.575321

>  <SCORE.INTRA.norm>
0.0287999

>  <SCORE.RESTR>
0

>  <SCORE.RESTR.CAVITY>
0

>  <SCORE.RESTR.norm>
0

>  <SCORE.SYSTEM>
0

>  <SCORE.SYSTEM.CONST>
0

>  <SCORE.SYSTEM.DIHEDRAL>
0

>  <SCORE.SYSTEM.SOLV>
0

>  <SCORE.SYSTEM.norm>
0

>  <SCORE.heavy>
10

>  <SCORE.norm>
-0.885264

>  <RMSD>
5.319

$$$$
ligand
 OpenBabel11021811463D
libRbt.so/2013.1/901 2013/11/27
 10  9  0  0  0  0  0  0  0  0999 V2000
   24.9483   44.0311   19.0161 N   0  0  0  0  0  0  0  0  0  0  0  0
   25.7980   42.8560   19.1652 C   0  0  2  0  0  0  0  0  0  0  0  0
   25.7283   41.9715   17.9215 C   0  0  0  0  0  0  0  0  0  0  0  0
   25.1689   42.3886   16.9032 O   0  0  0  0  0  0  0  0  0  0  0  0
   25.4163   42.0654   20.4204 C   0  0  0  0  0  0  0  0  0  0  0  0
   23.9568   41.6280   20.4454 C   0  0  0  0  0  0  0  0  0  0  0  0
   23.5696   40.9836   21.7734 C   0  0  0  0  0  0  0  0  0  0  0  0
   24.2131   39.5993   21.9508 C   0  0  0  0  0  0  0  0  0  0  0  0
   23.8077   38.8816   23.2007 N   0  0  0  0  0  0  0  0  0  0  0  0
   26.2357   40.8424   17.9018 O   0  0  0  0  0  0  0  0  0  0  0  0
  2  1  1  6  0  0  0
  2  3  1  0  0  0  0
  2  5  1  0  0  0  0
  3  4  1  0  0  0  0
  3 10  1  0  0  0  0
  5  6  1  0  0  0  0
  6  7  1  0  0  0  0
  7  8  1  0  0  0  0
  8  9  1  0  0  0  0
M  END
>  <CHROM.1>
10.17984919,56.96102501,-173.51721198,-70.79203004,-176.64070221,24.88870701
41.51141489,19.83337322,0.80403302,1.12154966,-0.30992822

>  <Name>
ligand

>  <RI>
0

>  <Rbt.Current_Directory>
/home/itssahil/PROJECTS/Mol_Feturizer/New_Systems/rnas/3D0U

>  <Rbt.Executable>
rbdock ($Id: //depot/dev/client3/rdock/2013.1/src/exe/rbdock.cxx#4 $)

>  <Rbt.Library>
libRbt.so (2013.1, Build901 2013/11/27)

>  <Rbt.Parameter_File>
/export/apps/rDock/src/rDock_2013.1_src/data/scripts/dock_solv.prm

>  <Rbt.Receptor>
prm/pocket_docking_7.prm

>  <SCORE>
-7.84173

>  <SCORE.INTER>
-8.19207

>  <SCORE.INTER.CONST>
1

>  <SCORE.INTER.POLAR>
0

>  <SCORE.INTER.ROT>
5

>  <SCORE.INTER.SOLV>
12.8078

>  <SCORE.INTER.VDW>
-16.664

>  <SCORE.INTER.norm>
-0.819207

>  <SCORE.INTRA>
0.350341

>  <SCORE.INTRA.DIHEDRAL>
-0.0246323

>  <SCORE.INTRA.DIHEDRAL.0>
2.22229

>  <SCORE.INTRA.POLAR>
0

>  <SCORE.INTRA.POLAR.0>
0

>  <SCORE.INTRA.REPUL>
0

>  <SCORE.INTRA.REPUL.0>
0

>  <SCORE.INTRA.SOLV>
-0.481499

>  <SCORE.INTRA.SOLV.lig_0>
-31.87

>  <SCORE.INTRA.VDW>
0.603406

>  <SCORE.INTRA.VDW.0>
-0.575321

>  <SCORE.INTRA.norm>
0.0350341

>  <SCORE.RESTR>
0

>  <SCORE.RESTR.CAVITY>
0

>  <SCORE.RESTR.norm>
0

>  <SCORE.SYSTEM>
0

>  <SCORE.SYSTEM.CONST>
0

>  <SCORE.SYSTEM.DIHEDRAL>
0

>  <SCORE.SYSTEM.SOLV>
0

>  <SCORE.SYSTEM.norm>
0

>  <SCORE.heavy>
10

>  <SCORE.norm>
-0.784173

>  <RMSD>
5.319

$$$$
ligand
 OpenBabel11021811463D
libRbt.so/2013.1/901 2013/11/27
 10  9  0  0  0  0  0  0  0  0999 V2000
   25.0661   42.5092   16.7244 N   0  0  0  0  0  0  0  0  0  0  0  0
   24.9119   42.4348   18.1721 C   0  0  2  0  0  0  0  0  0  0  0  0
   24.6111   43.8125   18.7598 C   0  0  0  0  0  0  0  0  0  0  0  0
   23.7703   43.9263   19.6564 O   0  0  0  0  0  0  0  0  0  0  0  0
   26.1582   41.8242   18.8204 C   0  0  0  0  0  0  0  0  0  0  0  0
   25.9908   41.5299   20.3062 C   0  0  0  0  0  0  0  0  0  0  0  0
   25.0281   40.3735   20.5610 C   0  0  0  0  0  0  0  0  0  0  0  0
   24.9015   40.0489   22.0578 C   0  0  0  0  0  0  0  0  0  0  0  0
   24.2889   41.1398   22.8802 N   0  0  0  0  0  0  0  0  0  0  0  0
   25.2042   44.8262   18.3680 O   0  0  0  0  0  0  0  0  0  0  0  0
  2  1  1  6  0  0  0
  2  3  1  0  0  0  0
  2  5  1  0  0  0  0
  3  4  1  0  0  0  0
  3 10  1  0  0  0  0
  5  6  1  0  0  0  0
  6  7  1  0  0  0  0
  7  8  1  0  0  0  0
  8  9  1  0  0  0  0
M  END
>  <CHROM.1>
138.94868493,-171.66033855,69.86251618,177.98335734,64.91416770,24.98507694
42.27849910,19.63614996,-1.53068805,-1.09538863,2.27151328

>  <Name>
ligand

>  <RI>
0

>  <Rbt.Current_Directory>
/home/itssahil/PROJECTS/Mol_Feturizer/New_Systems/rnas/3D0U

>  <Rbt.Executable>
rbdock ($Id: //depot/dev/client3/rdock/2013.1/src/exe/rbdock.cxx#4 $)

>  <Rbt.Library>
libRbt.so (2013.1, Build901 2013/11/27)

>  <Rbt.Parameter_File>
/export/apps/rDock/src/rDock_2013.1_src/data/scripts/dock_solv.prm

>  <Rbt.Receptor>
prm/pocket_docking_3.prm

>  <SCORE>
-7.91528

>  <SCORE.INTER>
-7.37604

>  <SCORE.INTER.CONST>
1

>  <SCORE.INTER.POLAR>
0

>  <SCORE.INTER.ROT>
5

>  <SCORE.INTER.SOLV>
17.3619

>  <SCORE.INTER.VDW>
-17.638

>  <SCORE.INTER.norm>
-0.737604

>  <SCORE.INTRA>
-0.539238

>  <SCORE.INTRA.DIHEDRAL>
-0.00524181

>  <SCORE.INTRA.DIHEDRAL.0>
2.22229

>  <SCORE.INTRA.POLAR>
0

>  <SCORE.INTRA.POLAR.0>
0

>  <SCORE.INTRA.REPUL>
0

>  <SCORE.INTRA.REPUL.0>
0

>  <SCORE.INTRA.SOLV>
-0.543499

>  <SCORE.INTRA.SOLV.lig_0>
-31.87

>  <SCORE.INTRA.VDW>
-0.264867

>  <SCORE.INTRA.VDW.0>
-0.575321

>  <SCORE.INTRA.norm>
-0.0539238

>  <SCORE.RESTR>
0

>  <SCORE.RESTR.CAVITY>
0

>  <SCORE.RESTR.norm>
0

>  <SCORE.SYSTEM>
0

>  <SCORE.SYSTEM.CONST>
0

>  <SCORE.SYSTEM.DIHEDRAL>
0

>  <SCORE.SYSTEM.SOLV>
0

>  <SCORE.SYSTEM.norm>
0

>  <SCORE.heavy>
10

>  <SCORE.norm>
-0.791528

>  <RMSD>
5.322

$$$$
ligand
 OpenBabel11021811463D
libRbt.so/2013.1/901 2013/11/27
 10  9  0  0  0  0  0  0  0  0999 V2000
   25.3998   42.4107   16.9009 N   0  0  0  0  0  0  0  0  0  0  0  0
   24.9941   42.4009   18.3011 C   0  0  2  0  0  0  0  0  0  0  0  0
   24.4512   43.7658   18.7208 C   0  0  0  0  0  0  0  0  0  0  0  0
   25.0936   44.7874   18.4612 O   0  0  0  0  0  0  0  0  0  0  0  0
   26.1582   41.9753   19.2010 C   0  0  0  0  0  0  0  0  0  0  0  0
   25.7420   41.6755   20.6360 C   0  0  0  0  0  0  0  0  0  0  0  0
   24.9152   40.3972   20.7424 C   0  0  0  0  0  0  0  0  0  0  0  0
   24.5411   40.0730   22.1974 C   0  0  0  0  0  0  0  0  0  0  0  0
   23.6442   41.0804   22.8472 N   0  0  0  0  0  0  0  0  0  0  0  0
   23.3664   43.8779   19.3069 O   0  0  0  0  0  0  0  0  0  0  0  0
  2  1  1  6  0  0  0
  2  3  1  0  0  0  0
  2  5  1  0  0  0  0
  3  4  1  0  0  0  0
  3 10  1  0  0  0  0
  5  6  1  0  0  0  0
  6  7  1  0  0  0  0
  7  8  1  0  0  0  0
  8  9  1  0  0  0  0
M  END
>  <CHROM.1>
-49.20949682,-168.56263918,70.04559447,177.94983826,64.43108644,24.81812892
42.28008141,19.73240421,-1.43133882,-0.86909292,2.33558854

>  <Name>
ligand

>  <RI>
0

>  <Rbt.Current_Directory>
/home/itssahil/PROJECTS/Mol_Feturizer/New_Systems/rnas/3D0U

>  <Rbt.Executable>
rbdock ($Id: //depot/dev/client3/rdock/2013.1/src/exe/rbdock.cxx#4 $)

>  <Rbt.Library>
libRbt.so (2013.1, Build901 2013/11/27)

>  <Rbt.Parameter_File>
/export/apps/rDock/src/rDock_2013.1_src/data/scripts/dock_solv.prm

>  <Rbt.Receptor>
prm/pocket_docking_6.prm

>  <SCORE>
-7.80877

>  <SCORE.INTER>
-7.42843

>  <SCORE.INTER.CONST>
1

>  <SCORE.INTER.POLAR>
0

>  <SCORE.INTER.ROT>
5

>  <SCORE.INTER.SOLV>
17.7243

>  <SCORE.INTER.VDW>
-17.7937

>  <SCORE.INTER.norm>
-0.742843

>  <SCORE.INTRA>
-0.380337

>  <SCORE.INTRA.DIHEDRAL>
0.261522

>  <SCORE.INTRA.DIHEDRAL.0>
2.22229

>  <SCORE.INTRA.POLAR>
0

>  <SCORE.INTRA.POLAR.0>
0

>  <SCORE.INTRA.REPUL>
0

>  <SCORE.INTRA.REPUL.0>
0

>  <SCORE.INTRA.SOLV>
-0.503279

>  <SCORE.INTRA.SOLV.lig_0>
-31.87

>  <SCORE.INTRA.VDW>
-0.259458

>  <SCORE.INTRA.VDW.0>
-0.575321

>  <SCORE.INTRA.norm>
-0.0380337

>  <SCORE.RESTR>
0

>  <SCORE.RESTR.CAVITY>
0

>  <SCORE.RESTR.norm>
0

>  <SCORE.SYSTEM>
0

>  <SCORE.SYSTEM.CONST>
0

>  <SCORE.SYSTEM.DIHEDRAL>
0

>  <SCORE.SYSTEM.SOLV>
0

>  <SCORE.SYSTEM.norm>
0

>  <SCORE.heavy>
10

>  <SCORE.norm>
-0.780877

>  <RMSD>
5.323

$$$$
ligand
 OpenBabel11021811463D
libRbt.so/2013.1/901 2013/11/27
 10  9  0  0  0  0  0  0  0  0999 V2000
   25.3896   42.4684   16.9037 N   0  0  0  0  0  0  0  0  0  0  0  0
   24.6173   42.2393   18.1187 C   0  0  2  0  0  0  0  0  0  0  0  0
   24.1428   43.5609   18.7203 C   0  0  0  0  0  0  0  0  0  0  0  0
   24.8690   44.5574   18.6608 O   0  0  0  0  0  0  0  0  0  0  0  0
   25.4324   41.4364   19.1371 C   0  0  0  0  0  0  0  0  0  0  0  0
   24.6327   41.0182   20.3650 C   0  0  0  0  0  0  0  0  0  0  0  0
   25.4888   40.2742   21.3860 C   0  0  0  0  0  0  0  0  0  0  0  0
   24.6847   39.8836   22.6360 C   0  0  0  0  0  0  0  0  0  0  0  0
   24.1207   41.0419   23.3988 N   0  0  0  0  0  0  0  0  0  0  0  0
   23.0325   43.6650   19.2581 O   0  0  0  0  0  0  0  0  0  0  0  0
  2  1  1  6  0  0  0
  2  3  1  0  0  0  0
  2  5  1  0  0  0  0
  3  4  1  0  0  0  0
  3 10  1  0  0  0  0
  5  6  1  0  0  0  0
  6  7  1  0  0  0  0
  7  8  1  0  0  0  0
  8  9  1  0  0  0  0
M  END
>  <CHROM.1>
-36.00696444,-173.18685009,-177.48718744,178.68615860,-61.46206042,24.62899829
42.04952765,19.86191538,-1.60233338,-0.97306069,2.14742008

>  <Name>
ligand

>  <RI>
0

>  <Rbt.Current_Directory>
/home/itssahil/PROJECTS/Mol_Feturizer/New_Systems/rnas/3D0U

>  <Rbt.Executable>
rbdock ($Id: //depot/dev/client3/rdock/2013.1/src/exe/rbdock.cxx#4 $)

>  <Rbt.Library>
libRbt.so (2013.1, Build901 2013/11/27)

>  <Rbt.Parameter_File>
/export/apps/rDock/src/rDock_2013.1_src/data/scripts/dock_solv.prm

>  <Rbt.Receptor>
prm/pocket_docking_6.prm

>  <SCORE>
-8.00049

>  <SCORE.INTER>
-7.17038

>  <SCORE.INTER.CONST>
1

>  <SCORE.INTER.POLAR>
0

>  <SCORE.INTER.ROT>
5

>  <SCORE.INTER.SOLV>
17.8514

>  <SCORE.INTER.VDW>
-17.664

>  <SCORE.INTER.norm>
-0.717038

>  <SCORE.INTRA>
-0.830107

>  <SCORE.INTRA.DIHEDRAL>
-0.503224

>  <SCORE.INTRA.DIHEDRAL.0>
2.22229

>  <SCORE.INTRA.POLAR>
0

>  <SCORE.INTRA.POLAR.0>
0

>  <SCORE.INTRA.REPUL>
0

>  <SCORE.INTRA.REPUL.0>
0

>  <SCORE.INTRA.SOLV>
-0.72094

>  <SCORE.INTRA.SOLV.lig_0>
-31.87

>  <SCORE.INTRA.VDW>
-0.218025

>  <SCORE.INTRA.VDW.0>
-0.575321

>  <SCORE.INTRA.norm>
-0.0830107

>  <SCORE.RESTR>
0

>  <SCORE.RESTR.CAVITY>
0

>  <SCORE.RESTR.norm>
0

>  <SCORE.SYSTEM>
0

>  <SCORE.SYSTEM.CONST>
0

>  <SCORE.SYSTEM.DIHEDRAL>
0

>  <SCORE.SYSTEM.SOLV>
0

>  <SCORE.SYSTEM.norm>
0

>  <SCORE.heavy>
10

>  <SCORE.norm>
-0.800049

>  <RMSD>
5.327

$$$$
ligand
 OpenBabel11021811463D
libRbt.so/2013.1/901 2013/11/27
 10  9  0  0  0  0  0  0  0  0999 V2000
   24.6844   43.9713   19.1782 N   0  0  0  0  0  0  0  0  0  0  0  0
   25.6559   42.8847   19.1556 C   0  0  2  0  0  0  0  0  0  0  0  0
   25.6109   42.1410   17.8219 C   0  0  0  0  0  0  0  0  0  0  0  0
   24.8631   42.5379   16.9235 O   0  0  0  0  0  0  0  0  0  0  0  0
   25.4232   41.9237   20.3255 C   0  0  0  0  0  0  0  0  0  0  0  0
   24.0443   41.2750   20.3170 C   0  0  0  0  0  0  0  0  0  0  0  0
   23.8316   40.3546   21.5156 C   0  0  0  0  0  0  0  0  0  0  0  0
   23.7826   41.1346   22.8388 C   0  0  0  0  0  0  0  0  0  0  0  0
   23.5372   40.2888   24.0496 N   0  0  0  0  0  0  0  0  0  0  0  0
   26.3221   41.1500   17.6098 O   0  0  0  0  0  0  0  0  0  0  0  0
  2  1  1  6  0  0  0
  2  3  1  0  0  0  0
  2  5  1  0  0  0  0
  3  4  1  0  0  0  0
  3 10  1  0  0  0  0
  5  6  1  0  0  0  0
  6  7  1  0  0  0  0
  7  8  1  0  0  0  0
  8  9  1  0  0  0  0
M  END
>  <CHROM.1>
3.51034792,60.07005241,-178.40883099,67.11175811,178.36491040,24.78034475
41.75488877,19.93398322,0.64952208,1.17701948,-0.36738541

>  <Name>
ligand

>  <RI>
0

>  <Rbt.Current_Directory>
/home/itssahil/PROJECTS/Mol_Feturizer/New_Systems/rnas/3D0U

>  <Rbt.Executable>
rbdock ($Id: //depot/dev/client3/rdock/2013.1/src/exe/rbdock.cxx#4 $)

>  <Rbt.Library>
libRbt.so (2013.1, Build901 2013/11/27)

>  <Rbt.Parameter_File>
/export/apps/rDock/src/rDock_2013.1_src/data/scripts/dock_solv.prm

>  <Rbt.Receptor>
prm/pocket_docking_5.prm

>  <SCORE>
-8.84535

>  <SCORE.INTER>
-9.01114

>  <SCORE.INTER.CONST>
1

>  <SCORE.INTER.POLAR>
0

>  <SCORE.INTER.ROT>
5

>  <SCORE.INTER.SOLV>
13.5808

>  <SCORE.INTER.VDW>
-17.4677

>  <SCORE.INTER.norm>
-0.901114

>  <SCORE.INTRA>
0.165795

>  <SCORE.INTRA.DIHEDRAL>
-0.518836

>  <SCORE.INTRA.DIHEDRAL.0>
2.22229

>  <SCORE.INTRA.POLAR>
0

>  <SCORE.INTRA.POLAR.0>
0

>  <SCORE.INTRA.REPUL>
0

>  <SCORE.INTRA.REPUL.0>
0

>  <SCORE.INTRA.SOLV>
-0.509431

>  <SCORE.INTRA.SOLV.lig_0>
-31.87

>  <SCORE.INTRA.VDW>
0.679928

>  <SCORE.INTRA.VDW.0>
-0.575321

>  <SCORE.INTRA.norm>
0.0165795

>  <SCORE.RESTR>
0

>  <SCORE.RESTR.CAVITY>
0

>  <SCORE.RESTR.norm>
0

>  <SCORE.SYSTEM>
0

>  <SCORE.SYSTEM.CONST>
0

>  <SCORE.SYSTEM.DIHEDRAL>
0

>  <SCORE.SYSTEM.SOLV>
0

>  <SCORE.SYSTEM.norm>
0

>  <SCORE.heavy>
10

>  <SCORE.norm>
-0.884535

>  <RMSD>
5.329

$$$$
ligand
 OpenBabel11021811463D
libRbt.so/2013.1/901 2013/11/27
 10  9  0  0  0  0  0  0  0  0999 V2000
   24.8285   44.4783   19.0995 N   0  0  0  0  0  0  0  0  0  0  0  0
   25.5146   43.1921   19.1008 C   0  0  2  0  0  0  0  0  0  0  0  0
   25.2295   42.4209   17.8132 C   0  0  0  0  0  0  0  0  0  0  0  0
   26.1363   41.7888   17.2636 O   0  0  0  0  0  0  0  0  0  0  0  0
   25.1208   42.3677   20.3303 C   0  0  0  0  0  0  0  0  0  0  0  0
   25.8845   41.0548   20.4544 C   0  0  0  0  0  0  0  0  0  0  0  0
   25.5099   40.2861   21.7184 C   0  0  0  0  0  0  0  0  0  0  0  0
   24.0595   39.7797   21.6757 C   0  0  0  0  0  0  0  0  0  0  0  0
   23.6306   39.0205   22.8929 N   0  0  0  0  0  0  0  0  0  0  0  0
   24.0990   42.4000   17.3088 O   0  0  0  0  0  0  0  0  0  0  0  0
  2  1  1  6  0  0  0
  2  3  1  0  0  0  0
  2  5  1  0  0  0  0
  3  4  1  0  0  0  0
  3 10  1  0  0  0  0
  5  6  1  0  0  0  0
  6  7  1  0  0  0  0
  7  8  1  0  0  0  0
  8  9  1  0  0  0  0
M  END
>  <CHROM.1>
139.86923005,-175.44124906,177.65706628,67.16622181,-179.79049005,24.99786622
41.66907346,19.72871613,0.49462061,1.40194865,0.14900220

>  <Name>
ligand

>  <RI>
0

>  <Rbt.Current_Directory>
/home/itssahil/PROJECTS/Mol_Feturizer/New_Systems/rnas/3D0U

>  <Rbt.Executable>
rbdock ($Id: //depot/dev/client3/rdock/2013.1/src/exe/rbdock.cxx#4 $)

>  <Rbt.Library>
libRbt.so (2013.1, Build901 2013/11/27)

>  <Rbt.Parameter_File>
/export/apps/rDock/src/rDock_2013.1_src/data/scripts/dock_solv.prm

>  <Rbt.Receptor>
prm/pocket_docking_5.prm

>  <SCORE>
-9.31598

>  <SCORE.INTER>
-8.63385

>  <SCORE.INTER.CONST>
1

>  <SCORE.INTER.POLAR>
0

>  <SCORE.INTER.ROT>
5

>  <SCORE.INTER.SOLV>
13.8971

>  <SCORE.INTER.VDW>
-17.3216

>  <SCORE.INTER.norm>
-0.863385

>  <SCORE.INTRA>
-0.682124

>  <SCORE.INTRA.DIHEDRAL>
-0.460746

>  <SCORE.INTRA.DIHEDRAL.0>
2.22229

>  <SCORE.INTRA.POLAR>
0

>  <SCORE.INTRA.POLAR.0>
0

>  <SCORE.INTRA.REPUL>
0

>  <SCORE.INTRA.REPUL.0>
0

>  <SCORE.INTRA.SOLV>
-1.41218

>  <SCORE.INTRA.SOLV.lig_0>
-31.87

>  <SCORE.INTRA.VDW>
0.254338

>  <SCORE.INTRA.VDW.0>
-0.575321

>  <SCORE.INTRA.norm>
-0.0682124

>  <SCORE.RESTR>
0

>  <SCORE.RESTR.CAVITY>
0

>  <SCORE.RESTR.norm>
0

>  <SCORE.SYSTEM>
0

>  <SCORE.SYSTEM.CONST>
0

>  <SCORE.SYSTEM.DIHEDRAL>
0

>  <SCORE.SYSTEM.SOLV>
0

>  <SCORE.SYSTEM.norm>
0

>  <SCORE.heavy>
10

>  <SCORE.norm>
-0.931598

>  <RMSD>
5.330

$$$$
ligand
 OpenBabel11021811463D
libRbt.so/2013.1/901 2013/11/27
 10  9  0  0  0  0  0  0  0  0999 V2000
   25.1780   45.0603   18.1604 N   0  0  0  0  0  0  0  0  0  0  0  0
   25.3814   43.7512   18.7688 C   0  0  2  0  0  0  0  0  0  0  0  0
   25.2517   42.6404   17.7280 C   0  0  0  0  0  0  0  0  0  0  0  0
   26.1649   41.8217   17.5880 O   0  0  0  0  0  0  0  0  0  0  0  0
   24.4029   43.5324   19.9267 C   0  0  0  0  0  0  0  0  0  0  0  0
   24.8161   42.4096   20.8706 C   0  0  0  0  0  0  0  0  0  0  0  0
   24.6210   41.0302   20.2476 C   0  0  0  0  0  0  0  0  0  0  0  0
   25.0324   39.9020   21.2066 C   0  0  0  0  0  0  0  0  0  0  0  0
   24.2205   39.8273   22.4624 N   0  0  0  0  0  0  0  0  0  0  0  0
   24.2391   42.5285   17.0244 O   0  0  0  0  0  0  0  0  0  0  0  0
  2  1  1  6  0  0  0
  2  3  1  0  0  0  0
  2  5  1  0  0  0  0
  3  4  1  0  0  0  0
  3 10  1  0  0  0  0
  5  6  1  0  0  0  0
  6  7  1  0  0  0  0
  7  8  1  0  0  0  0
  8  9  1  0  0  0  0
M  END
>  <CHROM.1>
125.79824018,-162.23523898,-72.90892938,-179.70399439,62.97433585,24.93064977
42.23191122,19.36796444,1.03255978,1.35782314,-0.34163283

>  <Name>
ligand

>  <RI>
0

>  <Rbt.Current_Directory>
/home/itssahil/PROJECTS/Mol_Feturizer/New_Systems/rnas/3D0U

>  <Rbt.Executable>
rbdock ($Id: //depot/dev/client3/rdock/2013.1/src/exe/rbdock.cxx#4 $)

>  <Rbt.Library>
libRbt.so (2013.1, Build901 2013/11/27)

>  <Rbt.Parameter_File>
/export/apps/rDock/src/rDock_2013.1_src/data/scripts/dock_solv.prm

>  <Rbt.Receptor>
prm/pocket_docking_8.prm

>  <SCORE>
-6.57231

>  <SCORE.INTER>
-6.58581

>  <SCORE.INTER.CONST>
1

>  <SCORE.INTER.POLAR>
0

>  <SCORE.INTER.ROT>
5

>  <SCORE.INTER.SOLV>
15.2793

>  <SCORE.INTER.VDW>
-16.417

>  <SCORE.INTER.norm>
-0.658581

>  <SCORE.INTRA>
0.0134948

>  <SCORE.INTRA.DIHEDRAL>
1.09446

>  <SCORE.INTRA.DIHEDRAL.0>
2.22229

>  <SCORE.INTRA.POLAR>
0

>  <SCORE.INTRA.POLAR.0>
0

>  <SCORE.INTRA.REPUL>
0

>  <SCORE.INTRA.REPUL.0>
0

>  <SCORE.INTRA.SOLV>
-0.637534

>  <SCORE.INTRA.SOLV.lig_0>
-31.87

>  <SCORE.INTRA.VDW>
-0.214966

>  <SCORE.INTRA.VDW.0>
-0.575321

>  <SCORE.INTRA.norm>
0.00134948

>  <SCORE.RESTR>
0

>  <SCORE.RESTR.CAVITY>
0

>  <SCORE.RESTR.norm>
0

>  <SCORE.SYSTEM>
0

>  <SCORE.SYSTEM.CONST>
0

>  <SCORE.SYSTEM.DIHEDRAL>
0

>  <SCORE.SYSTEM.SOLV>
0

>  <SCORE.SYSTEM.norm>
0

>  <SCORE.heavy>
10

>  <SCORE.norm>
-0.657231

>  <RMSD>
5.333

$$$$
ligand
 OpenBabel11021811463D
libRbt.so/2013.1/901 2013/11/27
 10  9  0  0  0  0  0  0  0  0999 V2000
   24.9532   43.8598   19.5828 N   0  0  0  0  0  0  0  0  0  0  0  0
   25.7925   42.6931   19.3387 C   0  0  2  0  0  0  0  0  0  0  0  0
   25.6138   42.1823   17.9101 C   0  0  0  0  0  0  0  0  0  0  0  0
   26.3919   41.3365   17.4595 O   0  0  0  0  0  0  0  0  0  0  0  0
   25.4945   41.5873   20.3559 C   0  0  0  0  0  0  0  0  0  0  0  0
   24.0485   41.1069   20.3285 C   0  0  0  0  0  0  0  0  0  0  0  0
   23.7913   39.9917   21.3381 C   0  0  0  0  0  0  0  0  0  0  0  0
   23.8834   40.4946   22.7874 C   0  0  0  0  0  0  0  0  0  0  0  0
   23.5996   39.4535   23.8253 N   0  0  0  0  0  0  0  0  0  0  0  0
   24.6915   42.5863   17.1896 O   0  0  0  0  0  0  0  0  0  0  0  0
  2  1  1  1  0  0  0
  2  3  1  0  0  0  0
  2  5  1  0  0  0  0
  3  4  1  0  0  0  0
  3 10  1  0  0  0  0
  5  6  1  0  0  0  0
  6  7  1  0  0  0  0
  7  8  1  0  0  0  0
  8  9  1  0  0  0  0
M  END
>  <CHROM.1>
168.71610282,59.66047819,179.12504290,68.19495931,178.25754305,24.82803249
41.52362299,19.97081274,0.38141257,1.23463732,0.05206673

>  <Name>
ligand

>  <RI>
0

>  <Rbt.Current_Directory>
/home/itssahil/PROJECTS/Mol_Feturizer/New_Systems/rnas/3D0U

>  <Rbt.Executable>
rbdock ($Id: //depot/dev/client3/rdock/2013.1/src/exe/rbdock.cxx#4 $)

>  <Rbt.Library>
libRbt.so (2013.1, Build901 2013/11/27)

>  <Rbt.Parameter_File>
/export/apps/rDock/src/rDock_2013.1_src/data/scripts/dock_solv.prm

>  <Rbt.Receptor>
prm/pocket_docking_5.prm

>  <SCORE>
-8.69409

>  <SCORE.INTER>
-8.66888

>  <SCORE.INTER.CONST>
1

>  <SCORE.INTER.POLAR>
0

>  <SCORE.INTER.ROT>
5

>  <SCORE.INTER.SOLV>
13.2519

>  <SCORE.INTER.VDW>
-17.1299

>  <SCORE.INTER.norm>
-0.866888

>  <SCORE.INTRA>
-0.0252166

>  <SCORE.INTRA.DIHEDRAL>
-0.470667

>  <SCORE.INTRA.DIHEDRAL.0>
2.22229

>  <SCORE.INTRA.POLAR>
0

>  <SCORE.INTRA.POLAR.0>
0

>  <SCORE.INTRA.REPUL>
0

>  <SCORE.INTRA.REPUL.0>
0

>  <SCORE.INTRA.SOLV>
-0.536053

>  <SCORE.INTRA.SOLV.lig_0>
-31.87

>  <SCORE.INTRA.VDW>
0.478143

>  <SCORE.INTRA.VDW.0>
-0.575321

>  <SCORE.INTRA.norm>
-0.00252166

>  <SCORE.RESTR>
0

>  <SCORE.RESTR.CAVITY>
0

>  <SCORE.RESTR.norm>
0

>  <SCORE.SYSTEM>
0

>  <SCORE.SYSTEM.CONST>
0

>  <SCORE.SYSTEM.DIHEDRAL>
0

>  <SCORE.SYSTEM.SOLV>
0

>  <SCORE.SYSTEM.norm>
0

>  <SCORE.heavy>
10

>  <SCORE.norm>
-0.869409

>  <RMSD>
5.336

$$$$
ligand
 OpenBabel11021811463D
libRbt.so/2013.1/901 2013/11/27
 10  9  0  0  0  0  0  0  0  0999 V2000
   23.7017   42.4538   19.4655 N   0  0  0  0  0  0  0  0  0  0  0  0
   25.1451   42.4010   19.2681 C   0  0  2  0  0  0  0  0  0  0  0  0
   25.4850   42.1024   17.8089 C   0  0  0  0  0  0  0  0  0  0  0  0
   24.8557   42.6615   16.9060 O   0  0  0  0  0  0  0  0  0  0  0  0
   25.7834   41.3671   20.2007 C   0  0  0  0  0  0  0  0  0  0  0  0
   25.6167   41.6946   21.6796 C   0  0  0  0  0  0  0  0  0  0  0  0
   24.3182   41.1337   22.2526 C   0  0  0  0  0  0  0  0  0  0  0  0
   24.3899   39.6125   22.4592 C   0  0  0  0  0  0  0  0  0  0  0  0
   23.1922   39.0204   23.1351 N   0  0  0  0  0  0  0  0  0  0  0  0
   26.3937   41.3188   17.5039 O   0  0  0  0  0  0  0  0  0  0  0  0
  2  1  1  6  0  0  0
  2  3  1  0  0  0  0
  2  5  1  0  0  0  0
  3  4  1  0  0  0  0
  3 10  1  0  0  0  0
  5  6  1  0  0  0  0
  6  7  1  0  0  0  0
  7  8  1  0  0  0  0
  8  9  1  0  0  0  0
M  END
>  <CHROM.1>
42.33905763,-62.96548074,88.01732166,74.51280521,174.69237603,24.89879620
41.37622477,20.02554939,1.31320810,0.34706835,-1.06287915

>  <Name>
ligand

>  <RI>
0

>  <Rbt.Current_Directory>
/home/itssahil/PROJECTS/Mol_Feturizer/New_Systems/rnas/3D0U

>  <Rbt.Executable>
rbdock ($Id: //depot/dev/client3/rdock/2013.1/src/exe/rbdock.cxx#4 $)

>  <Rbt.Library>
libRbt.so (2013.1, Build901 2013/11/27)

>  <Rbt.Parameter_File>
/export/apps/rDock/src/rDock_2013.1_src/data/scripts/dock_solv.prm

>  <Rbt.Receptor>
prm/pocket_docking_4.prm

>  <SCORE>
-6.40624

>  <SCORE.INTER>
-8.98667

>  <SCORE.INTER.CONST>
1

>  <SCORE.INTER.POLAR>
0

>  <SCORE.INTER.ROT>
5

>  <SCORE.INTER.SOLV>
12.3862

>  <SCORE.INTER.VDW>
-17.0532

>  <SCORE.INTER.norm>
-0.898667

>  <SCORE.INTRA>
2.58043

>  <SCORE.INTRA.DIHEDRAL>
2.95974

>  <SCORE.INTRA.DIHEDRAL.0>
2.22229

>  <SCORE.INTRA.POLAR>
0

>  <SCORE.INTRA.POLAR.0>
0

>  <SCORE.INTRA.REPUL>
0

>  <SCORE.INTRA.REPUL.0>
0

>  <SCORE.INTRA.SOLV>
0.661696

>  <SCORE.INTRA.SOLV.lig_0>
-31.87

>  <SCORE.INTRA.VDW>
0.769709

>  <SCORE.INTRA.VDW.0>
-0.575321

>  <SCORE.INTRA.norm>
0.258043

>  <SCORE.RESTR>
0

>  <SCORE.RESTR.CAVITY>
0

>  <SCORE.RESTR.norm>
0

>  <SCORE.SYSTEM>
0

>  <SCORE.SYSTEM.CONST>
0

>  <SCORE.SYSTEM.DIHEDRAL>
0

>  <SCORE.SYSTEM.SOLV>
0

>  <SCORE.SYSTEM.norm>
0

>  <SCORE.heavy>
10

>  <SCORE.norm>
-0.640624

>  <RMSD>
5.340

$$$$
ligand
 OpenBabel11021811463D
libRbt.so/2013.1/901 2013/11/27
 10  9  0  0  0  0  0  0  0  0999 V2000
   25.3905   42.3130   16.8270 N   0  0  0  0  0  0  0  0  0  0  0  0
   24.9598   42.1282   18.2074 C   0  0  2  0  0  0  0  0  0  0  0  0
   24.1383   43.3237   18.6867 C   0  0  0  0  0  0  0  0  0  0  0  0
   24.5374   44.4706   18.4645 O   0  0  0  0  0  0  0  0  0  0  0  0
   26.1632   41.8888   19.1244 C   0  0  0  0  0  0  0  0  0  0  0  0
   25.7897   41.7391   20.5942 C   0  0  0  0  0  0  0  0  0  0  0  0
   24.9739   40.4764   20.8571 C   0  0  0  0  0  0  0  0  0  0  0  0
   24.6328   40.3111   22.3464 C   0  0  0  0  0  0  0  0  0  0  0  0
   23.8094   39.1017   22.6644 N   0  0  0  0  0  0  0  0  0  0  0  0
   23.0648   43.1726   19.2846 O   0  0  0  0  0  0  0  0  0  0  0  0
  2  1  1  6  0  0  0
  2  3  1  0  0  0  0
  2  5  1  0  0  0  0
  3  4  1  0  0  0  0
  3 10  1  0  0  0  0
  5  6  1  0  0  0  0
  6  7  1  0  0  0  0
  7  8  1  0  0  0  0
  8  9  1  0  0  0  0
M  END
>  <CHROM.1>
-46.22837962,177.83315930,66.44477214,178.45495008,178.88430940,24.72675702
41.92465263,19.70765323,-1.51959682,-0.61983325,2.29403482

>  <Name>
ligand

>  <RI>
0

>  <Rbt.Current_Directory>
/home/itssahil/PROJECTS/Mol_Feturizer/New_Systems/rnas/3D0U

>  <Rbt.Executable>
rbdock ($Id: //depot/dev/client3/rdock/2013.1/src/exe/rbdock.cxx#4 $)

>  <Rbt.Library>
libRbt.so (2013.1, Build901 2013/11/27)

>  <Rbt.Parameter_File>
/export/apps/rDock/src/rDock_2013.1_src/data/scripts/dock_solv.prm

>  <Rbt.Receptor>
prm/pocket_docking_3.prm

>  <SCORE>
-8.33542

>  <SCORE.INTER>
-7.36431

>  <SCORE.INTER.CONST>
1

>  <SCORE.INTER.POLAR>
0

>  <SCORE.INTER.ROT>
5

>  <SCORE.INTER.SOLV>
17.5056

>  <SCORE.INTER.VDW>
-17.6781

>  <SCORE.INTER.norm>
-0.736431

>  <SCORE.INTRA>
-0.971106

>  <SCORE.INTRA.DIHEDRAL>
-0.515984

>  <SCORE.INTRA.DIHEDRAL.0>
2.22229

>  <SCORE.INTRA.POLAR>
0

>  <SCORE.INTRA.POLAR.0>
0

>  <SCORE.INTRA.REPUL>
0

>  <SCORE.INTRA.REPUL.0>
0

>  <SCORE.INTRA.SOLV>
-1.38882

>  <SCORE.INTRA.SOLV.lig_0>
-31.87

>  <SCORE.INTRA.VDW>
-0.0187046

>  <SCORE.INTRA.VDW.0>
-0.575321

>  <SCORE.INTRA.norm>
-0.0971106

>  <SCORE.RESTR>
0

>  <SCORE.RESTR.CAVITY>
0

>  <SCORE.RESTR.norm>
0

>  <SCORE.SYSTEM>
0

>  <SCORE.SYSTEM.CONST>
0

>  <SCORE.SYSTEM.DIHEDRAL>
0

>  <SCORE.SYSTEM.SOLV>
0

>  <SCORE.SYSTEM.norm>
0

>  <SCORE.heavy>
10

>  <SCORE.norm>
-0.833542

>  <RMSD>
5.341

$$$$
ligand
 OpenBabel11021811463D
libRbt.so/2013.1/901 2013/11/27
 10  9  0  0  0  0  0  0  0  0999 V2000
   24.6854   44.5963   18.9989 N   0  0  0  0  0  0  0  0  0  0  0  0
   25.3959   43.3238   18.9690 C   0  0  2  0  0  0  0  0  0  0  0  0
   25.0587   42.5409   17.7012 C   0  0  0  0  0  0  0  0  0  0  0  0
   25.9574   41.9717   17.0748 O   0  0  0  0  0  0  0  0  0  0  0  0
   25.0839   42.4979   20.2207 C   0  0  0  0  0  0  0  0  0  0  0  0
   25.8446   41.1791   20.2867 C   0  0  0  0  0  0  0  0  0  0  0  0
   25.5489   40.4052   21.5683 C   0  0  0  0  0  0  0  0  0  0  0  0
   24.1000   39.8947   21.6111 C   0  0  0  0  0  0  0  0  0  0  0  0
   23.7335   39.1707   22.8694 N   0  0  0  0  0  0  0  0  0  0  0  0
   23.8950   42.4480   17.2888 O   0  0  0  0  0  0  0  0  0  0  0  0
  2  1  1  1  0  0  0
  2  3  1  0  0  0  0
  2  5  1  0  0  0  0
  3  4  1  0  0  0  0
  3 10  1  0  0  0  0
  5  6  1  0  0  0  0
  6  7  1  0  0  0  0
  7  8  1  0  0  0  0
  8  9  1  0  0  0  0
M  END
>  <CHROM.1>
136.74225424,-177.34471653,177.95916224,67.83993121,-177.80557463,24.92525748
41.79279647,19.62218267,0.56470863,1.44277704,0.07452019

>  <Name>
ligand

>  <RI>
0

>  <Rbt.Current_Directory>
/home/itssahil/PROJECTS/Mol_Feturizer/New_Systems/rnas/3D0U

>  <Rbt.Executable>
rbdock ($Id: //depot/dev/client3/rdock/2013.1/src/exe/rbdock.cxx#4 $)

>  <Rbt.Library>
libRbt.so (2013.1, Build901 2013/11/27)

>  <Rbt.Parameter_File>
/export/apps/rDock/src/rDock_2013.1_src/data/scripts/dock_solv.prm

>  <Rbt.Receptor>
prm/pocket_docking_4.prm

>  <SCORE>
-9.24026

>  <SCORE.INTER>
-8.56577

>  <SCORE.INTER.CONST>
1

>  <SCORE.INTER.POLAR>
0

>  <SCORE.INTER.ROT>
5

>  <SCORE.INTER.SOLV>
13.7625

>  <SCORE.INTER.VDW>
-17.2314

>  <SCORE.INTER.norm>
-0.856577

>  <SCORE.INTRA>
-0.674496

>  <SCORE.INTRA.DIHEDRAL>
-0.454778

>  <SCORE.INTRA.DIHEDRAL.0>
2.22229

>  <SCORE.INTRA.POLAR>
0

>  <SCORE.INTRA.POLAR.0>
0

>  <SCORE.INTRA.REPUL>
0

>  <SCORE.INTRA.REPUL.0>
0

>  <SCORE.INTRA.SOLV>
-1.40728

>  <SCORE.INTRA.SOLV.lig_0>
-31.87

>  <SCORE.INTRA.VDW>
0.256532

>  <SCORE.INTRA.VDW.0>
-0.575321

>  <SCORE.INTRA.norm>
-0.0674496

>  <SCORE.RESTR>
0

>  <SCORE.RESTR.CAVITY>
0

>  <SCORE.RESTR.norm>
0

>  <SCORE.SYSTEM>
0

>  <SCORE.SYSTEM.CONST>
0

>  <SCORE.SYSTEM.DIHEDRAL>
0

>  <SCORE.SYSTEM.SOLV>
0

>  <SCORE.SYSTEM.norm>
0

>  <SCORE.heavy>
10

>  <SCORE.norm>
-0.924026

>  <RMSD>
5.356

$$$$
ligand
 OpenBabel11021811463D
libRbt.so/2013.1/901 2013/11/27
 10  9  0  0  0  0  0  0  0  0999 V2000
   24.5273   43.8063   19.2573 N   0  0  0  0  0  0  0  0  0  0  0  0
   25.5938   42.8152   19.1840 C   0  0  2  0  0  0  0  0  0  0  0  0
   25.6146   42.1370   17.8153 C   0  0  0  0  0  0  0  0  0  0  0  0
   24.8918   42.5620   16.9094 O   0  0  0  0  0  0  0  0  0  0  0  0
   25.4519   41.7807   20.3047 C   0  0  0  0  0  0  0  0  0  0  0  0
   24.1231   41.0350   20.2817 C   0  0  0  0  0  0  0  0  0  0  0  0
   24.0253   39.9948   21.3941 C   0  0  0  0  0  0  0  0  0  0  0  0
   23.9570   40.6444   22.7853 C   0  0  0  0  0  0  0  0  0  0  0  0
   23.8265   39.6740   23.9180 N   0  0  0  0  0  0  0  0  0  0  0  0
   26.3551   41.1723   17.5828 O   0  0  0  0  0  0  0  0  0  0  0  0
  2  1  1  6  0  0  0
  2  3  1  0  0  0  0
  2  5  1  0  0  0  0
  3  4  1  0  0  0  0
  3 10  1  0  0  0  0
  5  6  1  0  0  0  0
  6  7  1  0  0  0  0
  7  8  1  0  0  0  0
  8  9  1  0  0  0  0
M  END
>  <CHROM.1>
8.04705007,58.59924994,178.92052934,67.85661731,178.59897223,24.84230901
41.55349577,19.90320810,0.87838054,1.14842191,-0.50918522

>  <Name>
ligand

>  <RI>
0

>  <Rbt.Current_Directory>
/home/itssahil/PROJECTS/Mol_Feturizer/New_Systems/rnas/3D0U

>  <Rbt.Executable>
rbdock ($Id: //depot/dev/client3/rdock/2013.1/src/exe/rbdock.cxx#4 $)

>  <Rbt.Library>
libRbt.so (2013.1, Build901 2013/11/27)

>  <Rbt.Parameter_File>
/export/apps/rDock/src/rDock_2013.1_src/data/scripts/dock_solv.prm

>  <Rbt.Receptor>
prm/pocket_docking_7.prm

>  <SCORE>
-8.91321

>  <SCORE.INTER>
-9.11821

>  <SCORE.INTER.CONST>
1

>  <SCORE.INTER.POLAR>
0

>  <SCORE.INTER.ROT>
5

>  <SCORE.INTER.SOLV>
12.9601

>  <SCORE.INTER.VDW>
-17.3322

>  <SCORE.INTER.norm>
-0.911821

>  <SCORE.INTRA>
0.204992

>  <SCORE.INTRA.DIHEDRAL>
-0.478458

>  <SCORE.INTRA.DIHEDRAL.0>
2.22229

>  <SCORE.INTRA.POLAR>
0

>  <SCORE.INTRA.POLAR.0>
0

>  <SCORE.INTRA.REPUL>
0

>  <SCORE.INTRA.REPUL.0>
0

>  <SCORE.INTRA.SOLV>
-0.508768

>  <SCORE.INTRA.SOLV.lig_0>
-31.87

>  <SCORE.INTRA.VDW>
0.698605

>  <SCORE.INTRA.VDW.0>
-0.575321

>  <SCORE.INTRA.norm>
0.0204992

>  <SCORE.RESTR>
0

>  <SCORE.RESTR.CAVITY>
0

>  <SCORE.RESTR.norm>
0

>  <SCORE.SYSTEM>
0

>  <SCORE.SYSTEM.CONST>
0

>  <SCORE.SYSTEM.DIHEDRAL>
0

>  <SCORE.SYSTEM.SOLV>
0

>  <SCORE.SYSTEM.norm>
0

>  <SCORE.heavy>
10

>  <SCORE.norm>
-0.891321

>  <RMSD>
5.359

$$$$
ligand
 OpenBabel11021811463D
libRbt.so/2013.1/901 2013/11/27
 10  9  0  0  0  0  0  0  0  0999 V2000
   24.0267   42.7315   18.1185 N   0  0  0  0  0  0  0  0  0  0  0  0
   24.7417   42.1712   19.2586 C   0  0  2  0  0  0  0  0  0  0  0  0
   26.0773   41.5710   18.8230 C   0  0  0  0  0  0  0  0  0  0  0  0
   26.9491   41.3387   19.6656 O   0  0  0  0  0  0  0  0  0  0  0  0
   23.8825   41.1278   19.9792 C   0  0  0  0  0  0  0  0  0  0  0  0
   24.4468   40.6994   21.3284 C   0  0  0  0  0  0  0  0  0  0  0  0
   23.6324   39.5767   21.9649 C   0  0  0  0  0  0  0  0  0  0  0  0
   24.1294   39.2350   23.3784 C   0  0  0  0  0  0  0  0  0  0  0  0
   23.4025   38.1030   24.0356 N   0  0  0  0  0  0  0  0  0  0  0  0
   26.3061   41.2942   17.6381 O   0  0  0  0  0  0  0  0  0  0  0  0
  2  1  1  6  0  0  0
  2  3  1  0  0  0  0
  2  5  1  0  0  0  0
  3  4  1  0  0  0  0
  3 10  1  0  0  0  0
  5  6  1  0  0  0  0
  6  7  1  0  0  0  0
  7  8  1  0  0  0  0
  8  9  1  0  0  0  0
M  END
>  <CHROM.1>
162.98560569,-168.68258456,-175.18250269,-174.88849912,-177.74857200,24.79327057
40.77866000,20.40051349,1.23813811,0.21613015,-0.95250103

>  <Name>
ligand

>  <RI>
0

>  <Rbt.Current_Directory>
/home/itssahil/PROJECTS/Mol_Feturizer/New_Systems/rnas/3D0U

>  <Rbt.Executable>
rbdock ($Id: //depot/dev/client3/rdock/2013.1/src/exe/rbdock.cxx#4 $)

>  <Rbt.Library>
libRbt.so (2013.1, Build901 2013/11/27)

>  <Rbt.Parameter_File>
/export/apps/rDock/src/rDock_2013.1_src/data/scripts/dock_solv.prm

>  <Rbt.Receptor>
prm/blind_docking_60.prm

>  <SCORE>
-8.515

>  <SCORE.INTER>
-7.5292

>  <SCORE.INTER.CONST>
1

>  <SCORE.INTER.POLAR>
0

>  <SCORE.INTER.ROT>
5

>  <SCORE.INTER.SOLV>
15.5775

>  <SCORE.INTER.VDW>
-17.1453

>  <SCORE.INTER.norm>
-0.75292

>  <SCORE.INTRA>
-0.985802

>  <SCORE.INTRA.DIHEDRAL>
-0.0693463

>  <SCORE.INTRA.DIHEDRAL.0>
2.22229

>  <SCORE.INTRA.POLAR>
0

>  <SCORE.INTRA.POLAR.0>
0

>  <SCORE.INTRA.REPUL>
0

>  <SCORE.INTRA.REPUL.0>
0

>  <SCORE.INTRA.SOLV>
-1.59448

>  <SCORE.INTRA.SOLV.lig_0>
-31.87

>  <SCORE.INTRA.VDW>
-0.153888

>  <SCORE.INTRA.VDW.0>
-0.575321

>  <SCORE.INTRA.norm>
-0.0985802

>  <SCORE.RESTR>
0

>  <SCORE.RESTR.CAVITY>
0

>  <SCORE.RESTR.norm>
0

>  <SCORE.SYSTEM>
0

>  <SCORE.SYSTEM.CONST>
0

>  <SCORE.SYSTEM.DIHEDRAL>
0

>  <SCORE.SYSTEM.SOLV>
0

>  <SCORE.SYSTEM.norm>
0

>  <SCORE.heavy>
10

>  <SCORE.norm>
-0.8515

>  <RMSD>
5.361

$$$$
ligand
 OpenBabel11021811463D
libRbt.so/2013.1/901 2013/11/27
 10  9  0  0  0  0  0  0  0  0999 V2000
   24.8908   44.4205   19.0169 N   0  0  0  0  0  0  0  0  0  0  0  0
   25.5931   43.1448   19.0835 C   0  0  2  0  0  0  0  0  0  0  0  0
   25.4274   42.3628   17.7816 C   0  0  0  0  0  0  0  0  0  0  0  0
   26.2594   41.5051   17.4715 O   0  0  0  0  0  0  0  0  0  0  0  0
   25.1106   42.3210   20.2813 C   0  0  0  0  0  0  0  0  0  0  0  0
   25.8730   41.0151   20.4703 C   0  0  0  0  0  0  0  0  0  0  0  0
   25.4686   40.2905   21.7510 C   0  0  0  0  0  0  0  0  0  0  0  0
   24.0227   39.7735   21.6880 C   0  0  0  0  0  0  0  0  0  0  0  0
   23.5482   39.1020   22.9392 N   0  0  0  0  0  0  0  0  0  0  0  0
   24.4639   42.5569   17.0289 O   0  0  0  0  0  0  0  0  0  0  0  0
  2  1  1  6  0  0  0
  2  3  1  0  0  0  0
  2  5  1  0  0  0  0
  3  4  1  0  0  0  0
  3 10  1  0  0  0  0
  5  6  1  0  0  0  0
  6  7  1  0  0  0  0
  7  8  1  0  0  0  0
  8  9  1  0  0  0  0
M  END
>  <CHROM.1>
156.57471036,-175.90410965,174.03422470,67.44186408,-177.58302778,25.06534577
41.63899764,19.71384990,0.89885289,1.27985496,-0.29187125

>  <Name>
ligand

>  <RI>
0

>  <Rbt.Current_Directory>
/home/itssahil/PROJECTS/Mol_Feturizer/New_Systems/rnas/3D0U

>  <Rbt.Executable>
rbdock ($Id: //depot/dev/client3/rdock/2013.1/src/exe/rbdock.cxx#4 $)

>  <Rbt.Library>
libRbt.so (2013.1, Build901 2013/11/27)

>  <Rbt.Parameter_File>
/export/apps/rDock/src/rDock_2013.1_src/data/scripts/dock_solv.prm

>  <Rbt.Receptor>
prm/pocket_docking_7.prm

>  <SCORE>
-9.27116

>  <SCORE.INTER>
-8.8542

>  <SCORE.INTER.CONST>
1

>  <SCORE.INTER.POLAR>
0

>  <SCORE.INTER.ROT>
5

>  <SCORE.INTER.SOLV>
13.9073

>  <SCORE.INTER.VDW>
-17.4719

>  <SCORE.INTER.norm>
-0.88542

>  <SCORE.INTRA>
-0.41696

>  <SCORE.INTRA.DIHEDRAL>
-0.31613

>  <SCORE.INTRA.DIHEDRAL.0>
2.22229

>  <SCORE.INTRA.POLAR>
0

>  <SCORE.INTRA.POLAR.0>
0

>  <SCORE.INTRA.REPUL>
0

>  <SCORE.INTRA.REPUL.0>
0

>  <SCORE.INTRA.SOLV>
-1.3945

>  <SCORE.INTRA.SOLV.lig_0>
-31.87

>  <SCORE.INTRA.VDW>
0.438355

>  <SCORE.INTRA.VDW.0>
-0.575321

>  <SCORE.INTRA.norm>
-0.041696

>  <SCORE.RESTR>
0

>  <SCORE.RESTR.CAVITY>
0

>  <SCORE.RESTR.norm>
0

>  <SCORE.SYSTEM>
0

>  <SCORE.SYSTEM.CONST>
0

>  <SCORE.SYSTEM.DIHEDRAL>
0

>  <SCORE.SYSTEM.SOLV>
0

>  <SCORE.SYSTEM.norm>
0

>  <SCORE.heavy>
10

>  <SCORE.norm>
-0.927116

>  <RMSD>
5.362

$$$$
ligand
 OpenBabel11021811463D
libRbt.so/2013.1/901 2013/11/27
 10  9  0  0  0  0  0  0  0  0999 V2000
   25.3733   43.2861   20.0101 N   0  0  0  0  0  0  0  0  0  0  0  0
   25.1662   42.0199   19.3179 C   0  0  2  0  0  0  0  0  0  0  0  0
   25.4071   42.1734   17.8172 C   0  0  0  0  0  0  0  0  0  0  0  0
   24.6686   42.9028   17.1491 O   0  0  0  0  0  0  0  0  0  0  0  0
   23.7618   41.4738   19.5931 C   0  0  0  0  0  0  0  0  0  0  0  0
   23.6677   40.6491   20.8711 C   0  0  0  0  0  0  0  0  0  0  0  0
   23.9960   41.4710   22.1144 C   0  0  0  0  0  0  0  0  0  0  0  0
   23.7496   40.6802   23.4089 C   0  0  0  0  0  0  0  0  0  0  0  0
   24.5258   39.4043   23.5144 N   0  0  0  0  0  0  0  0  0  0  0  0
   26.3414   41.5923   17.2495 O   0  0  0  0  0  0  0  0  0  0  0  0
  2  1  1  1  0  0  0
  2  3  1  0  0  0  0
  2  5  1  0  0  0  0
  3  4  1  0  0  0  0
  3 10  1  0  0  0  0
  5  6  1  0  0  0  0
  6  7  1  0  0  0  0
  7  8  1  0  0  0  0
  8  9  1  0  0  0  0
M  END
>  <CHROM.1>
-64.54725100,-85.89709389,62.29740064,173.68486017,58.13340269,24.67497259
41.57249914,20.06117119,1.05470628,1.07095994,-0.75275876

>  <Name>
ligand

>  <RI>
0

>  <Rbt.Current_Directory>
/home/itssahil/PROJECTS/Mol_Feturizer/New_Systems/rnas/3D0U

>  <Rbt.Executable>
rbdock ($Id: //depot/dev/client3/rdock/2013.1/src/exe/rbdock.cxx#4 $)

>  <Rbt.Library>
libRbt.so (2013.1, Build901 2013/11/27)

>  <Rbt.Parameter_File>
/export/apps/rDock/src/rDock_2013.1_src/data/scripts/dock_solv.prm

>  <Rbt.Receptor>
prm/pocket_docking_8.prm

>  <SCORE>
-6.58236

>  <SCORE.INTER>
-8.11629

>  <SCORE.INTER.CONST>
1

>  <SCORE.INTER.POLAR>
0

>  <SCORE.INTER.ROT>
5

>  <SCORE.INTER.SOLV>
14.0036

>  <SCORE.INTER.VDW>
-17.0121

>  <SCORE.INTER.norm>
-0.811629

>  <SCORE.INTRA>
1.53393

>  <SCORE.INTRA.DIHEDRAL>
1.76395

>  <SCORE.INTRA.DIHEDRAL.0>
2.22229

>  <SCORE.INTRA.POLAR>
0

>  <SCORE.INTRA.POLAR.0>
0

>  <SCORE.INTRA.REPUL>
0

>  <SCORE.INTRA.REPUL.0>
0

>  <SCORE.INTRA.SOLV>
1.0204

>  <SCORE.INTRA.SOLV.lig_0>
-31.87

>  <SCORE.INTRA.VDW>
0.141755

>  <SCORE.INTRA.VDW.0>
-0.575321

>  <SCORE.INTRA.norm>
0.153393

>  <SCORE.RESTR>
0

>  <SCORE.RESTR.CAVITY>
0

>  <SCORE.RESTR.norm>
0

>  <SCORE.SYSTEM>
0

>  <SCORE.SYSTEM.CONST>
0

>  <SCORE.SYSTEM.DIHEDRAL>
0

>  <SCORE.SYSTEM.SOLV>
0

>  <SCORE.SYSTEM.norm>
0

>  <SCORE.heavy>
10

>  <SCORE.norm>
-0.658236

>  <RMSD>
5.373

$$$$
ligand
 OpenBabel11021811463D
libRbt.so/2013.1/901 2013/11/27
 10  9  0  0  0  0  0  0  0  0999 V2000
   25.4855   45.1867   18.2084 N   0  0  0  0  0  0  0  0  0  0  0  0
   24.2983   44.4217   18.5696 C   0  0  2  0  0  0  0  0  0  0  0  0
   23.4644   45.1682   19.6095 C   0  0  0  0  0  0  0  0  0  0  0  0
   24.0167   45.6703   20.5927 O   0  0  0  0  0  0  0  0  0  0  0  0
   24.6832   43.0281   19.0755 C   0  0  0  0  0  0  0  0  0  0  0  0
   23.4870   42.1168   19.3221 C   0  0  0  0  0  0  0  0  0  0  0  0
   23.8531   40.8987   20.1654 C   0  0  0  0  0  0  0  0  0  0  0  0
   24.0584   41.2629   21.6442 C   0  0  0  0  0  0  0  0  0  0  0  0
   24.3214   40.0933   22.5412 N   0  0  0  0  0  0  0  0  0  0  0  0
   22.2395   45.2976   19.4843 O   0  0  0  0  0  0  0  0  0  0  0  0
  2  1  1  1  0  0  0
  2  3  1  0  0  0  0
  2  5  1  0  0  0  0
  3  4  1  0  0  0  0
  3 10  1  0  0  0  0
  5  6  1  0  0  0  0
  6  7  1  0  0  0  0
  7  8  1  0  0  0  0
  8  9  1  0  0  0  0
M  END
>  <CHROM.1>
-46.54087246,-173.44905742,-164.53189711,74.27231172,175.73682646,23.97169281
43.34089398,19.93852816,-1.62696532,-0.97271706,2.63431669

>  <Name>
ligand

>  <RI>
0

>  <Rbt.Current_Directory>
/home/itssahil/PROJECTS/Mol_Feturizer/New_Systems/rnas/3D0U

>  <Rbt.Executable>
rbdock ($Id: //depot/dev/client3/rdock/2013.1/src/exe/rbdock.cxx#4 $)

>  <Rbt.Library>
libRbt.so (2013.1, Build901 2013/11/27)

>  <Rbt.Parameter_File>
/export/apps/rDock/src/rDock_2013.1_src/data/scripts/dock_solv.prm

>  <Rbt.Receptor>
prm/blind_docking_60.prm

>  <SCORE>
-7.12092

>  <SCORE.INTER>
-6.96717

>  <SCORE.INTER.CONST>
1

>  <SCORE.INTER.POLAR>
0

>  <SCORE.INTER.ROT>
5

>  <SCORE.INTER.SOLV>
15.2578

>  <SCORE.INTER.VDW>
-16.664

>  <SCORE.INTER.norm>
-0.696717

>  <SCORE.INTRA>
-0.160474

>  <SCORE.INTRA.DIHEDRAL>
1.2654

>  <SCORE.INTRA.DIHEDRAL.0>
2.22229

>  <SCORE.INTRA.POLAR>
0

>  <SCORE.INTRA.POLAR.0>
0

>  <SCORE.INTRA.REPUL>
0

>  <SCORE.INTRA.REPUL.0>
0

>  <SCORE.INTRA.SOLV>
-1.46234

>  <SCORE.INTRA.SOLV.lig_0>
-31.87

>  <SCORE.INTRA.VDW>
-0.0620017

>  <SCORE.INTRA.VDW.0>
-0.575321

>  <SCORE.INTRA.norm>
-0.0160474

>  <SCORE.RESTR>
0.00672721

>  <SCORE.RESTR.CAVITY>
0.00672721

>  <SCORE.RESTR.norm>
0.000672721

>  <SCORE.SYSTEM>
0

>  <SCORE.SYSTEM.CONST>
0

>  <SCORE.SYSTEM.DIHEDRAL>
0

>  <SCORE.SYSTEM.SOLV>
0

>  <SCORE.SYSTEM.norm>
0

>  <SCORE.heavy>
10

>  <SCORE.norm>
-0.712092

>  <RMSD>
5.374

$$$$
ligand
 OpenBabel11021811463D
libRbt.so/2013.1/901 2013/11/27
 10  9  0  0  0  0  0  0  0  0999 V2000
   23.9408   42.8888   19.4966 N   0  0  0  0  0  0  0  0  0  0  0  0
   25.2209   42.2269   19.2768 C   0  0  2  0  0  0  0  0  0  0  0  0
   25.5230   42.1062   17.7842 C   0  0  0  0  0  0  0  0  0  0  0  0
   24.8244   42.7120   16.9663 O   0  0  0  0  0  0  0  0  0  0  0  0
   25.2446   40.8523   19.9522 C   0  0  0  0  0  0  0  0  0  0  0  0
   25.1997   40.9195   21.4740 C   0  0  0  0  0  0  0  0  0  0  0  0
   23.8585   41.4332   21.9901 C   0  0  0  0  0  0  0  0  0  0  0  0
   23.8064   41.4647   23.5257 C   0  0  0  0  0  0  0  0  0  0  0  0
   23.8086   40.1156   24.1750 N   0  0  0  0  0  0  0  0  0  0  0  0
   26.4681   41.4227   17.3688 O   0  0  0  0  0  0  0  0  0  0  0  0
  2  1  1  6  0  0  0
  2  3  1  0  0  0  0
  2  5  1  0  0  0  0
  3  4  1  0  0  0  0
  3 10  1  0  0  0  0
  5  6  1  0  0  0  0
  6  7  1  0  0  0  0
  7  8  1  0  0  0  0
  8  9  1  0  0  0  0
M  END
>  <CHROM.1>
10.55557648,-66.73861929,67.98230012,178.53642258,-68.20008912,24.80017766
41.61548601,20.15683091,1.22720997,0.74297862,-1.11027773

>  <Name>
ligand

>  <RI>
0

>  <Rbt.Current_Directory>
/home/itssahil/PROJECTS/Mol_Feturizer/New_Systems/rnas/3D0U

>  <Rbt.Executable>
rbdock ($Id: //depot/dev/client3/rdock/2013.1/src/exe/rbdock.cxx#4 $)

>  <Rbt.Library>
libRbt.so (2013.1, Build901 2013/11/27)

>  <Rbt.Parameter_File>
/export/apps/rDock/src/rDock_2013.1_src/data/scripts/dock_solv.prm

>  <Rbt.Receptor>
prm/pocket_docking_6.prm

>  <SCORE>
-8.46393

>  <SCORE.INTER>
-9.77256

>  <SCORE.INTER.CONST>
1

>  <SCORE.INTER.POLAR>
0

>  <SCORE.INTER.ROT>
5

>  <SCORE.INTER.SOLV>
12.3921

>  <SCORE.INTER.VDW>
-17.5791

>  <SCORE.INTER.norm>
-0.977256

>  <SCORE.INTRA>
1.30863

>  <SCORE.INTRA.DIHEDRAL>
-0.0466756

>  <SCORE.INTRA.DIHEDRAL.0>
2.22229

>  <SCORE.INTRA.POLAR>
0

>  <SCORE.INTRA.POLAR.0>
0

>  <SCORE.INTRA.REPUL>
0

>  <SCORE.INTRA.REPUL.0>
0

>  <SCORE.INTRA.SOLV>
1.44356

>  <SCORE.INTRA.SOLV.lig_0>
-31.87

>  <SCORE.INTRA.VDW>
0.610188

>  <SCORE.INTRA.VDW.0>
-0.575321

>  <SCORE.INTRA.norm>
0.130863

>  <SCORE.RESTR>
0

>  <SCORE.RESTR.CAVITY>
0

>  <SCORE.RESTR.norm>
0

>  <SCORE.SYSTEM>
0

>  <SCORE.SYSTEM.CONST>
0

>  <SCORE.SYSTEM.DIHEDRAL>
0

>  <SCORE.SYSTEM.SOLV>
0

>  <SCORE.SYSTEM.norm>
0

>  <SCORE.heavy>
10

>  <SCORE.norm>
-0.846393

>  <RMSD>
5.374

$$$$
ligand
 OpenBabel11021811463D
libRbt.so/2013.1/901 2013/11/27
 10  9  0  0  0  0  0  0  0  0999 V2000
   24.8403   44.3985   18.9836 N   0  0  0  0  0  0  0  0  0  0  0  0
   25.5437   43.1239   19.0590 C   0  0  2  0  0  0  0  0  0  0  0  0
   25.4004   42.3441   17.7532 C   0  0  0  0  0  0  0  0  0  0  0  0
   26.2072   41.4502   17.4812 O   0  0  0  0  0  0  0  0  0  0  0  0
   25.0434   42.2969   20.2474 C   0  0  0  0  0  0  0  0  0  0  0  0
   25.8342   41.0141   20.4738 C   0  0  0  0  0  0  0  0  0  0  0  0
   25.4268   40.3042   21.7618 C   0  0  0  0  0  0  0  0  0  0  0  0
   23.9977   39.7445   21.6833 C   0  0  0  0  0  0  0  0  0  0  0  0
   23.5412   39.0316   22.9183 N   0  0  0  0  0  0  0  0  0  0  0  0
   24.4792   42.5760   16.9593 O   0  0  0  0  0  0  0  0  0  0  0  0
  2  1  1  6  0  0  0
  2  3  1  0  0  0  0
  2  5  1  0  0  0  0
  3  4  1  0  0  0  0
  3 10  1  0  0  0  0
  5  6  1  0  0  0  0
  6  7  1  0  0  0  0
  7  8  1  0  0  0  0
  8  9  1  0  0  0  0
M  END
>  <CHROM.1>
159.57734467,-174.02086619,172.83942923,67.72854569,179.82221958,25.03142915
41.61823192,19.69459041,0.90164622,1.28657085,-0.29303115

>  <Name>
ligand

>  <RI>
0

>  <Rbt.Current_Directory>
/home/itssahil/PROJECTS/Mol_Feturizer/New_Systems/rnas/3D0U

>  <Rbt.Executable>
rbdock ($Id: //depot/dev/client3/rdock/2013.1/src/exe/rbdock.cxx#4 $)

>  <Rbt.Library>
libRbt.so (2013.1, Build901 2013/11/27)

>  <Rbt.Parameter_File>
/export/apps/rDock/src/rDock_2013.1_src/data/scripts/dock_solv.prm

>  <Rbt.Receptor>
prm/pocket_docking_8.prm

>  <SCORE>
-9.39231

>  <SCORE.INTER>
-9.0275

>  <SCORE.INTER.CONST>
1

>  <SCORE.INTER.POLAR>
0

>  <SCORE.INTER.ROT>
5

>  <SCORE.INTER.SOLV>
13.8344

>  <SCORE.INTER.VDW>
-17.5631

>  <SCORE.INTER.norm>
-0.90275

>  <SCORE.INTRA>
-0.364813

>  <SCORE.INTRA.DIHEDRAL>
-0.18267

>  <SCORE.INTRA.DIHEDRAL.0>
2.22229

>  <SCORE.INTRA.POLAR>
0

>  <SCORE.INTRA.POLAR.0>
0

>  <SCORE.INTRA.REPUL>
0

>  <SCORE.INTRA.REPUL.0>
0

>  <SCORE.INTRA.SOLV>
-1.4092

>  <SCORE.INTRA.SOLV.lig_0>
-31.87

>  <SCORE.INTRA.VDW>
0.431122

>  <SCORE.INTRA.VDW.0>
-0.575321

>  <SCORE.INTRA.norm>
-0.0364813

>  <SCORE.RESTR>
0

>  <SCORE.RESTR.CAVITY>
0

>  <SCORE.RESTR.norm>
0

>  <SCORE.SYSTEM>
0

>  <SCORE.SYSTEM.CONST>
0

>  <SCORE.SYSTEM.DIHEDRAL>
0

>  <SCORE.SYSTEM.SOLV>
0

>  <SCORE.SYSTEM.norm>
0

>  <SCORE.heavy>
10

>  <SCORE.norm>
-0.939231

>  <RMSD>
5.374

$$$$
ligand
 OpenBabel11021811463D
libRbt.so/2013.1/901 2013/11/27
 10  9  0  0  0  0  0  0  0  0999 V2000
   24.5069   42.7836   16.9035 N   0  0  0  0  0  0  0  0  0  0  0  0
   24.7319   42.6320   18.3358 C   0  0  2  0  0  0  0  0  0  0  0  0
   24.8380   43.9947   19.0181 C   0  0  0  0  0  0  0  0  0  0  0  0
   24.5801   44.1000   20.2207 O   0  0  0  0  0  0  0  0  0  0  0  0
   25.9820   41.7881   18.6028 C   0  0  0  0  0  0  0  0  0  0  0  0
   26.1656   41.4171   20.0695 C   0  0  0  0  0  0  0  0  0  0  0  0
   25.0393   40.5257   20.5851 C   0  0  0  0  0  0  0  0  0  0  0  0
   25.1678   40.2490   22.0913 C   0  0  0  0  0  0  0  0  0  0  0  0
   24.0813   39.3900   22.6598 N   0  0  0  0  0  0  0  0  0  0  0  0
   25.1938   45.0038   18.3953 O   0  0  0  0  0  0  0  0  0  0  0  0
  2  1  1  6  0  0  0
  2  3  1  0  0  0  0
  2  5  1  0  0  0  0
  3  4  1  0  0  0  0
  3 10  1  0  0  0  0
  5  6  1  0  0  0  0
  6  7  1  0  0  0  0
  7  8  1  0  0  0  0
  8  9  1  0  0  0  0
M  END
>  <CHROM.1>
155.67764295,-171.55894642,63.90813232,-175.34346961,179.38383980,25.02974526
42.22582190,19.69676225,-1.45805556,-1.36665504,2.50053459

>  <Name>
ligand

>  <RI>
0

>  <Rbt.Current_Directory>
/home/itssahil/PROJECTS/Mol_Feturizer/New_Systems/rnas/3D0U

>  <Rbt.Executable>
rbdock ($Id: //depot/dev/client3/rdock/2013.1/src/exe/rbdock.cxx#4 $)

>  <Rbt.Library>
libRbt.so (2013.1, Build901 2013/11/27)

>  <Rbt.Parameter_File>
/export/apps/rDock/src/rDock_2013.1_src/data/scripts/dock_solv.prm

>  <Rbt.Receptor>
prm/pocket_docking_5.prm

>  <SCORE>
-8.88325

>  <SCORE.INTER>
-7.99089

>  <SCORE.INTER.CONST>
1

>  <SCORE.INTER.POLAR>
0

>  <SCORE.INTER.ROT>
5

>  <SCORE.INTER.SOLV>
16.8515

>  <SCORE.INTER.VDW>
-17.8778

>  <SCORE.INTER.norm>
-0.799089

>  <SCORE.INTRA>
-0.892359

>  <SCORE.INTRA.DIHEDRAL>
-0.35508

>  <SCORE.INTRA.DIHEDRAL.0>
2.22229

>  <SCORE.INTRA.POLAR>
0

>  <SCORE.INTRA.POLAR.0>
0

>  <SCORE.INTRA.REPUL>
0

>  <SCORE.INTRA.REPUL.0>
0

>  <SCORE.INTRA.SOLV>
-1.31264

>  <SCORE.INTRA.SOLV.lig_0>
-31.87

>  <SCORE.INTRA.VDW>
-0.0584984

>  <SCORE.INTRA.VDW.0>
-0.575321

>  <SCORE.INTRA.norm>
-0.0892359

>  <SCORE.RESTR>
0

>  <SCORE.RESTR.CAVITY>
0

>  <SCORE.RESTR.norm>
0

>  <SCORE.SYSTEM>
0

>  <SCORE.SYSTEM.CONST>
0

>  <SCORE.SYSTEM.DIHEDRAL>
0

>  <SCORE.SYSTEM.SOLV>
0

>  <SCORE.SYSTEM.norm>
0

>  <SCORE.heavy>
10

>  <SCORE.norm>
-0.888325

>  <RMSD>
5.375

$$$$
ligand
 OpenBabel11021811463D
libRbt.so/2013.1/901 2013/11/27
 10  9  0  0  0  0  0  0  0  0999 V2000
   25.3445   42.4819   16.9040 N   0  0  0  0  0  0  0  0  0  0  0  0
   24.6185   42.3798   18.1640 C   0  0  2  0  0  0  0  0  0  0  0  0
   24.3508   43.7640   18.7525 C   0  0  0  0  0  0  0  0  0  0  0  0
   23.2619   44.0050   19.2818 O   0  0  0  0  0  0  0  0  0  0  0  0
   25.3804   41.5003   19.1601 C   0  0  0  0  0  0  0  0  0  0  0  0
   24.5700   41.1396   20.3993 C   0  0  0  0  0  0  0  0  0  0  0  0
   25.3705   40.2958   21.3874 C   0  0  0  0  0  0  0  0  0  0  0  0
   24.5330   39.8935   22.6115 C   0  0  0  0  0  0  0  0  0  0  0  0
   24.0538   41.0438   23.4414 N   0  0  0  0  0  0  0  0  0  0  0  0
   25.2100   44.6550   18.7264 O   0  0  0  0  0  0  0  0  0  0  0  0
  2  1  1  6  0  0  0
  2  3  1  0  0  0  0
  2  5  1  0  0  0  0
  3  4  1  0  0  0  0
  3 10  1  0  0  0  0
  5  6  1  0  0  0  0
  6  7  1  0  0  0  0
  7  8  1  0  0  0  0
  8  9  1  0  0  0  0
M  END
>  <CHROM.1>
139.76897152,-169.42543012,-178.42647249,-177.98114493,-62.53168744,24.66213322
42.15245362,19.88661726,-1.50845021,-1.08136422,2.25326274

>  <Name>
ligand

>  <RI>
0

>  <Rbt.Current_Directory>
/home/itssahil/PROJECTS/Mol_Feturizer/New_Systems/rnas/3D0U

>  <Rbt.Executable>
rbdock ($Id: //depot/dev/client3/rdock/2013.1/src/exe/rbdock.cxx#4 $)

>  <Rbt.Library>
libRbt.so (2013.1, Build901 2013/11/27)

>  <Rbt.Parameter_File>
/export/apps/rDock/src/rDock_2013.1_src/data/scripts/dock_solv.prm

>  <Rbt.Receptor>
prm/pocket_docking_6.prm

>  <SCORE>
-8.16229

>  <SCORE.INTER>
-7.32916

>  <SCORE.INTER.CONST>
1

>  <SCORE.INTER.POLAR>
0

>  <SCORE.INTER.ROT>
5

>  <SCORE.INTER.SOLV>
17.7812

>  <SCORE.INTER.VDW>
-17.7465

>  <SCORE.INTER.norm>
-0.732916

>  <SCORE.INTRA>
-0.833132

>  <SCORE.INTRA.DIHEDRAL>
-0.303407

>  <SCORE.INTRA.DIHEDRAL.0>
2.22229

>  <SCORE.INTRA.POLAR>
0

>  <SCORE.INTRA.POLAR.0>
0

>  <SCORE.INTRA.REPUL>
0

>  <SCORE.INTRA.REPUL.0>
0

>  <SCORE.INTRA.SOLV>
-0.763407

>  <SCORE.INTRA.SOLV.lig_0>
-31.87

>  <SCORE.INTRA.VDW>
-0.299724

>  <SCORE.INTRA.VDW.0>
-0.575321

>  <SCORE.INTRA.norm>
-0.0833132

>  <SCORE.RESTR>
0

>  <SCORE.RESTR.CAVITY>
0

>  <SCORE.RESTR.norm>
0

>  <SCORE.SYSTEM>
0

>  <SCORE.SYSTEM.CONST>
0

>  <SCORE.SYSTEM.DIHEDRAL>
0

>  <SCORE.SYSTEM.SOLV>
0

>  <SCORE.SYSTEM.norm>
0

>  <SCORE.heavy>
10

>  <SCORE.norm>
-0.816229

>  <RMSD>
5.376

$$$$
ligand
 OpenBabel11021811463D
libRbt.so/2013.1/901 2013/11/27
 10  9  0  0  0  0  0  0  0  0999 V2000
   24.8139   44.3694   18.9214 N   0  0  0  0  0  0  0  0  0  0  0  0
   25.5460   43.1148   19.0449 C   0  0  2  0  0  0  0  0  0  0  0  0
   25.4513   42.2993   17.7566 C   0  0  0  0  0  0  0  0  0  0  0  0
   24.5767   42.5638   16.9264 O   0  0  0  0  0  0  0  0  0  0  0  0
   25.0389   42.3057   20.2426 C   0  0  0  0  0  0  0  0  0  0  0  0
   25.8309   41.0285   20.4952 C   0  0  0  0  0  0  0  0  0  0  0  0
   25.4166   40.3389   21.7921 C   0  0  0  0  0  0  0  0  0  0  0  0
   23.9919   39.7684   21.7110 C   0  0  0  0  0  0  0  0  0  0  0  0
   23.5340   39.0630   22.9497 N   0  0  0  0  0  0  0  0  0  0  0  0
   26.2450   41.3809   17.5127 O   0  0  0  0  0  0  0  0  0  0  0  0
  2  1  1  6  0  0  0
  2  3  1  0  0  0  0
  2  5  1  0  0  0  0
  3  4  1  0  0  0  0
  3 10  1  0  0  0  0
  5  6  1  0  0  0  0
  6  7  1  0  0  0  0
  7  8  1  0  0  0  0
  8  9  1  0  0  0  0
M  END
>  <CHROM.1>
-17.25247326,-175.64437498,172.78413149,68.02292431,179.25092311,25.04560791
41.61268156,19.69779405,0.96602154,1.24650770,-0.37681971

>  <Name>
ligand

>  <RI>
0

>  <Rbt.Current_Directory>
/home/itssahil/PROJECTS/Mol_Feturizer/New_Systems/rnas/3D0U

>  <Rbt.Executable>
rbdock ($Id: //depot/dev/client3/rdock/2013.1/src/exe/rbdock.cxx#4 $)

>  <Rbt.Library>
libRbt.so (2013.1, Build901 2013/11/27)

>  <Rbt.Parameter_File>
/export/apps/rDock/src/rDock_2013.1_src/data/scripts/dock_solv.prm

>  <Rbt.Receptor>
prm/pocket_docking_5.prm

>  <SCORE>
-9.41908

>  <SCORE.INTER>
-9.14454

>  <SCORE.INTER.CONST>
1

>  <SCORE.INTER.POLAR>
0

>  <SCORE.INTER.ROT>
5

>  <SCORE.INTER.SOLV>
13.8021

>  <SCORE.INTER.VDW>
-17.6304

>  <SCORE.INTER.norm>
-0.914454

>  <SCORE.INTRA>
-0.274542

>  <SCORE.INTRA.DIHEDRAL>
-0.16807

>  <SCORE.INTRA.DIHEDRAL.0>
2.22229

>  <SCORE.INTRA.POLAR>
0

>  <SCORE.INTRA.POLAR.0>
0

>  <SCORE.INTRA.REPUL>
0

>  <SCORE.INTRA.REPUL.0>
0

>  <SCORE.INTRA.SOLV>
-1.40117

>  <SCORE.INTRA.SOLV.lig_0>
-31.87

>  <SCORE.INTRA.VDW>
0.510079

>  <SCORE.INTRA.VDW.0>
-0.575321

>  <SCORE.INTRA.norm>
-0.0274542

>  <SCORE.RESTR>
0

>  <SCORE.RESTR.CAVITY>
0

>  <SCORE.RESTR.norm>
0

>  <SCORE.SYSTEM>
0

>  <SCORE.SYSTEM.CONST>
0

>  <SCORE.SYSTEM.DIHEDRAL>
0

>  <SCORE.SYSTEM.SOLV>
0

>  <SCORE.SYSTEM.norm>
0

>  <SCORE.heavy>
10

>  <SCORE.norm>
-0.941908

>  <RMSD>
5.378

$$$$
ligand
 OpenBabel11021811463D
libRbt.so/2013.1/901 2013/11/27
 10  9  0  0  0  0  0  0  0  0999 V2000
   24.7934   44.4111   18.9903 N   0  0  0  0  0  0  0  0  0  0  0  0
   25.5315   43.1569   19.0754 C   0  0  2  0  0  0  0  0  0  0  0  0
   25.4408   42.3809   17.7627 C   0  0  0  0  0  0  0  0  0  0  0  0
   26.2717   41.5034   17.5104 O   0  0  0  0  0  0  0  0  0  0  0  0
   25.0283   42.3090   20.2476 C   0  0  0  0  0  0  0  0  0  0  0  0
   25.8317   41.0328   20.4665 C   0  0  0  0  0  0  0  0  0  0  0  0
   25.4366   40.3152   21.7541 C   0  0  0  0  0  0  0  0  0  0  0  0
   24.0060   39.7578   21.6868 C   0  0  0  0  0  0  0  0  0  0  0  0
   23.5502   39.0651   22.9334 N   0  0  0  0  0  0  0  0  0  0  0  0
   24.5388   42.5995   16.9432 O   0  0  0  0  0  0  0  0  0  0  0  0
  2  1  1  6  0  0  0
  2  3  1  0  0  0  0
  2  5  1  0  0  0  0
  3  4  1  0  0  0  0
  3 10  1  0  0  0  0
  5  6  1  0  0  0  0
  6  7  1  0  0  0  0
  7  8  1  0  0  0  0
  8  9  1  0  0  0  0
M  END
>  <CHROM.1>
160.26323986,-175.29150050,171.78805804,67.01676977,-178.84349029,25.04411463
41.64315084,19.69944732,1.01192332,1.22958261,-0.40980472

>  <Name>
ligand

>  <RI>
0

>  <Rbt.Current_Directory>
/home/itssahil/PROJECTS/Mol_Feturizer/New_Systems/rnas/3D0U

>  <Rbt.Executable>
rbdock ($Id: //depot/dev/client3/rdock/2013.1/src/exe/rbdock.cxx#4 $)

>  <Rbt.Library>
libRbt.so (2013.1, Build901 2013/11/27)

>  <Rbt.Parameter_File>
/export/apps/rDock/src/rDock_2013.1_src/data/scripts/dock_solv.prm

>  <Rbt.Receptor>
prm/pocket_docking_5.prm

>  <SCORE>
-9.42555

>  <SCORE.INTER>
-9.12749

>  <SCORE.INTER.CONST>
1

>  <SCORE.INTER.POLAR>
0

>  <SCORE.INTER.ROT>
5

>  <SCORE.INTER.SOLV>
13.7847

>  <SCORE.INTER.VDW>
-17.6132

>  <SCORE.INTER.norm>
-0.912749

>  <SCORE.INTRA>
-0.298058

>  <SCORE.INTRA.DIHEDRAL>
-0.205361

>  <SCORE.INTRA.DIHEDRAL.0>
2.22229

>  <SCORE.INTRA.POLAR>
0

>  <SCORE.INTRA.POLAR.0>
0

>  <SCORE.INTRA.REPUL>
0

>  <SCORE.INTRA.REPUL.0>
0

>  <SCORE.INTRA.SOLV>
-1.39805

>  <SCORE.INTRA.SOLV.lig_0>
-31.87

>  <SCORE.INTRA.VDW>
0.503648

>  <SCORE.INTRA.VDW.0>
-0.575321

>  <SCORE.INTRA.norm>
-0.0298058

>  <SCORE.RESTR>
0

>  <SCORE.RESTR.CAVITY>
0

>  <SCORE.RESTR.norm>
0

>  <SCORE.SYSTEM>
0

>  <SCORE.SYSTEM.CONST>
0

>  <SCORE.SYSTEM.DIHEDRAL>
0

>  <SCORE.SYSTEM.SOLV>
0

>  <SCORE.SYSTEM.norm>
0

>  <SCORE.heavy>
10

>  <SCORE.norm>
-0.942555

>  <RMSD>
5.378

$$$$
ligand
 OpenBabel11021811463D
libRbt.so/2013.1/901 2013/11/27
 10  9  0  0  0  0  0  0  0  0999 V2000
   25.9940   40.3283   19.4828 N   0  0  0  0  0  0  0  0  0  0  0  0
   24.9338   41.3259   19.4057 C   0  0  2  0  0  0  0  0  0  0  0  0
   24.9074   41.9881   18.0293 C   0  0  0  0  0  0  0  0  0  0  0  0
   25.9296   42.0051   17.3374 O   0  0  0  0  0  0  0  0  0  0  0  0
   25.0913   42.3725   20.5130 C   0  0  0  0  0  0  0  0  0  0  0  0
   25.0783   41.7812   21.9175 C   0  0  0  0  0  0  0  0  0  0  0  0
   23.6988   41.2620   22.3129 C   0  0  0  0  0  0  0  0  0  0  0  0
   23.7113   40.5889   23.6944 C   0  0  0  0  0  0  0  0  0  0  0  0
   24.5052   39.3212   23.7604 N   0  0  0  0  0  0  0  0  0  0  0  0
   23.8745   42.5000   17.5777 O   0  0  0  0  0  0  0  0  0  0  0  0
  2  1  1  6  0  0  0
  2  3  1  0  0  0  0
  2  5  1  0  0  0  0
  3  4  1  0  0  0  0
  3 10  1  0  0  0  0
  5  6  1  0  0  0  0
  6  7  1  0  0  0  0
  7  8  1  0  0  0  0
  8  9  1  0  0  0  0
M  END
>  <CHROM.1>
-24.05616680,-58.32371858,-70.03645048,176.46068735,-66.59101301,24.77283028
41.36406623,20.36144188,-1.36372671,-0.72174589,1.99669472

>  <Name>
ligand

>  <RI>
0

>  <Rbt.Current_Directory>
/home/itssahil/PROJECTS/Mol_Feturizer/New_Systems/rnas/3D0U

>  <Rbt.Executable>
rbdock ($Id: //depot/dev/client3/rdock/2013.1/src/exe/rbdock.cxx#4 $)

>  <Rbt.Library>
libRbt.so (2013.1, Build901 2013/11/27)

>  <Rbt.Parameter_File>
/export/apps/rDock/src/rDock_2013.1_src/data/scripts/dock_solv.prm

>  <Rbt.Receptor>
prm/blind_docking_60.prm

>  <SCORE>
-7.09077

>  <SCORE.INTER>
-7.34162

>  <SCORE.INTER.CONST>
1

>  <SCORE.INTER.POLAR>
0

>  <SCORE.INTER.ROT>
5

>  <SCORE.INTER.SOLV>
16.63

>  <SCORE.INTER.VDW>
-17.3711

>  <SCORE.INTER.norm>
-0.734162

>  <SCORE.INTRA>
0.250855

>  <SCORE.INTRA.DIHEDRAL>
-0.0786945

>  <SCORE.INTRA.DIHEDRAL.0>
2.22229

>  <SCORE.INTRA.POLAR>
0

>  <SCORE.INTRA.POLAR.0>
0

>  <SCORE.INTRA.REPUL>
0

>  <SCORE.INTRA.REPUL.0>
0

>  <SCORE.INTRA.SOLV>
0.613216

>  <SCORE.INTRA.SOLV.lig_0>
-31.87

>  <SCORE.INTRA.VDW>
-0.0164061

>  <SCORE.INTRA.VDW.0>
-0.575321

>  <SCORE.INTRA.norm>
0.0250855

>  <SCORE.RESTR>
0

>  <SCORE.RESTR.CAVITY>
0

>  <SCORE.RESTR.norm>
0

>  <SCORE.SYSTEM>
0

>  <SCORE.SYSTEM.CONST>
0

>  <SCORE.SYSTEM.DIHEDRAL>
0

>  <SCORE.SYSTEM.SOLV>
0

>  <SCORE.SYSTEM.norm>
0

>  <SCORE.heavy>
10

>  <SCORE.norm>
-0.709077

>  <RMSD>
5.379

$$$$
ligand
 OpenBabel11021811463D
libRbt.so/2013.1/901 2013/11/27
 10  9  0  0  0  0  0  0  0  0999 V2000
   24.4955   42.7654   16.9019 N   0  0  0  0  0  0  0  0  0  0  0  0
   24.7382   42.6225   18.3322 C   0  0  2  0  0  0  0  0  0  0  0  0
   24.8730   43.9892   19.0014 C   0  0  0  0  0  0  0  0  0  0  0  0
   25.1972   44.9721   18.3285 O   0  0  0  0  0  0  0  0  0  0  0  0
   25.9798   41.7631   18.5893 C   0  0  0  0  0  0  0  0  0  0  0  0
   26.1638   41.3795   20.0526 C   0  0  0  0  0  0  0  0  0  0  0  0
   25.0087   40.5312   20.5770 C   0  0  0  0  0  0  0  0  0  0  0  0
   25.1387   40.2487   22.0820 C   0  0  0  0  0  0  0  0  0  0  0  0
   24.0050   39.4650   22.6670 N   0  0  0  0  0  0  0  0  0  0  0  0
   24.6491   44.1427   20.2093 O   0  0  0  0  0  0  0  0  0  0  0  0
  2  1  1  6  0  0  0
  2  3  1  0  0  0  0
  2  5  1  0  0  0  0
  3  4  1  0  0  0  0
  3 10  1  0  0  0  0
  5  6  1  0  0  0  0
  6  7  1  0  0  0  0
  7  8  1  0  0  0  0
  8  9  1  0  0  0  0
M  END
>  <CHROM.1>
-23.00107467,-170.45349529,62.20789934,-175.10578544,177.69699632,25.02648661
42.22567570,19.68195418,-1.39944279,-1.37104763,2.55028038

>  <Name>
ligand

>  <RI>
0

>  <Rbt.Current_Directory>
/home/itssahil/PROJECTS/Mol_Feturizer/New_Systems/rnas/3D0U

>  <Rbt.Executable>
rbdock ($Id: //depot/dev/client3/rdock/2013.1/src/exe/rbdock.cxx#4 $)

>  <Rbt.Library>
libRbt.so (2013.1, Build901 2013/11/27)

>  <Rbt.Parameter_File>
/export/apps/rDock/src/rDock_2013.1_src/data/scripts/dock_solv.prm

>  <Rbt.Receptor>
prm/pocket_docking_8.prm

>  <SCORE>
-8.93706

>  <SCORE.INTER>
-8.15901

>  <SCORE.INTER.CONST>
1

>  <SCORE.INTER.POLAR>
0

>  <SCORE.INTER.ROT>
5

>  <SCORE.INTER.SOLV>
16.7777

>  <SCORE.INTER.VDW>
-17.9652

>  <SCORE.INTER.norm>
-0.815901

>  <SCORE.INTRA>
-0.778045

>  <SCORE.INTRA.DIHEDRAL>
-0.236033

>  <SCORE.INTRA.DIHEDRAL.0>
2.22229

>  <SCORE.INTRA.POLAR>
0

>  <SCORE.INTRA.POLAR.0>
0

>  <SCORE.INTRA.REPUL>
0

>  <SCORE.INTRA.REPUL.0>
0

>  <SCORE.INTRA.SOLV>
-1.28149

>  <SCORE.INTRA.SOLV.lig_0>
-31.87

>  <SCORE.INTRA.VDW>
-0.0192814

>  <SCORE.INTRA.VDW.0>
-0.575321

>  <SCORE.INTRA.norm>
-0.0778045

>  <SCORE.RESTR>
0

>  <SCORE.RESTR.CAVITY>
0

>  <SCORE.RESTR.norm>
0

>  <SCORE.SYSTEM>
0

>  <SCORE.SYSTEM.CONST>
0

>  <SCORE.SYSTEM.DIHEDRAL>
0

>  <SCORE.SYSTEM.SOLV>
0

>  <SCORE.SYSTEM.norm>
0

>  <SCORE.heavy>
10

>  <SCORE.norm>
-0.893706

>  <RMSD>
5.379

$$$$
ligand
 OpenBabel11021811463D
libRbt.so/2013.1/901 2013/11/27
 10  9  0  0  0  0  0  0  0  0999 V2000
   25.3730   42.4857   16.9044 N   0  0  0  0  0  0  0  0  0  0  0  0
   24.6333   42.3791   18.1561 C   0  0  2  0  0  0  0  0  0  0  0  0
   24.3617   43.7609   18.7481 C   0  0  0  0  0  0  0  0  0  0  0  0
   25.2399   44.6276   18.7104 O   0  0  0  0  0  0  0  0  0  0  0  0
   25.3830   41.4936   19.1562 C   0  0  0  0  0  0  0  0  0  0  0  0
   24.5698   41.1541   20.3994 C   0  0  0  0  0  0  0  0  0  0  0  0
   25.3540   40.2924   21.3850 C   0  0  0  0  0  0  0  0  0  0  0  0
   24.5142   39.9166   22.6161 C   0  0  0  0  0  0  0  0  0  0  0  0
   24.0706   41.0821   23.4445 N   0  0  0  0  0  0  0  0  0  0  0  0
   23.2685   44.0432   19.2563 O   0  0  0  0  0  0  0  0  0  0  0  0
  2  1  1  6  0  0  0
  2  3  1  0  0  0  0
  2  5  1  0  0  0  0
  3  4  1  0  0  0  0
  3 10  1  0  0  0  0
  5  6  1  0  0  0  0
  6  7  1  0  0  0  0
  7  8  1  0  0  0  0
  8  9  1  0  0  0  0
M  END
>  <CHROM.1>
-40.58550046,-170.70731310,-178.98344134,-178.21137393,-62.47978628,24.66978412
42.16025321,19.88101510,-1.50026450,-1.08004414,2.25550481

>  <Name>
ligand

>  <RI>
0

>  <Rbt.Current_Directory>
/home/itssahil/PROJECTS/Mol_Feturizer/New_Systems/rnas/3D0U

>  <Rbt.Executable>
rbdock ($Id: //depot/dev/client3/rdock/2013.1/src/exe/rbdock.cxx#4 $)

>  <Rbt.Library>
libRbt.so (2013.1, Build901 2013/11/27)

>  <Rbt.Parameter_File>
/export/apps/rDock/src/rDock_2013.1_src/data/scripts/dock_solv.prm

>  <Rbt.Receptor>
prm/pocket_docking_4.prm

>  <SCORE>
-8.13091

>  <SCORE.INTER>
-7.31571

>  <SCORE.INTER.CONST>
1

>  <SCORE.INTER.POLAR>
0

>  <SCORE.INTER.ROT>
5

>  <SCORE.INTER.SOLV>
17.8759

>  <SCORE.INTER.VDW>
-17.7691

>  <SCORE.INTER.norm>
-0.731571

>  <SCORE.INTRA>
-0.8152

>  <SCORE.INTRA.DIHEDRAL>
-0.357374

>  <SCORE.INTRA.DIHEDRAL.0>
2.22229

>  <SCORE.INTRA.POLAR>
0

>  <SCORE.INTRA.POLAR.0>
0

>  <SCORE.INTRA.REPUL>
0

>  <SCORE.INTRA.REPUL.0>
0

>  <SCORE.INTRA.SOLV>
-0.749769

>  <SCORE.INTRA.SOLV.lig_0>
-31.87

>  <SCORE.INTRA.VDW>
-0.261629

>  <SCORE.INTRA.VDW.0>
-0.575321

>  <SCORE.INTRA.norm>
-0.08152

>  <SCORE.RESTR>
0

>  <SCORE.RESTR.CAVITY>
0

>  <SCORE.RESTR.norm>
0

>  <SCORE.SYSTEM>
0

>  <SCORE.SYSTEM.CONST>
0

>  <SCORE.SYSTEM.DIHEDRAL>
0

>  <SCORE.SYSTEM.SOLV>
0

>  <SCORE.SYSTEM.norm>
0

>  <SCORE.heavy>
10

>  <SCORE.norm>
-0.813091

>  <RMSD>
5.381

$$$$
ligand
 OpenBabel11021811463D
libRbt.so/2013.1/901 2013/11/27
 10  9  0  0  0  0  0  0  0  0999 V2000
   25.3489   42.4793   16.9000 N   0  0  0  0  0  0  0  0  0  0  0  0
   24.6188   42.3791   18.1578 C   0  0  2  0  0  0  0  0  0  0  0  0
   24.3569   43.7637   18.7478 C   0  0  0  0  0  0  0  0  0  0  0  0
   25.2396   44.6256   18.7046 O   0  0  0  0  0  0  0  0  0  0  0  0
   25.3732   41.4938   19.1545 C   0  0  0  0  0  0  0  0  0  0  0  0
   24.5714   41.1674   20.4087 C   0  0  0  0  0  0  0  0  0  0  0  0
   25.3539   40.2910   21.3826 C   0  0  0  0  0  0  0  0  0  0  0  0
   24.5231   39.9245   22.6225 C   0  0  0  0  0  0  0  0  0  0  0  0
   24.1304   41.0917   23.4741 N   0  0  0  0  0  0  0  0  0  0  0  0
   23.2673   44.0528   19.2598 O   0  0  0  0  0  0  0  0  0  0  0  0
  2  1  1  6  0  0  0
  2  3  1  0  0  0  0
  2  5  1  0  0  0  0
  3  4  1  0  0  0  0
  3 10  1  0  0  0  0
  5  6  1  0  0  0  0
  6  7  1  0  0  0  0
  7  8  1  0  0  0  0
  8  9  1  0  0  0  0
M  END
>  <CHROM.1>
-40.82918720,-171.03276465,-179.69841957,-178.00042102,-63.64749493,24.67147664
42.16366112,19.88452036,-1.51326022,-1.09269939,2.24132052

>  <Name>
ligand

>  <RI>
0

>  <Rbt.Current_Directory>
/home/itssahil/PROJECTS/Mol_Feturizer/New_Systems/rnas/3D0U

>  <Rbt.Executable>
rbdock ($Id: //depot/dev/client3/rdock/2013.1/src/exe/rbdock.cxx#4 $)

>  <Rbt.Library>
libRbt.so (2013.1, Build901 2013/11/27)

>  <Rbt.Parameter_File>
/export/apps/rDock/src/rDock_2013.1_src/data/scripts/dock_solv.prm

>  <Rbt.Receptor>
prm/pocket_docking_5.prm

>  <SCORE>
-8.11646

>  <SCORE.INTER>
-7.29164

>  <SCORE.INTER.CONST>
1

>  <SCORE.INTER.POLAR>
0

>  <SCORE.INTER.ROT>
5

>  <SCORE.INTER.SOLV>
17.9425

>  <SCORE.INTER.VDW>
-17.7752

>  <SCORE.INTER.norm>
-0.729164

>  <SCORE.INTRA>
-0.824865

>  <SCORE.INTRA.DIHEDRAL>
-0.353505

>  <SCORE.INTRA.DIHEDRAL.0>
2.22229

>  <SCORE.INTRA.POLAR>
0

>  <SCORE.INTRA.POLAR.0>
0

>  <SCORE.INTRA.REPUL>
0

>  <SCORE.INTRA.REPUL.0>
0

>  <SCORE.INTRA.SOLV>
-0.767238

>  <SCORE.INTRA.SOLV.lig_0>
-31.87

>  <SCORE.INTRA.VDW>
-0.264493

>  <SCORE.INTRA.VDW.0>
-0.575321

>  <SCORE.INTRA.norm>
-0.0824865

>  <SCORE.RESTR>
4.41763e-05

>  <SCORE.RESTR.CAVITY>
4.41763e-05

>  <SCORE.RESTR.norm>
4.41763e-06

>  <SCORE.SYSTEM>
0

>  <SCORE.SYSTEM.CONST>
0

>  <SCORE.SYSTEM.DIHEDRAL>
0

>  <SCORE.SYSTEM.SOLV>
0

>  <SCORE.SYSTEM.norm>
0

>  <SCORE.heavy>
10

>  <SCORE.norm>
-0.811646

>  <RMSD>
5.383

$$$$
ligand
 OpenBabel11021811463D
libRbt.so/2013.1/901 2013/11/27
 10  9  0  0  0  0  0  0  0  0999 V2000
   24.4654   44.1502   19.0267 N   0  0  0  0  0  0  0  0  0  0  0  0
   25.2915   42.9702   19.2510 C   0  0  2  0  0  0  0  0  0  0  0  0
   25.5915   42.2565   17.9340 C   0  0  0  0  0  0  0  0  0  0  0  0
   26.4582   41.3783   17.8961 O   0  0  0  0  0  0  0  0  0  0  0  0
   24.6214   42.0194   20.2477 C   0  0  0  0  0  0  0  0  0  0  0  0
   25.5629   40.9599   20.8074 C   0  0  0  0  0  0  0  0  0  0  0  0
   24.8287   39.9243   21.6544 C   0  0  0  0  0  0  0  0  0  0  0  0
   24.2909   40.5267   22.9620 C   0  0  0  0  0  0  0  0  0  0  0  0
   23.5583   39.5576   23.8371 N   0  0  0  0  0  0  0  0  0  0  0  0
   24.9725   42.5268   16.8964 O   0  0  0  0  0  0  0  0  0  0  0  0
  2  1  1  6  0  0  0
  2  3  1  0  0  0  0
  2  5  1  0  0  0  0
  3  4  1  0  0  0  0
  3 10  1  0  0  0  0
  5  6  1  0  0  0  0
  6  7  1  0  0  0  0
  7  8  1  0  0  0  0
  8  9  1  0  0  0  0
M  END
>  <CHROM.1>
167.56389958,-164.95080816,-172.67596408,-68.24979615,179.95000853,24.97410740
41.61745024,20.01260658,1.19331584,0.98895375,-0.78006551

>  <Name>
ligand

>  <RI>
0

>  <Rbt.Current_Directory>
/home/itssahil/PROJECTS/Mol_Feturizer/New_Systems/rnas/3D0U

>  <Rbt.Executable>
rbdock ($Id: //depot/dev/client3/rdock/2013.1/src/exe/rbdock.cxx#4 $)

>  <Rbt.Library>
libRbt.so (2013.1, Build901 2013/11/27)

>  <Rbt.Parameter_File>
/export/apps/rDock/src/rDock_2013.1_src/data/scripts/dock_solv.prm

>  <Rbt.Receptor>
prm/pocket_docking_8.prm

>  <SCORE>
-8.92656

>  <SCORE.INTER>
-8.89121

>  <SCORE.INTER.CONST>
1

>  <SCORE.INTER.POLAR>
0

>  <SCORE.INTER.ROT>
5

>  <SCORE.INTER.SOLV>
13.5848

>  <SCORE.INTER.VDW>
-17.3891

>  <SCORE.INTER.norm>
-0.889121

>  <SCORE.INTRA>
-0.0389628

>  <SCORE.INTRA.DIHEDRAL>
0.569643

>  <SCORE.INTRA.DIHEDRAL.0>
2.22229

>  <SCORE.INTRA.POLAR>
0

>  <SCORE.INTRA.POLAR.0>
0

>  <SCORE.INTRA.REPUL>
0

>  <SCORE.INTRA.REPUL.0>
0

>  <SCORE.INTRA.SOLV>
-1.39657

>  <SCORE.INTRA.SOLV.lig_0>
-31.87

>  <SCORE.INTRA.VDW>
0.3745

>  <SCORE.INTRA.VDW.0>
-0.575321

>  <SCORE.INTRA.norm>
-0.00389628

>  <SCORE.RESTR>
0.0036126

>  <SCORE.RESTR.CAVITY>
0.0036126

>  <SCORE.RESTR.norm>
0.00036126

>  <SCORE.SYSTEM>
0

>  <SCORE.SYSTEM.CONST>
0

>  <SCORE.SYSTEM.DIHEDRAL>
0

>  <SCORE.SYSTEM.SOLV>
0

>  <SCORE.SYSTEM.norm>
0

>  <SCORE.heavy>
10

>  <SCORE.norm>
-0.892656

>  <RMSD>
5.383

$$$$
ligand
 OpenBabel11021811463D
libRbt.so/2013.1/901 2013/11/27
 10  9  0  0  0  0  0  0  0  0999 V2000
   24.2121   43.0914   19.6206 N   0  0  0  0  0  0  0  0  0  0  0  0
   25.3844   42.2939   19.2817 C   0  0  2  0  0  0  0  0  0  0  0  0
   25.5494   42.1838   17.7669 C   0  0  0  0  0  0  0  0  0  0  0  0
   24.7579   42.7665   17.0200 O   0  0  0  0  0  0  0  0  0  0  0  0
   25.3017   40.9063   19.9250 C   0  0  0  0  0  0  0  0  0  0  0  0
   25.2679   40.9411   21.4481 C   0  0  0  0  0  0  0  0  0  0  0  0
   23.9407   41.4701   21.9843 C   0  0  0  0  0  0  0  0  0  0  0  0
   23.8842   41.4329   23.5197 C   0  0  0  0  0  0  0  0  0  0  0  0
   23.8831   40.0561   24.1079 N   0  0  0  0  0  0  0  0  0  0  0  0
   26.4733   41.5318   17.2628 O   0  0  0  0  0  0  0  0  0  0  0  0
  2  1  1  6  0  0  0
  2  3  1  0  0  0  0
  2  5  1  0  0  0  0
  3  4  1  0  0  0  0
  3 10  1  0  0  0  0
  5  6  1  0  0  0  0
  6  7  1  0  0  0  0
  7  8  1  0  0  0  0
  8  9  1  0  0  0  0
M  END
>  <CHROM.1>
1.90001534,-61.82043106,71.36677336,176.96637534,-66.57131310,24.87320449
41.66905004,20.14906421,1.21573418,0.80522003,-1.06891909

>  <Name>
ligand

>  <RI>
0

>  <Rbt.Current_Directory>
/home/itssahil/PROJECTS/Mol_Feturizer/New_Systems/rnas/3D0U

>  <Rbt.Executable>
rbdock ($Id: //depot/dev/client3/rdock/2013.1/src/exe/rbdock.cxx#4 $)

>  <Rbt.Library>
libRbt.so (2013.1, Build901 2013/11/27)

>  <Rbt.Parameter_File>
/export/apps/rDock/src/rDock_2013.1_src/data/scripts/dock_solv.prm

>  <Rbt.Receptor>
prm/pocket_docking_4.prm

>  <SCORE>
-8.43767

>  <SCORE.INTER>
-9.74607

>  <SCORE.INTER.CONST>
1

>  <SCORE.INTER.POLAR>
0

>  <SCORE.INTER.ROT>
5

>  <SCORE.INTER.SOLV>
12.173

>  <SCORE.INTER.VDW>
-17.4884

>  <SCORE.INTER.norm>
-0.974607

>  <SCORE.INTRA>
1.3084

>  <SCORE.INTRA.DIHEDRAL>
-0.00372316

>  <SCORE.INTRA.DIHEDRAL.0>
2.22229

>  <SCORE.INTRA.POLAR>
0

>  <SCORE.INTRA.POLAR.0>
0

>  <SCORE.INTRA.REPUL>
0

>  <SCORE.INTRA.REPUL.0>
0

>  <SCORE.INTRA.SOLV>
1.53352

>  <SCORE.INTRA.SOLV.lig_0>
-31.87

>  <SCORE.INTRA.VDW>
0.543502

>  <SCORE.INTRA.VDW.0>
-0.575321

>  <SCORE.INTRA.norm>
0.13084

>  <SCORE.RESTR>
0

>  <SCORE.RESTR.CAVITY>
0

>  <SCORE.RESTR.norm>
0

>  <SCORE.SYSTEM>
0

>  <SCORE.SYSTEM.CONST>
0

>  <SCORE.SYSTEM.DIHEDRAL>
0

>  <SCORE.SYSTEM.SOLV>
0

>  <SCORE.SYSTEM.norm>
0

>  <SCORE.heavy>
10

>  <SCORE.norm>
-0.843767

>  <RMSD>
5.386

$$$$
ligand
 OpenBabel11021811463D
libRbt.so/2013.1/901 2013/11/27
 10  9  0  0  0  0  0  0  0  0999 V2000
   23.7259   41.0178   19.5006 N   0  0  0  0  0  0  0  0  0  0  0  0
   24.8384   41.9593   19.4653 C   0  0  2  0  0  0  0  0  0  0  0  0
   25.5198   41.9467   18.0981 C   0  0  0  0  0  0  0  0  0  0  0  0
   25.3052   42.8616   17.2976 O   0  0  0  0  0  0  0  0  0  0  0  0
   25.8437   41.6542   20.5800 C   0  0  0  0  0  0  0  0  0  0  0  0
   25.2334   41.6819   21.9761 C   0  0  0  0  0  0  0  0  0  0  0  0
   24.4367   40.4171   22.2833 C   0  0  0  0  0  0  0  0  0  0  0  0
   23.8573   40.4332   23.7067 C   0  0  0  0  0  0  0  0  0  0  0  0
   23.1591   39.1708   24.1073 N   0  0  0  0  0  0  0  0  0  0  0  0
   26.3012   41.0429   17.7732 O   0  0  0  0  0  0  0  0  0  0  0  0
  2  1  1  6  0  0  0
  2  3  1  0  0  0  0
  2  5  1  0  0  0  0
  3  4  1  0  0  0  0
  3 10  1  0  0  0  0
  5  6  1  0  0  0  0
  6  7  1  0  0  0  0
  7  8  1  0  0  0  0
  8  9  1  0  0  0  0
M  END
>  <CHROM.1>
103.14825559,-57.68942477,77.56989768,178.37078476,-175.24778811,24.83980970
41.22371560,20.43741657,1.23135500,-0.55287326,-1.41594365

>  <Name>
ligand

>  <RI>
0

>  <Rbt.Current_Directory>
/home/itssahil/PROJECTS/Mol_Feturizer/New_Systems/rnas/3D0U

>  <Rbt.Executable>
rbdock ($Id: //depot/dev/client3/rdock/2013.1/src/exe/rbdock.cxx#4 $)

>  <Rbt.Library>
libRbt.so (2013.1, Build901 2013/11/27)

>  <Rbt.Parameter_File>
/export/apps/rDock/src/rDock_2013.1_src/data/scripts/dock_solv.prm

>  <Rbt.Receptor>
prm/pocket_docking_4.prm

>  <SCORE>
-6.67573

>  <SCORE.INTER>
-7.57778

>  <SCORE.INTER.CONST>
1

>  <SCORE.INTER.POLAR>
0

>  <SCORE.INTER.ROT>
5

>  <SCORE.INTER.SOLV>
16.0681

>  <SCORE.INTER.VDW>
-17.3412

>  <SCORE.INTER.norm>
-0.757778

>  <SCORE.INTRA>
0.902051

>  <SCORE.INTRA.DIHEDRAL>
0.599383

>  <SCORE.INTRA.DIHEDRAL.0>
2.22229

>  <SCORE.INTRA.POLAR>
0

>  <SCORE.INTRA.POLAR.0>
0

>  <SCORE.INTRA.REPUL>
0

>  <SCORE.INTRA.REPUL.0>
0

>  <SCORE.INTRA.SOLV>
0.67519

>  <SCORE.INTRA.SOLV.lig_0>
-31.87

>  <SCORE.INTRA.VDW>
0.264765

>  <SCORE.INTRA.VDW.0>
-0.575321

>  <SCORE.INTRA.norm>
0.0902051

>  <SCORE.RESTR>
0

>  <SCORE.RESTR.CAVITY>
0

>  <SCORE.RESTR.norm>
0

>  <SCORE.SYSTEM>
0

>  <SCORE.SYSTEM.CONST>
0

>  <SCORE.SYSTEM.DIHEDRAL>
0

>  <SCORE.SYSTEM.SOLV>
0

>  <SCORE.SYSTEM.norm>
0

>  <SCORE.heavy>
10

>  <SCORE.norm>
-0.667573

>  <RMSD>
5.386

$$$$
ligand
 OpenBabel11021811463D
libRbt.so/2013.1/901 2013/11/27
 10  9  0  0  0  0  0  0  0  0999 V2000
   25.3772   42.4624   16.9018 N   0  0  0  0  0  0  0  0  0  0  0  0
   24.6435   42.3803   18.1588 C   0  0  2  0  0  0  0  0  0  0  0  0
   24.3923   43.7726   18.7352 C   0  0  0  0  0  0  0  0  0  0  0  0
   25.2833   44.6258   18.6877 O   0  0  0  0  0  0  0  0  0  0  0  0
   25.3877   41.4979   19.1655 C   0  0  0  0  0  0  0  0  0  0  0  0
   24.5706   41.1685   20.4090 C   0  0  0  0  0  0  0  0  0  0  0  0
   25.3293   40.2638   21.3758 C   0  0  0  0  0  0  0  0  0  0  0  0
   24.4746   39.8764   22.5928 C   0  0  0  0  0  0  0  0  0  0  0  0
   24.0455   41.0315   23.4433 N   0  0  0  0  0  0  0  0  0  0  0  0
   23.3036   44.0767   19.2403 O   0  0  0  0  0  0  0  0  0  0  0  0
  2  1  1  6  0  0  0
  2  3  1  0  0  0  0
  2  5  1  0  0  0  0
  3  4  1  0  0  0  0
  3 10  1  0  0  0  0
  5  6  1  0  0  0  0
  6  7  1  0  0  0  0
  7  8  1  0  0  0  0
  8  9  1  0  0  0  0
M  END
>  <CHROM.1>
-40.92646074,-169.94093009,178.74061257,-177.06736851,-62.05881332,24.67431763
42.15263219,19.87403064,-1.47972860,-1.08535008,2.28192684

>  <Name>
ligand

>  <RI>
0

>  <Rbt.Current_Directory>
/home/itssahil/PROJECTS/Mol_Feturizer/New_Systems/rnas/3D0U

>  <Rbt.Executable>
rbdock ($Id: //depot/dev/client3/rdock/2013.1/src/exe/rbdock.cxx#4 $)

>  <Rbt.Library>
libRbt.so (2013.1, Build901 2013/11/27)

>  <Rbt.Parameter_File>
/export/apps/rDock/src/rDock_2013.1_src/data/scripts/dock_solv.prm

>  <Rbt.Receptor>
prm/pocket_docking_4.prm

>  <SCORE>
-8.08087

>  <SCORE.INTER>
-7.29619

>  <SCORE.INTER.CONST>
1

>  <SCORE.INTER.POLAR>
0

>  <SCORE.INTER.ROT>
5

>  <SCORE.INTER.SOLV>
17.8011

>  <SCORE.INTER.VDW>
-17.7311

>  <SCORE.INTER.norm>
-0.729619

>  <SCORE.INTRA>
-0.784679

>  <SCORE.INTRA.DIHEDRAL>
-0.284662

>  <SCORE.INTRA.DIHEDRAL.0>
2.22229

>  <SCORE.INTRA.POLAR>
0

>  <SCORE.INTRA.POLAR.0>
0

>  <SCORE.INTRA.REPUL>
0

>  <SCORE.INTRA.REPUL.0>
0

>  <SCORE.INTRA.SOLV>
-0.748532

>  <SCORE.INTRA.SOLV.lig_0>
-31.87

>  <SCORE.INTRA.VDW>
-0.268082

>  <SCORE.INTRA.VDW.0>
-0.575321

>  <SCORE.INTRA.norm>
-0.0784679

>  <SCORE.RESTR>
0

>  <SCORE.RESTR.CAVITY>
0

>  <SCORE.RESTR.norm>
0

>  <SCORE.SYSTEM>
0

>  <SCORE.SYSTEM.CONST>
0

>  <SCORE.SYSTEM.DIHEDRAL>
0

>  <SCORE.SYSTEM.SOLV>
0

>  <SCORE.SYSTEM.norm>
0

>  <SCORE.heavy>
10

>  <SCORE.norm>
-0.808087

>  <RMSD>
5.395

$$$$
ligand
 OpenBabel11021811463D
libRbt.so/2013.1/901 2013/11/27
 10  9  0  0  0  0  0  0  0  0999 V2000
   24.4767   44.2155   19.1171 N   0  0  0  0  0  0  0  0  0  0  0  0
   25.2743   43.0027   19.2521 C   0  0  2  0  0  0  0  0  0  0  0  0
   25.5200   42.3575   17.8894 C   0  0  0  0  0  0  0  0  0  0  0  0
   26.4061   41.5071   17.7645 O   0  0  0  0  0  0  0  0  0  0  0  0
   24.6030   42.0152   20.2116 C   0  0  0  0  0  0  0  0  0  0  0  0
   25.4827   40.8255   20.5762 C   0  0  0  0  0  0  0  0  0  0  0  0
   24.7461   39.8061   21.4407 C   0  0  0  0  0  0  0  0  0  0  0  0
   24.3932   40.3731   22.8249 C   0  0  0  0  0  0  0  0  0  0  0  0
   23.6366   39.4300   23.7079 N   0  0  0  0  0  0  0  0  0  0  0  0
   24.8380   42.6559   16.9002 O   0  0  0  0  0  0  0  0  0  0  0  0
  2  1  1  6  0  0  0
  2  3  1  0  0  0  0
  2  5  1  0  0  0  0
  3  4  1  0  0  0  0
  3 10  1  0  0  0  0
  5  6  1  0  0  0  0
  6  7  1  0  0  0  0
  7  8  1  0  0  0  0
  8  9  1  0  0  0  0
M  END
>  <CHROM.1>
163.95010640,-170.67993853,-175.37022672,-66.16407109,178.48796107,24.94631812
41.61129533,19.92916649,1.19702142,1.03548867,-0.72608577

>  <Name>
ligand

>  <RI>
0

>  <Rbt.Current_Directory>
/home/itssahil/PROJECTS/Mol_Feturizer/New_Systems/rnas/3D0U

>  <Rbt.Executable>
rbdock ($Id: //depot/dev/client3/rdock/2013.1/src/exe/rbdock.cxx#4 $)

>  <Rbt.Library>
libRbt.so (2013.1, Build901 2013/11/27)

>  <Rbt.Parameter_File>
/export/apps/rDock/src/rDock_2013.1_src/data/scripts/dock_solv.prm

>  <Rbt.Receptor>
prm/pocket_docking_4.prm

>  <SCORE>
-9.00979

>  <SCORE.INTER>
-8.73823

>  <SCORE.INTER.CONST>
1

>  <SCORE.INTER.POLAR>
0

>  <SCORE.INTER.ROT>
5

>  <SCORE.INTER.SOLV>
13.2888

>  <SCORE.INTER.VDW>
-17.1884

>  <SCORE.INTER.norm>
-0.873823

>  <SCORE.INTRA>
-0.271559

>  <SCORE.INTRA.DIHEDRAL>
-0.190267

>  <SCORE.INTRA.DIHEDRAL.0>
2.22229

>  <SCORE.INTRA.POLAR>
0

>  <SCORE.INTRA.POLAR.0>
0

>  <SCORE.INTRA.REPUL>
0

>  <SCORE.INTRA.REPUL.0>
0

>  <SCORE.INTRA.SOLV>
-1.38441

>  <SCORE.INTRA.SOLV.lig_0>
-31.87

>  <SCORE.INTRA.VDW>
0.515777

>  <SCORE.INTRA.VDW.0>
-0.575321

>  <SCORE.INTRA.norm>
-0.0271559

>  <SCORE.RESTR>
0

>  <SCORE.RESTR.CAVITY>
0

>  <SCORE.RESTR.norm>
0

>  <SCORE.SYSTEM>
0

>  <SCORE.SYSTEM.CONST>
0

>  <SCORE.SYSTEM.DIHEDRAL>
0

>  <SCORE.SYSTEM.SOLV>
0

>  <SCORE.SYSTEM.norm>
0

>  <SCORE.heavy>
10

>  <SCORE.norm>
-0.900979

>  <RMSD>
5.396

$$$$
ligand
 OpenBabel11021811463D
libRbt.so/2013.1/901 2013/11/27
 10  9  0  0  0  0  0  0  0  0999 V2000
   24.5199   42.8019   16.9015 N   0  0  0  0  0  0  0  0  0  0  0  0
   24.7394   42.6660   18.3362 C   0  0  2  0  0  0  0  0  0  0  0  0
   24.8798   44.0356   18.9983 C   0  0  0  0  0  0  0  0  0  0  0  0
   25.2250   45.0102   18.3239 O   0  0  0  0  0  0  0  0  0  0  0  0
   25.9670   41.7943   18.6177 C   0  0  0  0  0  0  0  0  0  0  0  0
   26.1322   41.4299   20.0882 C   0  0  0  0  0  0  0  0  0  0  0  0
   24.9771   40.5768   20.6051 C   0  0  0  0  0  0  0  0  0  0  0  0
   25.1220   40.2575   22.1013 C   0  0  0  0  0  0  0  0  0  0  0  0
   24.0108   39.4308   22.6703 N   0  0  0  0  0  0  0  0  0  0  0  0
   24.6398   44.1997   20.2018 O   0  0  0  0  0  0  0  0  0  0  0  0
  2  1  1  6  0  0  0
  2  3  1  0  0  0  0
  2  5  1  0  0  0  0
  3  4  1  0  0  0  0
  3 10  1  0  0  0  0
  5  6  1  0  0  0  0
  6  7  1  0  0  0  0
  7  8  1  0  0  0  0
  8  9  1  0  0  0  0
M  END
>  <CHROM.1>
-22.98131559,-171.02247072,63.56121774,-177.82583160,179.52376007,25.02306720
42.25813692,19.69205204,-1.36068699,-1.38500346,2.59377558

>  <Name>
ligand

>  <RI>
0

>  <Rbt.Current_Directory>
/home/itssahil/PROJECTS/Mol_Feturizer/New_Systems/rnas/3D0U

>  <Rbt.Executable>
rbdock ($Id: //depot/dev/client3/rdock/2013.1/src/exe/rbdock.cxx#4 $)

>  <Rbt.Library>
libRbt.so (2013.1, Build901 2013/11/27)

>  <Rbt.Parameter_File>
/export/apps/rDock/src/rDock_2013.1_src/data/scripts/dock_solv.prm

>  <Rbt.Receptor>
prm/pocket_docking_6.prm

>  <SCORE>
-8.90306

>  <SCORE.INTER>
-8.05394

>  <SCORE.INTER.CONST>
1

>  <SCORE.INTER.POLAR>
0

>  <SCORE.INTER.ROT>
5

>  <SCORE.INTER.SOLV>
16.7939

>  <SCORE.INTER.VDW>
-17.9006

>  <SCORE.INTER.norm>
-0.805394

>  <SCORE.INTRA>
-0.849118

>  <SCORE.INTRA.DIHEDRAL>
-0.342151

>  <SCORE.INTRA.DIHEDRAL.0>
2.22229

>  <SCORE.INTRA.POLAR>
0

>  <SCORE.INTRA.POLAR.0>
0

>  <SCORE.INTRA.REPUL>
0

>  <SCORE.INTRA.REPUL.0>
0

>  <SCORE.INTRA.SOLV>
-1.2937

>  <SCORE.INTRA.SOLV.lig_0>
-31.87

>  <SCORE.INTRA.VDW>
-0.0311912

>  <SCORE.INTRA.VDW.0>
-0.575321

>  <SCORE.INTRA.norm>
-0.0849118

>  <SCORE.RESTR>
0

>  <SCORE.RESTR.CAVITY>
0

>  <SCORE.RESTR.norm>
0

>  <SCORE.SYSTEM>
0

>  <SCORE.SYSTEM.CONST>
0

>  <SCORE.SYSTEM.DIHEDRAL>
0

>  <SCORE.SYSTEM.SOLV>
0

>  <SCORE.SYSTEM.norm>
0

>  <SCORE.heavy>
10

>  <SCORE.norm>
-0.890306

>  <RMSD>
5.397

$$$$
ligand
 OpenBabel11021811463D
libRbt.so/2013.1/901 2013/11/27
 10  9  0  0  0  0  0  0  0  0999 V2000
   24.7990   44.1249   19.0493 N   0  0  0  0  0  0  0  0  0  0  0  0
   25.4734   42.8417   19.2038 C   0  0  2  0  0  0  0  0  0  0  0  0
   25.6084   42.1315   17.8580 C   0  0  0  0  0  0  0  0  0  0  0  0
   24.9307   42.5057   16.8965 O   0  0  0  0  0  0  0  0  0  0  0  0
   24.7367   41.9593   20.2161 C   0  0  0  0  0  0  0  0  0  0  0  0
   25.5027   40.6983   20.5973 C   0  0  0  0  0  0  0  0  0  0  0  0
   24.6935   39.7862   21.5150 C   0  0  0  0  0  0  0  0  0  0  0  0
   24.4454   40.4265   22.8899 C   0  0  0  0  0  0  0  0  0  0  0  0
   23.6085   39.6013   23.8174 N   0  0  0  0  0  0  0  0  0  0  0  0
   26.3979   41.1910   17.6994 O   0  0  0  0  0  0  0  0  0  0  0  0
  2  1  1  6  0  0  0
  2  3  1  0  0  0  0
  2  5  1  0  0  0  0
  3  4  1  0  0  0  0
  3 10  1  0  0  0  0
  5  6  1  0  0  0  0
  6  7  1  0  0  0  0
  7  8  1  0  0  0  0
  8  9  1  0  0  0  0
M  END
>  <CHROM.1>
-15.70327104,-170.65623157,-175.22858968,-66.37466676,177.66910424,25.02622884
41.51751622,19.93477519,1.07124717,1.11955581,-0.64784853

>  <Name>
ligand

>  <RI>
0

>  <Rbt.Current_Directory>
/home/itssahil/PROJECTS/Mol_Feturizer/New_Systems/rnas/3D0U

>  <Rbt.Executable>
rbdock ($Id: //depot/dev/client3/rdock/2013.1/src/exe/rbdock.cxx#4 $)

>  <Rbt.Library>
libRbt.so (2013.1, Build901 2013/11/27)

>  <Rbt.Parameter_File>
/export/apps/rDock/src/rDock_2013.1_src/data/scripts/dock_solv.prm

>  <Rbt.Receptor>
prm/pocket_docking_8.prm

>  <SCORE>
-8.92285

>  <SCORE.INTER>
-8.68794

>  <SCORE.INTER.CONST>
1

>  <SCORE.INTER.POLAR>
0

>  <SCORE.INTER.ROT>
5

>  <SCORE.INTER.SOLV>
13.7452

>  <SCORE.INTER.VDW>
-17.307

>  <SCORE.INTER.norm>
-0.868794

>  <SCORE.INTRA>
-0.238449

>  <SCORE.INTRA.DIHEDRAL>
-0.11206

>  <SCORE.INTRA.DIHEDRAL.0>
2.22229

>  <SCORE.INTRA.POLAR>
0

>  <SCORE.INTRA.POLAR.0>
0

>  <SCORE.INTRA.REPUL>
0

>  <SCORE.INTRA.REPUL.0>
0

>  <SCORE.INTRA.SOLV>
-1.36775

>  <SCORE.INTRA.SOLV.lig_0>
-31.87

>  <SCORE.INTRA.VDW>
0.501457

>  <SCORE.INTRA.VDW.0>
-0.575321

>  <SCORE.INTRA.norm>
-0.0238449

>  <SCORE.RESTR>
0.00353669

>  <SCORE.RESTR.CAVITY>
0.00353669

>  <SCORE.RESTR.norm>
0.000353669

>  <SCORE.SYSTEM>
0

>  <SCORE.SYSTEM.CONST>
0

>  <SCORE.SYSTEM.DIHEDRAL>
0

>  <SCORE.SYSTEM.SOLV>
0

>  <SCORE.SYSTEM.norm>
0

>  <SCORE.heavy>
10

>  <SCORE.norm>
-0.892285

>  <RMSD>
5.397

$$$$
ligand
 OpenBabel11021811463D
libRbt.so/2013.1/901 2013/11/27
 10  9  0  0  0  0  0  0  0  0999 V2000
   24.2119   43.0831   19.6310 N   0  0  0  0  0  0  0  0  0  0  0  0
   25.3859   42.2945   19.2775 C   0  0  2  0  0  0  0  0  0  0  0  0
   25.5475   42.2073   17.7609 C   0  0  0  0  0  0  0  0  0  0  0  0
   24.7679   42.8195   17.0250 O   0  0  0  0  0  0  0  0  0  0  0  0
   25.3093   40.8972   19.9003 C   0  0  0  0  0  0  0  0  0  0  0  0
   25.2599   40.9101   21.4233 C   0  0  0  0  0  0  0  0  0  0  0  0
   23.9095   41.3841   21.9534 C   0  0  0  0  0  0  0  0  0  0  0  0
   23.8229   41.2791   23.4842 C   0  0  0  0  0  0  0  0  0  0  0  0
   23.9032   39.8819   24.0163 N   0  0  0  0  0  0  0  0  0  0  0  0
   26.4572   41.5451   17.2445 O   0  0  0  0  0  0  0  0  0  0  0  0
  2  1  1  6  0  0  0
  2  3  1  0  0  0  0
  2  5  1  0  0  0  0
  3  4  1  0  0  0  0
  3 10  1  0  0  0  0
  5  6  1  0  0  0  0
  6  7  1  0  0  0  0
  7  8  1  0  0  0  0
  8  9  1  0  0  0  0
M  END
>  <CHROM.1>
3.29414333,-61.03100003,72.90937430,175.02337057,-64.05166314,24.86522505
41.63269415,20.12708008,1.21213541,0.80519587,-1.03658541

>  <Name>
ligand

>  <RI>
0

>  <Rbt.Current_Directory>
/home/itssahil/PROJECTS/Mol_Feturizer/New_Systems/rnas/3D0U

>  <Rbt.Executable>
rbdock ($Id: //depot/dev/client3/rdock/2013.1/src/exe/rbdock.cxx#4 $)

>  <Rbt.Library>
libRbt.so (2013.1, Build901 2013/11/27)

>  <Rbt.Parameter_File>
/export/apps/rDock/src/rDock_2013.1_src/data/scripts/dock_solv.prm

>  <Rbt.Receptor>
prm/pocket_docking_5.prm

>  <SCORE>
-8.45459

>  <SCORE.INTER>
-9.80698

>  <SCORE.INTER.CONST>
1

>  <SCORE.INTER.POLAR>
0

>  <SCORE.INTER.ROT>
5

>  <SCORE.INTER.SOLV>
11.9534

>  <SCORE.INTER.VDW>
-17.4558

>  <SCORE.INTER.norm>
-0.980698

>  <SCORE.INTRA>
1.35239

>  <SCORE.INTRA.DIHEDRAL>
0.0952326

>  <SCORE.INTRA.DIHEDRAL.0>
2.22229

>  <SCORE.INTRA.POLAR>
0

>  <SCORE.INTRA.POLAR.0>
0

>  <SCORE.INTRA.REPUL>
0

>  <SCORE.INTRA.REPUL.0>
0

>  <SCORE.INTRA.SOLV>
1.55795

>  <SCORE.INTRA.SOLV.lig_0>
-31.87

>  <SCORE.INTRA.VDW>
0.525802

>  <SCORE.INTRA.VDW.0>
-0.575321

>  <SCORE.INTRA.norm>
0.135239

>  <SCORE.RESTR>
0

>  <SCORE.RESTR.CAVITY>
0

>  <SCORE.RESTR.norm>
0

>  <SCORE.SYSTEM>
0

>  <SCORE.SYSTEM.CONST>
0

>  <SCORE.SYSTEM.DIHEDRAL>
0

>  <SCORE.SYSTEM.SOLV>
0

>  <SCORE.SYSTEM.norm>
0

>  <SCORE.heavy>
10

>  <SCORE.norm>
-0.845459

>  <RMSD>
5.398

$$$$
ligand
 OpenBabel11021811463D
libRbt.so/2013.1/901 2013/11/27
 10  9  0  0  0  0  0  0  0  0999 V2000
   24.4922   44.1980   19.0919 N   0  0  0  0  0  0  0  0  0  0  0  0
   25.2806   42.9792   19.2266 C   0  0  2  0  0  0  0  0  0  0  0  0
   25.5028   42.3207   17.8661 C   0  0  0  0  0  0  0  0  0  0  0  0
   24.8122   42.6598   16.9007 O   0  0  0  0  0  0  0  0  0  0  0  0
   24.6132   42.0056   20.2028 C   0  0  0  0  0  0  0  0  0  0  0  0
   25.5051   40.8371   20.6042 C   0  0  0  0  0  0  0  0  0  0  0  0
   24.7771   39.8342   21.4949 C   0  0  0  0  0  0  0  0  0  0  0  0
   24.3906   40.4437   22.8516 C   0  0  0  0  0  0  0  0  0  0  0  0
   23.6334   39.5199   23.7544 N   0  0  0  0  0  0  0  0  0  0  0  0
   26.3754   41.4582   17.7000 O   0  0  0  0  0  0  0  0  0  0  0  0
  2  1  1  6  0  0  0
  2  3  1  0  0  0  0
  2  5  1  0  0  0  0
  3  4  1  0  0  0  0
  3 10  1  0  0  0  0
  5  6  1  0  0  0  0
  6  7  1  0  0  0  0
  7  8  1  0  0  0  0
  8  9  1  0  0  0  0
M  END
>  <CHROM.1>
-15.41280205,-168.63502868,-175.82859067,-65.16016584,178.13816530,24.94632762
41.61810023,19.92963549,1.20104423,1.03946459,-0.75002629

>  <Name>
ligand

>  <RI>
0

>  <Rbt.Current_Directory>
/home/itssahil/PROJECTS/Mol_Feturizer/New_Systems/rnas/3D0U

>  <Rbt.Executable>
rbdock ($Id: //depot/dev/client3/rdock/2013.1/src/exe/rbdock.cxx#4 $)

>  <Rbt.Library>
libRbt.so (2013.1, Build901 2013/11/27)

>  <Rbt.Parameter_File>
/export/apps/rDock/src/rDock_2013.1_src/data/scripts/dock_solv.prm

>  <Rbt.Receptor>
prm/pocket_docking_5.prm

>  <SCORE>
-9.02674

>  <SCORE.INTER>
-8.82974

>  <SCORE.INTER.CONST>
1

>  <SCORE.INTER.POLAR>
0

>  <SCORE.INTER.ROT>
5

>  <SCORE.INTER.SOLV>
13.3645

>  <SCORE.INTER.VDW>
-17.2746

>  <SCORE.INTER.norm>
-0.882974

>  <SCORE.INTRA>
-0.19699

>  <SCORE.INTRA.DIHEDRAL>
-0.0445754

>  <SCORE.INTRA.DIHEDRAL.0>
2.22229

>  <SCORE.INTRA.POLAR>
0

>  <SCORE.INTRA.POLAR.0>
0

>  <SCORE.INTRA.REPUL>
0

>  <SCORE.INTRA.REPUL.0>
0

>  <SCORE.INTRA.SOLV>
-1.36016

>  <SCORE.INTRA.SOLV.lig_0>
-31.87

>  <SCORE.INTRA.VDW>
0.505376

>  <SCORE.INTRA.VDW.0>
-0.575321

>  <SCORE.INTRA.norm>
-0.019699

>  <SCORE.RESTR>
0

>  <SCORE.RESTR.CAVITY>
0

>  <SCORE.RESTR.norm>
0

>  <SCORE.SYSTEM>
0

>  <SCORE.SYSTEM.CONST>
0

>  <SCORE.SYSTEM.DIHEDRAL>
0

>  <SCORE.SYSTEM.SOLV>
0

>  <SCORE.SYSTEM.norm>
0

>  <SCORE.heavy>
10

>  <SCORE.norm>
-0.902674

>  <RMSD>
5.400

$$$$
ligand
 OpenBabel11021811463D
libRbt.so/2013.1/901 2013/11/27
 10  9  0  0  0  0  0  0  0  0999 V2000
   24.4849   42.7797   16.9173 N   0  0  0  0  0  0  0  0  0  0  0  0
   24.7165   42.6580   18.3514 C   0  0  2  0  0  0  0  0  0  0  0  0
   24.8922   44.0328   18.9939 C   0  0  0  0  0  0  0  0  0  0  0  0
   25.2207   44.9976   18.2973 O   0  0  0  0  0  0  0  0  0  0  0  0
   25.9286   41.7645   18.6320 C   0  0  0  0  0  0  0  0  0  0  0  0
   26.1017   41.4163   20.1054 C   0  0  0  0  0  0  0  0  0  0  0  0
   24.9513   40.5659   20.6369 C   0  0  0  0  0  0  0  0  0  0  0  0
   25.0955   40.2767   22.1393 C   0  0  0  0  0  0  0  0  0  0  0  0
   24.0106   39.4195   22.7137 N   0  0  0  0  0  0  0  0  0  0  0  0
   24.6975   44.2111   20.2035 O   0  0  0  0  0  0  0  0  0  0  0  0
  2  1  1  6  0  0  0
  2  3  1  0  0  0  0
  2  5  1  0  0  0  0
  3  4  1  0  0  0  0
  3 10  1  0  0  0  0
  5  6  1  0  0  0  0
  6  7  1  0  0  0  0
  7  8  1  0  0  0  0
  8  9  1  0  0  0  0
M  END
>  <CHROM.1>
-21.32323635,-171.03550594,64.94424932,-177.15798817,-178.71343645,25.01251553
42.25020935,19.70619190,-1.29746237,-1.42007810,2.65218594

>  <Name>
ligand

>  <RI>
0

>  <Rbt.Current_Directory>
/home/itssahil/PROJECTS/Mol_Feturizer/New_Systems/rnas/3D0U

>  <Rbt.Executable>
rbdock ($Id: //depot/dev/client3/rdock/2013.1/src/exe/rbdock.cxx#4 $)

>  <Rbt.Library>
libRbt.so (2013.1, Build901 2013/11/27)

>  <Rbt.Parameter_File>
/export/apps/rDock/src/rDock_2013.1_src/data/scripts/dock_solv.prm

>  <Rbt.Receptor>
prm/pocket_docking_6.prm

>  <SCORE>
-8.85675

>  <SCORE.INTER>
-8.03217

>  <SCORE.INTER.CONST>
1

>  <SCORE.INTER.POLAR>
0

>  <SCORE.INTER.ROT>
5

>  <SCORE.INTER.SOLV>
16.7389

>  <SCORE.INTER.VDW>
-17.8677

>  <SCORE.INTER.norm>
-0.803217

>  <SCORE.INTRA>
-0.824576

>  <SCORE.INTRA.DIHEDRAL>
-0.275639

>  <SCORE.INTRA.DIHEDRAL.0>
2.22229

>  <SCORE.INTRA.POLAR>
0

>  <SCORE.INTRA.POLAR.0>
0

>  <SCORE.INTRA.REPUL>
0

>  <SCORE.INTRA.REPUL.0>
0

>  <SCORE.INTRA.SOLV>
-1.29999

>  <SCORE.INTRA.SOLV.lig_0>
-31.87

>  <SCORE.INTRA.VDW>
-0.0367604

>  <SCORE.INTRA.VDW.0>
-0.575321

>  <SCORE.INTRA.norm>
-0.0824576

>  <SCORE.RESTR>
0

>  <SCORE.RESTR.CAVITY>
0

>  <SCORE.RESTR.norm>
0

>  <SCORE.SYSTEM>
0

>  <SCORE.SYSTEM.CONST>
0

>  <SCORE.SYSTEM.DIHEDRAL>
0

>  <SCORE.SYSTEM.SOLV>
0

>  <SCORE.SYSTEM.norm>
0

>  <SCORE.heavy>
10

>  <SCORE.norm>
-0.885675

>  <RMSD>
5.400

$$$$
ligand
 OpenBabel11021811463D
libRbt.so/2013.1/901 2013/11/27
 10  9  0  0  0  0  0  0  0  0999 V2000
   24.1924   43.0887   19.5637 N   0  0  0  0  0  0  0  0  0  0  0  0
   25.3743   42.3074   19.2202 C   0  0  2  0  0  0  0  0  0  0  0  0
   25.5359   42.2011   17.7048 C   0  0  0  0  0  0  0  0  0  0  0  0
   26.4804   41.5620   17.2323 O   0  0  0  0  0  0  0  0  0  0  0  0
   25.3124   40.9181   19.8622 C   0  0  0  0  0  0  0  0  0  0  0  0
   25.2809   40.9509   21.3855 C   0  0  0  0  0  0  0  0  0  0  0  0
   23.9551   41.4811   21.9243 C   0  0  0  0  0  0  0  0  0  0  0  0
   23.8949   41.4276   23.4590 C   0  0  0  0  0  0  0  0  0  0  0  0
   23.8709   40.0444   24.0318 N   0  0  0  0  0  0  0  0  0  0  0  0
   24.7289   42.7309   16.9296 O   0  0  0  0  0  0  0  0  0  0  0  0
  2  1  1  6  0  0  0
  2  3  1  0  0  0  0
  2  5  1  0  0  0  0
  3  4  1  0  0  0  0
  3 10  1  0  0  0  0
  5  6  1  0  0  0  0
  6  7  1  0  0  0  0
  7  8  1  0  0  0  0
  8  9  1  0  0  0  0
M  END
>  <CHROM.1>
-179.34093606,-61.73154304,70.47649985,176.33906420,-67.17316090,24.87031974
41.67243159,20.08675212,1.22591357,0.78868862,-1.07921341

>  <Name>
ligand

>  <RI>
0

>  <Rbt.Current_Directory>
/home/itssahil/PROJECTS/Mol_Feturizer/New_Systems/rnas/3D0U

>  <Rbt.Executable>
rbdock ($Id: //depot/dev/client3/rdock/2013.1/src/exe/rbdock.cxx#4 $)

>  <Rbt.Library>
libRbt.so (2013.1, Build901 2013/11/27)

>  <Rbt.Parameter_File>
/export/apps/rDock/src/rDock_2013.1_src/data/scripts/dock_solv.prm

>  <Rbt.Receptor>
prm/pocket_docking_6.prm

>  <SCORE>
-8.49124

>  <SCORE.INTER>
-9.82408

>  <SCORE.INTER.CONST>
1

>  <SCORE.INTER.POLAR>
0

>  <SCORE.INTER.ROT>
5

>  <SCORE.INTER.SOLV>
12.0064

>  <SCORE.INTER.VDW>
-17.4849

>  <SCORE.INTER.norm>
-0.982408

>  <SCORE.INTRA>
1.33284

>  <SCORE.INTRA.DIHEDRAL>
-0.0332931

>  <SCORE.INTRA.DIHEDRAL.0>
2.22229

>  <SCORE.INTRA.POLAR>
0

>  <SCORE.INTRA.POLAR.0>
0

>  <SCORE.INTRA.REPUL>
0

>  <SCORE.INTRA.REPUL.0>
0

>  <SCORE.INTRA.SOLV>
1.53358

>  <SCORE.INTRA.SOLV.lig_0>
-31.87

>  <SCORE.INTRA.VDW>
0.582699

>  <SCORE.INTRA.VDW.0>
-0.575321

>  <SCORE.INTRA.norm>
0.133284

>  <SCORE.RESTR>
0

>  <SCORE.RESTR.CAVITY>
0

>  <SCORE.RESTR.norm>
0

>  <SCORE.SYSTEM>
0

>  <SCORE.SYSTEM.CONST>
0

>  <SCORE.SYSTEM.DIHEDRAL>
0

>  <SCORE.SYSTEM.SOLV>
0

>  <SCORE.SYSTEM.norm>
0

>  <SCORE.heavy>
10

>  <SCORE.norm>
-0.849124

>  <RMSD>
5.401

$$$$
ligand
 OpenBabel11021811463D
libRbt.so/2013.1/901 2013/11/27
 10  9  0  0  0  0  0  0  0  0999 V2000
   24.5983   44.1522   19.1130 N   0  0  0  0  0  0  0  0  0  0  0  0
   25.3053   42.8835   19.2383 C   0  0  2  0  0  0  0  0  0  0  0  0
   25.5008   42.2311   17.8709 C   0  0  0  0  0  0  0  0  0  0  0  0
   24.7809   42.5630   16.9246 O   0  0  0  0  0  0  0  0  0  0  0  0
   24.5655   41.9414   20.1929 C   0  0  0  0  0  0  0  0  0  0  0  0
   25.3239   40.6529   20.4878 C   0  0  0  0  0  0  0  0  0  0  0  0
   24.5364   39.7147   21.3980 C   0  0  0  0  0  0  0  0  0  0  0  0
   24.4127   40.2679   22.8265 C   0  0  0  0  0  0  0  0  0  0  0  0
   23.6376   39.3962   23.7651 N   0  0  0  0  0  0  0  0  0  0  0  0
   26.3803   41.3808   17.6798 O   0  0  0  0  0  0  0  0  0  0  0  0
  2  1  1  6  0  0  0
  2  3  1  0  0  0  0
  2  5  1  0  0  0  0
  3  4  1  0  0  0  0
  3 10  1  0  0  0  0
  5  6  1  0  0  0  0
  6  7  1  0  0  0  0
  7  8  1  0  0  0  0
  8  9  1  0  0  0  0
M  END
>  <CHROM.1>
-20.39813168,-173.83552578,-177.80767412,-69.09183546,179.43874752,24.91190702
41.51104241,19.91003168,1.12645980,1.09811827,-0.65756184

>  <Name>
ligand

>  <RI>
0

>  <Rbt.Current_Directory>
/home/itssahil/PROJECTS/Mol_Feturizer/New_Systems/rnas/3D0U

>  <Rbt.Executable>
rbdock ($Id: //depot/dev/client3/rdock/2013.1/src/exe/rbdock.cxx#4 $)

>  <Rbt.Library>
libRbt.so (2013.1, Build901 2013/11/27)

>  <Rbt.Parameter_File>
/export/apps/rDock/src/rDock_2013.1_src/data/scripts/dock_solv.prm

>  <Rbt.Receptor>
prm/pocket_docking_4.prm

>  <SCORE>
-9.09409

>  <SCORE.INTER>
-8.70667

>  <SCORE.INTER.CONST>
1

>  <SCORE.INTER.POLAR>
0

>  <SCORE.INTER.ROT>
5

>  <SCORE.INTER.SOLV>
13.2844

>  <SCORE.INTER.VDW>
-17.1659

>  <SCORE.INTER.norm>
-0.870667

>  <SCORE.INTRA>
-0.387424

>  <SCORE.INTRA.DIHEDRAL>
-0.216229

>  <SCORE.INTRA.DIHEDRAL.0>
2.22229

>  <SCORE.INTRA.POLAR>
0

>  <SCORE.INTRA.POLAR.0>
0

>  <SCORE.INTRA.REPUL>
0

>  <SCORE.INTRA.REPUL.0>
0

>  <SCORE.INTRA.SOLV>
-1.39927

>  <SCORE.INTRA.SOLV.lig_0>
-31.87

>  <SCORE.INTRA.VDW>
0.420325

>  <SCORE.INTRA.VDW.0>
-0.575321

>  <SCORE.INTRA.norm>
-0.0387424

>  <SCORE.RESTR>
0

>  <SCORE.RESTR.CAVITY>
0

>  <SCORE.RESTR.norm>
0

>  <SCORE.SYSTEM>
0

>  <SCORE.SYSTEM.CONST>
0

>  <SCORE.SYSTEM.DIHEDRAL>
0

>  <SCORE.SYSTEM.SOLV>
0

>  <SCORE.SYSTEM.norm>
0

>  <SCORE.heavy>
10

>  <SCORE.norm>
-0.909409

>  <RMSD>
5.402

$$$$
ligand
 OpenBabel11021811463D
libRbt.so/2013.1/901 2013/11/27
 10  9  0  0  0  0  0  0  0  0999 V2000
   24.5306   42.7913   16.9054 N   0  0  0  0  0  0  0  0  0  0  0  0
   24.7514   42.6646   18.3408 C   0  0  2  0  0  0  0  0  0  0  0  0
   24.8880   44.0385   18.9946 C   0  0  0  0  0  0  0  0  0  0  0  0
   25.2228   45.0115   18.3126 O   0  0  0  0  0  0  0  0  0  0  0  0
   25.9820   41.7984   18.6266 C   0  0  0  0  0  0  0  0  0  0  0  0
   26.1447   41.4364   20.0979 C   0  0  0  0  0  0  0  0  0  0  0  0
   25.0096   40.5506   20.6037 C   0  0  0  0  0  0  0  0  0  0  0  0
   25.1380   40.2518   22.1057 C   0  0  0  0  0  0  0  0  0  0  0  0
   24.0363   39.4078   22.6674 N   0  0  0  0  0  0  0  0  0  0  0  0
   24.6550   44.2076   20.1987 O   0  0  0  0  0  0  0  0  0  0  0  0
  2  1  1  6  0  0  0
  2  3  1  0  0  0  0
  2  5  1  0  0  0  0
  3  4  1  0  0  0  0
  3 10  1  0  0  0  0
  5  6  1  0  0  0  0
  6  7  1  0  0  0  0
  7  8  1  0  0  0  0
  8  9  1  0  0  0  0
M  END
>  <CHROM.1>
-22.59886727,-170.67883858,64.96325618,-176.89629970,178.84122168,25.03748503
42.25385782,19.69276056,-1.37544948,-1.38824967,2.58252690

>  <Name>
ligand

>  <RI>
0

>  <Rbt.Current_Directory>
/home/itssahil/PROJECTS/Mol_Feturizer/New_Systems/rnas/3D0U

>  <Rbt.Executable>
rbdock ($Id: //depot/dev/client3/rdock/2013.1/src/exe/rbdock.cxx#4 $)

>  <Rbt.Library>
libRbt.so (2013.1, Build901 2013/11/27)

>  <Rbt.Parameter_File>
/export/apps/rDock/src/rDock_2013.1_src/data/scripts/dock_solv.prm

>  <Rbt.Receptor>
prm/pocket_docking_4.prm

>  <SCORE>
-8.88424

>  <SCORE.INTER>
-8.05516

>  <SCORE.INTER.CONST>
1

>  <SCORE.INTER.POLAR>
0

>  <SCORE.INTER.ROT>
5

>  <SCORE.INTER.SOLV>
16.8413

>  <SCORE.INTER.VDW>
-17.9172

>  <SCORE.INTER.norm>
-0.805516

>  <SCORE.INTRA>
-0.829082

>  <SCORE.INTRA.DIHEDRAL>
-0.244378

>  <SCORE.INTRA.DIHEDRAL.0>
2.22229

>  <SCORE.INTRA.POLAR>
0

>  <SCORE.INTRA.POLAR.0>
0

>  <SCORE.INTRA.REPUL>
0

>  <SCORE.INTRA.REPUL.0>
0

>  <SCORE.INTRA.SOLV>
-1.29764

>  <SCORE.INTRA.SOLV.lig_0>
-31.87

>  <SCORE.INTRA.VDW>
-0.058073

>  <SCORE.INTRA.VDW.0>
-0.575321

>  <SCORE.INTRA.norm>
-0.0829082

>  <SCORE.RESTR>
0

>  <SCORE.RESTR.CAVITY>
0

>  <SCORE.RESTR.norm>
0

>  <SCORE.SYSTEM>
0

>  <SCORE.SYSTEM.CONST>
0

>  <SCORE.SYSTEM.DIHEDRAL>
0

>  <SCORE.SYSTEM.SOLV>
0

>  <SCORE.SYSTEM.norm>
0

>  <SCORE.heavy>
10

>  <SCORE.norm>
-0.888424

>  <RMSD>
5.402

$$$$
ligand
 OpenBabel11021811463D
libRbt.so/2013.1/901 2013/11/27
 10  9  0  0  0  0  0  0  0  0999 V2000
   24.5196   42.7803   16.9049 N   0  0  0  0  0  0  0  0  0  0  0  0
   24.7257   42.6563   18.3427 C   0  0  2  0  0  0  0  0  0  0  0  0
   24.8936   44.0300   18.9897 C   0  0  0  0  0  0  0  0  0  0  0  0
   25.2132   44.9996   18.2957 O   0  0  0  0  0  0  0  0  0  0  0  0
   25.9304   41.7594   18.6434 C   0  0  0  0  0  0  0  0  0  0  0  0
   26.0778   41.4107   20.1196 C   0  0  0  0  0  0  0  0  0  0  0  0
   24.9185   40.5601   20.6307 C   0  0  0  0  0  0  0  0  0  0  0  0
   25.0607   40.2314   22.1252 C   0  0  0  0  0  0  0  0  0  0  0  0
   23.9486   39.4013   22.6871 N   0  0  0  0  0  0  0  0  0  0  0  0
   24.7014   44.2023   20.2005 O   0  0  0  0  0  0  0  0  0  0  0  0
  2  1  1  6  0  0  0
  2  3  1  0  0  0  0
  2  5  1  0  0  0  0
  3  4  1  0  0  0  0
  3 10  1  0  0  0  0
  5  6  1  0  0  0  0
  6  7  1  0  0  0  0
  7  8  1  0  0  0  0
  8  9  1  0  0  0  0
M  END
>  <CHROM.1>
-20.00782802,-171.12257522,65.12670158,-179.04874955,179.79600964,25.00146142
42.24115793,19.70117164,-1.24750312,-1.41211442,2.70605934

>  <Name>
ligand

>  <RI>
0

>  <Rbt.Current_Directory>
/home/itssahil/PROJECTS/Mol_Feturizer/New_Systems/rnas/3D0U

>  <Rbt.Executable>
rbdock ($Id: //depot/dev/client3/rdock/2013.1/src/exe/rbdock.cxx#4 $)

>  <Rbt.Library>
libRbt.so (2013.1, Build901 2013/11/27)

>  <Rbt.Parameter_File>
/export/apps/rDock/src/rDock_2013.1_src/data/scripts/dock_solv.prm

>  <Rbt.Receptor>
prm/pocket_docking_8.prm

>  <SCORE>
-8.84281

>  <SCORE.INTER>
-8.01818

>  <SCORE.INTER.CONST>
1

>  <SCORE.INTER.POLAR>
0

>  <SCORE.INTER.ROT>
5

>  <SCORE.INTER.SOLV>
16.7377

>  <SCORE.INTER.VDW>
-17.858

>  <SCORE.INTER.norm>
-0.801818

>  <SCORE.INTRA>
-0.824628

>  <SCORE.INTRA.DIHEDRAL>
-0.310875

>  <SCORE.INTRA.DIHEDRAL.0>
2.22229

>  <SCORE.INTRA.POLAR>
0

>  <SCORE.INTRA.POLAR.0>
0

>  <SCORE.INTRA.REPUL>
0

>  <SCORE.INTRA.REPUL.0>
0

>  <SCORE.INTRA.SOLV>
-1.30185

>  <SCORE.INTRA.SOLV.lig_0>
-31.87

>  <SCORE.INTRA.VDW>
-0.0182672

>  <SCORE.INTRA.VDW.0>
-0.575321

>  <SCORE.INTRA.norm>
-0.0824628

>  <SCORE.RESTR>
0

>  <SCORE.RESTR.CAVITY>
0

>  <SCORE.RESTR.norm>
0

>  <SCORE.SYSTEM>
0

>  <SCORE.SYSTEM.CONST>
0

>  <SCORE.SYSTEM.DIHEDRAL>
0

>  <SCORE.SYSTEM.SOLV>
0

>  <SCORE.SYSTEM.norm>
0

>  <SCORE.heavy>
10

>  <SCORE.norm>
-0.884281

>  <RMSD>
5.403

$$$$
ligand
 OpenBabel11021811463D
libRbt.so/2013.1/901 2013/11/27
 10  9  0  0  0  0  0  0  0  0999 V2000
   24.5109   43.6939   20.1002 N   0  0  0  0  0  0  0  0  0  0  0  0
   25.1613   42.5414   19.4889 C   0  0  2  0  0  0  0  0  0  0  0  0
   25.0889   42.6194   17.9649 C   0  0  0  0  0  0  0  0  0  0  0  0
   25.5980   41.7271   17.2804 O   0  0  0  0  0  0  0  0  0  0  0  0
   24.5446   41.2355   19.9993 C   0  0  0  0  0  0  0  0  0  0  0  0
   24.7388   41.0127   21.4943 C   0  0  0  0  0  0  0  0  0  0  0  0
   24.0972   39.7134   21.9727 C   0  0  0  0  0  0  0  0  0  0  0  0
   24.2320   39.5303   23.4926 C   0  0  0  0  0  0  0  0  0  0  0  0
   23.5612   40.5918   24.3080 N   0  0  0  0  0  0  0  0  0  0  0  0
   24.5148   43.5548   17.3918 O   0  0  0  0  0  0  0  0  0  0  0  0
  2  1  1  1  0  0  0
  2  3  1  0  0  0  0
  2  5  1  0  0  0  0
  3  4  1  0  0  0  0
  3 10  1  0  0  0  0
  5  6  1  0  0  0  0
  6  7  1  0  0  0  0
  7  8  1  0  0  0  0
  8  9  1  0  0  0  0
M  END
>  <CHROM.1>
179.57336330,-63.61121615,179.24304905,-176.99805813,61.70188218,24.60667032
41.62955971,20.30473761,0.99650236,1.26957988,-0.55424445

>  <Name>
ligand

>  <RI>
0

>  <Rbt.Current_Directory>
/home/itssahil/PROJECTS/Mol_Feturizer/New_Systems/rnas/3D0U

>  <Rbt.Executable>
rbdock ($Id: //depot/dev/client3/rdock/2013.1/src/exe/rbdock.cxx#4 $)

>  <Rbt.Library>
libRbt.so (2013.1, Build901 2013/11/27)

>  <Rbt.Parameter_File>
/export/apps/rDock/src/rDock_2013.1_src/data/scripts/dock_solv.prm

>  <Rbt.Receptor>
prm/pocket_docking_3.prm

>  <SCORE>
-7.13545

>  <SCORE.INTER>
-6.94178

>  <SCORE.INTER.CONST>
1

>  <SCORE.INTER.POLAR>
0

>  <SCORE.INTER.ROT>
5

>  <SCORE.INTER.SOLV>
13.2932

>  <SCORE.INTER.VDW>
-15.9923

>  <SCORE.INTER.norm>
-0.694178

>  <SCORE.INTRA>
-0.193842

>  <SCORE.INTRA.DIHEDRAL>
-0.638281

>  <SCORE.INTRA.DIHEDRAL.0>
2.22229

>  <SCORE.INTRA.POLAR>
0

>  <SCORE.INTRA.POLAR.0>
0

>  <SCORE.INTRA.REPUL>
0

>  <SCORE.INTRA.REPUL.0>
0

>  <SCORE.INTRA.SOLV>
0.127134

>  <SCORE.INTRA.SOLV.lig_0>
-31.87

>  <SCORE.INTRA.VDW>
0.0617316

>  <SCORE.INTRA.VDW.0>
-0.575321

>  <SCORE.INTRA.norm>
-0.0193842

>  <SCORE.RESTR>
0.000169863

>  <SCORE.RESTR.CAVITY>
0.000169863

>  <SCORE.RESTR.norm>
1.69863e-05

>  <SCORE.SYSTEM>
0

>  <SCORE.SYSTEM.CONST>
0

>  <SCORE.SYSTEM.DIHEDRAL>
0

>  <SCORE.SYSTEM.SOLV>
0

>  <SCORE.SYSTEM.norm>
0

>  <SCORE.heavy>
10

>  <SCORE.norm>
-0.713545

>  <RMSD>
5.404

$$$$
ligand
 OpenBabel11021811463D
libRbt.so/2013.1/901 2013/11/27
 10  9  0  0  0  0  0  0  0  0999 V2000
   24.6131   43.5834   19.4250 N   0  0  0  0  0  0  0  0  0  0  0  0
   25.7829   42.7301   19.2555 C   0  0  2  0  0  0  0  0  0  0  0  0
   25.7140   41.9670   17.9338 C   0  0  0  0  0  0  0  0  0  0  0  0
   25.0864   42.4428   16.9831 O   0  0  0  0  0  0  0  0  0  0  0  0
   25.9275   41.7657   20.4367 C   0  0  0  0  0  0  0  0  0  0  0  0
   24.7037   40.8850   20.6584 C   0  0  0  0  0  0  0  0  0  0  0  0
   24.8243   40.0358   21.9206 C   0  0  0  0  0  0  0  0  0  0  0  0
   23.5694   39.1824   22.1624 C   0  0  0  0  0  0  0  0  0  0  0  0
   23.6033   38.3703   23.4198 N   0  0  0  0  0  0  0  0  0  0  0  0
   26.2886   40.8807   17.7836 O   0  0  0  0  0  0  0  0  0  0  0  0
  2  1  1  1  0  0  0
  2  3  1  0  0  0  0
  2  5  1  0  0  0  0
  3  4  1  0  0  0  0
  3 10  1  0  0  0  0
  5  6  1  0  0  0  0
  6  7  1  0  0  0  0
  7  8  1  0  0  0  0
  8  9  1  0  0  0  0
M  END
>  <CHROM.1>
27.20298547,57.14144700,-174.38030045,178.23029676,-177.48634499,25.01493961
41.17551299,19.95917960,0.66691486,1.21535573,-0.09265032

>  <Name>
ligand

>  <RI>
0

>  <Rbt.Current_Directory>
/home/itssahil/PROJECTS/Mol_Feturizer/New_Systems/rnas/3D0U

>  <Rbt.Executable>
rbdock ($Id: //depot/dev/client3/rdock/2013.1/src/exe/rbdock.cxx#4 $)

>  <Rbt.Library>
libRbt.so (2013.1, Build901 2013/11/27)

>  <Rbt.Parameter_File>
/export/apps/rDock/src/rDock_2013.1_src/data/scripts/dock_solv.prm

>  <Rbt.Receptor>
prm/pocket_docking_4.prm

>  <SCORE>
-9.09858

>  <SCORE.INTER>
-8.91556

>  <SCORE.INTER.CONST>
1

>  <SCORE.INTER.POLAR>
0

>  <SCORE.INTER.ROT>
5

>  <SCORE.INTER.SOLV>
12.7572

>  <SCORE.INTER.VDW>
-17.1294

>  <SCORE.INTER.norm>
-0.891556

>  <SCORE.INTRA>
-0.183025

>  <SCORE.INTRA.DIHEDRAL>
-0.569677

>  <SCORE.INTRA.DIHEDRAL.0>
2.22229

>  <SCORE.INTRA.POLAR>
0

>  <SCORE.INTRA.POLAR.0>
0

>  <SCORE.INTRA.REPUL>
0

>  <SCORE.INTRA.REPUL.0>
0

>  <SCORE.INTRA.SOLV>
-0.65143

>  <SCORE.INTRA.SOLV.lig_0>
-31.87

>  <SCORE.INTRA.VDW>
0.427528

>  <SCORE.INTRA.VDW.0>
-0.575321

>  <SCORE.INTRA.norm>
-0.0183025

>  <SCORE.RESTR>
0

>  <SCORE.RESTR.CAVITY>
0

>  <SCORE.RESTR.norm>
0

>  <SCORE.SYSTEM>
0

>  <SCORE.SYSTEM.CONST>
0

>  <SCORE.SYSTEM.DIHEDRAL>
0

>  <SCORE.SYSTEM.SOLV>
0

>  <SCORE.SYSTEM.norm>
0

>  <SCORE.heavy>
10

>  <SCORE.norm>
-0.909858

>  <RMSD>
5.409

$$$$
ligand
 OpenBabel11021811463D
libRbt.so/2013.1/901 2013/11/27
 10  9  0  0  0  0  0  0  0  0999 V2000
   24.5976   44.2497   19.1751 N   0  0  0  0  0  0  0  0  0  0  0  0
   25.2826   42.9643   19.2365 C   0  0  2  0  0  0  0  0  0  0  0  0
   25.4463   42.3666   17.8401 C   0  0  0  0  0  0  0  0  0  0  0  0
   26.3339   41.5350   17.6293 O   0  0  0  0  0  0  0  0  0  0  0  0
   24.5390   41.9963   20.1618 C   0  0  0  0  0  0  0  0  0  0  0  0
   25.2739   40.6802   20.3853 C   0  0  0  0  0  0  0  0  0  0  0  0
   24.5029   39.7369   21.3044 C   0  0  0  0  0  0  0  0  0  0  0  0
   24.4225   40.2726   22.7426 C   0  0  0  0  0  0  0  0  0  0  0  0
   23.6669   39.3945   23.6911 N   0  0  0  0  0  0  0  0  0  0  0  0
   24.6960   42.6853   16.9083 O   0  0  0  0  0  0  0  0  0  0  0  0
  2  1  1  6  0  0  0
  2  3  1  0  0  0  0
  2  5  1  0  0  0  0
  3  4  1  0  0  0  0
  3 10  1  0  0  0  0
  5  6  1  0  0  0  0
  6  7  1  0  0  0  0
  7  8  1  0  0  0  0
  8  9  1  0  0  0  0
M  END
>  <CHROM.1>
157.19869568,-174.13175638,-179.67925524,-67.32956008,179.52952761,24.88317948
41.58172737,19.86755820,1.12168954,1.12475223,-0.62473012

>  <Name>
ligand

>  <RI>
0

>  <Rbt.Current_Directory>
/home/itssahil/PROJECTS/Mol_Feturizer/New_Systems/rnas/3D0U

>  <Rbt.Executable>
rbdock ($Id: //depot/dev/client3/rdock/2013.1/src/exe/rbdock.cxx#4 $)

>  <Rbt.Library>
libRbt.so (2013.1, Build901 2013/11/27)

>  <Rbt.Parameter_File>
/export/apps/rDock/src/rDock_2013.1_src/data/scripts/dock_solv.prm

>  <Rbt.Receptor>
prm/pocket_docking_8.prm

>  <SCORE>
-9.12837

>  <SCORE.INTER>
-8.66653

>  <SCORE.INTER.CONST>
1

>  <SCORE.INTER.POLAR>
0

>  <SCORE.INTER.ROT>
5

>  <SCORE.INTER.SOLV>
13.3218

>  <SCORE.INTER.VDW>
-17.1516

>  <SCORE.INTER.norm>
-0.866653

>  <SCORE.INTRA>
-0.461845

>  <SCORE.INTRA.DIHEDRAL>
-0.425059

>  <SCORE.INTRA.DIHEDRAL.0>
2.22229

>  <SCORE.INTRA.POLAR>
0

>  <SCORE.INTRA.POLAR.0>
0

>  <SCORE.INTRA.REPUL>
0

>  <SCORE.INTRA.REPUL.0>
0

>  <SCORE.INTRA.SOLV>
-1.40252

>  <SCORE.INTRA.SOLV.lig_0>
-31.87

>  <SCORE.INTRA.VDW>
0.451946

>  <SCORE.INTRA.VDW.0>
-0.575321

>  <SCORE.INTRA.norm>
-0.0461845

>  <SCORE.RESTR>
0

>  <SCORE.RESTR.CAVITY>
0

>  <SCORE.RESTR.norm>
0

>  <SCORE.SYSTEM>
0

>  <SCORE.SYSTEM.CONST>
0

>  <SCORE.SYSTEM.DIHEDRAL>
0

>  <SCORE.SYSTEM.SOLV>
0

>  <SCORE.SYSTEM.norm>
0

>  <SCORE.heavy>
10

>  <SCORE.norm>
-0.912837

>  <RMSD>
5.410

$$$$
ligand
 OpenBabel11021811463D
libRbt.so/2013.1/901 2013/11/27
 10  9  0  0  0  0  0  0  0  0999 V2000
   24.6785   44.1942   19.0927 N   0  0  0  0  0  0  0  0  0  0  0  0
   25.3657   42.9151   19.2224 C   0  0  2  0  0  0  0  0  0  0  0  0
   25.5479   42.2534   17.8575 C   0  0  0  0  0  0  0  0  0  0  0  0
   24.8192   42.5794   16.9159 O   0  0  0  0  0  0  0  0  0  0  0  0
   24.6131   41.9891   20.1828 C   0  0  0  0  0  0  0  0  0  0  0  0
   25.3467   40.6855   20.4736 C   0  0  0  0  0  0  0  0  0  0  0  0
   24.5390   39.7571   21.3762 C   0  0  0  0  0  0  0  0  0  0  0  0
   24.4201   40.3054   22.8070 C   0  0  0  0  0  0  0  0  0  0  0  0
   23.6460   39.4316   23.7445 N   0  0  0  0  0  0  0  0  0  0  0  0
   26.4251   41.4014   17.6639 O   0  0  0  0  0  0  0  0  0  0  0  0
  2  1  1  6  0  0  0
  2  3  1  0  0  0  0
  2  5  1  0  0  0  0
  3  4  1  0  0  0  0
  3 10  1  0  0  0  0
  5  6  1  0  0  0  0
  6  7  1  0  0  0  0
  7  8  1  0  0  0  0
  8  9  1  0  0  0  0
M  END
>  <CHROM.1>
-21.37612141,-174.28181954,-177.11206484,-69.07462046,-179.54594530,24.94770824
41.54364958,19.89404033,1.09670722,1.10839074,-0.62909692

>  <Name>
ligand

>  <RI>
0

>  <Rbt.Current_Directory>
/home/itssahil/PROJECTS/Mol_Feturizer/New_Systems/rnas/3D0U

>  <Rbt.Executable>
rbdock ($Id: //depot/dev/client3/rdock/2013.1/src/exe/rbdock.cxx#4 $)

>  <Rbt.Library>
libRbt.so (2013.1, Build901 2013/11/27)

>  <Rbt.Parameter_File>
/export/apps/rDock/src/rDock_2013.1_src/data/scripts/dock_solv.prm

>  <Rbt.Receptor>
prm/pocket_docking_5.prm

>  <SCORE>
-9.12299

>  <SCORE.INTER>
-8.72658

>  <SCORE.INTER.CONST>
1

>  <SCORE.INTER.POLAR>
0

>  <SCORE.INTER.ROT>
5

>  <SCORE.INTER.SOLV>
13.5024

>  <SCORE.INTER.VDW>
-17.2518

>  <SCORE.INTER.norm>
-0.872658

>  <SCORE.INTRA>
-0.396416

>  <SCORE.INTRA.DIHEDRAL>
-0.222479

>  <SCORE.INTRA.DIHEDRAL.0>
2.22229

>  <SCORE.INTRA.POLAR>
0

>  <SCORE.INTRA.POLAR.0>
0

>  <SCORE.INTRA.REPUL>
0

>  <SCORE.INTRA.REPUL.0>
0

>  <SCORE.INTRA.SOLV>
-1.40562

>  <SCORE.INTRA.SOLV.lig_0>
-31.87

>  <SCORE.INTRA.VDW>
0.417635

>  <SCORE.INTRA.VDW.0>
-0.575321

>  <SCORE.INTRA.norm>
-0.0396416

>  <SCORE.RESTR>
0

>  <SCORE.RESTR.CAVITY>
0

>  <SCORE.RESTR.norm>
0

>  <SCORE.SYSTEM>
0

>  <SCORE.SYSTEM.CONST>
0

>  <SCORE.SYSTEM.DIHEDRAL>
0

>  <SCORE.SYSTEM.SOLV>
0

>  <SCORE.SYSTEM.norm>
0

>  <SCORE.heavy>
10

>  <SCORE.norm>
-0.912299

>  <RMSD>
5.411

$$$$
ligand
 OpenBabel11021811463D
libRbt.so/2013.1/901 2013/11/27
 10  9  0  0  0  0  0  0  0  0999 V2000
   24.7273   44.2552   19.1619 N   0  0  0  0  0  0  0  0  0  0  0  0
   25.3692   42.9477   19.2212 C   0  0  2  0  0  0  0  0  0  0  0  0
   25.4776   42.3301   17.8281 C   0  0  0  0  0  0  0  0  0  0  0  0
   26.3183   41.4529   17.6101 O   0  0  0  0  0  0  0  0  0  0  0  0
   24.6161   42.0157   20.1753 C   0  0  0  0  0  0  0  0  0  0  0  0
   25.3399   40.7014   20.4420 C   0  0  0  0  0  0  0  0  0  0  0  0
   24.5402   39.7766   21.3552 C   0  0  0  0  0  0  0  0  0  0  0  0
   24.4383   40.3278   22.7862 C   0  0  0  0  0  0  0  0  0  0  0  0
   23.6501   39.4706   23.7273 N   0  0  0  0  0  0  0  0  0  0  0  0
   24.7278   42.6780   16.9064 O   0  0  0  0  0  0  0  0  0  0  0  0
  2  1  1  6  0  0  0
  2  3  1  0  0  0  0
  2  5  1  0  0  0  0
  3  4  1  0  0  0  0
  3 10  1  0  0  0  0
  5  6  1  0  0  0  0
  6  7  1  0  0  0  0
  7  8  1  0  0  0  0
  8  9  1  0  0  0  0
M  END
>  <CHROM.1>
158.20850974,-171.68762954,-177.94419833,-68.13091086,179.32388668,24.92636698
41.58851217,19.88138583,1.07558666,1.15354138,-0.59446733

>  <Name>
ligand

>  <RI>
0

>  <Rbt.Current_Directory>
/home/itssahil/PROJECTS/Mol_Feturizer/New_Systems/rnas/3D0U

>  <Rbt.Executable>
rbdock ($Id: //depot/dev/client3/rdock/2013.1/src/exe/rbdock.cxx#4 $)

>  <Rbt.Library>
libRbt.so (2013.1, Build901 2013/11/27)

>  <Rbt.Parameter_File>
/export/apps/rDock/src/rDock_2013.1_src/data/scripts/dock_solv.prm

>  <Rbt.Receptor>
prm/blind_docking_60.prm

>  <SCORE>
-9.08286

>  <SCORE.INTER>
-8.6504

>  <SCORE.INTER.CONST>
1

>  <SCORE.INTER.POLAR>
0

>  <SCORE.INTER.ROT>
5

>  <SCORE.INTER.SOLV>
13.6056

>  <SCORE.INTER.VDW>
-17.2355

>  <SCORE.INTER.norm>
-0.86504

>  <SCORE.INTRA>
-0.432456

>  <SCORE.INTRA.DIHEDRAL>
-0.225111

>  <SCORE.INTRA.DIHEDRAL.0>
2.22229

>  <SCORE.INTRA.POLAR>
0

>  <SCORE.INTRA.POLAR.0>
0

>  <SCORE.INTRA.REPUL>
0

>  <SCORE.INTRA.REPUL.0>
0

>  <SCORE.INTRA.SOLV>
-1.40418

>  <SCORE.INTRA.SOLV.lig_0>
-31.87

>  <SCORE.INTRA.VDW>
0.382191

>  <SCORE.INTRA.VDW.0>
-0.575321

>  <SCORE.INTRA.norm>
-0.0432456

>  <SCORE.RESTR>
0

>  <SCORE.RESTR.CAVITY>
0

>  <SCORE.RESTR.norm>
0

>  <SCORE.SYSTEM>
0

>  <SCORE.SYSTEM.CONST>
0

>  <SCORE.SYSTEM.DIHEDRAL>
0

>  <SCORE.SYSTEM.SOLV>
0

>  <SCORE.SYSTEM.norm>
0

>  <SCORE.heavy>
10

>  <SCORE.norm>
-0.908286

>  <RMSD>
5.413

$$$$
ligand
 OpenBabel11021811463D
libRbt.so/2013.1/901 2013/11/27
 10  9  0  0  0  0  0  0  0  0999 V2000
   25.1300   44.4056   18.5103 N   0  0  0  0  0  0  0  0  0  0  0  0
   25.5411   43.1608   19.1479 C   0  0  2  0  0  0  0  0  0  0  0  0
   25.7222   42.0521   18.1127 C   0  0  0  0  0  0  0  0  0  0  0  0
   25.4381   42.2647   16.9304 O   0  0  0  0  0  0  0  0  0  0  0  0
   24.5349   42.7441   20.2250 C   0  0  0  0  0  0  0  0  0  0  0  0
   25.0244   41.6029   21.1083 C   0  0  0  0  0  0  0  0  0  0  0  0
   23.9824   41.1846   22.1418 C   0  0  0  0  0  0  0  0  0  0  0  0
   24.4456   39.9753   22.9694 C   0  0  0  0  0  0  0  0  0  0  0  0
   23.4346   39.4714   23.9522 N   0  0  0  0  0  0  0  0  0  0  0  0
   26.1649   40.9395   18.4275 O   0  0  0  0  0  0  0  0  0  0  0  0
  2  1  1  6  0  0  0
  2  3  1  0  0  0  0
  2  5  1  0  0  0  0
  3  4  1  0  0  0  0
  3 10  1  0  0  0  0
  5  6  1  0  0  0  0
  6  7  1  0  0  0  0
  7  8  1  0  0  0  0
  8  9  1  0  0  0  0
M  END
>  <CHROM.1>
-4.61789110,-169.19954614,-178.25641296,176.33575911,-176.89790273,24.95062332
41.76133317,20.11940575,0.86335637,1.15198234,-0.44104785

>  <Name>
ligand

>  <RI>
0

>  <Rbt.Current_Directory>
/home/itssahil/PROJECTS/Mol_Feturizer/New_Systems/rnas/3D0U

>  <Rbt.Executable>
rbdock ($Id: //depot/dev/client3/rdock/2013.1/src/exe/rbdock.cxx#4 $)

>  <Rbt.Library>
libRbt.so (2013.1, Build901 2013/11/27)

>  <Rbt.Parameter_File>
/export/apps/rDock/src/rDock_2013.1_src/data/scripts/dock_solv.prm

>  <Rbt.Receptor>
prm/pocket_docking_5.prm

>  <SCORE>
-8.52824

>  <SCORE.INTER>
-7.69517

>  <SCORE.INTER.CONST>
1

>  <SCORE.INTER.POLAR>
0

>  <SCORE.INTER.ROT>
5

>  <SCORE.INTER.SOLV>
15.7304

>  <SCORE.INTER.VDW>
-17.3069

>  <SCORE.INTER.norm>
-0.769517

>  <SCORE.INTRA>
-0.833067

>  <SCORE.INTRA.DIHEDRAL>
-0.196963

>  <SCORE.INTRA.DIHEDRAL.0>
2.22229

>  <SCORE.INTRA.POLAR>
0

>  <SCORE.INTRA.POLAR.0>
0

>  <SCORE.INTRA.REPUL>
0

>  <SCORE.INTRA.REPUL.0>
0

>  <SCORE.INTRA.SOLV>
-1.58025

>  <SCORE.INTRA.SOLV.lig_0>
-31.87

>  <SCORE.INTRA.VDW>
0.0555388

>  <SCORE.INTRA.VDW.0>
-0.575321

>  <SCORE.INTRA.norm>
-0.0833067

>  <SCORE.RESTR>
0

>  <SCORE.RESTR.CAVITY>
0

>  <SCORE.RESTR.norm>
0

>  <SCORE.SYSTEM>
0

>  <SCORE.SYSTEM.CONST>
0

>  <SCORE.SYSTEM.DIHEDRAL>
0

>  <SCORE.SYSTEM.SOLV>
0

>  <SCORE.SYSTEM.norm>
0

>  <SCORE.heavy>
10

>  <SCORE.norm>
-0.852824

>  <RMSD>
5.413

$$$$
ligand
 OpenBabel11021811463D
libRbt.so/2013.1/901 2013/11/27
 10  9  0  0  0  0  0  0  0  0999 V2000
   24.8909   44.2117   19.1715 N   0  0  0  0  0  0  0  0  0  0  0  0
   25.4652   42.8727   19.2231 C   0  0  2  0  0  0  0  0  0  0  0  0
   25.5417   42.2583   17.8265 C   0  0  0  0  0  0  0  0  0  0  0  0
   26.3256   41.3302   17.6071 O   0  0  0  0  0  0  0  0  0  0  0  0
   24.6655   41.9750   20.1723 C   0  0  0  0  0  0  0  0  0  0  0  0
   25.3319   40.6326   20.4484 C   0  0  0  0  0  0  0  0  0  0  0  0
   24.5018   39.7571   21.3829 C   0  0  0  0  0  0  0  0  0  0  0  0
   24.4284   40.3393   22.8032 C   0  0  0  0  0  0  0  0  0  0  0  0
   23.6275   39.5220   23.7688 N   0  0  0  0  0  0  0  0  0  0  0  0
   24.8210   42.6594   16.9032 O   0  0  0  0  0  0  0  0  0  0  0  0
  2  1  1  6  0  0  0
  2  3  1  0  0  0  0
  2  5  1  0  0  0  0
  3  4  1  0  0  0  0
  3 10  1  0  0  0  0
  5  6  1  0  0  0  0
  6  7  1  0  0  0  0
  7  8  1  0  0  0  0
  8  9  1  0  0  0  0
M  END
>  <CHROM.1>
159.03135386,-170.78659159,-179.29756705,-67.46763138,-179.91075288,24.96537861
41.54856988,19.89056653,0.98024233,1.18398713,-0.51293964

>  <Name>
ligand

>  <RI>
0

>  <Rbt.Current_Directory>
/home/itssahil/PROJECTS/Mol_Feturizer/New_Systems/rnas/3D0U

>  <Rbt.Executable>
rbdock ($Id: //depot/dev/client3/rdock/2013.1/src/exe/rbdock.cxx#4 $)

>  <Rbt.Library>
libRbt.so (2013.1, Build901 2013/11/27)

>  <Rbt.Parameter_File>
/export/apps/rDock/src/rDock_2013.1_src/data/scripts/dock_solv.prm

>  <Rbt.Receptor>
prm/pocket_docking_7.prm

>  <SCORE>
-9.16822

>  <SCORE.INTER>
-8.75095

>  <SCORE.INTER.CONST>
1

>  <SCORE.INTER.POLAR>
0

>  <SCORE.INTER.ROT>
5

>  <SCORE.INTER.SOLV>
13.8325

>  <SCORE.INTER.VDW>
-17.3781

>  <SCORE.INTER.norm>
-0.875095

>  <SCORE.INTRA>
-0.417271

>  <SCORE.INTRA.DIHEDRAL>
-0.224907

>  <SCORE.INTRA.DIHEDRAL.0>
2.22229

>  <SCORE.INTRA.POLAR>
0

>  <SCORE.INTRA.POLAR.0>
0

>  <SCORE.INTRA.REPUL>
0

>  <SCORE.INTRA.REPUL.0>
0

>  <SCORE.INTRA.SOLV>
-1.40257

>  <SCORE.INTRA.SOLV.lig_0>
-31.87

>  <SCORE.INTRA.VDW>
0.39647

>  <SCORE.INTRA.VDW.0>
-0.575321

>  <SCORE.INTRA.norm>
-0.0417271

>  <SCORE.RESTR>
0

>  <SCORE.RESTR.CAVITY>
0

>  <SCORE.RESTR.norm>
0

>  <SCORE.SYSTEM>
0

>  <SCORE.SYSTEM.CONST>
0

>  <SCORE.SYSTEM.DIHEDRAL>
0

>  <SCORE.SYSTEM.SOLV>
0

>  <SCORE.SYSTEM.norm>
0

>  <SCORE.heavy>
10

>  <SCORE.norm>
-0.916822

>  <RMSD>
5.413

$$$$
ligand
 OpenBabel11021811463D
libRbt.so/2013.1/901 2013/11/27
 10  9  0  0  0  0  0  0  0  0999 V2000
   24.8201   44.0386   19.2055 N   0  0  0  0  0  0  0  0  0  0  0  0
   25.4593   42.7302   19.2735 C   0  0  2  0  0  0  0  0  0  0  0  0
   25.5935   42.1162   17.8811 C   0  0  0  0  0  0  0  0  0  0  0  0
   26.3566   41.1623   17.7026 O   0  0  0  0  0  0  0  0  0  0  0  0
   24.6871   41.7965   20.2106 C   0  0  0  0  0  0  0  0  0  0  0  0
   24.7321   42.2256   21.6722 C   0  0  0  0  0  0  0  0  0  0  0  0
   23.9014   41.3113   22.5683 C   0  0  0  0  0  0  0  0  0  0  0  0
   24.4846   39.8913   22.6406 C   0  0  0  0  0  0  0  0  0  0  0  0
   23.6744   38.9277   23.4510 N   0  0  0  0  0  0  0  0  0  0  0  0
   24.9402   42.5434   16.9202 O   0  0  0  0  0  0  0  0  0  0  0  0
  2  1  1  6  0  0  0
  2  3  1  0  0  0  0
  2  5  1  0  0  0  0
  3  4  1  0  0  0  0
  3 10  1  0  0  0  0
  5  6  1  0  0  0  0
  6  7  1  0  0  0  0
  7  8  1  0  0  0  0
  8  9  1  0  0  0  0
M  END
>  <CHROM.1>
164.30182206,-66.84515323,177.38294357,66.25701618,-177.08245960,24.87236502
41.66551877,20.11150264,0.78989233,1.22004000,-0.38415542

>  <Name>
ligand

>  <RI>
0

>  <Rbt.Current_Directory>
/home/itssahil/PROJECTS/Mol_Feturizer/New_Systems/rnas/3D0U

>  <Rbt.Executable>
rbdock ($Id: //depot/dev/client3/rdock/2013.1/src/exe/rbdock.cxx#4 $)

>  <Rbt.Library>
libRbt.so (2013.1, Build901 2013/11/27)

>  <Rbt.Parameter_File>
/export/apps/rDock/src/rDock_2013.1_src/data/scripts/dock_solv.prm

>  <Rbt.Receptor>
prm/pocket_docking_5.prm

>  <SCORE>
-8.80306

>  <SCORE.INTER>
-8.73823

>  <SCORE.INTER.CONST>
1

>  <SCORE.INTER.POLAR>
0

>  <SCORE.INTER.ROT>
5

>  <SCORE.INTER.SOLV>
12.9568

>  <SCORE.INTER.VDW>
-17.0777

>  <SCORE.INTER.norm>
-0.873823

>  <SCORE.INTRA>
-0.0648232

>  <SCORE.INTRA.DIHEDRAL>
-0.349165

>  <SCORE.INTRA.DIHEDRAL.0>
2.22229

>  <SCORE.INTRA.POLAR>
0

>  <SCORE.INTRA.POLAR.0>
0

>  <SCORE.INTRA.REPUL>
0

>  <SCORE.INTRA.REPUL.0>
0

>  <SCORE.INTRA.SOLV>
-0.565059

>  <SCORE.INTRA.SOLV.lig_0>
-31.87

>  <SCORE.INTRA.VDW>
0.392289

>  <SCORE.INTRA.VDW.0>
-0.575321

>  <SCORE.INTRA.norm>
-0.00648232

>  <SCORE.RESTR>
0

>  <SCORE.RESTR.CAVITY>
0

>  <SCORE.RESTR.norm>
0

>  <SCORE.SYSTEM>
0

>  <SCORE.SYSTEM.CONST>
0

>  <SCORE.SYSTEM.DIHEDRAL>
0

>  <SCORE.SYSTEM.SOLV>
0

>  <SCORE.SYSTEM.norm>
0

>  <SCORE.heavy>
10

>  <SCORE.norm>
-0.880306

>  <RMSD>
5.414

$$$$
ligand
 OpenBabel11021811463D
libRbt.so/2013.1/901 2013/11/27
 10  9  0  0  0  0  0  0  0  0999 V2000
   25.4165   42.4686   16.9011 N   0  0  0  0  0  0  0  0  0  0  0  0
   24.6721   42.3932   18.1522 C   0  0  2  0  0  0  0  0  0  0  0  0
   24.3682   43.7901   18.6907 C   0  0  0  0  0  0  0  0  0  0  0  0
   23.3026   44.0031   19.2763 O   0  0  0  0  0  0  0  0  0  0  0  0
   25.4344   41.5616   19.1884 C   0  0  0  0  0  0  0  0  0  0  0  0
   24.5879   41.1599   20.3903 C   0  0  0  0  0  0  0  0  0  0  0  0
   25.3530   40.2667   21.3628 C   0  0  0  0  0  0  0  0  0  0  0  0
   24.4823   39.8325   22.5524 C   0  0  0  0  0  0  0  0  0  0  0  0
   24.0070   40.9581   23.4178 N   0  0  0  0  0  0  0  0  0  0  0  0
   25.1761   44.7203   18.5681 O   0  0  0  0  0  0  0  0  0  0  0  0
  2  1  1  6  0  0  0
  2  3  1  0  0  0  0
  2  5  1  0  0  0  0
  3  4  1  0  0  0  0
  3 10  1  0  0  0  0
  5  6  1  0  0  0  0
  6  7  1  0  0  0  0
  7  8  1  0  0  0  0
  8  9  1  0  0  0  0
M  END
>  <CHROM.1>
144.70658173,-166.21906486,176.71375216,-178.39064737,-62.75916244,24.67218582
42.15241205,19.85266562,-1.48510144,-1.05327842,2.28794492

>  <Name>
ligand

>  <RI>
0

>  <Rbt.Current_Directory>
/home/itssahil/PROJECTS/Mol_Feturizer/New_Systems/rnas/3D0U

>  <Rbt.Executable>
rbdock ($Id: //depot/dev/client3/rdock/2013.1/src/exe/rbdock.cxx#4 $)

>  <Rbt.Library>
libRbt.so (2013.1, Build901 2013/11/27)

>  <Rbt.Parameter_File>
/export/apps/rDock/src/rDock_2013.1_src/data/scripts/dock_solv.prm

>  <Rbt.Receptor>
prm/pocket_docking_7.prm

>  <SCORE>
-7.97092

>  <SCORE.INTER>
-7.29517

>  <SCORE.INTER.CONST>
1

>  <SCORE.INTER.POLAR>
0

>  <SCORE.INTER.ROT>
5

>  <SCORE.INTER.SOLV>
17.6769

>  <SCORE.INTER.VDW>
-17.6891

>  <SCORE.INTER.norm>
-0.729517

>  <SCORE.INTRA>
-0.675753

>  <SCORE.INTRA.DIHEDRAL>
0.0113708

>  <SCORE.INTRA.DIHEDRAL.0>
2.22229

>  <SCORE.INTRA.POLAR>
0

>  <SCORE.INTRA.POLAR.0>
0

>  <SCORE.INTRA.REPUL>
0

>  <SCORE.INTRA.REPUL.0>
0

>  <SCORE.INTRA.SOLV>
-0.757229

>  <SCORE.INTRA.SOLV.lig_0>
-31.87

>  <SCORE.INTRA.VDW>
-0.302824

>  <SCORE.INTRA.VDW.0>
-0.575321

>  <SCORE.INTRA.norm>
-0.0675753

>  <SCORE.RESTR>
0

>  <SCORE.RESTR.CAVITY>
0

>  <SCORE.RESTR.norm>
0

>  <SCORE.SYSTEM>
0

>  <SCORE.SYSTEM.CONST>
0

>  <SCORE.SYSTEM.DIHEDRAL>
0

>  <SCORE.SYSTEM.SOLV>
0

>  <SCORE.SYSTEM.norm>
0

>  <SCORE.heavy>
10

>  <SCORE.norm>
-0.797092

>  <RMSD>
5.414

$$$$
ligand
 OpenBabel11021811463D
libRbt.so/2013.1/901 2013/11/27
 10  9  0  0  0  0  0  0  0  0999 V2000
   25.0369   44.7846   18.2805 N   0  0  0  0  0  0  0  0  0  0  0  0
   24.9208   43.4102   18.7523 C   0  0  2  0  0  0  0  0  0  0  0  0
   25.4070   42.4262   17.6897 C   0  0  0  0  0  0  0  0  0  0  0  0
   26.0277   41.4145   18.0290 O   0  0  0  0  0  0  0  0  0  0  0  0
   23.4798   43.0984   19.1677 C   0  0  0  0  0  0  0  0  0  0  0  0
   23.2788   41.6646   19.6433 C   0  0  0  0  0  0  0  0  0  0  0  0
   24.0002   41.3861   20.9589 C   0  0  0  0  0  0  0  0  0  0  0  0
   23.7624   39.9505   21.4532 C   0  0  0  0  0  0  0  0  0  0  0  0
   24.3691   39.6444   22.7873 N   0  0  0  0  0  0  0  0  0  0  0  0
   25.1802   42.6096   16.4864 O   0  0  0  0  0  0  0  0  0  0  0  0
  2  1  1  6  0  0  0
  2  3  1  0  0  0  0
  2  5  1  0  0  0  0
  3  4  1  0  0  0  0
  3 10  1  0  0  0  0
  5  6  1  0  0  0  0
  6  7  1  0  0  0  0
  7  8  1  0  0  0  0
  8  9  1  0  0  0  0
M  END
>  <CHROM.1>
142.63190334,178.70274019,67.44918346,178.43602856,-176.07493767,24.56084196
42.02276427,19.29415971,1.18102069,0.94945917,-0.63227421

>  <Name>
ligand

>  <RI>
0

>  <Rbt.Current_Directory>
/home/itssahil/PROJECTS/Mol_Feturizer/New_Systems/rnas/3D0U

>  <Rbt.Executable>
rbdock ($Id: //depot/dev/client3/rdock/2013.1/src/exe/rbdock.cxx#4 $)

>  <Rbt.Library>
libRbt.so (2013.1, Build901 2013/11/27)

>  <Rbt.Parameter_File>
/export/apps/rDock/src/rDock_2013.1_src/data/scripts/dock_solv.prm

>  <Rbt.Receptor>
prm/pocket_docking_3.prm

>  <SCORE>
-9.44627

>  <SCORE.INTER>
-8.4723

>  <SCORE.INTER.CONST>
1

>  <SCORE.INTER.POLAR>
0

>  <SCORE.INTER.ROT>
5

>  <SCORE.INTER.SOLV>
15.1832

>  <SCORE.INTER.VDW>
-17.6426

>  <SCORE.INTER.norm>
-0.84723

>  <SCORE.INTRA>
-0.979605

>  <SCORE.INTRA.DIHEDRAL>
-0.466196

>  <SCORE.INTRA.DIHEDRAL.0>
2.22229

>  <SCORE.INTRA.POLAR>
0

>  <SCORE.INTRA.POLAR.0>
0

>  <SCORE.INTRA.REPUL>
0

>  <SCORE.INTRA.REPUL.0>
0

>  <SCORE.INTRA.SOLV>
-1.3987

>  <SCORE.INTRA.SOLV.lig_0>
-31.87

>  <SCORE.INTRA.VDW>
-0.0471566

>  <SCORE.INTRA.VDW.0>
-0.575321

>  <SCORE.INTRA.norm>
-0.0979605

>  <SCORE.RESTR>
0.00563254

>  <SCORE.RESTR.CAVITY>
0.00563254

>  <SCORE.RESTR.norm>
0.000563254

>  <SCORE.SYSTEM>
0

>  <SCORE.SYSTEM.CONST>
0

>  <SCORE.SYSTEM.DIHEDRAL>
0

>  <SCORE.SYSTEM.SOLV>
0

>  <SCORE.SYSTEM.norm>
0

>  <SCORE.heavy>
10

>  <SCORE.norm>
-0.944627

>  <RMSD>
5.416

$$$$
ligand
 OpenBabel11021811463D
libRbt.so/2013.1/901 2013/11/27
 10  9  0  0  0  0  0  0  0  0999 V2000
   24.6677   44.5389   18.8854 N   0  0  0  0  0  0  0  0  0  0  0  0
   25.4509   43.3097   18.9123 C   0  0  2  0  0  0  0  0  0  0  0  0
   25.2966   42.5363   17.6039 C   0  0  0  0  0  0  0  0  0  0  0  0
   24.2580   42.6459   16.9457 O   0  0  0  0  0  0  0  0  0  0  0  0
   25.0571   42.4408   20.1107 C   0  0  0  0  0  0  0  0  0  0  0  0
   25.8794   41.1638   20.2347 C   0  0  0  0  0  0  0  0  0  0  0  0
   25.5545   40.3891   21.5087 C   0  0  0  0  0  0  0  0  0  0  0  0
   24.1026   39.8853   21.5217 C   0  0  0  0  0  0  0  0  0  0  0  0
   23.6830   39.2331   22.8024 N   0  0  0  0  0  0  0  0  0  0  0  0
   26.1997   41.8069   17.1735 O   0  0  0  0  0  0  0  0  0  0  0  0
  2  1  1  6  0  0  0
  2  3  1  0  0  0  0
  2  5  1  0  0  0  0
  3  4  1  0  0  0  0
  3 10  1  0  0  0  0
  5  6  1  0  0  0  0
  6  7  1  0  0  0  0
  7  8  1  0  0  0  0
  8  9  1  0  0  0  0
M  END
>  <CHROM.1>
-28.28987407,-177.55506500,174.53887465,64.00504645,-174.33471487,25.01403364
41.78561219,19.53215027,1.16772577,1.21711662,-0.55937128

>  <Name>
ligand

>  <RI>
0

>  <Rbt.Current_Directory>
/home/itssahil/PROJECTS/Mol_Feturizer/New_Systems/rnas/3D0U

>  <Rbt.Executable>
rbdock ($Id: //depot/dev/client3/rdock/2013.1/src/exe/rbdock.cxx#4 $)

>  <Rbt.Library>
libRbt.so (2013.1, Build901 2013/11/27)

>  <Rbt.Parameter_File>
/export/apps/rDock/src/rDock_2013.1_src/data/scripts/dock_solv.prm

>  <Rbt.Receptor>
prm/pocket_docking_5.prm

>  <SCORE>
-9.1838

>  <SCORE.INTER>
-8.87924

>  <SCORE.INTER.CONST>
1

>  <SCORE.INTER.POLAR>
0

>  <SCORE.INTER.ROT>
5

>  <SCORE.INTER.SOLV>
13.9184

>  <SCORE.INTER.VDW>
-17.4923

>  <SCORE.INTER.norm>
-0.887924

>  <SCORE.INTRA>
-0.304562

>  <SCORE.INTRA.DIHEDRAL>
-0.382635

>  <SCORE.INTRA.DIHEDRAL.0>
2.22229

>  <SCORE.INTRA.POLAR>
0

>  <SCORE.INTRA.POLAR.0>
0

>  <SCORE.INTRA.REPUL>
0

>  <SCORE.INTRA.REPUL.0>
0

>  <SCORE.INTRA.SOLV>
-1.34091

>  <SCORE.INTRA.SOLV.lig_0>
-31.87

>  <SCORE.INTRA.VDW>
0.557211

>  <SCORE.INTRA.VDW.0>
-0.575321

>  <SCORE.INTRA.norm>
-0.0304562

>  <SCORE.RESTR>
0

>  <SCORE.RESTR.CAVITY>
0

>  <SCORE.RESTR.norm>
0

>  <SCORE.SYSTEM>
0

>  <SCORE.SYSTEM.CONST>
0

>  <SCORE.SYSTEM.DIHEDRAL>
0

>  <SCORE.SYSTEM.SOLV>
0

>  <SCORE.SYSTEM.norm>
0

>  <SCORE.heavy>
10

>  <SCORE.norm>
-0.91838

>  <RMSD>
5.416

$$$$
ligand
 OpenBabel11021811463D
libRbt.so/2013.1/901 2013/11/27
 10  9  0  0  0  0  0  0  0  0999 V2000
   24.4522   43.5400   19.3371 N   0  0  0  0  0  0  0  0  0  0  0  0
   25.6784   42.7602   19.2215 C   0  0  2  0  0  0  0  0  0  0  0  0
   25.7027   41.9737   17.9120 C   0  0  0  0  0  0  0  0  0  0  0  0
   25.1454   42.4327   16.9107 O   0  0  0  0  0  0  0  0  0  0  0  0
   25.8430   41.8254   20.4237 C   0  0  0  0  0  0  0  0  0  0  0  0
   24.6488   40.9060   20.6495 C   0  0  0  0  0  0  0  0  0  0  0  0
   24.8029   40.0579   21.9088 C   0  0  0  0  0  0  0  0  0  0  0  0
   23.5562   39.2020   22.1826 C   0  0  0  0  0  0  0  0  0  0  0  0
   23.6208   38.3959   23.4426 N   0  0  0  0  0  0  0  0  0  0  0  0
   26.2849   40.8847   17.8224 O   0  0  0  0  0  0  0  0  0  0  0  0
  2  1  1  1  0  0  0
  2  3  1  0  0  0  0
  2  5  1  0  0  0  0
  3  4  1  0  0  0  0
  3 10  1  0  0  0  0
  5  6  1  0  0  0  0
  6  7  1  0  0  0  0
  7  8  1  0  0  0  0
  8  9  1  0  0  0  0
M  END
>  <CHROM.1>
31.47509781,55.11301532,-176.02802507,176.19044631,-177.20618470,24.97908349
41.18856030,19.94259081,0.81707673,1.16806668,-0.26223336

>  <Name>
ligand

>  <RI>
0

>  <Rbt.Current_Directory>
/home/itssahil/PROJECTS/Mol_Feturizer/New_Systems/rnas/3D0U

>  <Rbt.Executable>
rbdock ($Id: //depot/dev/client3/rdock/2013.1/src/exe/rbdock.cxx#4 $)

>  <Rbt.Library>
libRbt.so (2013.1, Build901 2013/11/27)

>  <Rbt.Parameter_File>
/export/apps/rDock/src/rDock_2013.1_src/data/scripts/dock_solv.prm

>  <Rbt.Receptor>
prm/pocket_docking_5.prm

>  <SCORE>
-9.09006

>  <SCORE.INTER>
-8.99399

>  <SCORE.INTER.CONST>
1

>  <SCORE.INTER.POLAR>
0

>  <SCORE.INTER.ROT>
5

>  <SCORE.INTER.SOLV>
12.5336

>  <SCORE.INTER.VDW>
-17.1072

>  <SCORE.INTER.norm>
-0.899399

>  <SCORE.INTRA>
-0.0960771

>  <SCORE.INTRA.DIHEDRAL>
-0.517143

>  <SCORE.INTRA.DIHEDRAL.0>
2.22229

>  <SCORE.INTRA.POLAR>
0

>  <SCORE.INTRA.POLAR.0>
0

>  <SCORE.INTRA.REPUL>
0

>  <SCORE.INTRA.REPUL.0>
0

>  <SCORE.INTRA.SOLV>
-0.638151

>  <SCORE.INTRA.SOLV.lig_0>
-31.87

>  <SCORE.INTRA.VDW>
0.48157

>  <SCORE.INTRA.VDW.0>
-0.575321

>  <SCORE.INTRA.norm>
-0.00960771

>  <SCORE.RESTR>
0

>  <SCORE.RESTR.CAVITY>
0

>  <SCORE.RESTR.norm>
0

>  <SCORE.SYSTEM>
0

>  <SCORE.SYSTEM.CONST>
0

>  <SCORE.SYSTEM.DIHEDRAL>
0

>  <SCORE.SYSTEM.SOLV>
0

>  <SCORE.SYSTEM.norm>
0

>  <SCORE.heavy>
10

>  <SCORE.norm>
-0.909006

>  <RMSD>
5.418

$$$$
ligand
 OpenBabel11021811463D
libRbt.so/2013.1/901 2013/11/27
 10  9  0  0  0  0  0  0  0  0999 V2000
   24.5728   44.2410   19.1435 N   0  0  0  0  0  0  0  0  0  0  0  0
   25.2670   42.9610   19.2121 C   0  0  2  0  0  0  0  0  0  0  0  0
   25.4499   42.3647   17.8175 C   0  0  0  0  0  0  0  0  0  0  0  0
   24.6818   42.6881   16.9068 O   0  0  0  0  0  0  0  0  0  0  0  0
   24.5213   41.9871   20.1295 C   0  0  0  0  0  0  0  0  0  0  0  0
   25.2796   40.6909   20.3884 C   0  0  0  0  0  0  0  0  0  0  0  0
   24.5160   39.7505   21.3166 C   0  0  0  0  0  0  0  0  0  0  0  0
   24.4135   40.3092   22.7446 C   0  0  0  0  0  0  0  0  0  0  0  0
   23.6619   39.4358   23.7007 N   0  0  0  0  0  0  0  0  0  0  0  0
   26.3659   41.5695   17.5692 O   0  0  0  0  0  0  0  0  0  0  0  0
  2  1  1  6  0  0  0
  2  3  1  0  0  0  0
  2  5  1  0  0  0  0
  3  4  1  0  0  0  0
  3 10  1  0  0  0  0
  5  6  1  0  0  0  0
  6  7  1  0  0  0  0
  7  8  1  0  0  0  0
  8  9  1  0  0  0  0
M  END
>  <CHROM.1>
-24.42592738,-172.70602076,179.40145951,-67.65186465,179.42321786,24.88032382
41.59385509,19.85274470,1.13879278,1.10429316,-0.65306390

>  <Name>
ligand

>  <RI>
0

>  <Rbt.Current_Directory>
/home/itssahil/PROJECTS/Mol_Feturizer/New_Systems/rnas/3D0U

>  <Rbt.Executable>
rbdock ($Id: //depot/dev/client3/rdock/2013.1/src/exe/rbdock.cxx#4 $)

>  <Rbt.Library>
libRbt.so (2013.1, Build901 2013/11/27)

>  <Rbt.Parameter_File>
/export/apps/rDock/src/rDock_2013.1_src/data/scripts/dock_solv.prm

>  <Rbt.Receptor>
prm/blind_docking_60.prm

>  <SCORE>
-9.15705

>  <SCORE.INTER>
-8.71486

>  <SCORE.INTER.CONST>
1

>  <SCORE.INTER.POLAR>
0

>  <SCORE.INTER.ROT>
5

>  <SCORE.INTER.SOLV>
13.3158

>  <SCORE.INTER.VDW>
-17.1818

>  <SCORE.INTER.norm>
-0.871486

>  <SCORE.INTRA>
-0.44219

>  <SCORE.INTRA.DIHEDRAL>
-0.273119

>  <SCORE.INTRA.DIHEDRAL.0>
2.22229

>  <SCORE.INTRA.POLAR>
0

>  <SCORE.INTRA.POLAR.0>
0

>  <SCORE.INTRA.REPUL>
0

>  <SCORE.INTRA.REPUL.0>
0

>  <SCORE.INTRA.SOLV>
-1.3896

>  <SCORE.INTRA.SOLV.lig_0>
-31.87

>  <SCORE.INTRA.VDW>
0.389171

>  <SCORE.INTRA.VDW.0>
-0.575321

>  <SCORE.INTRA.norm>
-0.044219

>  <SCORE.RESTR>
0

>  <SCORE.RESTR.CAVITY>
0

>  <SCORE.RESTR.norm>
0

>  <SCORE.SYSTEM>
0

>  <SCORE.SYSTEM.CONST>
0

>  <SCORE.SYSTEM.DIHEDRAL>
0

>  <SCORE.SYSTEM.SOLV>
0

>  <SCORE.SYSTEM.norm>
0

>  <SCORE.heavy>
10

>  <SCORE.norm>
-0.915705

>  <RMSD>
5.421

$$$$
ligand
 OpenBabel11021811463D
libRbt.so/2013.1/901 2013/11/27
 10  9  0  0  0  0  0  0  0  0999 V2000
   24.8843   44.1632   19.0840 N   0  0  0  0  0  0  0  0  0  0  0  0
   25.4855   42.8394   19.1890 C   0  0  2  0  0  0  0  0  0  0  0  0
   25.5873   42.1765   17.8164 C   0  0  0  0  0  0  0  0  0  0  0  0
   24.8431   42.5426   16.9020 O   0  0  0  0  0  0  0  0  0  0  0  0
   24.6961   41.9600   20.1636 C   0  0  0  0  0  0  0  0  0  0  0  0
   25.3684   40.6255   20.4626 C   0  0  0  0  0  0  0  0  0  0  0  0
   24.5161   39.7393   21.3667 C   0  0  0  0  0  0  0  0  0  0  0  0
   24.4259   40.2939   22.7970 C   0  0  0  0  0  0  0  0  0  0  0  0
   23.6046   39.4640   23.7343 N   0  0  0  0  0  0  0  0  0  0  0  0
   26.4142   41.2835   17.5892 O   0  0  0  0  0  0  0  0  0  0  0  0
  2  1  1  6  0  0  0
  2  3  1  0  0  0  0
  2  5  1  0  0  0  0
  3  4  1  0  0  0  0
  3 10  1  0  0  0  0
  5  6  1  0  0  0  0
  6  7  1  0  0  0  0
  7  8  1  0  0  0  0
  8  9  1  0  0  0  0
M  END
>  <CHROM.1>
-22.59941362,-172.44873023,-176.44613845,-69.45857949,-179.82510728,24.98859611
41.50097106,19.87060405,0.99516402,1.15843217,-0.53662465

>  <Name>
ligand

>  <RI>
0

>  <Rbt.Current_Directory>
/home/itssahil/PROJECTS/Mol_Feturizer/New_Systems/rnas/3D0U

>  <Rbt.Executable>
rbdock ($Id: //depot/dev/client3/rdock/2013.1/src/exe/rbdock.cxx#4 $)

>  <Rbt.Library>
libRbt.so (2013.1, Build901 2013/11/27)

>  <Rbt.Parameter_File>
/export/apps/rDock/src/rDock_2013.1_src/data/scripts/dock_solv.prm

>  <Rbt.Receptor>
prm/pocket_docking_4.prm

>  <SCORE>
-9.18313

>  <SCORE.INTER>
-8.78597

>  <SCORE.INTER.CONST>
1

>  <SCORE.INTER.POLAR>
0

>  <SCORE.INTER.ROT>
5

>  <SCORE.INTER.SOLV>
13.7517

>  <SCORE.INTER.VDW>
-17.3745

>  <SCORE.INTER.norm>
-0.878597

>  <SCORE.INTRA>
-0.397159

>  <SCORE.INTRA.DIHEDRAL>
-0.0840552

>  <SCORE.INTRA.DIHEDRAL.0>
2.22229

>  <SCORE.INTRA.POLAR>
0

>  <SCORE.INTRA.POLAR.0>
0

>  <SCORE.INTRA.REPUL>
0

>  <SCORE.INTRA.REPUL.0>
0

>  <SCORE.INTRA.SOLV>
-1.40548

>  <SCORE.INTRA.SOLV.lig_0>
-31.87

>  <SCORE.INTRA.VDW>
0.347609

>  <SCORE.INTRA.VDW.0>
-0.575321

>  <SCORE.INTRA.norm>
-0.0397159

>  <SCORE.RESTR>
0

>  <SCORE.RESTR.CAVITY>
0

>  <SCORE.RESTR.norm>
0

>  <SCORE.SYSTEM>
0

>  <SCORE.SYSTEM.CONST>
0

>  <SCORE.SYSTEM.DIHEDRAL>
0

>  <SCORE.SYSTEM.SOLV>
0

>  <SCORE.SYSTEM.norm>
0

>  <SCORE.heavy>
10

>  <SCORE.norm>
-0.918313

>  <RMSD>
5.421

$$$$
ligand
 OpenBabel11021811463D
libRbt.so/2013.1/901 2013/11/27
 10  9  0  0  0  0  0  0  0  0999 V2000
   24.7493   44.2013   19.0911 N   0  0  0  0  0  0  0  0  0  0  0  0
   25.4035   42.9025   19.1932 C   0  0  2  0  0  0  0  0  0  0  0  0
   25.5465   42.2546   17.8171 C   0  0  0  0  0  0  0  0  0  0  0  0
   24.7803   42.5777   16.9047 O   0  0  0  0  0  0  0  0  0  0  0  0
   24.6411   41.9843   20.1533 C   0  0  0  0  0  0  0  0  0  0  0  0
   25.3601   40.6721   20.4424 C   0  0  0  0  0  0  0  0  0  0  0  0
   24.5455   39.7551   21.3504 C   0  0  0  0  0  0  0  0  0  0  0  0
   24.4313   40.3121   22.7782 C   0  0  0  0  0  0  0  0  0  0  0  0
   23.6250   39.4648   23.7128 N   0  0  0  0  0  0  0  0  0  0  0  0
   26.4282   41.4169   17.5852 O   0  0  0  0  0  0  0  0  0  0  0  0
  2  1  1  6  0  0  0
  2  3  1  0  0  0  0
  2  5  1  0  0  0  0
  3  4  1  0  0  0  0
  3 10  1  0  0  0  0
  5  6  1  0  0  0  0
  6  7  1  0  0  0  0
  7  8  1  0  0  0  0
  8  9  1  0  0  0  0
M  END
>  <CHROM.1>
-24.01037831,-172.84850897,-177.39573112,-68.63900523,179.15017038,24.95780192
41.54681984,19.86295466,1.06920131,1.12655920,-0.60344772

>  <Name>
ligand

>  <RI>
0

>  <Rbt.Current_Directory>
/home/itssahil/PROJECTS/Mol_Feturizer/New_Systems/rnas/3D0U

>  <Rbt.Executable>
rbdock ($Id: //depot/dev/client3/rdock/2013.1/src/exe/rbdock.cxx#4 $)

>  <Rbt.Library>
libRbt.so (2013.1, Build901 2013/11/27)

>  <Rbt.Parameter_File>
/export/apps/rDock/src/rDock_2013.1_src/data/scripts/dock_solv.prm

>  <Rbt.Receptor>
prm/pocket_docking_7.prm

>  <SCORE>
-9.11794

>  <SCORE.INTER>
-8.691

>  <SCORE.INTER.CONST>
1

>  <SCORE.INTER.POLAR>
0

>  <SCORE.INTER.ROT>
5

>  <SCORE.INTER.SOLV>
13.5812

>  <SCORE.INTER.VDW>
-17.2544

>  <SCORE.INTER.norm>
-0.8691

>  <SCORE.INTRA>
-0.426943

>  <SCORE.INTRA.DIHEDRAL>
-0.187253

>  <SCORE.INTRA.DIHEDRAL.0>
2.22229

>  <SCORE.INTRA.POLAR>
0

>  <SCORE.INTRA.POLAR.0>
0

>  <SCORE.INTRA.REPUL>
0

>  <SCORE.INTRA.REPUL.0>
0

>  <SCORE.INTRA.SOLV>
-1.39512

>  <SCORE.INTRA.SOLV.lig_0>
-31.87

>  <SCORE.INTRA.VDW>
0.364244

>  <SCORE.INTRA.VDW.0>
-0.575321

>  <SCORE.INTRA.norm>
-0.0426943

>  <SCORE.RESTR>
0

>  <SCORE.RESTR.CAVITY>
0

>  <SCORE.RESTR.norm>
0

>  <SCORE.SYSTEM>
0

>  <SCORE.SYSTEM.CONST>
0

>  <SCORE.SYSTEM.DIHEDRAL>
0

>  <SCORE.SYSTEM.SOLV>
0

>  <SCORE.SYSTEM.norm>
0

>  <SCORE.heavy>
10

>  <SCORE.norm>
-0.911794

>  <RMSD>
5.421

$$$$
ligand
 OpenBabel11021811463D
libRbt.so/2013.1/901 2013/11/27
 10  9  0  0  0  0  0  0  0  0999 V2000
   24.9646   43.9588   18.4237 N   0  0  0  0  0  0  0  0  0  0  0  0
   25.4579   42.7793   19.1241 C   0  0  2  0  0  0  0  0  0  0  0  0
   25.9053   41.7050   18.1345 C   0  0  0  0  0  0  0  0  0  0  0  0
   25.9887   41.9749   16.9327 O   0  0  0  0  0  0  0  0  0  0  0  0
   24.3948   42.2320   20.0815 C   0  0  0  0  0  0  0  0  0  0  0  0
   24.9471   41.2542   21.1116 C   0  0  0  0  0  0  0  0  0  0  0  0
   23.8552   40.6917   22.0174 C   0  0  0  0  0  0  0  0  0  0  0  0
   24.4264   39.7572   23.0955 C   0  0  0  0  0  0  0  0  0  0  0  0
   23.3994   39.1576   24.0052 N   0  0  0  0  0  0  0  0  0  0  0  0
   26.2041   40.5638   18.5102 O   0  0  0  0  0  0  0  0  0  0  0  0
  2  1  1  6  0  0  0
  2  3  1  0  0  0  0
  2  5  1  0  0  0  0
  3  4  1  0  0  0  0
  3 10  1  0  0  0  0
  5  6  1  0  0  0  0
  6  7  1  0  0  0  0
  7  8  1  0  0  0  0
  8  9  1  0  0  0  0
M  END
>  <CHROM.1>
9.79401211,-164.24554214,-178.01431675,-177.33906437,-179.18883338,24.96931087
41.38950110,20.11161210,0.97252559,1.01592938,-0.59357889

>  <Name>
ligand

>  <RI>
0

>  <Rbt.Current_Directory>
/home/itssahil/PROJECTS/Mol_Feturizer/New_Systems/rnas/3D0U

>  <Rbt.Executable>
rbdock ($Id: //depot/dev/client3/rdock/2013.1/src/exe/rbdock.cxx#4 $)

>  <Rbt.Library>
libRbt.so (2013.1, Build901 2013/11/27)

>  <Rbt.Parameter_File>
/export/apps/rDock/src/rDock_2013.1_src/data/scripts/dock_solv.prm

>  <Rbt.Receptor>
prm/blind_docking_60.prm

>  <SCORE>
-8.5741

>  <SCORE.INTER>
-8.04504

>  <SCORE.INTER.CONST>
1

>  <SCORE.INTER.POLAR>
0

>  <SCORE.INTER.ROT>
5

>  <SCORE.INTER.SOLV>
14.758

>  <SCORE.INTER.VDW>
-17.216

>  <SCORE.INTER.norm>
-0.804504

>  <SCORE.INTRA>
-0.529066

>  <SCORE.INTRA.DIHEDRAL>
0.197825

>  <SCORE.INTRA.DIHEDRAL.0>
2.22229

>  <SCORE.INTRA.POLAR>
0

>  <SCORE.INTRA.POLAR.0>
0

>  <SCORE.INTRA.REPUL>
0

>  <SCORE.INTRA.REPUL.0>
0

>  <SCORE.INTRA.SOLV>
-1.57469

>  <SCORE.INTRA.SOLV.lig_0>
-31.87

>  <SCORE.INTRA.VDW>
0.159367

>  <SCORE.INTRA.VDW.0>
-0.575321

>  <SCORE.INTRA.norm>
-0.0529066

>  <SCORE.RESTR>
0

>  <SCORE.RESTR.CAVITY>
0

>  <SCORE.RESTR.norm>
0

>  <SCORE.SYSTEM>
0

>  <SCORE.SYSTEM.CONST>
0

>  <SCORE.SYSTEM.DIHEDRAL>
0

>  <SCORE.SYSTEM.SOLV>
0

>  <SCORE.SYSTEM.norm>
0

>  <SCORE.heavy>
10

>  <SCORE.norm>
-0.85741

>  <RMSD>
5.422

$$$$
ligand
 OpenBabel11021811463D
libRbt.so/2013.1/901 2013/11/27
 10  9  0  0  0  0  0  0  0  0999 V2000
   24.7729   44.2589   18.3587 N   0  0  0  0  0  0  0  0  0  0  0  0
   25.2914   43.0825   19.0460 C   0  0  2  0  0  0  0  0  0  0  0  0
   25.6490   41.9820   18.0486 C   0  0  0  0  0  0  0  0  0  0  0  0
   25.5770   42.2058   16.8368 O   0  0  0  0  0  0  0  0  0  0  0  0
   24.2872   42.5737   20.0848 C   0  0  0  0  0  0  0  0  0  0  0  0
   24.8735   41.5504   21.0498 C   0  0  0  0  0  0  0  0  0  0  0  0
   23.8281   41.0049   22.0185 C   0  0  0  0  0  0  0  0  0  0  0  0
   24.4198   39.9563   22.9735 C   0  0  0  0  0  0  0  0  0  0  0  0
   23.4328   39.3574   23.9269 N   0  0  0  0  0  0  0  0  0  0  0  0
   26.0273   40.8652   18.4261 O   0  0  0  0  0  0  0  0  0  0  0  0
  2  1  1  6  0  0  0
  2  3  1  0  0  0  0
  2  5  1  0  0  0  0
  3  4  1  0  0  0  0
  3 10  1  0  0  0  0
  5  6  1  0  0  0  0
  6  7  1  0  0  0  0
  7  8  1  0  0  0  0
  8  9  1  0  0  0  0
M  END
>  <CHROM.1>
5.50008730,-167.14533167,-176.68926103,179.04026187,-178.51934158,24.82836015
41.66528834,20.04463072,1.01697746,1.07052216,-0.61099749

>  <Name>
ligand

>  <RI>
0

>  <Rbt.Current_Directory>
/home/itssahil/PROJECTS/Mol_Feturizer/New_Systems/rnas/3D0U

>  <Rbt.Executable>
rbdock ($Id: //depot/dev/client3/rdock/2013.1/src/exe/rbdock.cxx#4 $)

>  <Rbt.Library>
libRbt.so (2013.1, Build901 2013/11/27)

>  <Rbt.Parameter_File>
/export/apps/rDock/src/rDock_2013.1_src/data/scripts/dock_solv.prm

>  <Rbt.Receptor>
prm/pocket_docking_3.prm

>  <SCORE>
-8.42284

>  <SCORE.INTER>
-7.7711

>  <SCORE.INTER.CONST>
1

>  <SCORE.INTER.POLAR>
0

>  <SCORE.INTER.ROT>
5

>  <SCORE.INTER.SOLV>
15.129

>  <SCORE.INTER.VDW>
-17.1571

>  <SCORE.INTER.norm>
-0.77711

>  <SCORE.INTRA>
-0.65174

>  <SCORE.INTRA.DIHEDRAL>
-0.0823054

>  <SCORE.INTRA.DIHEDRAL.0>
2.22229

>  <SCORE.INTRA.POLAR>
0

>  <SCORE.INTRA.POLAR.0>
0

>  <SCORE.INTRA.REPUL>
0

>  <SCORE.INTRA.REPUL.0>
0

>  <SCORE.INTRA.SOLV>
-1.57877

>  <SCORE.INTRA.SOLV.lig_0>
-31.87

>  <SCORE.INTRA.VDW>
0.178795

>  <SCORE.INTRA.VDW.0>
-0.575321

>  <SCORE.INTRA.norm>
-0.065174

>  <SCORE.RESTR>
0

>  <SCORE.RESTR.CAVITY>
0

>  <SCORE.RESTR.norm>
0

>  <SCORE.SYSTEM>
0

>  <SCORE.SYSTEM.CONST>
0

>  <SCORE.SYSTEM.DIHEDRAL>
0

>  <SCORE.SYSTEM.SOLV>
0

>  <SCORE.SYSTEM.norm>
0

>  <SCORE.heavy>
10

>  <SCORE.norm>
-0.842284

>  <RMSD>
5.422

$$$$
ligand
 OpenBabel11021811463D
libRbt.so/2013.1/901 2013/11/27
 10  9  0  0  0  0  0  0  0  0999 V2000
   26.6882   42.3183   19.6044 N   0  0  0  0  0  0  0  0  0  0  0  0
   25.5066   41.7906   18.9331 C   0  0  2  0  0  0  0  0  0  0  0  0
   24.8548   42.8589   18.0569 C   0  0  0  0  0  0  0  0  0  0  0  0
   25.0599   44.0534   18.2916 O   0  0  0  0  0  0  0  0  0  0  0  0
   24.5068   41.2337   19.9511 C   0  0  0  0  0  0  0  0  0  0  0  0
   25.0801   40.1251   20.8255 C   0  0  0  0  0  0  0  0  0  0  0  0
   24.1263   39.7222   21.9466 C   0  0  0  0  0  0  0  0  0  0  0  0
   24.0126   40.8112   23.0250 C   0  0  0  0  0  0  0  0  0  0  0  0
   23.2145   40.4134   24.2277 N   0  0  0  0  0  0  0  0  0  0  0  0
   24.1313   42.5564   17.0988 O   0  0  0  0  0  0  0  0  0  0  0  0
  2  1  1  1  0  0  0
  2  3  1  0  0  0  0
  2  5  1  0  0  0  0
  3  4  1  0  0  0  0
  3 10  1  0  0  0  0
  5  6  1  0  0  0  0
  6  7  1  0  0  0  0
  7  8  1  0  0  0  0
  8  9  1  0  0  0  0
M  END
>  <CHROM.1>
-22.38737278,-58.49741661,172.37226411,-70.78291132,-173.37786778,24.70702972
41.61677568,20.16525542,-1.36155991,-0.30961679,2.12236023

>  <Name>
ligand

>  <RI>
0

>  <Rbt.Current_Directory>
/home/itssahil/PROJECTS/Mol_Feturizer/New_Systems/rnas/3D0U

>  <Rbt.Executable>
rbdock ($Id: //depot/dev/client3/rdock/2013.1/src/exe/rbdock.cxx#4 $)

>  <Rbt.Library>
libRbt.so (2013.1, Build901 2013/11/27)

>  <Rbt.Parameter_File>
/export/apps/rDock/src/rDock_2013.1_src/data/scripts/dock_solv.prm

>  <Rbt.Receptor>
prm/pocket_docking_3.prm

>  <SCORE>
-5.71486

>  <SCORE.INTER>
-5.8803

>  <SCORE.INTER.CONST>
1

>  <SCORE.INTER.POLAR>
0

>  <SCORE.INTER.ROT>
5

>  <SCORE.INTER.SOLV>
17.3601

>  <SCORE.INTER.VDW>
-16.6402

>  <SCORE.INTER.norm>
-0.58803

>  <SCORE.INTRA>
0.165439

>  <SCORE.INTRA.DIHEDRAL>
0.170564

>  <SCORE.INTRA.DIHEDRAL.0>
2.22229

>  <SCORE.INTRA.POLAR>
0

>  <SCORE.INTRA.POLAR.0>
0

>  <SCORE.INTRA.REPUL>
0

>  <SCORE.INTRA.REPUL.0>
0

>  <SCORE.INTRA.SOLV>
-0.425278

>  <SCORE.INTRA.SOLV.lig_0>
-31.87

>  <SCORE.INTRA.VDW>
0.292796

>  <SCORE.INTRA.VDW.0>
-0.575321

>  <SCORE.INTRA.norm>
0.0165439

>  <SCORE.RESTR>
0

>  <SCORE.RESTR.CAVITY>
0

>  <SCORE.RESTR.norm>
0

>  <SCORE.SYSTEM>
0

>  <SCORE.SYSTEM.CONST>
0

>  <SCORE.SYSTEM.DIHEDRAL>
0

>  <SCORE.SYSTEM.SOLV>
0

>  <SCORE.SYSTEM.norm>
0

>  <SCORE.heavy>
10

>  <SCORE.norm>
-0.571486

>  <RMSD>
5.423

$$$$
ligand
 OpenBabel11021811463D
libRbt.so/2013.1/901 2013/11/27
 10  9  0  0  0  0  0  0  0  0999 V2000
   24.7564   42.8788   17.3193 N   0  0  0  0  0  0  0  0  0  0  0  0
   24.1807   43.2451   18.6076 C   0  0  2  0  0  0  0  0  0  0  0  0
   24.0886   44.7632   18.7516 C   0  0  0  0  0  0  0  0  0  0  0  0
   23.1299   45.2658   19.3451 O   0  0  0  0  0  0  0  0  0  0  0  0
   24.9889   42.6349   19.7568 C   0  0  0  0  0  0  0  0  0  0  0  0
   25.0696   41.1140   19.7056 C   0  0  0  0  0  0  0  0  0  0  0  0
   25.7956   40.5331   20.9157 C   0  0  0  0  0  0  0  0  0  0  0  0
   24.9047   40.5156   22.1678 C   0  0  0  0  0  0  0  0  0  0  0  0
   24.4836   41.8693   22.6493 N   0  0  0  0  0  0  0  0  0  0  0  0
   24.9657   45.5102   18.2981 O   0  0  0  0  0  0  0  0  0  0  0  0
  2  1  1  6  0  0  0
  2  3  1  0  0  0  0
  2  5  1  0  0  0  0
  3  4  1  0  0  0  0
  3 10  1  0  0  0  0
  5  6  1  0  0  0  0
  6  7  1  0  0  0  0
  7  8  1  0  0  0  0
  8  9  1  0  0  0  0
M  END
>  <CHROM.1>
144.07760967,-58.84145024,-175.93961180,77.30939920,-63.35272475,24.63100862
42.87404511,19.74806673,-2.00241948,-1.14731056,2.06214168

>  <Name>
ligand

>  <RI>
0

>  <Rbt.Current_Directory>
/home/itssahil/PROJECTS/Mol_Feturizer/New_Systems/rnas/3D0U

>  <Rbt.Executable>
rbdock ($Id: //depot/dev/client3/rdock/2013.1/src/exe/rbdock.cxx#4 $)

>  <Rbt.Library>
libRbt.so (2013.1, Build901 2013/11/27)

>  <Rbt.Parameter_File>
/export/apps/rDock/src/rDock_2013.1_src/data/scripts/dock_solv.prm

>  <Rbt.Receptor>
prm/pocket_docking_7.prm

>  <SCORE>
-7.30819

>  <SCORE.INTER>
-8.47462

>  <SCORE.INTER.CONST>
1

>  <SCORE.INTER.POLAR>
0

>  <SCORE.INTER.ROT>
5

>  <SCORE.INTER.SOLV>
16.3419

>  <SCORE.INTER.VDW>
-18.0304

>  <SCORE.INTER.norm>
-0.847462

>  <SCORE.INTRA>
1.16644

>  <SCORE.INTRA.DIHEDRAL>
0.513404

>  <SCORE.INTRA.DIHEDRAL.0>
2.22229

>  <SCORE.INTRA.POLAR>
0

>  <SCORE.INTRA.POLAR.0>
0

>  <SCORE.INTRA.REPUL>
0

>  <SCORE.INTRA.REPUL.0>
0

>  <SCORE.INTRA.SOLV>
1.51039

>  <SCORE.INTRA.SOLV.lig_0>
-31.87

>  <SCORE.INTRA.VDW>
0.154538

>  <SCORE.INTRA.VDW.0>
-0.575321

>  <SCORE.INTRA.norm>
0.116644

>  <SCORE.RESTR>
0

>  <SCORE.RESTR.CAVITY>
0

>  <SCORE.RESTR.norm>
0

>  <SCORE.SYSTEM>
0

>  <SCORE.SYSTEM.CONST>
0

>  <SCORE.SYSTEM.DIHEDRAL>
0

>  <SCORE.SYSTEM.SOLV>
0

>  <SCORE.SYSTEM.norm>
0

>  <SCORE.heavy>
10

>  <SCORE.norm>
-0.730819

>  <RMSD>
5.423

$$$$
ligand
 OpenBabel11021811463D
libRbt.so/2013.1/901 2013/11/27
 10  9  0  0  0  0  0  0  0  0999 V2000
   25.1380   42.3852   16.8995 N   0  0  0  0  0  0  0  0  0  0  0  0
   24.8459   42.3748   18.3277 C   0  0  2  0  0  0  0  0  0  0  0  0
   24.4380   43.7655   18.8107 C   0  0  0  0  0  0  0  0  0  0  0  0
   25.2008   44.7213   18.6423 O   0  0  0  0  0  0  0  0  0  0  0  0
   26.0447   41.8495   19.1235 C   0  0  0  0  0  0  0  0  0  0  0  0
   25.7758   41.7213   20.6180 C   0  0  0  0  0  0  0  0  0  0  0  0
   24.8292   40.5676   20.9376 C   0  0  0  0  0  0  0  0  0  0  0  0
   24.6297   40.3890   22.4509 C   0  0  0  0  0  0  0  0  0  0  0  0
   23.7525   39.2364   22.8298 N   0  0  0  0  0  0  0  0  0  0  0  0
   23.3458   43.9652   19.3585 O   0  0  0  0  0  0  0  0  0  0  0  0
  2  1  1  6  0  0  0
  2  3  1  0  0  0  0
  2  5  1  0  0  0  0
  3  4  1  0  0  0  0
  3 10  1  0  0  0  0
  5  6  1  0  0  0  0
  6  7  1  0  0  0  0
  7  8  1  0  0  0  0
  8  9  1  0  0  0  0
M  END
>  <CHROM.1>
-57.11181711,-176.04805770,71.52459091,176.50137037,-177.69194971,24.79025925
42.13492805,19.80211436,-1.45454713,-0.91381873,2.40328532

>  <Name>
ligand

>  <RI>
0

>  <Rbt.Current_Directory>
/home/itssahil/PROJECTS/Mol_Feturizer/New_Systems/rnas/3D0U

>  <Rbt.Executable>
rbdock ($Id: //depot/dev/client3/rdock/2013.1/src/exe/rbdock.cxx#4 $)

>  <Rbt.Library>
libRbt.so (2013.1, Build901 2013/11/27)

>  <Rbt.Parameter_File>
/export/apps/rDock/src/rDock_2013.1_src/data/scripts/dock_solv.prm

>  <Rbt.Receptor>
prm/pocket_docking_8.prm

>  <SCORE>
-8.34596

>  <SCORE.INTER>
-7.46451

>  <SCORE.INTER.CONST>
1

>  <SCORE.INTER.POLAR>
0

>  <SCORE.INTER.ROT>
5

>  <SCORE.INTER.SOLV>
16.8943

>  <SCORE.INTER.VDW>
-17.5411

>  <SCORE.INTER.norm>
-0.746451

>  <SCORE.INTRA>
-0.881948

>  <SCORE.INTRA.DIHEDRAL>
-0.0752943

>  <SCORE.INTRA.DIHEDRAL.0>
2.22229

>  <SCORE.INTRA.POLAR>
0

>  <SCORE.INTRA.POLAR.0>
0

>  <SCORE.INTRA.REPUL>
0

>  <SCORE.INTRA.REPUL.0>
0

>  <SCORE.INTRA.SOLV>
-1.38732

>  <SCORE.INTRA.SOLV.lig_0>
-31.87

>  <SCORE.INTRA.VDW>
-0.150641

>  <SCORE.INTRA.VDW.0>
-0.575321

>  <SCORE.INTRA.norm>
-0.0881948

>  <SCORE.RESTR>
0.000496931

>  <SCORE.RESTR.CAVITY>
0.000496931

>  <SCORE.RESTR.norm>
4.96931e-05

>  <SCORE.SYSTEM>
0

>  <SCORE.SYSTEM.CONST>
0

>  <SCORE.SYSTEM.DIHEDRAL>
0

>  <SCORE.SYSTEM.SOLV>
0

>  <SCORE.SYSTEM.norm>
0

>  <SCORE.heavy>
10

>  <SCORE.norm>
-0.834596

>  <RMSD>
5.423

$$$$
ligand
 OpenBabel11021811463D
libRbt.so/2013.1/901 2013/11/27
 10  9  0  0  0  0  0  0  0  0999 V2000
   25.0665   44.4401   18.5032 N   0  0  0  0  0  0  0  0  0  0  0  0
   25.5032   43.1962   19.1255 C   0  0  2  0  0  0  0  0  0  0  0  0
   25.6852   42.0979   18.0794 C   0  0  0  0  0  0  0  0  0  0  0  0
   25.3516   42.3046   16.9090 O   0  0  0  0  0  0  0  0  0  0  0  0
   24.5177   42.7577   20.2130 C   0  0  0  0  0  0  0  0  0  0  0  0
   25.0326   41.6129   21.0771 C   0  0  0  0  0  0  0  0  0  0  0  0
   24.0120   41.1753   22.1240 C   0  0  0  0  0  0  0  0  0  0  0  0
   24.5011   39.9642   22.9338 C   0  0  0  0  0  0  0  0  0  0  0  0
   23.5217   39.4579   23.9467 N   0  0  0  0  0  0  0  0  0  0  0  0
   26.1769   41.0002   18.3731 O   0  0  0  0  0  0  0  0  0  0  0  0
  2  1  1  6  0  0  0
  2  3  1  0  0  0  0
  2  5  1  0  0  0  0
  3  4  1  0  0  0  0
  3 10  1  0  0  0  0
  5  6  1  0  0  0  0
  6  7  1  0  0  0  0
  7  8  1  0  0  0  0
  8  9  1  0  0  0  0
M  END
>  <CHROM.1>
-6.37406756,-169.42734368,-178.41096542,176.42247783,-177.99716560,24.94542138
41.78230376,20.09506965,0.91660913,1.15518846,-0.48507026

>  <Name>
ligand

>  <RI>
0

>  <Rbt.Current_Directory>
/home/itssahil/PROJECTS/Mol_Feturizer/New_Systems/rnas/3D0U

>  <Rbt.Executable>
rbdock ($Id: //depot/dev/client3/rdock/2013.1/src/exe/rbdock.cxx#4 $)

>  <Rbt.Library>
libRbt.so (2013.1, Build901 2013/11/27)

>  <Rbt.Parameter_File>
/export/apps/rDock/src/rDock_2013.1_src/data/scripts/dock_solv.prm

>  <Rbt.Receptor>
prm/pocket_docking_8.prm

>  <SCORE>
-8.58849

>  <SCORE.INTER>
-7.70877

>  <SCORE.INTER.CONST>
1

>  <SCORE.INTER.POLAR>
0

>  <SCORE.INTER.ROT>
5

>  <SCORE.INTER.SOLV>
15.6798

>  <SCORE.INTER.VDW>
-17.2991

>  <SCORE.INTER.norm>
-0.770877

>  <SCORE.INTRA>
-0.879722

>  <SCORE.INTRA.DIHEDRAL>
-0.238238

>  <SCORE.INTRA.DIHEDRAL.0>
2.22229

>  <SCORE.INTRA.POLAR>
0

>  <SCORE.INTRA.POLAR.0>
0

>  <SCORE.INTRA.REPUL>
0

>  <SCORE.INTRA.REPUL.0>
0

>  <SCORE.INTRA.SOLV>
-1.58099

>  <SCORE.INTRA.SOLV.lig_0>
-31.87

>  <SCORE.INTRA.VDW>
0.0298899

>  <SCORE.INTRA.VDW.0>
-0.575321

>  <SCORE.INTRA.norm>
-0.0879722

>  <SCORE.RESTR>
0

>  <SCORE.RESTR.CAVITY>
0

>  <SCORE.RESTR.norm>
0

>  <SCORE.SYSTEM>
0

>  <SCORE.SYSTEM.CONST>
0

>  <SCORE.SYSTEM.DIHEDRAL>
0

>  <SCORE.SYSTEM.SOLV>
0

>  <SCORE.SYSTEM.norm>
0

>  <SCORE.heavy>
10

>  <SCORE.norm>
-0.858849

>  <RMSD>
5.423

$$$$
ligand
 OpenBabel11021811463D
libRbt.so/2013.1/901 2013/11/27
 10  9  0  0  0  0  0  0  0  0999 V2000
   24.9614   44.1041   19.2882 N   0  0  0  0  0  0  0  0  0  0  0  0
   25.5031   42.7507   19.2931 C   0  0  2  0  0  0  0  0  0  0  0  0
   25.5700   42.1852   17.8755 C   0  0  0  0  0  0  0  0  0  0  0  0
   24.8585   42.6668   16.9890 O   0  0  0  0  0  0  0  0  0  0  0  0
   24.6785   41.8390   20.2070 C   0  0  0  0  0  0  0  0  0  0  0  0
   24.7458   42.2285   21.6787 C   0  0  0  0  0  0  0  0  0  0  0  0
   23.9196   41.2971   22.5611 C   0  0  0  0  0  0  0  0  0  0  0  0
   24.5286   39.8883   22.6399 C   0  0  0  0  0  0  0  0  0  0  0  0
   23.7155   38.9030   23.4207 N   0  0  0  0  0  0  0  0  0  0  0  0
   26.3370   41.2579   17.5847 O   0  0  0  0  0  0  0  0  0  0  0  0
  2  1  1  6  0  0  0
  2  3  1  0  0  0  0
  2  5  1  0  0  0  0
  3  4  1  0  0  0  0
  3 10  1  0  0  0  0
  5  6  1  0  0  0  0
  6  7  1  0  0  0  0
  7  8  1  0  0  0  0
  8  9  1  0  0  0  0
M  END
>  <CHROM.1>
-21.19611644,-65.18449491,-179.73318773,68.89042253,-176.26945945,24.88770405
41.70492600,20.11198576,0.73665600,1.24663146,-0.30975081

>  <Name>
ligand

>  <RI>
0

>  <Rbt.Current_Directory>
/home/itssahil/PROJECTS/Mol_Feturizer/New_Systems/rnas/3D0U

>  <Rbt.Executable>
rbdock ($Id: //depot/dev/client3/rdock/2013.1/src/exe/rbdock.cxx#4 $)

>  <Rbt.Library>
libRbt.so (2013.1, Build901 2013/11/27)

>  <Rbt.Parameter_File>
/export/apps/rDock/src/rDock_2013.1_src/data/scripts/dock_solv.prm

>  <Rbt.Receptor>
prm/pocket_docking_7.prm

>  <SCORE>
-8.67822

>  <SCORE.INTER>
-8.58938

>  <SCORE.INTER.CONST>
1

>  <SCORE.INTER.POLAR>
0

>  <SCORE.INTER.ROT>
5

>  <SCORE.INTER.SOLV>
13.209

>  <SCORE.INTER.VDW>
-17.0626

>  <SCORE.INTER.norm>
-0.858938

>  <SCORE.INTRA>
-0.0888418

>  <SCORE.INTRA.DIHEDRAL>
-0.222728

>  <SCORE.INTRA.DIHEDRAL.0>
2.22229

>  <SCORE.INTRA.POLAR>
0

>  <SCORE.INTRA.POLAR.0>
0

>  <SCORE.INTRA.REPUL>
0

>  <SCORE.INTRA.REPUL.0>
0

>  <SCORE.INTRA.SOLV>
-0.558178

>  <SCORE.INTRA.SOLV.lig_0>
-31.87

>  <SCORE.INTRA.VDW>
0.301611

>  <SCORE.INTRA.VDW.0>
-0.575321

>  <SCORE.INTRA.norm>
-0.00888418

>  <SCORE.RESTR>
0

>  <SCORE.RESTR.CAVITY>
0

>  <SCORE.RESTR.norm>
0

>  <SCORE.SYSTEM>
0

>  <SCORE.SYSTEM.CONST>
0

>  <SCORE.SYSTEM.DIHEDRAL>
0

>  <SCORE.SYSTEM.SOLV>
0

>  <SCORE.SYSTEM.norm>
0

>  <SCORE.heavy>
10

>  <SCORE.norm>
-0.867822

>  <RMSD>
5.425

$$$$
ligand
 OpenBabel11021811463D
libRbt.so/2013.1/901 2013/11/27
 10  9  0  0  0  0  0  0  0  0999 V2000
   24.9039   43.6143   19.6569 N   0  0  0  0  0  0  0  0  0  0  0  0
   25.1509   42.2367   19.2492 C   0  0  2  0  0  0  0  0  0  0  0  0
   25.4938   42.1615   17.7624 C   0  0  0  0  0  0  0  0  0  0  0  0
   24.8103   42.7826   16.9433 O   0  0  0  0  0  0  0  0  0  0  0  0
   23.9469   41.3488   19.5781 C   0  0  0  0  0  0  0  0  0  0  0  0
   23.7486   41.1187   21.0715 C   0  0  0  0  0  0  0  0  0  0  0  0
   24.8890   40.3135   21.6882 C   0  0  0  0  0  0  0  0  0  0  0  0
   24.5799   39.8914   23.1332 C   0  0  0  0  0  0  0  0  0  0  0  0
   23.4344   38.9370   23.2699 N   0  0  0  0  0  0  0  0  0  0  0  0
   26.4574   41.5001   17.3536 O   0  0  0  0  0  0  0  0  0  0  0  0
  2  1  1  6  0  0  0
  2  3  1  0  0  0  0
  2  5  1  0  0  0  0
  3  4  1  0  0  0  0
  3 10  1  0  0  0  0
  5  6  1  0  0  0  0
  6  7  1  0  0  0  0
  7  8  1  0  0  0  0
  8  9  1  0  0  0  0
M  END
>  <CHROM.1>
-46.22921094,-69.83528791,-65.91488732,-170.83952014,65.19999646,24.75294491
41.39441999,19.92798150,1.14095537,0.98127149,-0.72065091

>  <Name>
ligand

>  <RI>
0

>  <Rbt.Current_Directory>
/home/itssahil/PROJECTS/Mol_Feturizer/New_Systems/rnas/3D0U

>  <Rbt.Executable>
rbdock ($Id: //depot/dev/client3/rdock/2013.1/src/exe/rbdock.cxx#4 $)

>  <Rbt.Library>
libRbt.so (2013.1, Build901 2013/11/27)

>  <Rbt.Parameter_File>
/export/apps/rDock/src/rDock_2013.1_src/data/scripts/dock_solv.prm

>  <Rbt.Receptor>
prm/blind_docking_60.prm

>  <SCORE>
-8.68989

>  <SCORE.INTER>
-8.99424

>  <SCORE.INTER.CONST>
1

>  <SCORE.INTER.POLAR>
0

>  <SCORE.INTER.ROT>
5

>  <SCORE.INTER.SOLV>
11.7545

>  <SCORE.INTER.VDW>
-16.8477

>  <SCORE.INTER.norm>
-0.899424

>  <SCORE.INTRA>
0.304351

>  <SCORE.INTRA.DIHEDRAL>
0.259875

>  <SCORE.INTRA.DIHEDRAL.0>
2.22229

>  <SCORE.INTRA.POLAR>
0

>  <SCORE.INTRA.POLAR.0>
0

>  <SCORE.INTRA.REPUL>
0

>  <SCORE.INTRA.REPUL.0>
0

>  <SCORE.INTRA.SOLV>
0.484947

>  <SCORE.INTRA.SOLV.lig_0>
-31.87

>  <SCORE.INTRA.VDW>
-0.0680595

>  <SCORE.INTRA.VDW.0>
-0.575321

>  <SCORE.INTRA.norm>
0.0304351

>  <SCORE.RESTR>
0

>  <SCORE.RESTR.CAVITY>
0

>  <SCORE.RESTR.norm>
0

>  <SCORE.SYSTEM>
0

>  <SCORE.SYSTEM.CONST>
0

>  <SCORE.SYSTEM.DIHEDRAL>
0

>  <SCORE.SYSTEM.SOLV>
0

>  <SCORE.SYSTEM.norm>
0

>  <SCORE.heavy>
10

>  <SCORE.norm>
-0.868989

>  <RMSD>
5.428

$$$$
ligand
 OpenBabel11021811463D
libRbt.so/2013.1/901 2013/11/27
 10  9  0  0  0  0  0  0  0  0999 V2000
   24.9508   44.2284   19.0916 N   0  0  0  0  0  0  0  0  0  0  0  0
   25.4907   42.8763   19.1653 C   0  0  2  0  0  0  0  0  0  0  0  0
   25.5451   42.2349   17.7799 C   0  0  0  0  0  0  0  0  0  0  0  0
   24.7623   42.6068   16.9008 O   0  0  0  0  0  0  0  0  0  0  0  0
   24.6725   42.0168   20.1339 C   0  0  0  0  0  0  0  0  0  0  0  0
   25.2734   40.6388   20.3833 C   0  0  0  0  0  0  0  0  0  0  0  0
   24.4159   39.7964   21.3235 C   0  0  0  0  0  0  0  0  0  0  0  0
   24.4164   40.3521   22.7563 C   0  0  0  0  0  0  0  0  0  0  0  0
   23.6067   39.5554   23.7317 N   0  0  0  0  0  0  0  0  0  0  0  0
   26.3712   41.3539   17.5072 O   0  0  0  0  0  0  0  0  0  0  0  0
  2  1  1  6  0  0  0
  2  3  1  0  0  0  0
  2  5  1  0  0  0  0
  3  4  1  0  0  0  0
  3 10  1  0  0  0  0
  5  6  1  0  0  0  0
  6  7  1  0  0  0  0
  7  8  1  0  0  0  0
  8  9  1  0  0  0  0
M  END
>  <CHROM.1>
-26.19801169,-173.36203410,-178.53313550,-68.39694662,-179.16067078,24.95557312
41.55856507,19.83720516,0.92451302,1.19711685,-0.46326472

>  <Name>
ligand

>  <RI>
0

>  <Rbt.Current_Directory>
/home/itssahil/PROJECTS/Mol_Feturizer/New_Systems/rnas/3D0U

>  <Rbt.Executable>
rbdock ($Id: //depot/dev/client3/rdock/2013.1/src/exe/rbdock.cxx#4 $)

>  <Rbt.Library>
libRbt.so (2013.1, Build901 2013/11/27)

>  <Rbt.Parameter_File>
/export/apps/rDock/src/rDock_2013.1_src/data/scripts/dock_solv.prm

>  <Rbt.Receptor>
prm/pocket_docking_4.prm

>  <SCORE>
-9.04186

>  <SCORE.INTER>
-8.57423

>  <SCORE.INTER.CONST>
1

>  <SCORE.INTER.POLAR>
0

>  <SCORE.INTER.ROT>
5

>  <SCORE.INTER.SOLV>
13.8787

>  <SCORE.INTER.VDW>
-17.2757

>  <SCORE.INTER.norm>
-0.857423

>  <SCORE.INTRA>
-0.467639

>  <SCORE.INTRA.DIHEDRAL>
-0.24943

>  <SCORE.INTRA.DIHEDRAL.0>
2.22229

>  <SCORE.INTRA.POLAR>
0

>  <SCORE.INTRA.POLAR.0>
0

>  <SCORE.INTRA.REPUL>
0

>  <SCORE.INTRA.REPUL.0>
0

>  <SCORE.INTRA.SOLV>
-1.4039

>  <SCORE.INTRA.SOLV.lig_0>
-31.87

>  <SCORE.INTRA.VDW>
0.359026

>  <SCORE.INTRA.VDW.0>
-0.575321

>  <SCORE.INTRA.norm>
-0.0467639

>  <SCORE.RESTR>
0

>  <SCORE.RESTR.CAVITY>
0

>  <SCORE.RESTR.norm>
0

>  <SCORE.SYSTEM>
0

>  <SCORE.SYSTEM.CONST>
0

>  <SCORE.SYSTEM.DIHEDRAL>
0

>  <SCORE.SYSTEM.SOLV>
0

>  <SCORE.SYSTEM.norm>
0

>  <SCORE.heavy>
10

>  <SCORE.norm>
-0.904186

>  <RMSD>
5.428

$$$$
ligand
 OpenBabel11021811463D
libRbt.so/2013.1/901 2013/11/27
 10  9  0  0  0  0  0  0  0  0999 V2000
   25.0869   44.1668   19.2290 N   0  0  0  0  0  0  0  0  0  0  0  0
   25.5401   42.7813   19.2321 C   0  0  2  0  0  0  0  0  0  0  0  0
   25.5588   42.2107   17.8150 C   0  0  0  0  0  0  0  0  0  0  0  0
   26.3764   41.3350   17.5174 O   0  0  0  0  0  0  0  0  0  0  0  0
   24.6660   41.9259   20.1543 C   0  0  0  0  0  0  0  0  0  0  0  0
   24.8152   42.2729   21.6306 C   0  0  0  0  0  0  0  0  0  0  0  0
   23.9615   41.3770   22.5237 C   0  0  0  0  0  0  0  0  0  0  0  0
   24.4360   39.9156   22.4950 C   0  0  0  0  0  0  0  0  0  0  0  0
   23.5790   38.9689   23.2766 N   0  0  0  0  0  0  0  0  0  0  0  0
   24.7585   42.5956   16.9524 O   0  0  0  0  0  0  0  0  0  0  0  0
  2  1  1  6  0  0  0
  2  3  1  0  0  0  0
  2  5  1  0  0  0  0
  3  4  1  0  0  0  0
  3 10  1  0  0  0  0
  5  6  1  0  0  0  0
  6  7  1  0  0  0  0
  7  8  1  0  0  0  0
  8  9  1  0  0  0  0
M  END
>  <CHROM.1>
150.03240247,-67.64541808,-178.38791842,66.21363844,-175.91342754,24.88282921
41.74706882,20.04112166,0.51380297,1.27773953,-0.08233881

>  <Name>
ligand

>  <RI>
0

>  <Rbt.Current_Directory>
/home/itssahil/PROJECTS/Mol_Feturizer/New_Systems/rnas/3D0U

>  <Rbt.Executable>
rbdock ($Id: //depot/dev/client3/rdock/2013.1/src/exe/rbdock.cxx#4 $)

>  <Rbt.Library>
libRbt.so (2013.1, Build901 2013/11/27)

>  <Rbt.Parameter_File>
/export/apps/rDock/src/rDock_2013.1_src/data/scripts/dock_solv.prm

>  <Rbt.Receptor>
prm/pocket_docking_8.prm

>  <SCORE>
-8.83086

>  <SCORE.INTER>
-8.67895

>  <SCORE.INTER.CONST>
1

>  <SCORE.INTER.POLAR>
0

>  <SCORE.INTER.ROT>
5

>  <SCORE.INTER.SOLV>
13.3812

>  <SCORE.INTER.VDW>
-17.1797

>  <SCORE.INTER.norm>
-0.867895

>  <SCORE.INTRA>
-0.151911

>  <SCORE.INTRA.DIHEDRAL>
-0.299246

>  <SCORE.INTRA.DIHEDRAL.0>
2.22229

>  <SCORE.INTRA.POLAR>
0

>  <SCORE.INTRA.POLAR.0>
0

>  <SCORE.INTRA.REPUL>
0

>  <SCORE.INTRA.REPUL.0>
0

>  <SCORE.INTRA.SOLV>
-0.592732

>  <SCORE.INTRA.SOLV.lig_0>
-31.87

>  <SCORE.INTRA.VDW>
0.294079

>  <SCORE.INTRA.VDW.0>
-0.575321

>  <SCORE.INTRA.norm>
-0.0151911

>  <SCORE.RESTR>
0

>  <SCORE.RESTR.CAVITY>
0

>  <SCORE.RESTR.norm>
0

>  <SCORE.SYSTEM>
0

>  <SCORE.SYSTEM.CONST>
0

>  <SCORE.SYSTEM.DIHEDRAL>
0

>  <SCORE.SYSTEM.SOLV>
0

>  <SCORE.SYSTEM.norm>
0

>  <SCORE.heavy>
10

>  <SCORE.norm>
-0.883086

>  <RMSD>
5.429

$$$$
ligand
 OpenBabel11021811463D
libRbt.so/2013.1/901 2013/11/27
 10  9  0  0  0  0  0  0  0  0999 V2000
   24.6795   43.7499   19.6437 N   0  0  0  0  0  0  0  0  0  0  0  0
   25.7141   42.8362   19.1748 C   0  0  2  0  0  0  0  0  0  0  0  0
   25.3608   42.2721   17.7997 C   0  0  0  0  0  0  0  0  0  0  0  0
   26.2306   41.7150   17.1237 O   0  0  0  0  0  0  0  0  0  0  0  0
   25.9419   41.7086   20.1862 C   0  0  0  0  0  0  0  0  0  0  0  0
   24.6810   40.9173   20.5118 C   0  0  0  0  0  0  0  0  0  0  0  0
   24.8780   39.9799   21.6999 C   0  0  0  0  0  0  0  0  0  0  0  0
   23.5806   39.2475   22.0766 C   0  0  0  0  0  0  0  0  0  0  0  0
   23.6788   38.4050   23.3104 N   0  0  0  0  0  0  0  0  0  0  0  0
   24.2110   42.3457   17.3465 O   0  0  0  0  0  0  0  0  0  0  0  0
  2  1  1  1  0  0  0
  2  3  1  0  0  0  0
  2  5  1  0  0  0  0
  3  4  1  0  0  0  0
  3 10  1  0  0  0  0
  5  6  1  0  0  0  0
  6  7  1  0  0  0  0
  7  8  1  0  0  0  0
  8  9  1  0  0  0  0
M  END
>  <CHROM.1>
164.63668532,56.53923117,-169.45016449,176.56741378,-174.84001090,24.89243780
41.31323174,19.84763157,0.08400184,1.33502562,0.54602724

>  <Name>
ligand

>  <RI>
0

>  <Rbt.Current_Directory>
/home/itssahil/PROJECTS/Mol_Feturizer/New_Systems/rnas/3D0U

>  <Rbt.Executable>
rbdock ($Id: //depot/dev/client3/rdock/2013.1/src/exe/rbdock.cxx#4 $)

>  <Rbt.Library>
libRbt.so (2013.1, Build901 2013/11/27)

>  <Rbt.Parameter_File>
/export/apps/rDock/src/rDock_2013.1_src/data/scripts/dock_solv.prm

>  <Rbt.Receptor>
prm/blind_docking_60.prm

>  <SCORE>
-9.04307

>  <SCORE.INTER>
-8.63199

>  <SCORE.INTER.CONST>
1

>  <SCORE.INTER.POLAR>
0

>  <SCORE.INTER.ROT>
5

>  <SCORE.INTER.SOLV>
13.1207

>  <SCORE.INTER.VDW>
-17.0616

>  <SCORE.INTER.norm>
-0.863199

>  <SCORE.INTRA>
-0.411085

>  <SCORE.INTRA.DIHEDRAL>
-0.110561

>  <SCORE.INTRA.DIHEDRAL.0>
2.22229

>  <SCORE.INTRA.POLAR>
0

>  <SCORE.INTRA.POLAR.0>
0

>  <SCORE.INTRA.REPUL>
0

>  <SCORE.INTRA.REPUL.0>
0

>  <SCORE.INTRA.SOLV>
-0.619907

>  <SCORE.INTRA.SOLV.lig_0>
-31.87

>  <SCORE.INTRA.VDW>
-0.0458509

>  <SCORE.INTRA.VDW.0>
-0.575321

>  <SCORE.INTRA.norm>
-0.0411085

>  <SCORE.RESTR>
0

>  <SCORE.RESTR.CAVITY>
0

>  <SCORE.RESTR.norm>
0

>  <SCORE.SYSTEM>
0

>  <SCORE.SYSTEM.CONST>
0

>  <SCORE.SYSTEM.DIHEDRAL>
0

>  <SCORE.SYSTEM.SOLV>
0

>  <SCORE.SYSTEM.norm>
0

>  <SCORE.heavy>
10

>  <SCORE.norm>
-0.904307

>  <RMSD>
5.430

$$$$
ligand
 OpenBabel11021811463D
libRbt.so/2013.1/901 2013/11/27
 10  9  0  0  0  0  0  0  0  0999 V2000
   24.7574   43.8113   19.5997 N   0  0  0  0  0  0  0  0  0  0  0  0
   25.7713   42.8630   19.1549 C   0  0  2  0  0  0  0  0  0  0  0  0
   25.4103   42.2791   17.7902 C   0  0  0  0  0  0  0  0  0  0  0  0
   26.2579   41.6526   17.1476 O   0  0  0  0  0  0  0  0  0  0  0  0
   25.9672   41.7516   20.1906 C   0  0  0  0  0  0  0  0  0  0  0  0
   24.6869   40.9946   20.5225 C   0  0  0  0  0  0  0  0  0  0  0  0
   24.8633   40.0550   21.7120 C   0  0  0  0  0  0  0  0  0  0  0  0
   23.5467   39.3638   22.0999 C   0  0  0  0  0  0  0  0  0  0  0  0
   23.6404   38.4812   23.3057 N   0  0  0  0  0  0  0  0  0  0  0  0
   24.2749   42.4051   17.3127 O   0  0  0  0  0  0  0  0  0  0  0  0
  2  1  1  1  0  0  0
  2  3  1  0  0  0  0
  2  5  1  0  0  0  0
  3  4  1  0  0  0  0
  3 10  1  0  0  0  0
  5  6  1  0  0  0  0
  6  7  1  0  0  0  0
  7  8  1  0  0  0  0
  8  9  1  0  0  0  0
M  END
>  <CHROM.1>
166.78161226,56.76473389,-170.69518993,176.25541540,-177.03441140,24.91443623
41.36059008,19.84405143,0.07465192,1.32180261,0.54391975

>  <Name>
ligand

>  <RI>
0

>  <Rbt.Current_Directory>
/home/itssahil/PROJECTS/Mol_Feturizer/New_Systems/rnas/3D0U

>  <Rbt.Executable>
rbdock ($Id: //depot/dev/client3/rdock/2013.1/src/exe/rbdock.cxx#4 $)

>  <Rbt.Library>
libRbt.so (2013.1, Build901 2013/11/27)

>  <Rbt.Parameter_File>
/export/apps/rDock/src/rDock_2013.1_src/data/scripts/dock_solv.prm

>  <Rbt.Receptor>
prm/pocket_docking_6.prm

>  <SCORE>
-9.0608

>  <SCORE.INTER>
-8.58148

>  <SCORE.INTER.CONST>
1

>  <SCORE.INTER.POLAR>
0

>  <SCORE.INTER.ROT>
5

>  <SCORE.INTER.SOLV>
13.2606

>  <SCORE.INTER.VDW>
-17.0745

>  <SCORE.INTER.norm>
-0.858148

>  <SCORE.INTRA>
-0.479324

>  <SCORE.INTRA.DIHEDRAL>
-0.271135

>  <SCORE.INTRA.DIHEDRAL.0>
2.22229

>  <SCORE.INTRA.POLAR>
0

>  <SCORE.INTRA.POLAR.0>
0

>  <SCORE.INTRA.REPUL>
0

>  <SCORE.INTRA.REPUL.0>
0

>  <SCORE.INTRA.SOLV>
-0.630658

>  <SCORE.INTRA.SOLV.lig_0>
-31.87

>  <SCORE.INTRA.VDW>
-0.0284279

>  <SCORE.INTRA.VDW.0>
-0.575321

>  <SCORE.INTRA.norm>
-0.0479324

>  <SCORE.RESTR>
0

>  <SCORE.RESTR.CAVITY>
0

>  <SCORE.RESTR.norm>
0

>  <SCORE.SYSTEM>
0

>  <SCORE.SYSTEM.CONST>
0

>  <SCORE.SYSTEM.DIHEDRAL>
0

>  <SCORE.SYSTEM.SOLV>
0

>  <SCORE.SYSTEM.norm>
0

>  <SCORE.heavy>
10

>  <SCORE.norm>
-0.90608

>  <RMSD>
5.431

$$$$
ligand
 OpenBabel11021811463D
libRbt.so/2013.1/901 2013/11/27
 10  9  0  0  0  0  0  0  0  0999 V2000
   24.9676   44.0956   19.2520 N   0  0  0  0  0  0  0  0  0  0  0  0
   25.5208   42.7468   19.2530 C   0  0  2  0  0  0  0  0  0  0  0  0
   25.6033   42.1904   17.8326 C   0  0  0  0  0  0  0  0  0  0  0  0
   24.9204   42.6942   16.9361 O   0  0  0  0  0  0  0  0  0  0  0  0
   24.6971   41.8227   20.1551 C   0  0  0  0  0  0  0  0  0  0  0  0
   24.7487   42.2049   21.6294 C   0  0  0  0  0  0  0  0  0  0  0  0
   23.9099   41.2713   22.4978 C   0  0  0  0  0  0  0  0  0  0  0  0
   24.4563   39.8349   22.4929 C   0  0  0  0  0  0  0  0  0  0  0  0
   23.6436   38.8587   23.2856 N   0  0  0  0  0  0  0  0  0  0  0  0
   26.3553   41.2483   17.5498 O   0  0  0  0  0  0  0  0  0  0  0  0
  2  1  1  6  0  0  0
  2  3  1  0  0  0  0
  2  5  1  0  0  0  0
  3  4  1  0  0  0  0
  3 10  1  0  0  0  0
  5  6  1  0  0  0  0
  6  7  1  0  0  0  0
  7  8  1  0  0  0  0
  8  9  1  0  0  0  0
M  END
>  <CHROM.1>
-19.30375544,-65.12402664,179.56790543,64.66675093,-177.73291186,24.88871848
41.68995976,20.04674131,0.68737017,1.23967979,-0.24813888

>  <Name>
ligand

>  <RI>
0

>  <Rbt.Current_Directory>
/home/itssahil/PROJECTS/Mol_Feturizer/New_Systems/rnas/3D0U

>  <Rbt.Executable>
rbdock ($Id: //depot/dev/client3/rdock/2013.1/src/exe/rbdock.cxx#4 $)

>  <Rbt.Library>
libRbt.so (2013.1, Build901 2013/11/27)

>  <Rbt.Parameter_File>
/export/apps/rDock/src/rDock_2013.1_src/data/scripts/dock_solv.prm

>  <Rbt.Receptor>
prm/pocket_docking_4.prm

>  <SCORE>
-8.71809

>  <SCORE.INTER>
-8.6621

>  <SCORE.INTER.CONST>
1

>  <SCORE.INTER.POLAR>
0

>  <SCORE.INTER.ROT>
5

>  <SCORE.INTER.SOLV>
13.1108

>  <SCORE.INTER.VDW>
-17.0783

>  <SCORE.INTER.norm>
-0.86621

>  <SCORE.INTRA>
-0.0559894

>  <SCORE.INTRA.DIHEDRAL>
-0.493921

>  <SCORE.INTRA.DIHEDRAL.0>
2.22229

>  <SCORE.INTRA.POLAR>
0

>  <SCORE.INTRA.POLAR.0>
0

>  <SCORE.INTRA.REPUL>
0

>  <SCORE.INTRA.REPUL.0>
0

>  <SCORE.INTRA.SOLV>
-0.536652

>  <SCORE.INTRA.SOLV.lig_0>
-31.87

>  <SCORE.INTRA.VDW>
0.459297

>  <SCORE.INTRA.VDW.0>
-0.575321

>  <SCORE.INTRA.norm>
-0.00559894

>  <SCORE.RESTR>
0

>  <SCORE.RESTR.CAVITY>
0

>  <SCORE.RESTR.norm>
0

>  <SCORE.SYSTEM>
0

>  <SCORE.SYSTEM.CONST>
0

>  <SCORE.SYSTEM.DIHEDRAL>
0

>  <SCORE.SYSTEM.SOLV>
0

>  <SCORE.SYSTEM.norm>
0

>  <SCORE.heavy>
10

>  <SCORE.norm>
-0.871809

>  <RMSD>
5.432

$$$$
ligand
 OpenBabel11021811463D
libRbt.so/2013.1/901 2013/11/27
 10  9  0  0  0  0  0  0  0  0999 V2000
   25.2447   42.3645   16.9003 N   0  0  0  0  0  0  0  0  0  0  0  0
   24.9154   42.3634   18.3204 C   0  0  2  0  0  0  0  0  0  0  0  0
   24.4756   43.7527   18.7790 C   0  0  0  0  0  0  0  0  0  0  0  0
   25.2134   44.7237   18.5876 O   0  0  0  0  0  0  0  0  0  0  0  0
   26.1001   41.8626   19.1523 C   0  0  0  0  0  0  0  0  0  0  0  0
   25.7909   41.7355   20.6391 C   0  0  0  0  0  0  0  0  0  0  0  0
   24.8508   40.5706   20.9359 C   0  0  0  0  0  0  0  0  0  0  0  0
   24.6055   40.3985   22.4432 C   0  0  0  0  0  0  0  0  0  0  0  0
   23.7243   39.2421   22.8010 N   0  0  0  0  0  0  0  0  0  0  0  0
   23.3818   43.9358   19.3295 O   0  0  0  0  0  0  0  0  0  0  0  0
  2  1  1  6  0  0  0
  2  3  1  0  0  0  0
  2  5  1  0  0  0  0
  3  4  1  0  0  0  0
  3 10  1  0  0  0  0
  5  6  1  0  0  0  0
  6  7  1  0  0  0  0
  7  8  1  0  0  0  0
  8  9  1  0  0  0  0
M  END
>  <CHROM.1>
-55.09831560,-175.65046269,71.24658739,176.79172506,-178.13376797,24.81992252
42.13218604,19.79050525,-1.43713121,-0.88566977,2.41083017

>  <Name>
ligand

>  <RI>
0

>  <Rbt.Current_Directory>
/home/itssahil/PROJECTS/Mol_Feturizer/New_Systems/rnas/3D0U

>  <Rbt.Executable>
rbdock ($Id: //depot/dev/client3/rdock/2013.1/src/exe/rbdock.cxx#4 $)

>  <Rbt.Library>
libRbt.so (2013.1, Build901 2013/11/27)

>  <Rbt.Parameter_File>
/export/apps/rDock/src/rDock_2013.1_src/data/scripts/dock_solv.prm

>  <Rbt.Receptor>
prm/pocket_docking_6.prm

>  <SCORE>
-8.36449

>  <SCORE.INTER>
-7.45787

>  <SCORE.INTER.CONST>
1

>  <SCORE.INTER.POLAR>
0

>  <SCORE.INTER.ROT>
5

>  <SCORE.INTER.SOLV>
17.0611

>  <SCORE.INTER.VDW>
-17.5923

>  <SCORE.INTER.norm>
-0.745787

>  <SCORE.INTRA>
-0.90662

>  <SCORE.INTRA.DIHEDRAL>
-0.0997975

>  <SCORE.INTRA.DIHEDRAL.0>
2.22229

>  <SCORE.INTRA.POLAR>
0

>  <SCORE.INTRA.POLAR.0>
0

>  <SCORE.INTRA.REPUL>
0

>  <SCORE.INTRA.REPUL.0>
0

>  <SCORE.INTRA.SOLV>
-1.38231

>  <SCORE.INTRA.SOLV.lig_0>
-31.87

>  <SCORE.INTRA.VDW>
-0.165565

>  <SCORE.INTRA.VDW.0>
-0.575321

>  <SCORE.INTRA.norm>
-0.090662

>  <SCORE.RESTR>
0

>  <SCORE.RESTR.CAVITY>
0

>  <SCORE.RESTR.norm>
0

>  <SCORE.SYSTEM>
0

>  <SCORE.SYSTEM.CONST>
0

>  <SCORE.SYSTEM.DIHEDRAL>
0

>  <SCORE.SYSTEM.SOLV>
0

>  <SCORE.SYSTEM.norm>
0

>  <SCORE.heavy>
10

>  <SCORE.norm>
-0.836449

>  <RMSD>
5.432

$$$$
ligand
 OpenBabel11021811463D
libRbt.so/2013.1/901 2013/11/27
 10  9  0  0  0  0  0  0  0  0999 V2000
   25.0172   44.5011   18.5621 N   0  0  0  0  0  0  0  0  0  0  0  0
   25.4638   43.2371   19.1347 C   0  0  2  0  0  0  0  0  0  0  0  0
   25.6613   42.1846   18.0451 C   0  0  0  0  0  0  0  0  0  0  0  0
   26.2803   41.1473   18.2995 O   0  0  0  0  0  0  0  0  0  0  0  0
   24.4779   42.7443   20.1985 C   0  0  0  0  0  0  0  0  0  0  0  0
   24.9994   41.5681   21.0151 C   0  0  0  0  0  0  0  0  0  0  0  0
   23.9779   41.0764   22.0368 C   0  0  0  0  0  0  0  0  0  0  0  0
   24.4999   39.8749   22.8403 C   0  0  0  0  0  0  0  0  0  0  0  0
   23.5259   39.3217   23.8338 N   0  0  0  0  0  0  0  0  0  0  0  0
   25.1999   42.3382   16.9065 O   0  0  0  0  0  0  0  0  0  0  0  0
  2  1  1  6  0  0  0
  2  3  1  0  0  0  0
  2  5  1  0  0  0  0
  3  4  1  0  0  0  0
  3 10  1  0  0  0  0
  5  6  1  0  0  0  0
  6  7  1  0  0  0  0
  7  8  1  0  0  0  0
  8  9  1  0  0  0  0
M  END
>  <CHROM.1>
165.77974428,-169.55262030,-178.32241476,179.00743179,-178.34200175,24.91903954
41.78198038,20.05343945,0.95807719,1.13959751,-0.49404324

>  <Name>
ligand

>  <RI>
0

>  <Rbt.Current_Directory>
/home/itssahil/PROJECTS/Mol_Feturizer/New_Systems/rnas/3D0U

>  <Rbt.Executable>
rbdock ($Id: //depot/dev/client3/rdock/2013.1/src/exe/rbdock.cxx#4 $)

>  <Rbt.Library>
libRbt.so (2013.1, Build901 2013/11/27)

>  <Rbt.Parameter_File>
/export/apps/rDock/src/rDock_2013.1_src/data/scripts/dock_solv.prm

>  <Rbt.Receptor>
prm/blind_docking_60.prm

>  <SCORE>
-8.53412

>  <SCORE.INTER>
-7.48465

>  <SCORE.INTER.CONST>
1

>  <SCORE.INTER.POLAR>
0

>  <SCORE.INTER.ROT>
5

>  <SCORE.INTER.SOLV>
15.3946

>  <SCORE.INTER.VDW>
-17.0546

>  <SCORE.INTER.norm>
-0.748465

>  <SCORE.INTRA>
-1.04947

>  <SCORE.INTRA.DIHEDRAL>
-0.335052

>  <SCORE.INTRA.DIHEDRAL.0>
2.22229

>  <SCORE.INTRA.POLAR>
0

>  <SCORE.INTRA.POLAR.0>
0

>  <SCORE.INTRA.REPUL>
0

>  <SCORE.INTRA.REPUL.0>
0

>  <SCORE.INTRA.SOLV>
-1.59505

>  <SCORE.INTRA.SOLV.lig_0>
-31.87

>  <SCORE.INTRA.VDW>
-0.0844228

>  <SCORE.INTRA.VDW.0>
-0.575321

>  <SCORE.INTRA.norm>
-0.104947

>  <SCORE.RESTR>
0

>  <SCORE.RESTR.CAVITY>
0

>  <SCORE.RESTR.norm>
0

>  <SCORE.SYSTEM>
0

>  <SCORE.SYSTEM.CONST>
0

>  <SCORE.SYSTEM.DIHEDRAL>
0

>  <SCORE.SYSTEM.SOLV>
0

>  <SCORE.SYSTEM.norm>
0

>  <SCORE.heavy>
10

>  <SCORE.norm>
-0.853412

>  <RMSD>
5.434

$$$$
ligand
 OpenBabel11021811463D
libRbt.so/2013.1/901 2013/11/27
 10  9  0  0  0  0  0  0  0  0999 V2000
   25.0335   44.4765   18.5342 N   0  0  0  0  0  0  0  0  0  0  0  0
   25.4682   43.2147   19.1208 C   0  0  2  0  0  0  0  0  0  0  0  0
   25.6517   42.1473   18.0434 C   0  0  0  0  0  0  0  0  0  0  0  0
   25.2339   42.3521   16.9000 O   0  0  0  0  0  0  0  0  0  0  0  0
   24.4800   42.7451   20.1928 C   0  0  0  0  0  0  0  0  0  0  0  0
   24.9878   41.5681   21.0168 C   0  0  0  0  0  0  0  0  0  0  0  0
   23.9791   41.1242   22.0725 C   0  0  0  0  0  0  0  0  0  0  0  0
   24.4768   39.9075   22.8687 C   0  0  0  0  0  0  0  0  0  0  0  0
   23.5001   39.3817   23.8743 N   0  0  0  0  0  0  0  0  0  0  0  0
   26.2272   41.0779   18.2840 O   0  0  0  0  0  0  0  0  0  0  0  0
  2  1  1  6  0  0  0
  2  3  1  0  0  0  0
  2  5  1  0  0  0  0
  3  4  1  0  0  0  0
  3 10  1  0  0  0  0
  5  6  1  0  0  0  0
  6  7  1  0  0  0  0
  7  8  1  0  0  0  0
  8  9  1  0  0  0  0
M  END
>  <CHROM.1>
-11.53992910,-169.89044113,-179.88391510,178.08843817,-177.06983124,24.91242399
41.78201814,20.05673653,0.93775394,1.14643291,-0.48795529

>  <Name>
ligand

>  <RI>
0

>  <Rbt.Current_Directory>
/home/itssahil/PROJECTS/Mol_Feturizer/New_Systems/rnas/3D0U

>  <Rbt.Executable>
rbdock ($Id: //depot/dev/client3/rdock/2013.1/src/exe/rbdock.cxx#4 $)

>  <Rbt.Library>
libRbt.so (2013.1, Build901 2013/11/27)

>  <Rbt.Parameter_File>
/export/apps/rDock/src/rDock_2013.1_src/data/scripts/dock_solv.prm

>  <Rbt.Receptor>
prm/pocket_docking_8.prm

>  <SCORE>
-8.62309

>  <SCORE.INTER>
-7.63727

>  <SCORE.INTER.CONST>
1

>  <SCORE.INTER.POLAR>
0

>  <SCORE.INTER.ROT>
5

>  <SCORE.INTER.SOLV>
15.4633

>  <SCORE.INTER.VDW>
-17.1793

>  <SCORE.INTER.norm>
-0.763727

>  <SCORE.INTRA>
-0.985866

>  <SCORE.INTRA.DIHEDRAL>
-0.298003

>  <SCORE.INTRA.DIHEDRAL.0>
2.22229

>  <SCORE.INTRA.POLAR>
0

>  <SCORE.INTRA.POLAR.0>
0

>  <SCORE.INTRA.REPUL>
0

>  <SCORE.INTRA.REPUL.0>
0

>  <SCORE.INTRA.SOLV>
-1.58185

>  <SCORE.INTRA.SOLV.lig_0>
-31.87

>  <SCORE.INTRA.VDW>
-0.0459382

>  <SCORE.INTRA.VDW.0>
-0.575321

>  <SCORE.INTRA.norm>
-0.0985866

>  <SCORE.RESTR>
4.72628e-05

>  <SCORE.RESTR.CAVITY>
4.72628e-05

>  <SCORE.RESTR.norm>
4.72628e-06

>  <SCORE.SYSTEM>
0

>  <SCORE.SYSTEM.CONST>
0

>  <SCORE.SYSTEM.DIHEDRAL>
0

>  <SCORE.SYSTEM.SOLV>
0

>  <SCORE.SYSTEM.norm>
0

>  <SCORE.heavy>
10

>  <SCORE.norm>
-0.862309

>  <RMSD>
5.436

$$$$
ligand
 OpenBabel11021811463D
libRbt.so/2013.1/901 2013/11/27
 10  9  0  0  0  0  0  0  0  0999 V2000
   25.1474   44.7662   18.6277 N   0  0  0  0  0  0  0  0  0  0  0  0
   25.4631   43.4194   19.0878 C   0  0  2  0  0  0  0  0  0  0  0  0
   25.2415   42.3971   17.9745 C   0  0  0  0  0  0  0  0  0  0  0  0
   26.1172   41.5638   17.7240 O   0  0  0  0  0  0  0  0  0  0  0  0
   24.6400   43.0627   20.3294 C   0  0  0  0  0  0  0  0  0  0  0  0
   25.0033   41.7122   20.9348 C   0  0  0  0  0  0  0  0  0  0  0  0
   24.1374   41.3695   22.1438 C   0  0  0  0  0  0  0  0  0  0  0  0
   24.4435   39.9669   22.6921 C   0  0  0  0  0  0  0  0  0  0  0  0
   23.5771   39.5453   23.8381 N   0  0  0  0  0  0  0  0  0  0  0  0
   24.1909   42.3713   17.3199 O   0  0  0  0  0  0  0  0  0  0  0  0
  2  1  1  6  0  0  0
  2  3  1  0  0  0  0
  2  5  1  0  0  0  0
  3  4  1  0  0  0  0
  3 10  1  0  0  0  0
  5  6  1  0  0  0  0
  6  7  1  0  0  0  0
  7  8  1  0  0  0  0
  8  9  1  0  0  0  0
M  END
>  <CHROM.1>
131.37626714,-175.15221130,-178.30151403,176.15827226,-177.08666014,24.79514751
42.00055770,20.03260818,0.51299032,1.34456147,-0.01013321

>  <Name>
ligand

>  <RI>
0

>  <Rbt.Current_Directory>
/home/itssahil/PROJECTS/Mol_Feturizer/New_Systems/rnas/3D0U

>  <Rbt.Executable>
rbdock ($Id: //depot/dev/client3/rdock/2013.1/src/exe/rbdock.cxx#4 $)

>  <Rbt.Library>
libRbt.so (2013.1, Build901 2013/11/27)

>  <Rbt.Parameter_File>
/export/apps/rDock/src/rDock_2013.1_src/data/scripts/dock_solv.prm

>  <Rbt.Receptor>
prm/blind_docking_60.prm

>  <SCORE>
-8.29687

>  <SCORE.INTER>
-6.91734

>  <SCORE.INTER.CONST>
1

>  <SCORE.INTER.POLAR>
0

>  <SCORE.INTER.ROT>
5

>  <SCORE.INTER.SOLV>
15.9654

>  <SCORE.INTER.VDW>
-16.8667

>  <SCORE.INTER.norm>
-0.691734

>  <SCORE.INTRA>
-1.37952

>  <SCORE.INTRA.DIHEDRAL>
-0.570824

>  <SCORE.INTRA.DIHEDRAL.0>
2.22229

>  <SCORE.INTRA.POLAR>
0

>  <SCORE.INTRA.POLAR.0>
0

>  <SCORE.INTRA.REPUL>
0

>  <SCORE.INTRA.REPUL.0>
0

>  <SCORE.INTRA.SOLV>
-1.61509

>  <SCORE.INTRA.SOLV.lig_0>
-31.87

>  <SCORE.INTRA.VDW>
-0.286566

>  <SCORE.INTRA.VDW.0>
-0.575321

>  <SCORE.INTRA.norm>
-0.137952

>  <SCORE.RESTR>
0

>  <SCORE.RESTR.CAVITY>
0

>  <SCORE.RESTR.norm>
0

>  <SCORE.SYSTEM>
0

>  <SCORE.SYSTEM.CONST>
0

>  <SCORE.SYSTEM.DIHEDRAL>
0

>  <SCORE.SYSTEM.SOLV>
0

>  <SCORE.SYSTEM.norm>
0

>  <SCORE.heavy>
10

>  <SCORE.norm>
-0.829687

>  <RMSD>
5.437

$$$$
ligand
 OpenBabel11021811463D
libRbt.so/2013.1/901 2013/11/27
 10  9  0  0  0  0  0  0  0  0999 V2000
   25.0136   44.4812   18.5292 N   0  0  0  0  0  0  0  0  0  0  0  0
   25.4713   43.2265   19.1135 C   0  0  2  0  0  0  0  0  0  0  0  0
   25.6531   42.1581   18.0368 C   0  0  0  0  0  0  0  0  0  0  0  0
   25.1985   42.3451   16.9044 O   0  0  0  0  0  0  0  0  0  0  0  0
   24.5033   42.7484   20.2001 C   0  0  0  0  0  0  0  0  0  0  0  0
   25.0339   41.5764   21.0169 C   0  0  0  0  0  0  0  0  0  0  0  0
   24.0235   41.0891   22.0517 C   0  0  0  0  0  0  0  0  0  0  0  0
   24.5546   39.8918   22.8555 C   0  0  0  0  0  0  0  0  0  0  0  0
   23.5949   39.3491   23.8686 N   0  0  0  0  0  0  0  0  0  0  0  0
   26.2633   41.1056   18.2667 O   0  0  0  0  0  0  0  0  0  0  0  0
  2  1  1  6  0  0  0
  2  3  1  0  0  0  0
  2  5  1  0  0  0  0
  3  4  1  0  0  0  0
  3 10  1  0  0  0  0
  5  6  1  0  0  0  0
  6  7  1  0  0  0  0
  7  8  1  0  0  0  0
  8  9  1  0  0  0  0
M  END
>  <CHROM.1>
-12.71669248,-170.12220498,-177.68893733,179.00852594,-178.75386528,24.93936453
41.77972894,20.05034795,0.97610411,1.14865294,-0.51833715

>  <Name>
ligand

>  <RI>
0

>  <Rbt.Current_Directory>
/home/itssahil/PROJECTS/Mol_Feturizer/New_Systems/rnas/3D0U

>  <Rbt.Executable>
rbdock ($Id: //depot/dev/client3/rdock/2013.1/src/exe/rbdock.cxx#4 $)

>  <Rbt.Library>
libRbt.so (2013.1, Build901 2013/11/27)

>  <Rbt.Parameter_File>
/export/apps/rDock/src/rDock_2013.1_src/data/scripts/dock_solv.prm

>  <Rbt.Receptor>
prm/pocket_docking_5.prm

>  <SCORE>
-8.61251

>  <SCORE.INTER>
-7.59496

>  <SCORE.INTER.CONST>
1

>  <SCORE.INTER.POLAR>
0

>  <SCORE.INTER.ROT>
5

>  <SCORE.INTER.SOLV>
15.4942

>  <SCORE.INTER.VDW>
-17.1614

>  <SCORE.INTER.norm>
-0.759496

>  <SCORE.INTRA>
-1.01755

>  <SCORE.INTRA.DIHEDRAL>
-0.329186

>  <SCORE.INTRA.DIHEDRAL.0>
2.22229

>  <SCORE.INTRA.POLAR>
0

>  <SCORE.INTRA.POLAR.0>
0

>  <SCORE.INTRA.REPUL>
0

>  <SCORE.INTRA.REPUL.0>
0

>  <SCORE.INTRA.SOLV>
-1.58278

>  <SCORE.INTRA.SOLV.lig_0>
-31.87

>  <SCORE.INTRA.VDW>
-0.0615674

>  <SCORE.INTRA.VDW.0>
-0.575321

>  <SCORE.INTRA.norm>
-0.101755

>  <SCORE.RESTR>
0

>  <SCORE.RESTR.CAVITY>
0

>  <SCORE.RESTR.norm>
0

>  <SCORE.SYSTEM>
0

>  <SCORE.SYSTEM.CONST>
0

>  <SCORE.SYSTEM.DIHEDRAL>
0

>  <SCORE.SYSTEM.SOLV>
0

>  <SCORE.SYSTEM.norm>
0

>  <SCORE.heavy>
10

>  <SCORE.norm>
-0.861251

>  <RMSD>
5.438

$$$$
ligand
 OpenBabel11021811463D
libRbt.so/2013.1/901 2013/11/27
 10  9  0  0  0  0  0  0  0  0999 V2000
   25.1812   44.4668   18.5650 N   0  0  0  0  0  0  0  0  0  0  0  0
   25.5680   43.1797   19.1297 C   0  0  2  0  0  0  0  0  0  0  0  0
   25.6730   42.1153   18.0389 C   0  0  0  0  0  0  0  0  0  0  0  0
   25.2168   42.3426   16.9145 O   0  0  0  0  0  0  0  0  0  0  0  0
   24.5844   42.7482   20.2218 C   0  0  0  0  0  0  0  0  0  0  0  0
   25.0477   41.5315   21.0139 C   0  0  0  0  0  0  0  0  0  0  0  0
   24.0288   41.1058   22.0671 C   0  0  0  0  0  0  0  0  0  0  0  0
   24.5009   39.8780   22.8617 C   0  0  0  0  0  0  0  0  0  0  0  0
   23.5153   39.3740   23.8698 N   0  0  0  0  0  0  0  0  0  0  0  0
   26.2220   41.0258   18.2493 O   0  0  0  0  0  0  0  0  0  0  0  0
  2  1  1  6  0  0  0
  2  3  1  0  0  0  0
  2  5  1  0  0  0  0
  3  4  1  0  0  0  0
  3 10  1  0  0  0  0
  5  6  1  0  0  0  0
  6  7  1  0  0  0  0
  7  8  1  0  0  0  0
  8  9  1  0  0  0  0
M  END
>  <CHROM.1>
-12.81400395,-170.44925982,-178.45097638,179.95343599,-177.36916674,24.96073089
41.75928676,20.05886222,0.85287050,1.18551998,-0.39599799

>  <Name>
ligand

>  <RI>
0

>  <Rbt.Current_Directory>
/home/itssahil/PROJECTS/Mol_Feturizer/New_Systems/rnas/3D0U

>  <Rbt.Executable>
rbdock ($Id: //depot/dev/client3/rdock/2013.1/src/exe/rbdock.cxx#4 $)

>  <Rbt.Library>
libRbt.so (2013.1, Build901 2013/11/27)

>  <Rbt.Parameter_File>
/export/apps/rDock/src/rDock_2013.1_src/data/scripts/dock_solv.prm

>  <Rbt.Receptor>
prm/pocket_docking_6.prm

>  <SCORE>
-8.54176

>  <SCORE.INTER>
-7.52175

>  <SCORE.INTER.CONST>
1

>  <SCORE.INTER.POLAR>
0

>  <SCORE.INTER.ROT>
5

>  <SCORE.INTER.SOLV>
15.6217

>  <SCORE.INTER.VDW>
-17.1551

>  <SCORE.INTER.norm>
-0.752175

>  <SCORE.INTRA>
-1.02001

>  <SCORE.INTRA.DIHEDRAL>
-0.348928

>  <SCORE.INTRA.DIHEDRAL.0>
2.22229

>  <SCORE.INTRA.POLAR>
0

>  <SCORE.INTRA.POLAR.0>
0

>  <SCORE.INTRA.REPUL>
0

>  <SCORE.INTRA.REPUL.0>
0

>  <SCORE.INTRA.SOLV>
-1.58287

>  <SCORE.INTRA.SOLV.lig_0>
-31.87

>  <SCORE.INTRA.VDW>
-0.0541104

>  <SCORE.INTRA.VDW.0>
-0.575321

>  <SCORE.INTRA.norm>
-0.102001

>  <SCORE.RESTR>
0

>  <SCORE.RESTR.CAVITY>
0

>  <SCORE.RESTR.norm>
0

>  <SCORE.SYSTEM>
0

>  <SCORE.SYSTEM.CONST>
0

>  <SCORE.SYSTEM.DIHEDRAL>
0

>  <SCORE.SYSTEM.SOLV>
0

>  <SCORE.SYSTEM.norm>
0

>  <SCORE.heavy>
10

>  <SCORE.norm>
-0.854176

>  <RMSD>
5.438

$$$$
ligand
 OpenBabel11021811463D
libRbt.so/2013.1/901 2013/11/27
 10  9  0  0  0  0  0  0  0  0999 V2000
   25.6909   42.8674   17.9265 N   0  0  0  0  0  0  0  0  0  0  0  0
   24.2960   43.1919   18.1991 C   0  0  2  0  0  0  0  0  0  0  0  0
   24.1764   44.5534   18.8815 C   0  0  0  0  0  0  0  0  0  0  0  0
   25.1814   45.2543   19.0319 O   0  0  0  0  0  0  0  0  0  0  0  0
   23.6390   42.0968   19.0449 C   0  0  0  0  0  0  0  0  0  0  0  0
   24.3580   41.8292   20.3616 C   0  0  0  0  0  0  0  0  0  0  0  0
   23.7332   40.6721   21.1360 C   0  0  0  0  0  0  0  0  0  0  0  0
   24.3994   40.4701   22.5061 C   0  0  0  0  0  0  0  0  0  0  0  0
   24.2307   41.6168   23.4538 N   0  0  0  0  0  0  0  0  0  0  0  0
   23.0857   44.9843   19.2783 O   0  0  0  0  0  0  0  0  0  0  0  0
  2  1  1  1  0  0  0
  2  3  1  0  0  0  0
  2  5  1  0  0  0  0
  3  4  1  0  0  0  0
  3 10  1  0  0  0  0
  5  6  1  0  0  0  0
  6  7  1  0  0  0  0
  7  8  1  0  0  0  0
  8  9  1  0  0  0  0
M  END
>  <CHROM.1>
5.50917031,56.66244135,-176.21555058,-176.01016230,64.08185156,24.27615692
42.79108065,19.98710023,-1.31871908,-1.33282259,2.56432410

>  <Name>
ligand

>  <RI>
0

>  <Rbt.Current_Directory>
/home/itssahil/PROJECTS/Mol_Feturizer/New_Systems/rnas/3D0U

>  <Rbt.Executable>
rbdock ($Id: //depot/dev/client3/rdock/2013.1/src/exe/rbdock.cxx#4 $)

>  <Rbt.Library>
libRbt.so (2013.1, Build901 2013/11/27)

>  <Rbt.Parameter_File>
/export/apps/rDock/src/rDock_2013.1_src/data/scripts/dock_solv.prm

>  <Rbt.Receptor>
prm/pocket_docking_6.prm

>  <SCORE>
-7.54305

>  <SCORE.INTER>
-7.59617

>  <SCORE.INTER.CONST>
1

>  <SCORE.INTER.POLAR>
0

>  <SCORE.INTER.ROT>
5

>  <SCORE.INTER.SOLV>
16.0488

>  <SCORE.INTER.VDW>
-17.3471

>  <SCORE.INTER.norm>
-0.759617

>  <SCORE.INTRA>
0.0531254

>  <SCORE.INTRA.DIHEDRAL>
-0.513091

>  <SCORE.INTRA.DIHEDRAL.0>
2.22229

>  <SCORE.INTRA.POLAR>
0

>  <SCORE.INTRA.POLAR.0>
0

>  <SCORE.INTRA.REPUL>
0

>  <SCORE.INTRA.REPUL.0>
0

>  <SCORE.INTRA.SOLV>
0.204265

>  <SCORE.INTRA.SOLV.lig_0>
-31.87

>  <SCORE.INTRA.VDW>
0.207538

>  <SCORE.INTRA.VDW.0>
-0.575321

>  <SCORE.INTRA.norm>
0.00531254

>  <SCORE.RESTR>
0

>  <SCORE.RESTR.CAVITY>
0

>  <SCORE.RESTR.norm>
0

>  <SCORE.SYSTEM>
0

>  <SCORE.SYSTEM.CONST>
0

>  <SCORE.SYSTEM.DIHEDRAL>
0

>  <SCORE.SYSTEM.SOLV>
0

>  <SCORE.SYSTEM.norm>
0

>  <SCORE.heavy>
10

>  <SCORE.norm>
-0.754305

>  <RMSD>
5.439

$$$$
ligand
 OpenBabel11021811463D
libRbt.so/2013.1/901 2013/11/27
 10  9  0  0  0  0  0  0  0  0999 V2000
   25.0139   44.1296   19.2565 N   0  0  0  0  0  0  0  0  0  0  0  0
   25.5081   42.7583   19.2373 C   0  0  2  0  0  0  0  0  0  0  0  0
   25.5526   42.2149   17.8103 C   0  0  0  0  0  0  0  0  0  0  0  0
   24.8141   42.6977   16.9469 O   0  0  0  0  0  0  0  0  0  0  0  0
   24.6540   41.8606   20.1378 C   0  0  0  0  0  0  0  0  0  0  0  0
   24.7846   42.1837   21.6213 C   0  0  0  0  0  0  0  0  0  0  0  0
   23.9238   41.2701   22.4893 C   0  0  0  0  0  0  0  0  0  0  0  0
   24.4249   39.8175   22.4694 C   0  0  0  0  0  0  0  0  0  0  0  0
   23.6038   38.8661   23.2833 N   0  0  0  0  0  0  0  0  0  0  0  0
   26.3277   41.3044   17.4889 O   0  0  0  0  0  0  0  0  0  0  0  0
  2  1  1  6  0  0  0
  2  3  1  0  0  0  0
  2  5  1  0  0  0  0
  3  4  1  0  0  0  0
  3 10  1  0  0  0  0
  5  6  1  0  0  0  0
  6  7  1  0  0  0  0
  7  8  1  0  0  0  0
  8  9  1  0  0  0  0
M  END
>  <CHROM.1>
-24.32603194,-67.70019155,-179.89011267,67.61234431,-178.88378243,24.86625467
41.70378999,20.03223244,0.61735513,1.26254271,-0.16899943

>  <Name>
ligand

>  <RI>
0

>  <Rbt.Current_Directory>
/home/itssahil/PROJECTS/Mol_Feturizer/New_Systems/rnas/3D0U

>  <Rbt.Executable>
rbdock ($Id: //depot/dev/client3/rdock/2013.1/src/exe/rbdock.cxx#4 $)

>  <Rbt.Library>
libRbt.so (2013.1, Build901 2013/11/27)

>  <Rbt.Parameter_File>
/export/apps/rDock/src/rDock_2013.1_src/data/scripts/dock_solv.prm

>  <Rbt.Receptor>
prm/pocket_docking_5.prm

>  <SCORE>
-8.79842

>  <SCORE.INTER>
-8.68811

>  <SCORE.INTER.CONST>
1

>  <SCORE.INTER.POLAR>
0

>  <SCORE.INTER.ROT>
5

>  <SCORE.INTER.SOLV>
13.2209

>  <SCORE.INTER.VDW>
-17.1324

>  <SCORE.INTER.norm>
-0.868811

>  <SCORE.INTRA>
-0.110307

>  <SCORE.INTRA.DIHEDRAL>
-0.224196

>  <SCORE.INTRA.DIHEDRAL.0>
2.22229

>  <SCORE.INTRA.POLAR>
0

>  <SCORE.INTRA.POLAR.0>
0

>  <SCORE.INTRA.REPUL>
0

>  <SCORE.INTRA.REPUL.0>
0

>  <SCORE.INTRA.SOLV>
-0.598891

>  <SCORE.INTRA.SOLV.lig_0>
-31.87

>  <SCORE.INTRA.VDW>
0.301237

>  <SCORE.INTRA.VDW.0>
-0.575321

>  <SCORE.INTRA.norm>
-0.0110307

>  <SCORE.RESTR>
0

>  <SCORE.RESTR.CAVITY>
0

>  <SCORE.RESTR.norm>
0

>  <SCORE.SYSTEM>
0

>  <SCORE.SYSTEM.CONST>
0

>  <SCORE.SYSTEM.DIHEDRAL>
0

>  <SCORE.SYSTEM.SOLV>
0

>  <SCORE.SYSTEM.norm>
0

>  <SCORE.heavy>
10

>  <SCORE.norm>
-0.879842

>  <RMSD>
5.441

$$$$
ligand
 OpenBabel11021811463D
libRbt.so/2013.1/901 2013/11/27
 10  9  0  0  0  0  0  0  0  0999 V2000
   25.2566   42.3612   16.8997 N   0  0  0  0  0  0  0  0  0  0  0  0
   24.9208   42.3865   18.3180 C   0  0  2  0  0  0  0  0  0  0  0  0
   24.4716   43.7822   18.7470 C   0  0  0  0  0  0  0  0  0  0  0  0
   23.3820   43.9302   19.3080 O   0  0  0  0  0  0  0  0  0  0  0  0
   26.1043   41.9087   19.1650 C   0  0  0  0  0  0  0  0  0  0  0  0
   25.7803   41.7807   20.6486 C   0  0  0  0  0  0  0  0  0  0  0  0
   24.8527   40.6039   20.9377 C   0  0  0  0  0  0  0  0  0  0  0  0
   24.5659   40.4524   22.4399 C   0  0  0  0  0  0  0  0  0  0  0  0
   23.7170   39.2710   22.7940 N   0  0  0  0  0  0  0  0  0  0  0  0
   25.1842   44.7771   18.5591 O   0  0  0  0  0  0  0  0  0  0  0  0
  2  1  1  6  0  0  0
  2  3  1  0  0  0  0
  2  5  1  0  0  0  0
  3  4  1  0  0  0  0
  3 10  1  0  0  0  0
  5  6  1  0  0  0  0
  6  7  1  0  0  0  0
  7  8  1  0  0  0  0
  8  9  1  0  0  0  0
M  END
>  <CHROM.1>
125.45759296,-174.40351211,71.02280081,178.15724953,-177.01342193,24.81285604
42.16252395,19.78318497,-1.43315911,-0.88552050,2.41110078

>  <Name>
ligand

>  <RI>
0

>  <Rbt.Current_Directory>
/home/itssahil/PROJECTS/Mol_Feturizer/New_Systems/rnas/3D0U

>  <Rbt.Executable>
rbdock ($Id: //depot/dev/client3/rdock/2013.1/src/exe/rbdock.cxx#4 $)

>  <Rbt.Library>
libRbt.so (2013.1, Build901 2013/11/27)

>  <Rbt.Parameter_File>
/export/apps/rDock/src/rDock_2013.1_src/data/scripts/dock_solv.prm

>  <Rbt.Receptor>
prm/pocket_docking_5.prm

>  <SCORE>
-8.39387

>  <SCORE.INTER>
-7.44058

>  <SCORE.INTER.CONST>
1

>  <SCORE.INTER.POLAR>
0

>  <SCORE.INTER.ROT>
5

>  <SCORE.INTER.SOLV>
17.0892

>  <SCORE.INTER.VDW>
-17.5901

>  <SCORE.INTER.norm>
-0.744058

>  <SCORE.INTRA>
-0.953624

>  <SCORE.INTRA.DIHEDRAL>
-0.0947258

>  <SCORE.INTRA.DIHEDRAL.0>
2.22229

>  <SCORE.INTRA.POLAR>
0

>  <SCORE.INTRA.POLAR.0>
0

>  <SCORE.INTRA.REPUL>
0

>  <SCORE.INTRA.REPUL.0>
0

>  <SCORE.INTRA.SOLV>
-1.3846

>  <SCORE.INTRA.SOLV.lig_0>
-31.87

>  <SCORE.INTRA.VDW>
-0.213962

>  <SCORE.INTRA.VDW.0>
-0.575321

>  <SCORE.INTRA.norm>
-0.0953624

>  <SCORE.RESTR>
0.000331883

>  <SCORE.RESTR.CAVITY>
0.000331883

>  <SCORE.RESTR.norm>
3.31883e-05

>  <SCORE.SYSTEM>
0

>  <SCORE.SYSTEM.CONST>
0

>  <SCORE.SYSTEM.DIHEDRAL>
0

>  <SCORE.SYSTEM.SOLV>
0

>  <SCORE.SYSTEM.norm>
0

>  <SCORE.heavy>
10

>  <SCORE.norm>
-0.839387

>  <RMSD>
5.441

$$$$
ligand
 OpenBabel11021811463D
libRbt.so/2013.1/901 2013/11/27
 10  9  0  0  0  0  0  0  0  0999 V2000
   25.0604   42.9115   17.2943 N   0  0  0  0  0  0  0  0  0  0  0  0
   24.3268   43.2163   18.5166 C   0  0  2  0  0  0  0  0  0  0  0  0
   24.1553   44.7247   18.6875 C   0  0  0  0  0  0  0  0  0  0  0  0
   23.1835   45.1648   19.3088 O   0  0  0  0  0  0  0  0  0  0  0  0
   25.0235   42.6037   19.7354 C   0  0  0  0  0  0  0  0  0  0  0  0
   25.1887   41.0913   19.6473 C   0  0  0  0  0  0  0  0  0  0  0  0
   25.8638   40.5109   20.8868 C   0  0  0  0  0  0  0  0  0  0  0  0
   24.9094   40.4569   22.0901 C   0  0  0  0  0  0  0  0  0  0  0  0
   24.4377   41.7947   22.5692 N   0  0  0  0  0  0  0  0  0  0  0  0
   24.9804   45.5255   18.2285 O   0  0  0  0  0  0  0  0  0  0  0  0
  2  1  1  6  0  0  0
  2  3  1  0  0  0  0
  2  5  1  0  0  0  0
  3  4  1  0  0  0  0
  3 10  1  0  0  0  0
  5  6  1  0  0  0  0
  6  7  1  0  0  0  0
  7  8  1  0  0  0  0
  8  9  1  0  0  0  0
M  END
>  <CHROM.1>
151.93419884,-58.12775772,-179.00678511,75.18487349,-63.63578472,24.70601383
42.84084446,19.69328153,-1.90900879,-1.08290984,2.16071192

>  <Name>
ligand

>  <RI>
0

>  <Rbt.Current_Directory>
/home/itssahil/PROJECTS/Mol_Feturizer/New_Systems/rnas/3D0U

>  <Rbt.Executable>
rbdock ($Id: //depot/dev/client3/rdock/2013.1/src/exe/rbdock.cxx#4 $)

>  <Rbt.Library>
libRbt.so (2013.1, Build901 2013/11/27)

>  <Rbt.Parameter_File>
/export/apps/rDock/src/rDock_2013.1_src/data/scripts/dock_solv.prm

>  <Rbt.Receptor>
prm/pocket_docking_5.prm

>  <SCORE>
-7.3563

>  <SCORE.INTER>
-8.50351

>  <SCORE.INTER.CONST>
1

>  <SCORE.INTER.POLAR>
0

>  <SCORE.INTER.ROT>
5

>  <SCORE.INTER.SOLV>
16.233

>  <SCORE.INTER.VDW>
-18.0133

>  <SCORE.INTER.norm>
-0.850351

>  <SCORE.INTRA>
1.14721

>  <SCORE.INTRA.DIHEDRAL>
0.205677

>  <SCORE.INTRA.DIHEDRAL.0>
2.22229

>  <SCORE.INTRA.POLAR>
0

>  <SCORE.INTRA.POLAR.0>
0

>  <SCORE.INTRA.REPUL>
0

>  <SCORE.INTRA.REPUL.0>
0

>  <SCORE.INTRA.SOLV>
1.54562

>  <SCORE.INTRA.SOLV.lig_0>
-31.87

>  <SCORE.INTRA.VDW>
0.271559

>  <SCORE.INTRA.VDW.0>
-0.575321

>  <SCORE.INTRA.norm>
0.114721

>  <SCORE.RESTR>
0

>  <SCORE.RESTR.CAVITY>
0

>  <SCORE.RESTR.norm>
0

>  <SCORE.SYSTEM>
0

>  <SCORE.SYSTEM.CONST>
0

>  <SCORE.SYSTEM.DIHEDRAL>
0

>  <SCORE.SYSTEM.SOLV>
0

>  <SCORE.SYSTEM.norm>
0

>  <SCORE.heavy>
10

>  <SCORE.norm>
-0.73563

>  <RMSD>
5.441

$$$$
ligand
 OpenBabel11021811463D
libRbt.so/2013.1/901 2013/11/27
 10  9  0  0  0  0  0  0  0  0999 V2000
   25.0008   44.1453   19.2570 N   0  0  0  0  0  0  0  0  0  0  0  0
   25.5029   42.7769   19.2341 C   0  0  2  0  0  0  0  0  0  0  0  0
   25.5457   42.2357   17.8061 C   0  0  0  0  0  0  0  0  0  0  0  0
   26.3161   41.3137   17.5227 O   0  0  0  0  0  0  0  0  0  0  0  0
   24.6570   41.8729   20.1362 C   0  0  0  0  0  0  0  0  0  0  0  0
   24.7624   42.2181   21.6167 C   0  0  0  0  0  0  0  0  0  0  0  0
   23.9202   41.2900   22.4875 C   0  0  0  0  0  0  0  0  0  0  0  0
   24.4600   39.8511   22.4847 C   0  0  0  0  0  0  0  0  0  0  0  0
   23.6834   38.8949   23.3358 N   0  0  0  0  0  0  0  0  0  0  0  0
   24.8108   42.6909   16.9198 O   0  0  0  0  0  0  0  0  0  0  0  0
  2  1  1  6  0  0  0
  2  3  1  0  0  0  0
  2  5  1  0  0  0  0
  3  4  1  0  0  0  0
  3 10  1  0  0  0  0
  5  6  1  0  0  0  0
  6  7  1  0  0  0  0
  7  8  1  0  0  0  0
  8  9  1  0  0  0  0
M  END
>  <CHROM.1>
156.29575148,-66.18206525,-179.38337949,67.28545312,179.31589595,24.87131602
41.72193105,20.03831782,0.66677952,1.26253076,-0.22376514

>  <Name>
ligand

>  <RI>
0

>  <Rbt.Current_Directory>
/home/itssahil/PROJECTS/Mol_Feturizer/New_Systems/rnas/3D0U

>  <Rbt.Executable>
rbdock ($Id: //depot/dev/client3/rdock/2013.1/src/exe/rbdock.cxx#4 $)

>  <Rbt.Library>
libRbt.so (2013.1, Build901 2013/11/27)

>  <Rbt.Parameter_File>
/export/apps/rDock/src/rDock_2013.1_src/data/scripts/dock_solv.prm

>  <Rbt.Receptor>
prm/pocket_docking_6.prm

>  <SCORE>
-8.89928

>  <SCORE.INTER>
-8.70891

>  <SCORE.INTER.CONST>
1

>  <SCORE.INTER.POLAR>
0

>  <SCORE.INTER.ROT>
5

>  <SCORE.INTER.SOLV>
13.1991

>  <SCORE.INTER.VDW>
-17.139

>  <SCORE.INTER.norm>
-0.870891

>  <SCORE.INTRA>
-0.190376

>  <SCORE.INTRA.DIHEDRAL>
-0.390309

>  <SCORE.INTRA.DIHEDRAL.0>
2.22229

>  <SCORE.INTRA.POLAR>
0

>  <SCORE.INTRA.POLAR.0>
0

>  <SCORE.INTRA.REPUL>
0

>  <SCORE.INTRA.REPUL.0>
0

>  <SCORE.INTRA.SOLV>
-0.602103

>  <SCORE.INTRA.SOLV.lig_0>
-31.87

>  <SCORE.INTRA.VDW>
0.30583

>  <SCORE.INTRA.VDW.0>
-0.575321

>  <SCORE.INTRA.norm>
-0.0190376

>  <SCORE.RESTR>
0

>  <SCORE.RESTR.CAVITY>
0

>  <SCORE.RESTR.norm>
0

>  <SCORE.SYSTEM>
0

>  <SCORE.SYSTEM.CONST>
0

>  <SCORE.SYSTEM.DIHEDRAL>
0

>  <SCORE.SYSTEM.SOLV>
0

>  <SCORE.SYSTEM.norm>
0

>  <SCORE.heavy>
10

>  <SCORE.norm>
-0.889928

>  <RMSD>
5.442

$$$$
ligand
 OpenBabel11021811463D
libRbt.so/2013.1/901 2013/11/27
 10  9  0  0  0  0  0  0  0  0999 V2000
   25.2407   44.7464   18.6328 N   0  0  0  0  0  0  0  0  0  0  0  0
   25.4726   43.3547   18.9996 C   0  0  2  0  0  0  0  0  0  0  0  0
   25.4723   42.4577   17.7630 C   0  0  0  0  0  0  0  0  0  0  0  0
   24.6020   42.6039   16.8998 O   0  0  0  0  0  0  0  0  0  0  0  0
   24.4320   42.8809   20.0189 C   0  0  0  0  0  0  0  0  0  0  0  0
   24.6861   41.4716   20.5399 C   0  0  0  0  0  0  0  0  0  0  0  0
   23.5653   40.9826   21.4529 C   0  0  0  0  0  0  0  0  0  0  0  0
   23.8601   39.5894   22.0308 C   0  0  0  0  0  0  0  0  0  0  0  0
   25.0167   39.5430   22.9804 N   0  0  0  0  0  0  0  0  0  0  0  0
   26.3386   41.5895   17.5936 O   0  0  0  0  0  0  0  0  0  0  0  0
  2  1  1  6  0  0  0
  2  3  1  0  0  0  0
  2  5  1  0  0  0  0
  3  4  1  0  0  0  0
  3 10  1  0  0  0  0
  5  6  1  0  0  0  0
  6  7  1  0  0  0  0
  7  8  1  0  0  0  0
  8  9  1  0  0  0  0
M  END
>  <CHROM.1>
-44.49699213,-174.94573019,-174.75727522,-177.15633518,66.72907034,24.87244949
41.90891001,19.65501229,0.99998609,1.20474297,-0.42239335

>  <Name>
ligand

>  <RI>
0

>  <Rbt.Current_Directory>
/home/itssahil/PROJECTS/Mol_Feturizer/New_Systems/rnas/3D0U

>  <Rbt.Executable>
rbdock ($Id: //depot/dev/client3/rdock/2013.1/src/exe/rbdock.cxx#4 $)

>  <Rbt.Library>
libRbt.so (2013.1, Build901 2013/11/27)

>  <Rbt.Parameter_File>
/export/apps/rDock/src/rDock_2013.1_src/data/scripts/dock_solv.prm

>  <Rbt.Receptor>
prm/pocket_docking_7.prm

>  <SCORE>
-7.24195

>  <SCORE.INTER>
-6.43981

>  <SCORE.INTER.CONST>
1

>  <SCORE.INTER.POLAR>
0

>  <SCORE.INTER.ROT>
5

>  <SCORE.INTER.SOLV>
16.7215

>  <SCORE.INTER.VDW>
-16.8004

>  <SCORE.INTER.norm>
-0.643981

>  <SCORE.INTRA>
-0.802344

>  <SCORE.INTRA.DIHEDRAL>
-0.313411

>  <SCORE.INTRA.DIHEDRAL.0>
2.22229

>  <SCORE.INTRA.POLAR>
0

>  <SCORE.INTRA.POLAR.0>
0

>  <SCORE.INTRA.REPUL>
0

>  <SCORE.INTRA.REPUL.0>
0

>  <SCORE.INTRA.SOLV>
-0.789875

>  <SCORE.INTRA.SOLV.lig_0>
-31.87

>  <SCORE.INTRA.VDW>
-0.250701

>  <SCORE.INTRA.VDW.0>
-0.575321

>  <SCORE.INTRA.norm>
-0.0802344

>  <SCORE.RESTR>
0.000199332

>  <SCORE.RESTR.CAVITY>
0.000199332

>  <SCORE.RESTR.norm>
1.99332e-05

>  <SCORE.SYSTEM>
0

>  <SCORE.SYSTEM.CONST>
0

>  <SCORE.SYSTEM.DIHEDRAL>
0

>  <SCORE.SYSTEM.SOLV>
0

>  <SCORE.SYSTEM.norm>
0

>  <SCORE.heavy>
10

>  <SCORE.norm>
-0.724195

>  <RMSD>
5.443

$$$$
ligand
 OpenBabel11021811463D
libRbt.so/2013.1/901 2013/11/27
 10  9  0  0  0  0  0  0  0  0999 V2000
   25.0430   43.9019   19.6558 N   0  0  0  0  0  0  0  0  0  0  0  0
   25.7300   42.8247   18.9539 C   0  0  2  0  0  0  0  0  0  0  0  0
   24.9710   42.4272   17.6890 C   0  0  0  0  0  0  0  0  0  0  0  0
   25.5887   42.2395   16.6368 O   0  0  0  0  0  0  0  0  0  0  0  0
   25.9288   41.6167   19.8745 C   0  0  0  0  0  0  0  0  0  0  0  0
   24.6277   41.0591   20.4388 C   0  0  0  0  0  0  0  0  0  0  0  0
   24.8699   40.0045   21.5149 C   0  0  0  0  0  0  0  0  0  0  0  0
   23.5549   39.4726   22.1061 C   0  0  0  0  0  0  0  0  0  0  0  0
   23.7275   38.5310   23.2573 N   0  0  0  0  0  0  0  0  0  0  0  0
   23.7427   42.2718   17.6938 O   0  0  0  0  0  0  0  0  0  0  0  0
  2  1  1  1  0  0  0
  2  3  1  0  0  0  0
  2  5  1  0  0  0  0
  3  4  1  0  0  0  0
  3 10  1  0  0  0  0
  5  6  1  0  0  0  0
  6  7  1  0  0  0  0
  7  8  1  0  0  0  0
  8  9  1  0  0  0  0
M  END
>  <CHROM.1>
135.80584354,58.14491781,-171.05344349,178.50313878,-174.45515827,24.76583536
41.43380715,19.74426186,-1.19377215,1.02568285,1.87466305

>  <Name>
ligand

>  <RI>
0

>  <Rbt.Current_Directory>
/home/itssahil/PROJECTS/Mol_Feturizer/New_Systems/rnas/3D0U

>  <Rbt.Executable>
rbdock ($Id: //depot/dev/client3/rdock/2013.1/src/exe/rbdock.cxx#4 $)

>  <Rbt.Library>
libRbt.so (2013.1, Build901 2013/11/27)

>  <Rbt.Parameter_File>
/export/apps/rDock/src/rDock_2013.1_src/data/scripts/dock_solv.prm

>  <Rbt.Receptor>
prm/pocket_docking_3.prm

>  <SCORE>
-8.99704

>  <SCORE.INTER>
-8.43106

>  <SCORE.INTER.CONST>
1

>  <SCORE.INTER.POLAR>
0

>  <SCORE.INTER.ROT>
5

>  <SCORE.INTER.SOLV>
13.558

>  <SCORE.INTER.VDW>
-17.0734

>  <SCORE.INTER.norm>
-0.843106

>  <SCORE.INTRA>
-0.565978

>  <SCORE.INTRA.DIHEDRAL>
-0.295421

>  <SCORE.INTRA.DIHEDRAL.0>
2.22229

>  <SCORE.INTRA.POLAR>
0

>  <SCORE.INTRA.POLAR.0>
0

>  <SCORE.INTRA.REPUL>
0

>  <SCORE.INTRA.REPUL.0>
0

>  <SCORE.INTRA.SOLV>
-0.660001

>  <SCORE.INTRA.SOLV.lig_0>
-31.87

>  <SCORE.INTRA.VDW>
-0.0882667

>  <SCORE.INTRA.VDW.0>
-0.575321

>  <SCORE.INTRA.norm>
-0.0565978

>  <SCORE.RESTR>
0

>  <SCORE.RESTR.CAVITY>
0

>  <SCORE.RESTR.norm>
0

>  <SCORE.SYSTEM>
0

>  <SCORE.SYSTEM.CONST>
0

>  <SCORE.SYSTEM.DIHEDRAL>
0

>  <SCORE.SYSTEM.SOLV>
0

>  <SCORE.SYSTEM.norm>
0

>  <SCORE.heavy>
10

>  <SCORE.norm>
-0.899704

>  <RMSD>
5.444

$$$$
ligand
 OpenBabel11021811463D
libRbt.so/2013.1/901 2013/11/27
 10  9  0  0  0  0  0  0  0  0999 V2000
   25.0372   44.1465   19.2556 N   0  0  0  0  0  0  0  0  0  0  0  0
   25.5125   42.7688   19.2227 C   0  0  2  0  0  0  0  0  0  0  0  0
   25.5363   42.2344   17.7917 C   0  0  0  0  0  0  0  0  0  0  0  0
   24.7294   42.6654   16.9628 O   0  0  0  0  0  0  0  0  0  0  0  0
   24.6548   41.8766   20.1253 C   0  0  0  0  0  0  0  0  0  0  0  0
   24.8002   42.1909   21.6093 C   0  0  0  0  0  0  0  0  0  0  0  0
   23.9320   41.2861   22.4791 C   0  0  0  0  0  0  0  0  0  0  0  0
   24.4057   39.8246   22.4416 C   0  0  0  0  0  0  0  0  0  0  0  0
   23.5670   38.8792   23.2444 N   0  0  0  0  0  0  0  0  0  0  0  0
   26.3607   41.3832   17.4329 O   0  0  0  0  0  0  0  0  0  0  0  0
  2  1  1  6  0  0  0
  2  3  1  0  0  0  0
  2  5  1  0  0  0  0
  3  4  1  0  0  0  0
  3 10  1  0  0  0  0
  5  6  1  0  0  0  0
  6  7  1  0  0  0  0
  7  8  1  0  0  0  0
  8  9  1  0  0  0  0
M  END
>  <CHROM.1>
-29.57812983,-67.51423203,179.93093134,67.22385109,-178.24819656,24.85859993
41.71926671,20.01459217,0.55820558,1.27170105,-0.10745392

>  <Name>
ligand

>  <RI>
0

>  <Rbt.Current_Directory>
/home/itssahil/PROJECTS/Mol_Feturizer/New_Systems/rnas/3D0U

>  <Rbt.Executable>
rbdock ($Id: //depot/dev/client3/rdock/2013.1/src/exe/rbdock.cxx#4 $)

>  <Rbt.Library>
libRbt.so (2013.1, Build901 2013/11/27)

>  <Rbt.Parameter_File>
/export/apps/rDock/src/rDock_2013.1_src/data/scripts/dock_solv.prm

>  <Rbt.Receptor>
prm/pocket_docking_7.prm

>  <SCORE>
-8.78601

>  <SCORE.INTER>
-8.6521

>  <SCORE.INTER.CONST>
1

>  <SCORE.INTER.POLAR>
0

>  <SCORE.INTER.ROT>
5

>  <SCORE.INTER.SOLV>
13.2921

>  <SCORE.INTER.VDW>
-17.1321

>  <SCORE.INTER.norm>
-0.86521

>  <SCORE.INTRA>
-0.133913

>  <SCORE.INTRA.DIHEDRAL>
-0.251264

>  <SCORE.INTRA.DIHEDRAL.0>
2.22229

>  <SCORE.INTRA.POLAR>
0

>  <SCORE.INTRA.POLAR.0>
0

>  <SCORE.INTRA.REPUL>
0

>  <SCORE.INTRA.REPUL.0>
0

>  <SCORE.INTRA.SOLV>
-0.591419

>  <SCORE.INTRA.SOLV.lig_0>
-31.87

>  <SCORE.INTRA.VDW>
0.287429

>  <SCORE.INTRA.VDW.0>
-0.575321

>  <SCORE.INTRA.norm>
-0.0133913

>  <SCORE.RESTR>
0

>  <SCORE.RESTR.CAVITY>
0

>  <SCORE.RESTR.norm>
0

>  <SCORE.SYSTEM>
0

>  <SCORE.SYSTEM.CONST>
0

>  <SCORE.SYSTEM.DIHEDRAL>
0

>  <SCORE.SYSTEM.SOLV>
0

>  <SCORE.SYSTEM.norm>
0

>  <SCORE.heavy>
10

>  <SCORE.norm>
-0.878601

>  <RMSD>
5.445

$$$$
ligand
 OpenBabel11021811463D
libRbt.so/2013.1/901 2013/11/27
 10  9  0  0  0  0  0  0  0  0999 V2000
   25.2553   44.5090   18.5613 N   0  0  0  0  0  0  0  0  0  0  0  0
   25.5843   43.2007   19.1137 C   0  0  2  0  0  0  0  0  0  0  0  0
   25.6444   42.1435   18.0125 C   0  0  0  0  0  0  0  0  0  0  0  0
   25.1562   42.3839   16.9045 O   0  0  0  0  0  0  0  0  0  0  0  0
   24.5808   42.8019   20.2001 C   0  0  0  0  0  0  0  0  0  0  0  0
   25.0052   41.5782   21.0030 C   0  0  0  0  0  0  0  0  0  0  0  0
   23.9973   41.2244   22.0929 C   0  0  0  0  0  0  0  0  0  0  0  0
   24.3921   39.9462   22.8492 C   0  0  0  0  0  0  0  0  0  0  0  0
   23.3996   39.5019   23.8784 N   0  0  0  0  0  0  0  0  0  0  0  0
   26.1882   41.0468   18.1980 O   0  0  0  0  0  0  0  0  0  0  0  0
  2  1  1  6  0  0  0
  2  3  1  0  0  0  0
  2  5  1  0  0  0  0
  3  4  1  0  0  0  0
  3 10  1  0  0  0  0
  5  6  1  0  0  0  0
  6  7  1  0  0  0  0
  7  8  1  0  0  0  0
  8  9  1  0  0  0  0
M  END
>  <CHROM.1>
-15.48883216,-169.05845289,178.91204596,176.91887978,-176.56872113,24.92644258
41.81610045,20.04676298,0.75875119,1.20149150,-0.31392965

>  <Name>
ligand

>  <RI>
0

>  <Rbt.Current_Directory>
/home/itssahil/PROJECTS/Mol_Feturizer/New_Systems/rnas/3D0U

>  <Rbt.Executable>
rbdock ($Id: //depot/dev/client3/rdock/2013.1/src/exe/rbdock.cxx#4 $)

>  <Rbt.Library>
libRbt.so (2013.1, Build901 2013/11/27)

>  <Rbt.Parameter_File>
/export/apps/rDock/src/rDock_2013.1_src/data/scripts/dock_solv.prm

>  <Rbt.Receptor>
prm/pocket_docking_6.prm

>  <SCORE>
-8.62317

>  <SCORE.INTER>
-7.61466

>  <SCORE.INTER.CONST>
1

>  <SCORE.INTER.POLAR>
0

>  <SCORE.INTER.ROT>
5

>  <SCORE.INTER.SOLV>
15.8484

>  <SCORE.INTER.VDW>
-17.2926

>  <SCORE.INTER.norm>
-0.761466

>  <SCORE.INTRA>
-1.00852

>  <SCORE.INTRA.DIHEDRAL>
-0.187047

>  <SCORE.INTRA.DIHEDRAL.0>
2.22229

>  <SCORE.INTRA.POLAR>
0

>  <SCORE.INTRA.POLAR.0>
0

>  <SCORE.INTRA.REPUL>
0

>  <SCORE.INTRA.REPUL.0>
0

>  <SCORE.INTRA.SOLV>
-1.58125

>  <SCORE.INTRA.SOLV.lig_0>
-31.87

>  <SCORE.INTRA.VDW>
-0.124366

>  <SCORE.INTRA.VDW.0>
-0.575321

>  <SCORE.INTRA.norm>
-0.100852

>  <SCORE.RESTR>
0

>  <SCORE.RESTR.CAVITY>
0

>  <SCORE.RESTR.norm>
0

>  <SCORE.SYSTEM>
0

>  <SCORE.SYSTEM.CONST>
0

>  <SCORE.SYSTEM.DIHEDRAL>
0

>  <SCORE.SYSTEM.SOLV>
0

>  <SCORE.SYSTEM.norm>
0

>  <SCORE.heavy>
10

>  <SCORE.norm>
-0.862317

>  <RMSD>
5.446

$$$$
ligand
 OpenBabel11021811463D
libRbt.so/2013.1/901 2013/11/27
 10  9  0  0  0  0  0  0  0  0999 V2000
   25.1535   44.4793   18.5836 N   0  0  0  0  0  0  0  0  0  0  0  0
   25.5443   43.1872   19.1339 C   0  0  2  0  0  0  0  0  0  0  0  0
   25.6788   42.1419   18.0279 C   0  0  0  0  0  0  0  0  0  0  0  0
   25.2361   42.3815   16.9007 O   0  0  0  0  0  0  0  0  0  0  0  0
   24.5473   42.7277   20.2021 C   0  0  0  0  0  0  0  0  0  0  0  0
   25.0185   41.5144   20.9947 C   0  0  0  0  0  0  0  0  0  0  0  0
   24.0073   41.0895   22.0558 C   0  0  0  0  0  0  0  0  0  0  0  0
   24.5002   39.8830   22.8703 C   0  0  0  0  0  0  0  0  0  0  0  0
   23.5265   39.3842   23.8924 N   0  0  0  0  0  0  0  0  0  0  0  0
   26.2388   41.0561   18.2289 O   0  0  0  0  0  0  0  0  0  0  0  0
  2  1  1  6  0  0  0
  2  3  1  0  0  0  0
  2  5  1  0  0  0  0
  3  4  1  0  0  0  0
  3 10  1  0  0  0  0
  5  6  1  0  0  0  0
  6  7  1  0  0  0  0
  7  8  1  0  0  0  0
  8  9  1  0  0  0  0
M  END
>  <CHROM.1>
-12.99838628,-169.67556011,179.59237756,-178.86602761,-177.67770870,24.95270704
41.76748207,20.05440322,0.88553406,1.16987106,-0.43093620

>  <Name>
ligand

>  <RI>
0

>  <Rbt.Current_Directory>
/home/itssahil/PROJECTS/Mol_Feturizer/New_Systems/rnas/3D0U

>  <Rbt.Executable>
rbdock ($Id: //depot/dev/client3/rdock/2013.1/src/exe/rbdock.cxx#4 $)

>  <Rbt.Library>
libRbt.so (2013.1, Build901 2013/11/27)

>  <Rbt.Parameter_File>
/export/apps/rDock/src/rDock_2013.1_src/data/scripts/dock_solv.prm

>  <Rbt.Receptor>
prm/pocket_docking_8.prm

>  <SCORE>
-8.55779

>  <SCORE.INTER>
-7.54271

>  <SCORE.INTER.CONST>
1

>  <SCORE.INTER.POLAR>
0

>  <SCORE.INTER.ROT>
5

>  <SCORE.INTER.SOLV>
15.5867

>  <SCORE.INTER.VDW>
-17.1574

>  <SCORE.INTER.norm>
-0.754271

>  <SCORE.INTRA>
-1.01509

>  <SCORE.INTRA.DIHEDRAL>
-0.301173

>  <SCORE.INTRA.DIHEDRAL.0>
2.22229

>  <SCORE.INTRA.POLAR>
0

>  <SCORE.INTRA.POLAR.0>
0

>  <SCORE.INTRA.REPUL>
0

>  <SCORE.INTRA.REPUL.0>
0

>  <SCORE.INTRA.SOLV>
-1.58201

>  <SCORE.INTRA.SOLV.lig_0>
-31.87

>  <SCORE.INTRA.VDW>
-0.0734957

>  <SCORE.INTRA.VDW.0>
-0.575321

>  <SCORE.INTRA.norm>
-0.101509

>  <SCORE.RESTR>
0

>  <SCORE.RESTR.CAVITY>
0

>  <SCORE.RESTR.norm>
0

>  <SCORE.SYSTEM>
0

>  <SCORE.SYSTEM.CONST>
0

>  <SCORE.SYSTEM.DIHEDRAL>
0

>  <SCORE.SYSTEM.SOLV>
0

>  <SCORE.SYSTEM.norm>
0

>  <SCORE.heavy>
10

>  <SCORE.norm>
-0.855779

>  <RMSD>
5.447

$$$$
ligand
 OpenBabel11021811463D
libRbt.so/2013.1/901 2013/11/27
 10  9  0  0  0  0  0  0  0  0999 V2000
   25.0578   44.1702   19.2557 N   0  0  0  0  0  0  0  0  0  0  0  0
   25.5210   42.7882   19.2275 C   0  0  2  0  0  0  0  0  0  0  0  0
   25.5505   42.2523   17.7972 C   0  0  0  0  0  0  0  0  0  0  0  0
   24.7735   42.7108   16.9545 O   0  0  0  0  0  0  0  0  0  0  0  0
   24.6488   41.9046   20.1246 C   0  0  0  0  0  0  0  0  0  0  0  0
   24.7629   42.2396   21.6068 C   0  0  0  0  0  0  0  0  0  0  0  0
   23.9136   41.3152   22.4748 C   0  0  0  0  0  0  0  0  0  0  0  0
   24.4601   39.8790   22.4922 C   0  0  0  0  0  0  0  0  0  0  0  0
   23.6312   38.9086   23.2750 N   0  0  0  0  0  0  0  0  0  0  0  0
   26.3505   41.3725   17.4526 O   0  0  0  0  0  0  0  0  0  0  0  0
  2  1  1  6  0  0  0
  2  3  1  0  0  0  0
  2  5  1  0  0  0  0
  3  4  1  0  0  0  0
  3 10  1  0  0  0  0
  5  6  1  0  0  0  0
  6  7  1  0  0  0  0
  7  8  1  0  0  0  0
  8  9  1  0  0  0  0
M  END
>  <CHROM.1>
-27.97374659,-66.23240111,-178.32795980,68.85739267,-177.20851289,24.87213408
41.74770353,20.02411365,0.61385288,1.26510649,-0.16897021

>  <Name>
ligand

>  <RI>
0

>  <Rbt.Current_Directory>
/home/itssahil/PROJECTS/Mol_Feturizer/New_Systems/rnas/3D0U

>  <Rbt.Executable>
rbdock ($Id: //depot/dev/client3/rdock/2013.1/src/exe/rbdock.cxx#4 $)

>  <Rbt.Library>
libRbt.so (2013.1, Build901 2013/11/27)

>  <Rbt.Parameter_File>
/export/apps/rDock/src/rDock_2013.1_src/data/scripts/dock_solv.prm

>  <Rbt.Receptor>
prm/pocket_docking_8.prm

>  <SCORE>
-8.81683

>  <SCORE.INTER>
-8.68425

>  <SCORE.INTER.CONST>
1

>  <SCORE.INTER.POLAR>
0

>  <SCORE.INTER.ROT>
5

>  <SCORE.INTER.SOLV>
13.2878

>  <SCORE.INTER.VDW>
-17.1521

>  <SCORE.INTER.norm>
-0.868425

>  <SCORE.INTRA>
-0.132574

>  <SCORE.INTRA.DIHEDRAL>
-0.185554

>  <SCORE.INTRA.DIHEDRAL.0>
2.22229

>  <SCORE.INTRA.POLAR>
0

>  <SCORE.INTRA.POLAR.0>
0

>  <SCORE.INTRA.REPUL>
0

>  <SCORE.INTRA.REPUL.0>
0

>  <SCORE.INTRA.SOLV>
-0.586008

>  <SCORE.INTRA.SOLV.lig_0>
-31.87

>  <SCORE.INTRA.VDW>
0.253207

>  <SCORE.INTRA.VDW.0>
-0.575321

>  <SCORE.INTRA.norm>
-0.0132574

>  <SCORE.RESTR>
0

>  <SCORE.RESTR.CAVITY>
0

>  <SCORE.RESTR.norm>
0

>  <SCORE.SYSTEM>
0

>  <SCORE.SYSTEM.CONST>
0

>  <SCORE.SYSTEM.DIHEDRAL>
0

>  <SCORE.SYSTEM.SOLV>
0

>  <SCORE.SYSTEM.norm>
0

>  <SCORE.heavy>
10

>  <SCORE.norm>
-0.881683

>  <RMSD>
5.448

$$$$
ligand
 OpenBabel11021811463D
libRbt.so/2013.1/901 2013/11/27
 10  9  0  0  0  0  0  0  0  0999 V2000
   25.3600   42.4621   16.9006 N   0  0  0  0  0  0  0  0  0  0  0  0
   24.6372   42.3716   18.1634 C   0  0  2  0  0  0  0  0  0  0  0  0
   24.3824   43.7605   18.7463 C   0  0  0  0  0  0  0  0  0  0  0  0
   23.2914   44.0176   19.2635 O   0  0  0  0  0  0  0  0  0  0  0  0
   25.3953   41.4906   19.1611 C   0  0  0  0  0  0  0  0  0  0  0  0
   24.6193   41.2142   20.4431 C   0  0  0  0  0  0  0  0  0  0  0  0
   25.4377   40.4142   21.4526 C   0  0  0  0  0  0  0  0  0  0  0  0
   24.6517   40.1425   22.7449 C   0  0  0  0  0  0  0  0  0  0  0  0
   23.4738   39.2339   22.5760 N   0  0  0  0  0  0  0  0  0  0  0  0
   25.2540   44.6396   18.7276 O   0  0  0  0  0  0  0  0  0  0  0  0
  2  1  1  6  0  0  0
  2  3  1  0  0  0  0
  2  5  1  0  0  0  0
  3  4  1  0  0  0  0
  3 10  1  0  0  0  0
  5  6  1  0  0  0  0
  6  7  1  0  0  0  0
  7  8  1  0  0  0  0
  8  9  1  0  0  0  0
M  END
>  <CHROM.1>
138.89473098,-173.04825245,-176.14361516,179.81397773,66.69588578,24.64370437
42.01245710,19.82205764,-1.45397523,-0.99052025,2.41581856

>  <Name>
ligand

>  <RI>
0

>  <Rbt.Current_Directory>
/home/itssahil/PROJECTS/Mol_Feturizer/New_Systems/rnas/3D0U

>  <Rbt.Executable>
rbdock ($Id: //depot/dev/client3/rdock/2013.1/src/exe/rbdock.cxx#4 $)

>  <Rbt.Library>
libRbt.so (2013.1, Build901 2013/11/27)

>  <Rbt.Parameter_File>
/export/apps/rDock/src/rDock_2013.1_src/data/scripts/dock_solv.prm

>  <Rbt.Receptor>
prm/pocket_docking_4.prm

>  <SCORE>
-8.13526

>  <SCORE.INTER>
-7.25282

>  <SCORE.INTER.CONST>
1

>  <SCORE.INTER.POLAR>
0

>  <SCORE.INTER.ROT>
5

>  <SCORE.INTER.SOLV>
17.4413

>  <SCORE.INTER.VDW>
-17.5823

>  <SCORE.INTER.norm>
-0.725282

>  <SCORE.INTRA>
-0.882438

>  <SCORE.INTRA.DIHEDRAL>
-0.361838

>  <SCORE.INTRA.DIHEDRAL.0>
2.22229

>  <SCORE.INTRA.POLAR>
0

>  <SCORE.INTRA.POLAR.0>
0

>  <SCORE.INTRA.REPUL>
0

>  <SCORE.INTRA.REPUL.0>
0

>  <SCORE.INTRA.SOLV>
-0.816194

>  <SCORE.INTRA.SOLV.lig_0>
-31.87

>  <SCORE.INTRA.VDW>
-0.293422

>  <SCORE.INTRA.VDW.0>
-0.575321

>  <SCORE.INTRA.norm>
-0.0882438

>  <SCORE.RESTR>
0

>  <SCORE.RESTR.CAVITY>
0

>  <SCORE.RESTR.norm>
0

>  <SCORE.SYSTEM>
0

>  <SCORE.SYSTEM.CONST>
0

>  <SCORE.SYSTEM.DIHEDRAL>
0

>  <SCORE.SYSTEM.SOLV>
0

>  <SCORE.SYSTEM.norm>
0

>  <SCORE.heavy>
10

>  <SCORE.norm>
-0.813526

>  <RMSD>
5.449

$$$$
ligand
 OpenBabel11021811463D
libRbt.so/2013.1/901 2013/11/27
 10  9  0  0  0  0  0  0  0  0999 V2000
   25.1035   44.5091   18.5695 N   0  0  0  0  0  0  0  0  0  0  0  0
   25.5139   43.2213   19.1156 C   0  0  2  0  0  0  0  0  0  0  0  0
   25.6309   42.1729   18.0106 C   0  0  0  0  0  0  0  0  0  0  0  0
   25.1345   42.3926   16.9019 O   0  0  0  0  0  0  0  0  0  0  0  0
   24.5428   42.7596   20.2065 C   0  0  0  0  0  0  0  0  0  0  0  0
   25.0355   41.5484   20.9890 C   0  0  0  0  0  0  0  0  0  0  0  0
   24.0526   41.1247   22.0769 C   0  0  0  0  0  0  0  0  0  0  0  0
   24.5387   39.8823   22.8398 C   0  0  0  0  0  0  0  0  0  0  0  0
   23.6001   39.3988   23.9014 N   0  0  0  0  0  0  0  0  0  0  0  0
   26.2292   41.1045   18.1936 O   0  0  0  0  0  0  0  0  0  0  0  0
  2  1  1  6  0  0  0
  2  3  1  0  0  0  0
  2  5  1  0  0  0  0
  3  4  1  0  0  0  0
  3 10  1  0  0  0  0
  5  6  1  0  0  0  0
  6  7  1  0  0  0  0
  7  8  1  0  0  0  0
  8  9  1  0  0  0  0
M  END
>  <CHROM.1>
-14.74079617,-169.92276843,179.36190584,178.60603522,-178.67857350,24.94512612
41.79439320,20.04581442,0.91924678,1.18322151,-0.46003430

>  <Name>
ligand

>  <RI>
0

>  <Rbt.Current_Directory>
/home/itssahil/PROJECTS/Mol_Feturizer/New_Systems/rnas/3D0U

>  <Rbt.Executable>
rbdock ($Id: //depot/dev/client3/rdock/2013.1/src/exe/rbdock.cxx#4 $)

>  <Rbt.Library>
libRbt.so (2013.1, Build901 2013/11/27)

>  <Rbt.Parameter_File>
/export/apps/rDock/src/rDock_2013.1_src/data/scripts/dock_solv.prm

>  <Rbt.Receptor>
prm/pocket_docking_7.prm

>  <SCORE>
-8.63829

>  <SCORE.INTER>
-7.58819

>  <SCORE.INTER.CONST>
1

>  <SCORE.INTER.POLAR>
0

>  <SCORE.INTER.ROT>
5

>  <SCORE.INTER.SOLV>
15.5977

>  <SCORE.INTER.VDW>
-17.1914

>  <SCORE.INTER.norm>
-0.758819

>  <SCORE.INTRA>
-1.0501

>  <SCORE.INTRA.DIHEDRAL>
-0.327909

>  <SCORE.INTRA.DIHEDRAL.0>
2.22229

>  <SCORE.INTRA.POLAR>
0

>  <SCORE.INTRA.POLAR.0>
0

>  <SCORE.INTRA.REPUL>
0

>  <SCORE.INTRA.REPUL.0>
0

>  <SCORE.INTRA.SOLV>
-1.5829

>  <SCORE.INTRA.SOLV.lig_0>
-31.87

>  <SCORE.INTRA.VDW>
-0.094698

>  <SCORE.INTRA.VDW.0>
-0.575321

>  <SCORE.INTRA.norm>
-0.10501

>  <SCORE.RESTR>
0

>  <SCORE.RESTR.CAVITY>
0

>  <SCORE.RESTR.norm>
0

>  <SCORE.SYSTEM>
0

>  <SCORE.SYSTEM.CONST>
0

>  <SCORE.SYSTEM.DIHEDRAL>
0

>  <SCORE.SYSTEM.SOLV>
0

>  <SCORE.SYSTEM.norm>
0

>  <SCORE.heavy>
10

>  <SCORE.norm>
-0.863829

>  <RMSD>
5.449

$$$$
ligand
 OpenBabel11021811463D
libRbt.so/2013.1/901 2013/11/27
 10  9  0  0  0  0  0  0  0  0999 V2000
   25.1813   44.5155   18.6049 N   0  0  0  0  0  0  0  0  0  0  0  0
   25.5643   43.2127   19.1349 C   0  0  2  0  0  0  0  0  0  0  0  0
   25.6690   42.1782   18.0157 C   0  0  0  0  0  0  0  0  0  0  0  0
   26.2537   41.1104   18.2204 O   0  0  0  0  0  0  0  0  0  0  0  0
   24.5779   42.7536   20.2131 C   0  0  0  0  0  0  0  0  0  0  0  0
   25.0581   41.5423   21.0033 C   0  0  0  0  0  0  0  0  0  0  0  0
   24.0594   41.1203   22.0773 C   0  0  0  0  0  0  0  0  0  0  0  0
   24.5437   39.8915   22.8629 C   0  0  0  0  0  0  0  0  0  0  0  0
   23.5860   39.4037   23.9053 N   0  0  0  0  0  0  0  0  0  0  0  0
   25.1653   42.3769   16.9023 O   0  0  0  0  0  0  0  0  0  0  0  0
  2  1  1  6  0  0  0
  2  3  1  0  0  0  0
  2  5  1  0  0  0  0
  3  4  1  0  0  0  0
  3 10  1  0  0  0  0
  5  6  1  0  0  0  0
  6  7  1  0  0  0  0
  7  8  1  0  0  0  0
  8  9  1  0  0  0  0
M  END
>  <CHROM.1>
164.30241543,-168.55559875,179.42048812,179.52642412,-178.24818501,24.97250363
41.79333590,20.05939839,0.87589281,1.19173170,-0.41668848

>  <Name>
ligand

>  <RI>
0

>  <Rbt.Current_Directory>
/home/itssahil/PROJECTS/Mol_Feturizer/New_Systems/rnas/3D0U

>  <Rbt.Executable>
rbdock ($Id: //depot/dev/client3/rdock/2013.1/src/exe/rbdock.cxx#4 $)

>  <Rbt.Library>
libRbt.so (2013.1, Build901 2013/11/27)

>  <Rbt.Parameter_File>
/export/apps/rDock/src/rDock_2013.1_src/data/scripts/dock_solv.prm

>  <Rbt.Receptor>
prm/pocket_docking_7.prm

>  <SCORE>
-8.5421

>  <SCORE.INTER>
-7.47998

>  <SCORE.INTER.CONST>
1

>  <SCORE.INTER.POLAR>
0

>  <SCORE.INTER.ROT>
5

>  <SCORE.INTER.SOLV>
15.6786

>  <SCORE.INTER.VDW>
-17.1462

>  <SCORE.INTER.norm>
-0.747998

>  <SCORE.INTRA>
-1.06212

>  <SCORE.INTRA.DIHEDRAL>
-0.268357

>  <SCORE.INTRA.DIHEDRAL.0>
2.22229

>  <SCORE.INTRA.POLAR>
0

>  <SCORE.INTRA.POLAR.0>
0

>  <SCORE.INTRA.REPUL>
0

>  <SCORE.INTRA.REPUL.0>
0

>  <SCORE.INTRA.SOLV>
-1.59407

>  <SCORE.INTRA.SOLV.lig_0>
-31.87

>  <SCORE.INTRA.VDW>
-0.130905

>  <SCORE.INTRA.VDW.0>
-0.575321

>  <SCORE.INTRA.norm>
-0.106212

>  <SCORE.RESTR>
0

>  <SCORE.RESTR.CAVITY>
0

>  <SCORE.RESTR.norm>
0

>  <SCORE.SYSTEM>
0

>  <SCORE.SYSTEM.CONST>
0

>  <SCORE.SYSTEM.DIHEDRAL>
0

>  <SCORE.SYSTEM.SOLV>
0

>  <SCORE.SYSTEM.norm>
0

>  <SCORE.heavy>
10

>  <SCORE.norm>
-0.85421

>  <RMSD>
5.449

$$$$
ligand
 OpenBabel11021811463D
libRbt.so/2013.1/901 2013/11/27
 10  9  0  0  0  0  0  0  0  0999 V2000
   25.2030   44.5345   18.6030 N   0  0  0  0  0  0  0  0  0  0  0  0
   25.5675   43.2235   19.1260 C   0  0  2  0  0  0  0  0  0  0  0  0
   25.6527   42.1926   18.0018 C   0  0  0  0  0  0  0  0  0  0  0  0
   26.2562   41.1318   18.1871 O   0  0  0  0  0  0  0  0  0  0  0  0
   24.5775   42.7748   20.2053 C   0  0  0  0  0  0  0  0  0  0  0  0
   25.0385   41.5488   20.9841 C   0  0  0  0  0  0  0  0  0  0  0  0
   24.0169   41.1112   22.0300 C   0  0  0  0  0  0  0  0  0  0  0  0
   24.4939   39.8839   22.8225 C   0  0  0  0  0  0  0  0  0  0  0  0
   23.5163   39.3835   23.8402 N   0  0  0  0  0  0  0  0  0  0  0  0
   25.1147   42.3872   16.9039 O   0  0  0  0  0  0  0  0  0  0  0  0
  2  1  1  6  0  0  0
  2  3  1  0  0  0  0
  2  5  1  0  0  0  0
  3  4  1  0  0  0  0
  3 10  1  0  0  0  0
  5  6  1  0  0  0  0
  6  7  1  0  0  0  0
  7  8  1  0  0  0  0
  8  9  1  0  0  0  0
M  END
>  <CHROM.1>
162.12856465,-168.82558501,-178.78376389,-179.37575886,-178.40573070,24.95004801
41.80010567,20.03578226,0.83778989,1.19550252,-0.36996513

>  <Name>
ligand

>  <RI>
0

>  <Rbt.Current_Directory>
/home/itssahil/PROJECTS/Mol_Feturizer/New_Systems/rnas/3D0U

>  <Rbt.Executable>
rbdock ($Id: //depot/dev/client3/rdock/2013.1/src/exe/rbdock.cxx#4 $)

>  <Rbt.Library>
libRbt.so (2013.1, Build901 2013/11/27)

>  <Rbt.Parameter_File>
/export/apps/rDock/src/rDock_2013.1_src/data/scripts/dock_solv.prm

>  <Rbt.Receptor>
prm/pocket_docking_7.prm

>  <SCORE>
-8.61412

>  <SCORE.INTER>
-7.51114

>  <SCORE.INTER.CONST>
1

>  <SCORE.INTER.POLAR>
0

>  <SCORE.INTER.ROT>
5

>  <SCORE.INTER.SOLV>
15.626

>  <SCORE.INTER.VDW>
-17.1494

>  <SCORE.INTER.norm>
-0.751114

>  <SCORE.INTRA>
-1.10297

>  <SCORE.INTRA.DIHEDRAL>
-0.289486

>  <SCORE.INTRA.DIHEDRAL.0>
2.22229

>  <SCORE.INTRA.POLAR>
0

>  <SCORE.INTRA.POLAR.0>
0

>  <SCORE.INTRA.REPUL>
0

>  <SCORE.INTRA.REPUL.0>
0

>  <SCORE.INTRA.SOLV>
-1.59518

>  <SCORE.INTRA.SOLV.lig_0>
-31.87

>  <SCORE.INTRA.VDW>
-0.160638

>  <SCORE.INTRA.VDW.0>
-0.575321

>  <SCORE.INTRA.norm>
-0.110297

>  <SCORE.RESTR>
0

>  <SCORE.RESTR.CAVITY>
0

>  <SCORE.RESTR.norm>
0

>  <SCORE.SYSTEM>
0

>  <SCORE.SYSTEM.CONST>
0

>  <SCORE.SYSTEM.DIHEDRAL>
0

>  <SCORE.SYSTEM.SOLV>
0

>  <SCORE.SYSTEM.norm>
0

>  <SCORE.heavy>
10

>  <SCORE.norm>
-0.861412

>  <RMSD>
5.450

$$$$
ligand
 OpenBabel11021811463D
libRbt.so/2013.1/901 2013/11/27
 10  9  0  0  0  0  0  0  0  0999 V2000
   25.1439   44.5343   18.6128 N   0  0  0  0  0  0  0  0  0  0  0  0
   25.5308   43.2298   19.1362 C   0  0  2  0  0  0  0  0  0  0  0  0
   25.6387   42.2015   18.0116 C   0  0  0  0  0  0  0  0  0  0  0  0
   26.2491   41.1457   18.2027 O   0  0  0  0  0  0  0  0  0  0  0  0
   24.5457   42.7622   20.2119 C   0  0  0  0  0  0  0  0  0  0  0  0
   25.0270   41.5446   20.9918 C   0  0  0  0  0  0  0  0  0  0  0  0
   24.0276   41.1115   22.0607 C   0  0  0  0  0  0  0  0  0  0  0  0
   24.5357   39.9078   22.8699 C   0  0  0  0  0  0  0  0  0  0  0  0
   23.5886   39.4234   23.9235 N   0  0  0  0  0  0  0  0  0  0  0  0
   25.1126   42.3932   16.9073 O   0  0  0  0  0  0  0  0  0  0  0  0
  2  1  1  6  0  0  0
  2  3  1  0  0  0  0
  2  5  1  0  0  0  0
  3  4  1  0  0  0  0
  3 10  1  0  0  0  0
  5  6  1  0  0  0  0
  6  7  1  0  0  0  0
  7  8  1  0  0  0  0
  8  9  1  0  0  0  0
M  END
>  <CHROM.1>
162.89222311,-168.80002786,179.59997301,-178.40060958,-179.18578188,24.94664279
41.80838703,20.05811687,0.89679394,1.18809932,-0.43763588

>  <Name>
ligand

>  <RI>
0

>  <Rbt.Current_Directory>
/home/itssahil/PROJECTS/Mol_Feturizer/New_Systems/rnas/3D0U

>  <Rbt.Executable>
rbdock ($Id: //depot/dev/client3/rdock/2013.1/src/exe/rbdock.cxx#4 $)

>  <Rbt.Library>
libRbt.so (2013.1, Build901 2013/11/27)

>  <Rbt.Parameter_File>
/export/apps/rDock/src/rDock_2013.1_src/data/scripts/dock_solv.prm

>  <Rbt.Receptor>
prm/pocket_docking_7.prm

>  <SCORE>
-8.53647

>  <SCORE.INTER>
-7.44607

>  <SCORE.INTER.CONST>
1

>  <SCORE.INTER.POLAR>
0

>  <SCORE.INTER.ROT>
5

>  <SCORE.INTER.SOLV>
15.633

>  <SCORE.INTER.VDW>
-17.1084

>  <SCORE.INTER.norm>
-0.744607

>  <SCORE.INTRA>
-1.0904

>  <SCORE.INTRA.DIHEDRAL>
-0.290215

>  <SCORE.INTRA.DIHEDRAL.0>
2.22229

>  <SCORE.INTRA.POLAR>
0

>  <SCORE.INTRA.POLAR.0>
0

>  <SCORE.INTRA.REPUL>
0

>  <SCORE.INTRA.REPUL.0>
0

>  <SCORE.INTRA.SOLV>
-1.59502

>  <SCORE.INTRA.SOLV.lig_0>
-31.87

>  <SCORE.INTRA.VDW>
-0.147781

>  <SCORE.INTRA.VDW.0>
-0.575321

>  <SCORE.INTRA.norm>
-0.10904

>  <SCORE.RESTR>
0

>  <SCORE.RESTR.CAVITY>
0

>  <SCORE.RESTR.norm>
0

>  <SCORE.SYSTEM>
0

>  <SCORE.SYSTEM.CONST>
0

>  <SCORE.SYSTEM.DIHEDRAL>
0

>  <SCORE.SYSTEM.SOLV>
0

>  <SCORE.SYSTEM.norm>
0

>  <SCORE.heavy>
10

>  <SCORE.norm>
-0.853647

>  <RMSD>
5.450

$$$$
ligand
 OpenBabel11021811463D
libRbt.so/2013.1/901 2013/11/27
 10  9  0  0  0  0  0  0  0  0999 V2000
   25.4025   42.5479   16.7098 N   0  0  0  0  0  0  0  0  0  0  0  0
   24.6790   42.4405   17.9708 C   0  0  2  0  0  0  0  0  0  0  0  0
   24.3793   43.8233   18.5468 C   0  0  0  0  0  0  0  0  0  0  0  0
   25.1595   44.7568   18.3377 O   0  0  0  0  0  0  0  0  0  0  0  0
   25.4609   41.5878   18.9747 C   0  0  0  0  0  0  0  0  0  0  0  0
   24.6636   41.2314   20.2236 C   0  0  0  0  0  0  0  0  0  0  0  0
   25.4792   40.4035   21.2127 C   0  0  0  0  0  0  0  0  0  0  0  0
   24.6494   39.9887   22.4379 C   0  0  0  0  0  0  0  0  0  0  0  0
   24.1172   41.1328   23.2438 N   0  0  0  0  0  0  0  0  0  0  0  0
   23.3575   44.0394   19.2116 O   0  0  0  0  0  0  0  0  0  0  0  0
  2  1  1  6  0  0  0
  2  3  1  0  0  0  0
  2  5  1  0  0  0  0
  3  4  1  0  0  0  0
  3 10  1  0  0  0  0
  5  6  1  0  0  0  0
  6  7  1  0  0  0  0
  7  8  1  0  0  0  0
  8  9  1  0  0  0  0
M  END
>  <CHROM.1>
-31.25329788,-170.00302020,-178.97824749,-177.19267272,-60.84484784,24.72697143
42.23188674,19.68990526,-1.52576543,-1.06080587,2.22929232

>  <Name>
ligand

>  <RI>
0

>  <Rbt.Current_Directory>
/home/itssahil/PROJECTS/Mol_Feturizer/New_Systems/rnas/3D0U

>  <Rbt.Executable>
rbdock ($Id: //depot/dev/client3/rdock/2013.1/src/exe/rbdock.cxx#4 $)

>  <Rbt.Library>
libRbt.so (2013.1, Build901 2013/11/27)

>  <Rbt.Parameter_File>
/export/apps/rDock/src/rDock_2013.1_src/data/scripts/dock_solv.prm

>  <Rbt.Receptor>
prm/pocket_docking_3.prm

>  <SCORE>
-8.54675

>  <SCORE.INTER>
-7.8334

>  <SCORE.INTER.CONST>
1

>  <SCORE.INTER.POLAR>
0

>  <SCORE.INTER.ROT>
5

>  <SCORE.INTER.SOLV>
18.0493

>  <SCORE.INTER.VDW>
-18.172

>  <SCORE.INTER.norm>
-0.78334

>  <SCORE.INTRA>
-0.713351

>  <SCORE.INTRA.DIHEDRAL>
-0.302218

>  <SCORE.INTRA.DIHEDRAL.0>
2.22229

>  <SCORE.INTRA.POLAR>
0

>  <SCORE.INTRA.POLAR.0>
0

>  <SCORE.INTRA.REPUL>
0

>  <SCORE.INTRA.REPUL.0>
0

>  <SCORE.INTRA.SOLV>
-0.72695

>  <SCORE.INTRA.SOLV.lig_0>
-31.87

>  <SCORE.INTRA.VDW>
-0.198768

>  <SCORE.INTRA.VDW.0>
-0.575321

>  <SCORE.INTRA.norm>
-0.0713351

>  <SCORE.RESTR>
0

>  <SCORE.RESTR.CAVITY>
0

>  <SCORE.RESTR.norm>
0

>  <SCORE.SYSTEM>
0

>  <SCORE.SYSTEM.CONST>
0

>  <SCORE.SYSTEM.DIHEDRAL>
0

>  <SCORE.SYSTEM.SOLV>
0

>  <SCORE.SYSTEM.norm>
0

>  <SCORE.heavy>
10

>  <SCORE.norm>
-0.854675

>  <RMSD>
5.453

$$$$
ligand
 OpenBabel11021811463D
libRbt.so/2013.1/901 2013/11/27
 10  9  0  0  0  0  0  0  0  0999 V2000
   25.2898   42.3517   16.9016 N   0  0  0  0  0  0  0  0  0  0  0  0
   24.9241   42.3875   18.3123 C   0  0  2  0  0  0  0  0  0  0  0  0
   24.4449   43.7808   18.7159 C   0  0  0  0  0  0  0  0  0  0  0  0
   23.3860   43.9089   19.3374 O   0  0  0  0  0  0  0  0  0  0  0  0
   26.0967   41.9374   19.1890 C   0  0  0  0  0  0  0  0  0  0  0  0
   25.7402   41.8078   20.6650 C   0  0  0  0  0  0  0  0  0  0  0  0
   24.8531   40.5970   20.9407 C   0  0  0  0  0  0  0  0  0  0  0  0
   24.5539   40.4318   22.4390 C   0  0  0  0  0  0  0  0  0  0  0  0
   23.7509   39.2154   22.7815 N   0  0  0  0  0  0  0  0  0  0  0  0
   25.1035   44.7942   18.4473 O   0  0  0  0  0  0  0  0  0  0  0  0
  2  1  1  6  0  0  0
  2  3  1  0  0  0  0
  2  5  1  0  0  0  0
  3  4  1  0  0  0  0
  3 10  1  0  0  0  0
  5  6  1  0  0  0  0
  6  7  1  0  0  0  0
  7  8  1  0  0  0  0
  8  9  1  0  0  0  0
M  END
>  <CHROM.1>
130.61008457,-173.84405406,72.15685768,177.18716132,-176.70878326,24.80297654
42.15839653,19.77386201,-1.44197708,-0.88214370,2.40645929

>  <Name>
ligand

>  <RI>
0

>  <Rbt.Current_Directory>
/home/itssahil/PROJECTS/Mol_Feturizer/New_Systems/rnas/3D0U

>  <Rbt.Executable>
rbdock ($Id: //depot/dev/client3/rdock/2013.1/src/exe/rbdock.cxx#4 $)

>  <Rbt.Library>
libRbt.so (2013.1, Build901 2013/11/27)

>  <Rbt.Parameter_File>
/export/apps/rDock/src/rDock_2013.1_src/data/scripts/dock_solv.prm

>  <Rbt.Receptor>
prm/pocket_docking_6.prm

>  <SCORE>
-8.37624

>  <SCORE.INTER>
-7.46067

>  <SCORE.INTER.CONST>
1

>  <SCORE.INTER.POLAR>
0

>  <SCORE.INTER.ROT>
5

>  <SCORE.INTER.SOLV>
17.0785

>  <SCORE.INTER.VDW>
-17.6

>  <SCORE.INTER.norm>
-0.746067

>  <SCORE.INTRA>
-0.915573

>  <SCORE.INTRA.DIHEDRAL>
0.0519542

>  <SCORE.INTRA.DIHEDRAL.0>
2.22229

>  <SCORE.INTRA.POLAR>
0

>  <SCORE.INTRA.POLAR.0>
0

>  <SCORE.INTRA.REPUL>
0

>  <SCORE.INTRA.REPUL.0>
0

>  <SCORE.INTRA.SOLV>
-1.38483

>  <SCORE.INTRA.SOLV.lig_0>
-31.87

>  <SCORE.INTRA.VDW>
-0.249133

>  <SCORE.INTRA.VDW.0>
-0.575321

>  <SCORE.INTRA.norm>
-0.0915573

>  <SCORE.RESTR>
0

>  <SCORE.RESTR.CAVITY>
0

>  <SCORE.RESTR.norm>
0

>  <SCORE.SYSTEM>
0

>  <SCORE.SYSTEM.CONST>
0

>  <SCORE.SYSTEM.DIHEDRAL>
0

>  <SCORE.SYSTEM.SOLV>
0

>  <SCORE.SYSTEM.norm>
0

>  <SCORE.heavy>
10

>  <SCORE.norm>
-0.837624

>  <RMSD>
5.454

$$$$
ligand
 OpenBabel11021811463D
libRbt.so/2013.1/901 2013/11/27
 10  9  0  0  0  0  0  0  0  0999 V2000
   25.1716   44.7579   18.5572 N   0  0  0  0  0  0  0  0  0  0  0  0
   25.4727   43.4089   19.0205 C   0  0  2  0  0  0  0  0  0  0  0  0
   25.2284   42.3851   17.9134 C   0  0  0  0  0  0  0  0  0  0  0  0
   24.1524   42.3814   17.3083 O   0  0  0  0  0  0  0  0  0  0  0  0
   24.6547   43.0686   20.2701 C   0  0  0  0  0  0  0  0  0  0  0  0
   25.0334   41.7348   20.9024 C   0  0  0  0  0  0  0  0  0  0  0  0
   24.1363   41.3810   22.0852 C   0  0  0  0  0  0  0  0  0  0  0  0
   24.5095   40.0254   22.7055 C   0  0  0  0  0  0  0  0  0  0  0  0
   23.6349   39.6018   23.8446 N   0  0  0  0  0  0  0  0  0  0  0  0
   26.0943   41.5603   17.5927 O   0  0  0  0  0  0  0  0  0  0  0  0
  2  1  1  6  0  0  0
  2  3  1  0  0  0  0
  2  5  1  0  0  0  0
  3  4  1  0  0  0  0
  3 10  1  0  0  0  0
  5  6  1  0  0  0  0
  6  7  1  0  0  0  0
  7  8  1  0  0  0  0
  8  9  1  0  0  0  0
M  END
>  <CHROM.1>
-51.00184661,-173.42485170,-176.02155633,179.14704317,-178.11802398,24.80699236
42.01391006,19.98505476,0.50274721,1.35634407,-0.01370066

>  <Name>
ligand

>  <RI>
0

>  <Rbt.Current_Directory>
/home/itssahil/PROJECTS/Mol_Feturizer/New_Systems/rnas/3D0U

>  <Rbt.Executable>
rbdock ($Id: //depot/dev/client3/rdock/2013.1/src/exe/rbdock.cxx#4 $)

>  <Rbt.Library>
libRbt.so (2013.1, Build901 2013/11/27)

>  <Rbt.Parameter_File>
/export/apps/rDock/src/rDock_2013.1_src/data/scripts/dock_solv.prm

>  <Rbt.Receptor>
prm/pocket_docking_7.prm

>  <SCORE>
-8.25016

>  <SCORE.INTER>
-6.91345

>  <SCORE.INTER.CONST>
1

>  <SCORE.INTER.POLAR>
0

>  <SCORE.INTER.ROT>
5

>  <SCORE.INTER.SOLV>
16.1695

>  <SCORE.INTER.VDW>
-16.9321

>  <SCORE.INTER.norm>
-0.691345

>  <SCORE.INTRA>
-1.33671

>  <SCORE.INTRA.DIHEDRAL>
-0.490873

>  <SCORE.INTRA.DIHEDRAL.0>
2.22229

>  <SCORE.INTRA.POLAR>
0

>  <SCORE.INTRA.POLAR.0>
0

>  <SCORE.INTRA.REPUL>
0

>  <SCORE.INTRA.REPUL.0>
0

>  <SCORE.INTRA.SOLV>
-1.60193

>  <SCORE.INTRA.SOLV.lig_0>
-31.87

>  <SCORE.INTRA.VDW>
-0.290309

>  <SCORE.INTRA.VDW.0>
-0.575321

>  <SCORE.INTRA.norm>
-0.133671

>  <SCORE.RESTR>
0

>  <SCORE.RESTR.CAVITY>
0

>  <SCORE.RESTR.norm>
0

>  <SCORE.SYSTEM>
0

>  <SCORE.SYSTEM.CONST>
0

>  <SCORE.SYSTEM.DIHEDRAL>
0

>  <SCORE.SYSTEM.SOLV>
0

>  <SCORE.SYSTEM.norm>
0

>  <SCORE.heavy>
10

>  <SCORE.norm>
-0.825016

>  <RMSD>
5.456

$$$$
ligand
 OpenBabel11021811463D
libRbt.so/2013.1/901 2013/11/27
 10  9  0  0  0  0  0  0  0  0999 V2000
   25.3101   42.5317   16.8919 N   0  0  0  0  0  0  0  0  0  0  0  0
   24.6090   42.4347   18.1664 C   0  0  2  0  0  0  0  0  0  0  0  0
   24.3754   43.8199   18.7668 C   0  0  0  0  0  0  0  0  0  0  0  0
   23.3195   44.0614   19.3589 O   0  0  0  0  0  0  0  0  0  0  0  0
   25.3775   41.5384   19.1422 C   0  0  0  0  0  0  0  0  0  0  0  0
   24.6055   41.2228   20.4177 C   0  0  0  0  0  0  0  0  0  0  0  0
   25.4452   40.4383   21.4218 C   0  0  0  0  0  0  0  0  0  0  0  0
   24.6748   40.1576   22.7216 C   0  0  0  0  0  0  0  0  0  0  0  0
   23.5270   39.2082   22.5706 N   0  0  0  0  0  0  0  0  0  0  0  0
   25.2309   44.7114   18.6882 O   0  0  0  0  0  0  0  0  0  0  0  0
  2  1  1  6  0  0  0
  2  3  1  0  0  0  0
  2  5  1  0  0  0  0
  3  4  1  0  0  0  0
  3 10  1  0  0  0  0
  5  6  1  0  0  0  0
  6  7  1  0  0  0  0
  7  8  1  0  0  0  0
  8  9  1  0  0  0  0
M  END
>  <CHROM.1>
142.17836651,-171.37706206,-174.68968087,178.37867265,67.88837730,24.64130200
42.05031744,19.81925351,-1.46056885,-1.02217449,2.42469951

>  <Name>
ligand

>  <RI>
0

>  <Rbt.Current_Directory>
/home/itssahil/PROJECTS/Mol_Feturizer/New_Systems/rnas/3D0U

>  <Rbt.Executable>
rbdock ($Id: //depot/dev/client3/rdock/2013.1/src/exe/rbdock.cxx#4 $)

>  <Rbt.Library>
libRbt.so (2013.1, Build901 2013/11/27)

>  <Rbt.Parameter_File>
/export/apps/rDock/src/rDock_2013.1_src/data/scripts/dock_solv.prm

>  <Rbt.Receptor>
prm/pocket_docking_4.prm

>  <SCORE>
-8.12266

>  <SCORE.INTER>
-7.32912

>  <SCORE.INTER.CONST>
1

>  <SCORE.INTER.POLAR>
0

>  <SCORE.INTER.ROT>
5

>  <SCORE.INTER.SOLV>
17.2411

>  <SCORE.INTER.VDW>
-17.5665

>  <SCORE.INTER.norm>
-0.732912

>  <SCORE.INTRA>
-0.801608

>  <SCORE.INTRA.DIHEDRAL>
-0.136217

>  <SCORE.INTRA.DIHEDRAL.0>
2.22229

>  <SCORE.INTRA.POLAR>
0

>  <SCORE.INTRA.POLAR.0>
0

>  <SCORE.INTRA.REPUL>
0

>  <SCORE.INTRA.REPUL.0>
0

>  <SCORE.INTRA.SOLV>
-0.836734

>  <SCORE.INTRA.SOLV.lig_0>
-31.87

>  <SCORE.INTRA.VDW>
-0.315133

>  <SCORE.INTRA.VDW.0>
-0.575321

>  <SCORE.INTRA.norm>
-0.0801608

>  <SCORE.RESTR>
0.00807162

>  <SCORE.RESTR.CAVITY>
0.00807162

>  <SCORE.RESTR.norm>
0.000807162

>  <SCORE.SYSTEM>
0

>  <SCORE.SYSTEM.CONST>
0

>  <SCORE.SYSTEM.DIHEDRAL>
0

>  <SCORE.SYSTEM.SOLV>
0

>  <SCORE.SYSTEM.norm>
0

>  <SCORE.heavy>
10

>  <SCORE.norm>
-0.812266

>  <RMSD>
5.457

$$$$
ligand
 OpenBabel11021811463D
libRbt.so/2013.1/901 2013/11/27
 10  9  0  0  0  0  0  0  0  0999 V2000
   25.3463   42.5158   16.9001 N   0  0  0  0  0  0  0  0  0  0  0  0
   24.6316   42.4132   18.1665 C   0  0  2  0  0  0  0  0  0  0  0  0
   24.3300   43.7983   18.7360 C   0  0  0  0  0  0  0  0  0  0  0  0
   23.2534   44.0072   19.3027 O   0  0  0  0  0  0  0  0  0  0  0  0
   25.4237   41.5700   19.1704 C   0  0  0  0  0  0  0  0  0  0  0  0
   24.6410   41.2297   20.4329 C   0  0  0  0  0  0  0  0  0  0  0  0
   25.4846   40.4609   21.4459 C   0  0  0  0  0  0  0  0  0  0  0  0
   24.7008   40.1514   22.7311 C   0  0  0  0  0  0  0  0  0  0  0  0
   23.5695   39.1873   22.5516 N   0  0  0  0  0  0  0  0  0  0  0  0
   25.1502   44.7225   18.6574 O   0  0  0  0  0  0  0  0  0  0  0  0
  2  1  1  6  0  0  0
  2  3  1  0  0  0  0
  2  5  1  0  0  0  0
  3  4  1  0  0  0  0
  3 10  1  0  0  0  0
  5  6  1  0  0  0  0
  6  7  1  0  0  0  0
  7  8  1  0  0  0  0
  8  9  1  0  0  0  0
M  END
>  <CHROM.1>
141.80808705,-170.57548702,-176.61136500,178.56352035,67.10178579,24.64532608
42.04338860,19.81335969,-1.49311392,-0.97148133,2.39145159

>  <Name>
ligand

>  <RI>
0

>  <Rbt.Current_Directory>
/home/itssahil/PROJECTS/Mol_Feturizer/New_Systems/rnas/3D0U

>  <Rbt.Executable>
rbdock ($Id: //depot/dev/client3/rdock/2013.1/src/exe/rbdock.cxx#4 $)

>  <Rbt.Library>
libRbt.so (2013.1, Build901 2013/11/27)

>  <Rbt.Parameter_File>
/export/apps/rDock/src/rDock_2013.1_src/data/scripts/dock_solv.prm

>  <Rbt.Receptor>
prm/pocket_docking_4.prm

>  <SCORE>
-8.08273

>  <SCORE.INTER>
-7.2671

>  <SCORE.INTER.CONST>
1

>  <SCORE.INTER.POLAR>
0

>  <SCORE.INTER.ROT>
5

>  <SCORE.INTER.SOLV>
17.215

>  <SCORE.INTER.VDW>
-17.5164

>  <SCORE.INTER.norm>
-0.72671

>  <SCORE.INTRA>
-0.815628

>  <SCORE.INTRA.DIHEDRAL>
-0.197086

>  <SCORE.INTRA.DIHEDRAL.0>
2.22229

>  <SCORE.INTRA.POLAR>
0

>  <SCORE.INTRA.POLAR.0>
0

>  <SCORE.INTRA.REPUL>
0

>  <SCORE.INTRA.REPUL.0>
0

>  <SCORE.INTRA.SOLV>
-0.824104

>  <SCORE.INTRA.SOLV.lig_0>
-31.87

>  <SCORE.INTRA.VDW>
-0.305033

>  <SCORE.INTRA.VDW.0>
-0.575321

>  <SCORE.INTRA.norm>
-0.0815628

>  <SCORE.RESTR>
0

>  <SCORE.RESTR.CAVITY>
0

>  <SCORE.RESTR.norm>
0

>  <SCORE.SYSTEM>
0

>  <SCORE.SYSTEM.CONST>
0

>  <SCORE.SYSTEM.DIHEDRAL>
0

>  <SCORE.SYSTEM.SOLV>
0

>  <SCORE.SYSTEM.norm>
0

>  <SCORE.heavy>
10

>  <SCORE.norm>
-0.808273

>  <RMSD>
5.459

$$$$
ligand
 OpenBabel11021811463D
libRbt.so/2013.1/901 2013/11/27
 10  9  0  0  0  0  0  0  0  0999 V2000
   24.4972   43.6231   19.4829 N   0  0  0  0  0  0  0  0  0  0  0  0
   25.6743   42.8265   19.1589 C   0  0  2  0  0  0  0  0  0  0  0  0
   25.5477   42.2077   17.7679 C   0  0  0  0  0  0  0  0  0  0  0  0
   24.6545   42.5893   17.0060 O   0  0  0  0  0  0  0  0  0  0  0  0
   25.9073   41.7457   20.2190 C   0  0  0  0  0  0  0  0  0  0  0  0
   24.6930   40.8574   20.4615 C   0  0  0  0  0  0  0  0  0  0  0  0
   24.8543   39.9852   21.7033 C   0  0  0  0  0  0  0  0  0  0  0  0
   23.5617   39.2282   22.0470 C   0  0  0  0  0  0  0  0  0  0  0  0
   23.6364   38.4072   23.2968 N   0  0  0  0  0  0  0  0  0  0  0  0
   26.3336   41.3358   17.3740 O   0  0  0  0  0  0  0  0  0  0  0  0
  2  1  1  1  0  0  0
  2  3  1  0  0  0  0
  2  5  1  0  0  0  0
  3  4  1  0  0  0  0
  3 10  1  0  0  0  0
  5  6  1  0  0  0  0
  6  7  1  0  0  0  0
  7  8  1  0  0  0  0
  8  9  1  0  0  0  0
M  END
>  <CHROM.1>
11.95074738,54.12060646,-168.44871210,172.60993399,-177.08669991,24.93783538
41.27547502,19.81160152,0.88542178,1.16986958,-0.30258040

>  <Name>
ligand

>  <RI>
0

>  <Rbt.Current_Directory>
/home/itssahil/PROJECTS/Mol_Feturizer/New_Systems/rnas/3D0U

>  <Rbt.Executable>
rbdock ($Id: //depot/dev/client3/rdock/2013.1/src/exe/rbdock.cxx#4 $)

>  <Rbt.Library>
libRbt.so (2013.1, Build901 2013/11/27)

>  <Rbt.Parameter_File>
/export/apps/rDock/src/rDock_2013.1_src/data/scripts/dock_solv.prm

>  <Rbt.Receptor>
prm/pocket_docking_7.prm

>  <SCORE>
-8.97073

>  <SCORE.INTER>
-9.00742

>  <SCORE.INTER.CONST>
1

>  <SCORE.INTER.POLAR>
0

>  <SCORE.INTER.ROT>
5

>  <SCORE.INTER.SOLV>
12.6631

>  <SCORE.INTER.VDW>
-17.1593

>  <SCORE.INTER.norm>
-0.900742

>  <SCORE.INTRA>
0.0366893

>  <SCORE.INTRA.DIHEDRAL>
0.185802

>  <SCORE.INTRA.DIHEDRAL.0>
2.22229

>  <SCORE.INTRA.POLAR>
0

>  <SCORE.INTRA.POLAR.0>
0

>  <SCORE.INTRA.REPUL>
0

>  <SCORE.INTRA.REPUL.0>
0

>  <SCORE.INTRA.SOLV>
-0.575854

>  <SCORE.INTRA.SOLV.lig_0>
-31.87

>  <SCORE.INTRA.VDW>
0.231716

>  <SCORE.INTRA.VDW.0>
-0.575321

>  <SCORE.INTRA.norm>
0.00366893

>  <SCORE.RESTR>
0

>  <SCORE.RESTR.CAVITY>
0

>  <SCORE.RESTR.norm>
0

>  <SCORE.SYSTEM>
0

>  <SCORE.SYSTEM.CONST>
0

>  <SCORE.SYSTEM.DIHEDRAL>
0

>  <SCORE.SYSTEM.SOLV>
0

>  <SCORE.SYSTEM.norm>
0

>  <SCORE.heavy>
10

>  <SCORE.norm>
-0.897073

>  <RMSD>
5.459

$$$$
ligand
 OpenBabel11021811463D
libRbt.so/2013.1/901 2013/11/27
 10  9  0  0  0  0  0  0  0  0999 V2000
   25.2716   42.4934   16.8991 N   0  0  0  0  0  0  0  0  0  0  0  0
   24.5848   42.4097   18.1822 C   0  0  2  0  0  0  0  0  0  0  0  0
   24.2907   43.8031   18.7351 C   0  0  0  0  0  0  0  0  0  0  0  0
   23.2134   44.0258   19.2951 O   0  0  0  0  0  0  0  0  0  0  0  0
   25.4012   41.5857   19.1826 C   0  0  0  0  0  0  0  0  0  0  0  0
   24.6385   41.2427   20.4565 C   0  0  0  0  0  0  0  0  0  0  0  0
   25.5131   40.5183   21.4760 C   0  0  0  0  0  0  0  0  0  0  0  0
   24.7389   40.1758   22.7586 C   0  0  0  0  0  0  0  0  0  0  0  0
   23.6605   39.1529   22.5786 N   0  0  0  0  0  0  0  0  0  0  0  0
   25.1177   44.7205   18.6496 O   0  0  0  0  0  0  0  0  0  0  0  0
  2  1  1  6  0  0  0
  2  3  1  0  0  0  0
  2  5  1  0  0  0  0
  3  4  1  0  0  0  0
  3 10  1  0  0  0  0
  5  6  1  0  0  0  0
  6  7  1  0  0  0  0
  7  8  1  0  0  0  0
  8  9  1  0  0  0  0
M  END
>  <CHROM.1>
140.19458434,-169.54096562,-175.48403704,179.96827539,67.40450093,24.63520546
42.05071139,19.82483030,-1.52744319,-0.99219002,2.36023031

>  <Name>
ligand

>  <RI>
0

>  <Rbt.Current_Directory>
/home/itssahil/PROJECTS/Mol_Feturizer/New_Systems/rnas/3D0U

>  <Rbt.Executable>
rbdock ($Id: //depot/dev/client3/rdock/2013.1/src/exe/rbdock.cxx#4 $)

>  <Rbt.Library>
libRbt.so (2013.1, Build901 2013/11/27)

>  <Rbt.Parameter_File>
/export/apps/rDock/src/rDock_2013.1_src/data/scripts/dock_solv.prm

>  <Rbt.Receptor>
prm/pocket_docking_5.prm

>  <SCORE>
-7.94406

>  <SCORE.INTER>
-7.16866

>  <SCORE.INTER.CONST>
1

>  <SCORE.INTER.POLAR>
0

>  <SCORE.INTER.ROT>
5

>  <SCORE.INTER.SOLV>
16.9336

>  <SCORE.INTER.VDW>
-17.357

>  <SCORE.INTER.norm>
-0.716866

>  <SCORE.INTRA>
-0.776285

>  <SCORE.INTRA.DIHEDRAL>
-0.0744819

>  <SCORE.INTRA.DIHEDRAL.0>
2.22229

>  <SCORE.INTRA.POLAR>
0

>  <SCORE.INTRA.POLAR.0>
0

>  <SCORE.INTRA.REPUL>
0

>  <SCORE.INTRA.REPUL.0>
0

>  <SCORE.INTRA.SOLV>
-0.820617

>  <SCORE.INTRA.SOLV.lig_0>
-31.87

>  <SCORE.INTRA.VDW>
-0.328735

>  <SCORE.INTRA.VDW.0>
-0.575321

>  <SCORE.INTRA.norm>
-0.0776285

>  <SCORE.RESTR>
0.00088601

>  <SCORE.RESTR.CAVITY>
0.00088601

>  <SCORE.RESTR.norm>
8.8601e-05

>  <SCORE.SYSTEM>
0

>  <SCORE.SYSTEM.CONST>
0

>  <SCORE.SYSTEM.DIHEDRAL>
0

>  <SCORE.SYSTEM.SOLV>
0

>  <SCORE.SYSTEM.norm>
0

>  <SCORE.heavy>
10

>  <SCORE.norm>
-0.794406

>  <RMSD>
5.460

$$$$
ligand
 OpenBabel11021811463D
libRbt.so/2013.1/901 2013/11/27
 10  9  0  0  0  0  0  0  0  0999 V2000
   24.6162   43.4976   19.6491 N   0  0  0  0  0  0  0  0  0  0  0  0
   25.4058   42.3414   19.2429 C   0  0  2  0  0  0  0  0  0  0  0  0
   25.4899   42.2464   17.7205 C   0  0  0  0  0  0  0  0  0  0  0  0
   24.6362   42.8024   17.0234 O   0  0  0  0  0  0  0  0  0  0  0  0
   24.8303   41.0536   19.8401 C   0  0  0  0  0  0  0  0  0  0  0  0
   24.8800   41.0120   21.3627 C   0  0  0  0  0  0  0  0  0  0  0  0
   24.2546   39.7391   21.9263 C   0  0  0  0  0  0  0  0  0  0  0  0
   24.3014   39.7060   23.4621 C   0  0  0  0  0  0  0  0  0  0  0  0
   23.5137   40.7895   24.1309 N   0  0  0  0  0  0  0  0  0  0  0  0
   26.4084   41.6335   17.1606 O   0  0  0  0  0  0  0  0  0  0  0  0
  2  1  1  6  0  0  0
  2  3  1  0  0  0  0
  2  5  1  0  0  0  0
  3  4  1  0  0  0  0
  3 10  1  0  0  0  0
  5  6  1  0  0  0  0
  6  7  1  0  0  0  0
  7  8  1  0  0  0  0
  8  9  1  0  0  0  0
M  END
>  <CHROM.1>
-22.01614943,-63.60595598,177.96759776,-179.71549278,63.35818500,24.83964995
41.48547982,20.10704463,1.08241193,1.08018322,-0.76597993

>  <Name>
ligand

>  <RI>
0

>  <Rbt.Current_Directory>
/home/itssahil/PROJECTS/Mol_Feturizer/New_Systems/rnas/3D0U

>  <Rbt.Executable>
rbdock ($Id: //depot/dev/client3/rdock/2013.1/src/exe/rbdock.cxx#4 $)

>  <Rbt.Library>
libRbt.so (2013.1, Build901 2013/11/27)

>  <Rbt.Parameter_File>
/export/apps/rDock/src/rDock_2013.1_src/data/scripts/dock_solv.prm

>  <Rbt.Receptor>
prm/pocket_docking_8.prm

>  <SCORE>
-9.48358

>  <SCORE.INTER>
-9.11147

>  <SCORE.INTER.CONST>
1

>  <SCORE.INTER.POLAR>
0

>  <SCORE.INTER.ROT>
5

>  <SCORE.INTER.SOLV>
12.6727

>  <SCORE.INTER.VDW>
-17.2319

>  <SCORE.INTER.norm>
-0.911147

>  <SCORE.INTRA>
-0.372109

>  <SCORE.INTRA.DIHEDRAL>
-0.597821

>  <SCORE.INTRA.DIHEDRAL.0>
2.22229

>  <SCORE.INTRA.POLAR>
0

>  <SCORE.INTRA.POLAR.0>
0

>  <SCORE.INTRA.REPUL>
0

>  <SCORE.INTRA.REPUL.0>
0

>  <SCORE.INTRA.SOLV>
0.104439

>  <SCORE.INTRA.SOLV.lig_0>
-31.87

>  <SCORE.INTRA.VDW>
-0.125418

>  <SCORE.INTRA.VDW.0>
-0.575321

>  <SCORE.INTRA.norm>
-0.0372109

>  <SCORE.RESTR>
0

>  <SCORE.RESTR.CAVITY>
0

>  <SCORE.RESTR.norm>
0

>  <SCORE.SYSTEM>
0

>  <SCORE.SYSTEM.CONST>
0

>  <SCORE.SYSTEM.DIHEDRAL>
0

>  <SCORE.SYSTEM.SOLV>
0

>  <SCORE.SYSTEM.norm>
0

>  <SCORE.heavy>
10

>  <SCORE.norm>
-0.948358

>  <RMSD>
5.462

$$$$
ligand
 OpenBabel11021811463D
libRbt.so/2013.1/901 2013/11/27
 10  9  0  0  0  0  0  0  0  0999 V2000
   25.4054   42.5449   16.7015 N   0  0  0  0  0  0  0  0  0  0  0  0
   24.6778   42.4402   17.9603 C   0  0  2  0  0  0  0  0  0  0  0  0
   24.3467   43.8245   18.5153 C   0  0  0  0  0  0  0  0  0  0  0  0
   25.0879   44.7792   18.2640 O   0  0  0  0  0  0  0  0  0  0  0  0
   25.4719   41.6181   18.9800 C   0  0  0  0  0  0  0  0  0  0  0  0
   24.6664   41.2368   20.2162 C   0  0  0  0  0  0  0  0  0  0  0  0
   25.4944   40.4429   21.2227 C   0  0  0  0  0  0  0  0  0  0  0  0
   24.6552   39.9885   22.4274 C   0  0  0  0  0  0  0  0  0  0  0  0
   24.0766   41.1063   23.2382 N   0  0  0  0  0  0  0  0  0  0  0  0
   23.3370   44.0203   19.2045 O   0  0  0  0  0  0  0  0  0  0  0  0
  2  1  1  6  0  0  0
  2  3  1  0  0  0  0
  2  5  1  0  0  0  0
  3  4  1  0  0  0  0
  3 10  1  0  0  0  0
  5  6  1  0  0  0  0
  6  7  1  0  0  0  0
  7  8  1  0  0  0  0
  8  9  1  0  0  0  0
M  END
>  <CHROM.1>
-29.13642186,-168.74016598,-178.87244091,-176.55403204,-61.98710762,24.71335311
42.23684360,19.67543038,-1.53323683,-1.03754982,2.22090186

>  <Name>
ligand

>  <RI>
0

>  <Rbt.Current_Directory>
/home/itssahil/PROJECTS/Mol_Feturizer/New_Systems/rnas/3D0U

>  <Rbt.Executable>
rbdock ($Id: //depot/dev/client3/rdock/2013.1/src/exe/rbdock.cxx#4 $)

>  <Rbt.Library>
libRbt.so (2013.1, Build901 2013/11/27)

>  <Rbt.Parameter_File>
/export/apps/rDock/src/rDock_2013.1_src/data/scripts/dock_solv.prm

>  <Rbt.Receptor>
prm/pocket_docking_3.prm

>  <SCORE>
-8.57362

>  <SCORE.INTER>
-7.9049

>  <SCORE.INTER.CONST>
1

>  <SCORE.INTER.POLAR>
0

>  <SCORE.INTER.ROT>
5

>  <SCORE.INTER.SOLV>
18.0631

>  <SCORE.INTER.VDW>
-18.2243

>  <SCORE.INTER.norm>
-0.79049

>  <SCORE.INTRA>
-0.668724

>  <SCORE.INTRA.DIHEDRAL>
-0.17267

>  <SCORE.INTRA.DIHEDRAL.0>
2.22229

>  <SCORE.INTRA.POLAR>
0

>  <SCORE.INTRA.POLAR.0>
0

>  <SCORE.INTRA.REPUL>
0

>  <SCORE.INTRA.REPUL.0>
0

>  <SCORE.INTRA.SOLV>
-0.742682

>  <SCORE.INTRA.SOLV.lig_0>
-31.87

>  <SCORE.INTRA.VDW>
-0.211049

>  <SCORE.INTRA.VDW.0>
-0.575321

>  <SCORE.INTRA.norm>
-0.0668724

>  <SCORE.RESTR>
0

>  <SCORE.RESTR.CAVITY>
0

>  <SCORE.RESTR.norm>
0

>  <SCORE.SYSTEM>
0

>  <SCORE.SYSTEM.CONST>
0

>  <SCORE.SYSTEM.DIHEDRAL>
0

>  <SCORE.SYSTEM.SOLV>
0

>  <SCORE.SYSTEM.norm>
0

>  <SCORE.heavy>
10

>  <SCORE.norm>
-0.857362

>  <RMSD>
5.465

$$$$
ligand
 OpenBabel11021811463D
libRbt.so/2013.1/901 2013/11/27
 10  9  0  0  0  0  0  0  0  0999 V2000
   24.6625   43.5278   19.6547 N   0  0  0  0  0  0  0  0  0  0  0  0
   25.4211   42.3587   19.2270 C   0  0  2  0  0  0  0  0  0  0  0  0
   25.4861   42.2787   17.7028 C   0  0  0  0  0  0  0  0  0  0  0  0
   24.6264   42.8454   17.0219 O   0  0  0  0  0  0  0  0  0  0  0  0
   24.8230   41.0777   19.8167 C   0  0  0  0  0  0  0  0  0  0  0  0
   24.8742   41.0251   21.3388 C   0  0  0  0  0  0  0  0  0  0  0  0
   24.1969   39.7765   21.8966 C   0  0  0  0  0  0  0  0  0  0  0  0
   24.2407   39.7351   23.4323 C   0  0  0  0  0  0  0  0  0  0  0  0
   23.4751   40.8318   24.1052 N   0  0  0  0  0  0  0  0  0  0  0  0
   26.3950   41.6676   17.1255 O   0  0  0  0  0  0  0  0  0  0  0  0
  2  1  1  6  0  0  0
  2  3  1  0  0  0  0
  2  5  1  0  0  0  0
  3  4  1  0  0  0  0
  3 10  1  0  0  0  0
  5  6  1  0  0  0  0
  6  7  1  0  0  0  0
  7  8  1  0  0  0  0
  8  9  1  0  0  0  0
M  END
>  <CHROM.1>
-23.07095993,-62.94115016,176.59790508,-179.49672136,64.48331327,24.82579277
41.51606546,20.08732052,1.04582185,1.09609976,-0.72841253

>  <Name>
ligand

>  <RI>
0

>  <Rbt.Current_Directory>
/home/itssahil/PROJECTS/Mol_Feturizer/New_Systems/rnas/3D0U

>  <Rbt.Executable>
rbdock ($Id: //depot/dev/client3/rdock/2013.1/src/exe/rbdock.cxx#4 $)

>  <Rbt.Library>
libRbt.so (2013.1, Build901 2013/11/27)

>  <Rbt.Parameter_File>
/export/apps/rDock/src/rDock_2013.1_src/data/scripts/dock_solv.prm

>  <Rbt.Receptor>
prm/pocket_docking_4.prm

>  <SCORE>
-9.48409

>  <SCORE.INTER>
-9.12853

>  <SCORE.INTER.CONST>
1

>  <SCORE.INTER.POLAR>
0

>  <SCORE.INTER.ROT>
5

>  <SCORE.INTER.SOLV>
12.8352

>  <SCORE.INTER.VDW>
-17.2974

>  <SCORE.INTER.norm>
-0.912853

>  <SCORE.INTRA>
-0.355559

>  <SCORE.INTRA.DIHEDRAL>
-0.550667

>  <SCORE.INTRA.DIHEDRAL.0>
2.22229

>  <SCORE.INTRA.POLAR>
0

>  <SCORE.INTRA.POLAR.0>
0

>  <SCORE.INTRA.REPUL>
0

>  <SCORE.INTRA.REPUL.0>
0

>  <SCORE.INTRA.SOLV>
0.105314

>  <SCORE.INTRA.SOLV.lig_0>
-31.87

>  <SCORE.INTRA.VDW>
-0.132882

>  <SCORE.INTRA.VDW.0>
-0.575321

>  <SCORE.INTRA.norm>
-0.0355559

>  <SCORE.RESTR>
0

>  <SCORE.RESTR.CAVITY>
0

>  <SCORE.RESTR.norm>
0

>  <SCORE.SYSTEM>
0

>  <SCORE.SYSTEM.CONST>
0

>  <SCORE.SYSTEM.DIHEDRAL>
0

>  <SCORE.SYSTEM.SOLV>
0

>  <SCORE.SYSTEM.norm>
0

>  <SCORE.heavy>
10

>  <SCORE.norm>
-0.948409

>  <RMSD>
5.466

$$$$
ligand
 OpenBabel11021811463D
libRbt.so/2013.1/901 2013/11/27
 10  9  0  0  0  0  0  0  0  0999 V2000
   23.8004   42.4216   17.9856 N   0  0  0  0  0  0  0  0  0  0  0  0
   24.1789   43.1829   19.1697 C   0  0  2  0  0  0  0  0  0  0  0  0
   24.1160   44.6845   18.8956 C   0  0  0  0  0  0  0  0  0  0  0  0
   24.9557   45.2088   18.1581 O   0  0  0  0  0  0  0  0  0  0  0  0
   25.5728   42.7739   19.6558 C   0  0  0  0  0  0  0  0  0  0  0  0
   25.5894   41.4570   20.4224 C   0  0  0  0  0  0  0  0  0  0  0  0
   24.8934   41.5678   21.7760 C   0  0  0  0  0  0  0  0  0  0  0  0
   24.8603   40.2225   22.5182 C   0  0  0  0  0  0  0  0  0  0  0  0
   24.0599   39.1566   21.8364 N   0  0  0  0  0  0  0  0  0  0  0  0
   23.2280   45.3946   19.3855 O   0  0  0  0  0  0  0  0  0  0  0  0
  2  1  1  6  0  0  0
  2  3  1  0  0  0  0
  2  5  1  0  0  0  0
  3  4  1  0  0  0  0
  3 10  1  0  0  0  0
  5  6  1  0  0  0  0
  6  7  1  0  0  0  0
  7  8  1  0  0  0  0
  8  9  1  0  0  0  0
M  END
>  <CHROM.1>
-70.99590346,-77.75106851,-68.96739072,177.55560661,-64.19848504,24.52182537
42.64909157,19.96782813,-2.34362716,-1.43134663,1.76146454

>  <Name>
ligand

>  <RI>
0

>  <Rbt.Current_Directory>
/home/itssahil/PROJECTS/Mol_Feturizer/New_Systems/rnas/3D0U

>  <Rbt.Executable>
rbdock ($Id: //depot/dev/client3/rdock/2013.1/src/exe/rbdock.cxx#4 $)

>  <Rbt.Library>
libRbt.so (2013.1, Build901 2013/11/27)

>  <Rbt.Parameter_File>
/export/apps/rDock/src/rDock_2013.1_src/data/scripts/dock_solv.prm

>  <Rbt.Receptor>
prm/pocket_docking_4.prm

>  <SCORE>
-7.89226

>  <SCORE.INTER>
-8.43296

>  <SCORE.INTER.CONST>
1

>  <SCORE.INTER.POLAR>
0

>  <SCORE.INTER.ROT>
5

>  <SCORE.INTER.SOLV>
14.5449

>  <SCORE.INTER.VDW>
-17.4036

>  <SCORE.INTER.norm>
-0.843296

>  <SCORE.INTRA>
0.540698

>  <SCORE.INTRA.DIHEDRAL>
0.852306

>  <SCORE.INTRA.DIHEDRAL.0>
2.22229

>  <SCORE.INTRA.POLAR>
0

>  <SCORE.INTRA.POLAR.0>
0

>  <SCORE.INTRA.REPUL>
0

>  <SCORE.INTRA.REPUL.0>
0

>  <SCORE.INTRA.SOLV>
0.268308

>  <SCORE.INTRA.SOLV.lig_0>
-31.87

>  <SCORE.INTRA.VDW>
-0.0196091

>  <SCORE.INTRA.VDW.0>
-0.575321

>  <SCORE.INTRA.norm>
0.0540698

>  <SCORE.RESTR>
0

>  <SCORE.RESTR.CAVITY>
0

>  <SCORE.RESTR.norm>
0

>  <SCORE.SYSTEM>
0

>  <SCORE.SYSTEM.CONST>
0

>  <SCORE.SYSTEM.DIHEDRAL>
0

>  <SCORE.SYSTEM.SOLV>
0

>  <SCORE.SYSTEM.norm>
0

>  <SCORE.heavy>
10

>  <SCORE.norm>
-0.789226

>  <RMSD>
5.466

$$$$
ligand
 OpenBabel11021811463D
libRbt.so/2013.1/901 2013/11/27
 10  9  0  0  0  0  0  0  0  0999 V2000
   25.6840   43.1864   17.9554 N   0  0  0  0  0  0  0  0  0  0  0  0
   24.2828   43.4739   18.2368 C   0  0  2  0  0  0  0  0  0  0  0  0
   24.1423   44.7637   19.0434 C   0  0  0  0  0  0  0  0  0  0  0  0
   25.1473   45.3063   19.5121 O   0  0  0  0  0  0  0  0  0  0  0  0
   23.6230   42.2990   18.9653 C   0  0  0  0  0  0  0  0  0  0  0  0
   24.2799   41.9613   20.2982 C   0  0  0  0  0  0  0  0  0  0  0  0
   23.5278   40.8683   21.0522 C   0  0  0  0  0  0  0  0  0  0  0  0
   24.1631   40.5706   22.4195 C   0  0  0  0  0  0  0  0  0  0  0  0
   25.5196   39.9407   22.3501 N   0  0  0  0  0  0  0  0  0  0  0  0
   23.0388   45.2934   19.2289 O   0  0  0  0  0  0  0  0  0  0  0  0
  2  1  1  1  0  0  0
  2  3  1  0  0  0  0
  2  5  1  0  0  0  0
  3  4  1  0  0  0  0
  3 10  1  0  0  0  0
  5  6  1  0  0  0  0
  6  7  1  0  0  0  0
  7  8  1  0  0  0  0
  8  9  1  0  0  0  0
M  END
>  <CHROM.1>
-9.51192084,59.79729265,175.09508706,-177.77183284,-67.45439960,24.33682880
42.80395608,19.91539748,-1.63835978,-0.81176775,2.46499335

>  <Name>
ligand

>  <RI>
0

>  <Rbt.Current_Directory>
/home/itssahil/PROJECTS/Mol_Feturizer/New_Systems/rnas/3D0U

>  <Rbt.Executable>
rbdock ($Id: //depot/dev/client3/rdock/2013.1/src/exe/rbdock.cxx#4 $)

>  <Rbt.Library>
libRbt.so (2013.1, Build901 2013/11/27)

>  <Rbt.Parameter_File>
/export/apps/rDock/src/rDock_2013.1_src/data/scripts/dock_solv.prm

>  <Rbt.Receptor>
prm/pocket_docking_8.prm

>  <SCORE>
-7.03187

>  <SCORE.INTER>
-6.8706

>  <SCORE.INTER.CONST>
1

>  <SCORE.INTER.POLAR>
0

>  <SCORE.INTER.ROT>
5

>  <SCORE.INTER.SOLV>
16.556

>  <SCORE.INTER.VDW>
-17.0324

>  <SCORE.INTER.norm>
-0.68706

>  <SCORE.INTRA>
-0.161274

>  <SCORE.INTRA.DIHEDRAL>
-0.399495

>  <SCORE.INTRA.DIHEDRAL.0>
2.22229

>  <SCORE.INTRA.POLAR>
0

>  <SCORE.INTRA.POLAR.0>
0

>  <SCORE.INTRA.REPUL>
0

>  <SCORE.INTRA.REPUL.0>
0

>  <SCORE.INTRA.SOLV>
0.0477651

>  <SCORE.INTRA.SOLV.lig_0>
-31.87

>  <SCORE.INTRA.VDW>
0.014591

>  <SCORE.INTRA.VDW.0>
-0.575321

>  <SCORE.INTRA.norm>
-0.0161274

>  <SCORE.RESTR>
0

>  <SCORE.RESTR.CAVITY>
0

>  <SCORE.RESTR.norm>
0

>  <SCORE.SYSTEM>
0

>  <SCORE.SYSTEM.CONST>
0

>  <SCORE.SYSTEM.DIHEDRAL>
0

>  <SCORE.SYSTEM.SOLV>
0

>  <SCORE.SYSTEM.norm>
0

>  <SCORE.heavy>
10

>  <SCORE.norm>
-0.703187

>  <RMSD>
5.466

$$$$
ligand
 OpenBabel11021811463D
libRbt.so/2013.1/901 2013/11/27
 10  9  0  0  0  0  0  0  0  0999 V2000
   25.3982   42.6474   18.1302 N   0  0  0  0  0  0  0  0  0  0  0  0
   24.1082   43.0625   18.6676 C   0  0  2  0  0  0  0  0  0  0  0  0
   24.1417   44.5292   19.0937 C   0  0  0  0  0  0  0  0  0  0  0  0
   23.0920   45.1037   19.3969 O   0  0  0  0  0  0  0  0  0  0  0  0
   23.6916   42.1633   19.8356 C   0  0  0  0  0  0  0  0  0  0  0  0
   24.6741   42.1821   21.0004 C   0  0  0  0  0  0  0  0  0  0  0  0
   24.1691   41.3776   22.1948 C   0  0  0  0  0  0  0  0  0  0  0  0
   24.1130   39.8719   21.8925 C   0  0  0  0  0  0  0  0  0  0  0  0
   23.6134   39.0293   23.0248 N   0  0  0  0  0  0  0  0  0  0  0  0
   25.2053   45.1597   19.1584 O   0  0  0  0  0  0  0  0  0  0  0  0
  2  1  1  1  0  0  0
  2  3  1  0  0  0  0
  2  5  1  0  0  0  0
  3  4  1  0  0  0  0
  3 10  1  0  0  0  0
  5  6  1  0  0  0  0
  6  7  1  0  0  0  0
  7  8  1  0  0  0  0
  8  9  1  0  0  0  0
M  END
>  <CHROM.1>
169.92470385,60.10351236,174.82956118,67.54965524,-179.50955397,24.22050879
42.55364153,20.24009226,-1.43530759,-1.00518991,2.61274719

>  <Name>
ligand

>  <RI>
0

>  <Rbt.Current_Directory>
/home/itssahil/PROJECTS/Mol_Feturizer/New_Systems/rnas/3D0U

>  <Rbt.Executable>
rbdock ($Id: //depot/dev/client3/rdock/2013.1/src/exe/rbdock.cxx#4 $)

>  <Rbt.Library>
libRbt.so (2013.1, Build901 2013/11/27)

>  <Rbt.Parameter_File>
/export/apps/rDock/src/rDock_2013.1_src/data/scripts/dock_solv.prm

>  <Rbt.Receptor>
prm/pocket_docking_3.prm

>  <SCORE>
-8.15006

>  <SCORE.INTER>
-8.18601

>  <SCORE.INTER.CONST>
1

>  <SCORE.INTER.POLAR>
0

>  <SCORE.INTER.ROT>
5

>  <SCORE.INTER.SOLV>
12.8446

>  <SCORE.INTER.VDW>
-16.6722

>  <SCORE.INTER.norm>
-0.818601

>  <SCORE.INTRA>
0.0322104

>  <SCORE.INTRA.DIHEDRAL>
-0.413995

>  <SCORE.INTRA.DIHEDRAL.0>
2.22229

>  <SCORE.INTRA.POLAR>
0

>  <SCORE.INTRA.POLAR.0>
0

>  <SCORE.INTRA.REPUL>
0

>  <SCORE.INTRA.REPUL.0>
0

>  <SCORE.INTRA.SOLV>
-0.544283

>  <SCORE.INTRA.SOLV.lig_0>
-31.87

>  <SCORE.INTRA.VDW>
0.511349

>  <SCORE.INTRA.VDW.0>
-0.575321

>  <SCORE.INTRA.norm>
0.00322104

>  <SCORE.RESTR>
0.00374545

>  <SCORE.RESTR.CAVITY>
0.00374545

>  <SCORE.RESTR.norm>
0.000374545

>  <SCORE.SYSTEM>
0

>  <SCORE.SYSTEM.CONST>
0

>  <SCORE.SYSTEM.DIHEDRAL>
0

>  <SCORE.SYSTEM.SOLV>
0

>  <SCORE.SYSTEM.norm>
0

>  <SCORE.heavy>
10

>  <SCORE.norm>
-0.815006

>  <RMSD>
5.469

$$$$
ligand
 OpenBabel11021811463D
libRbt.so/2013.1/901 2013/11/27
 10  9  0  0  0  0  0  0  0  0999 V2000
   25.0498   43.5701   19.6771 N   0  0  0  0  0  0  0  0  0  0  0  0
   25.1394   42.1707   19.2786 C   0  0  2  0  0  0  0  0  0  0  0  0
   25.5419   42.0468   17.8101 C   0  0  0  0  0  0  0  0  0  0  0  0
   24.9604   42.7221   16.9559 O   0  0  0  0  0  0  0  0  0  0  0  0
   23.8178   41.4440   19.5464 C   0  0  0  0  0  0  0  0  0  0  0  0
   23.4796   41.3189   21.0270 C   0  0  0  0  0  0  0  0  0  0  0  0
   24.2686   40.2038   21.7075 C   0  0  0  0  0  0  0  0  0  0  0  0
   23.8873   40.0497   23.1882 C   0  0  0  0  0  0  0  0  0  0  0  0
   24.4990   38.8635   23.8668 N   0  0  0  0  0  0  0  0  0  0  0  0
   26.4547   41.2912   17.4513 O   0  0  0  0  0  0  0  0  0  0  0  0
  2  1  1  6  0  0  0
  2  3  1  0  0  0  0
  2  5  1  0  0  0  0
  3  4  1  0  0  0  0
  3 10  1  0  0  0  0
  5  6  1  0  0  0  0
  6  7  1  0  0  0  0
  7  8  1  0  0  0  0
  8  9  1  0  0  0  0
M  END
>  <CHROM.1>
-48.03262838,-66.44902340,-78.23782209,-177.98033773,172.69517198,24.72276575
41.37053598,20.00831860,1.21030892,0.89158121,-0.83199475

>  <Name>
ligand

>  <RI>
0

>  <Rbt.Current_Directory>
/home/itssahil/PROJECTS/Mol_Feturizer/New_Systems/rnas/3D0U

>  <Rbt.Executable>
rbdock ($Id: //depot/dev/client3/rdock/2013.1/src/exe/rbdock.cxx#4 $)

>  <Rbt.Library>
libRbt.so (2013.1, Build901 2013/11/27)

>  <Rbt.Parameter_File>
/export/apps/rDock/src/rDock_2013.1_src/data/scripts/dock_solv.prm

>  <Rbt.Receptor>
prm/pocket_docking_4.prm

>  <SCORE>
-7.49459

>  <SCORE.INTER>
-7.51293

>  <SCORE.INTER.CONST>
1

>  <SCORE.INTER.POLAR>
0

>  <SCORE.INTER.ROT>
5

>  <SCORE.INTER.SOLV>
14.4912

>  <SCORE.INTER.VDW>
-16.7724

>  <SCORE.INTER.norm>
-0.751293

>  <SCORE.INTRA>
0.0183469

>  <SCORE.INTRA.DIHEDRAL>
0.955814

>  <SCORE.INTRA.DIHEDRAL.0>
2.22229

>  <SCORE.INTRA.POLAR>
0

>  <SCORE.INTRA.POLAR.0>
0

>  <SCORE.INTRA.REPUL>
0

>  <SCORE.INTRA.REPUL.0>
0

>  <SCORE.INTRA.SOLV>
-0.455519

>  <SCORE.INTRA.SOLV.lig_0>
-31.87

>  <SCORE.INTRA.VDW>
-0.2318

>  <SCORE.INTRA.VDW.0>
-0.575321

>  <SCORE.INTRA.norm>
0.00183469

>  <SCORE.RESTR>
0

>  <SCORE.RESTR.CAVITY>
0

>  <SCORE.RESTR.norm>
0

>  <SCORE.SYSTEM>
0

>  <SCORE.SYSTEM.CONST>
0

>  <SCORE.SYSTEM.DIHEDRAL>
0

>  <SCORE.SYSTEM.SOLV>
0

>  <SCORE.SYSTEM.norm>
0

>  <SCORE.heavy>
10

>  <SCORE.norm>
-0.749459

>  <RMSD>
5.469

$$$$
ligand
 OpenBabel11021811463D
libRbt.so/2013.1/901 2013/11/27
 10  9  0  0  0  0  0  0  0  0999 V2000
   25.1054   44.8519   18.4850 N   0  0  0  0  0  0  0  0  0  0  0  0
   25.4553   43.5063   18.9232 C   0  0  2  0  0  0  0  0  0  0  0  0
   25.1880   42.4863   17.8178 C   0  0  0  0  0  0  0  0  0  0  0  0
   26.0602   41.6665   17.5159 O   0  0  0  0  0  0  0  0  0  0  0  0
   24.6976   43.1374   20.2023 C   0  0  0  0  0  0  0  0  0  0  0  0
   25.0815   41.7751   20.7672 C   0  0  0  0  0  0  0  0  0  0  0  0
   24.2195   41.3823   21.9637 C   0  0  0  0  0  0  0  0  0  0  0  0
   24.5491   39.9699   22.4718 C   0  0  0  0  0  0  0  0  0  0  0  0
   23.6646   39.4858   23.5785 N   0  0  0  0  0  0  0  0  0  0  0  0
   24.1041   42.4490   17.2206 O   0  0  0  0  0  0  0  0  0  0  0  0
  2  1  1  6  0  0  0
  2  3  1  0  0  0  0
  2  5  1  0  0  0  0
  3  4  1  0  0  0  0
  3 10  1  0  0  0  0
  5  6  1  0  0  0  0
  6  7  1  0  0  0  0
  7  8  1  0  0  0  0
  8  9  1  0  0  0  0
M  END
>  <CHROM.1>
130.98915910,-176.35013504,-174.69984821,176.27572779,-175.53952236,24.81022401
42.05445419,19.86024111,0.45503815,1.37784526,0.07784896

>  <Name>
ligand

>  <RI>
0

>  <Rbt.Current_Directory>
/home/itssahil/PROJECTS/Mol_Feturizer/New_Systems/rnas/3D0U

>  <Rbt.Executable>
rbdock ($Id: //depot/dev/client3/rdock/2013.1/src/exe/rbdock.cxx#4 $)

>  <Rbt.Library>
libRbt.so (2013.1, Build901 2013/11/27)

>  <Rbt.Parameter_File>
/export/apps/rDock/src/rDock_2013.1_src/data/scripts/dock_solv.prm

>  <Rbt.Receptor>
prm/pocket_docking_8.prm

>  <SCORE>
-8.36251

>  <SCORE.INTER>
-7.05349

>  <SCORE.INTER.CONST>
1

>  <SCORE.INTER.POLAR>
0

>  <SCORE.INTER.ROT>
5

>  <SCORE.INTER.SOLV>
16.092

>  <SCORE.INTER.VDW>
-16.9996

>  <SCORE.INTER.norm>
-0.705349

>  <SCORE.INTRA>
-1.30903

>  <SCORE.INTRA.DIHEDRAL>
-0.464217

>  <SCORE.INTRA.DIHEDRAL.0>
2.22229

>  <SCORE.INTRA.POLAR>
0

>  <SCORE.INTRA.POLAR.0>
0

>  <SCORE.INTRA.REPUL>
0

>  <SCORE.INTRA.REPUL.0>
0

>  <SCORE.INTRA.SOLV>
-1.61522

>  <SCORE.INTRA.SOLV.lig_0>
-31.87

>  <SCORE.INTRA.VDW>
-0.269307

>  <SCORE.INTRA.VDW.0>
-0.575321

>  <SCORE.INTRA.norm>
-0.130903

>  <SCORE.RESTR>
0

>  <SCORE.RESTR.CAVITY>
0

>  <SCORE.RESTR.norm>
0

>  <SCORE.SYSTEM>
0

>  <SCORE.SYSTEM.CONST>
0

>  <SCORE.SYSTEM.DIHEDRAL>
0

>  <SCORE.SYSTEM.SOLV>
0

>  <SCORE.SYSTEM.norm>
0

>  <SCORE.heavy>
10

>  <SCORE.norm>
-0.836251

>  <RMSD>
5.477

$$$$
ligand
 OpenBabel11021811463D
libRbt.so/2013.1/901 2013/11/27
 10  9  0  0  0  0  0  0  0  0999 V2000
   25.4363   42.5548   16.8938 N   0  0  0  0  0  0  0  0  0  0  0  0
   24.7032   42.4566   18.1500 C   0  0  2  0  0  0  0  0  0  0  0  0
   24.3775   43.8437   18.7008 C   0  0  0  0  0  0  0  0  0  0  0  0
   25.1871   44.7650   18.5601 O   0  0  0  0  0  0  0  0  0  0  0  0
   25.4888   41.6321   19.1743 C   0  0  0  0  0  0  0  0  0  0  0  0
   24.7113   41.3476   20.4537 C   0  0  0  0  0  0  0  0  0  0  0  0
   25.5345   40.5558   21.4658 C   0  0  0  0  0  0  0  0  0  0  0  0
   24.7203   40.2041   22.7209 C   0  0  0  0  0  0  0  0  0  0  0  0
   23.5835   39.2601   22.4794 N   0  0  0  0  0  0  0  0  0  0  0  0
   23.3065   44.0756   19.2772 O   0  0  0  0  0  0  0  0  0  0  0  0
  2  1  1  6  0  0  0
  2  3  1  0  0  0  0
  2  5  1  0  0  0  0
  3  4  1  0  0  0  0
  3 10  1  0  0  0  0
  5  6  1  0  0  0  0
  6  7  1  0  0  0  0
  7  8  1  0  0  0  0
  8  9  1  0  0  0  0
M  END
>  <CHROM.1>
-36.04759291,-173.11325438,-178.54154343,-176.80795384,65.87529553,24.69681301
42.10747049,19.79054387,-1.48717910,-0.94436164,2.38986385

>  <Name>
ligand

>  <RI>
0

>  <Rbt.Current_Directory>
/home/itssahil/PROJECTS/Mol_Feturizer/New_Systems/rnas/3D0U

>  <Rbt.Executable>
rbdock ($Id: //depot/dev/client3/rdock/2013.1/src/exe/rbdock.cxx#4 $)

>  <Rbt.Library>
libRbt.so (2013.1, Build901 2013/11/27)

>  <Rbt.Parameter_File>
/export/apps/rDock/src/rDock_2013.1_src/data/scripts/dock_solv.prm

>  <Rbt.Receptor>
prm/pocket_docking_4.prm

>  <SCORE>
-8.0893

>  <SCORE.INTER>
-7.30138

>  <SCORE.INTER.CONST>
1

>  <SCORE.INTER.POLAR>
0

>  <SCORE.INTER.ROT>
5

>  <SCORE.INTER.SOLV>
17.294

>  <SCORE.INTER.VDW>
-17.5656

>  <SCORE.INTER.norm>
-0.730138

>  <SCORE.INTRA>
-0.794159

>  <SCORE.INTRA.DIHEDRAL>
-0.360083

>  <SCORE.INTRA.DIHEDRAL.0>
2.22229

>  <SCORE.INTRA.POLAR>
0

>  <SCORE.INTRA.POLAR.0>
0

>  <SCORE.INTRA.REPUL>
0

>  <SCORE.INTRA.REPUL.0>
0

>  <SCORE.INTRA.SOLV>
-0.770468

>  <SCORE.INTRA.SOLV.lig_0>
-31.87

>  <SCORE.INTRA.VDW>
-0.228884

>  <SCORE.INTRA.VDW.0>
-0.575321

>  <SCORE.INTRA.norm>
-0.0794159

>  <SCORE.RESTR>
0.00623443

>  <SCORE.RESTR.CAVITY>
0.00623443

>  <SCORE.RESTR.norm>
0.000623443

>  <SCORE.SYSTEM>
0

>  <SCORE.SYSTEM.CONST>
0

>  <SCORE.SYSTEM.DIHEDRAL>
0

>  <SCORE.SYSTEM.SOLV>
0

>  <SCORE.SYSTEM.norm>
0

>  <SCORE.heavy>
10

>  <SCORE.norm>
-0.80893

>  <RMSD>
5.479

$$$$
ligand
 OpenBabel11021811463D
libRbt.so/2013.1/901 2013/11/27
 10  9  0  0  0  0  0  0  0  0999 V2000
   23.7622   42.4852   18.0933 N   0  0  0  0  0  0  0  0  0  0  0  0
   24.0532   43.3031   19.2644 C   0  0  2  0  0  0  0  0  0  0  0  0
   23.9514   44.7902   18.9297 C   0  0  0  0  0  0  0  0  0  0  0  0
   24.7899   45.3105   18.1880 O   0  0  0  0  0  0  0  0  0  0  0  0
   25.4342   42.9643   19.8340 C   0  0  0  0  0  0  0  0  0  0  0  0
   25.4804   41.6298   20.5684 C   0  0  0  0  0  0  0  0  0  0  0  0
   24.6988   41.6643   21.8787 C   0  0  0  0  0  0  0  0  0  0  0  0
   24.6909   40.2970   22.5804 C   0  0  0  0  0  0  0  0  0  0  0  0
   23.9888   39.2138   21.8219 N   0  0  0  0  0  0  0  0  0  0  0  0
   23.0331   45.4917   19.3741 O   0  0  0  0  0  0  0  0  0  0  0  0
  2  1  1  6  0  0  0
  2  3  1  0  0  0  0
  2  5  1  0  0  0  0
  3  4  1  0  0  0  0
  3 10  1  0  0  0  0
  5  6  1  0  0  0  0
  6  7  1  0  0  0  0
  7  8  1  0  0  0  0
  8  9  1  0  0  0  0
M  END
>  <CHROM.1>
-69.21241090,-73.72925609,-69.36838802,177.17998507,-64.24554889,24.38374301
42.75677546,20.03945233,-2.43482559,-1.43644624,1.67132360

>  <Name>
ligand

>  <RI>
0

>  <Rbt.Current_Directory>
/home/itssahil/PROJECTS/Mol_Feturizer/New_Systems/rnas/3D0U

>  <Rbt.Executable>
rbdock ($Id: //depot/dev/client3/rdock/2013.1/src/exe/rbdock.cxx#4 $)

>  <Rbt.Library>
libRbt.so (2013.1, Build901 2013/11/27)

>  <Rbt.Parameter_File>
/export/apps/rDock/src/rDock_2013.1_src/data/scripts/dock_solv.prm

>  <Rbt.Receptor>
prm/pocket_docking_6.prm

>  <SCORE>
-7.78483

>  <SCORE.INTER>
-8.14771

>  <SCORE.INTER.CONST>
1

>  <SCORE.INTER.POLAR>
0

>  <SCORE.INTER.ROT>
5

>  <SCORE.INTER.SOLV>
14.3233

>  <SCORE.INTER.VDW>
-17.1396

>  <SCORE.INTER.norm>
-0.814771

>  <SCORE.INTRA>
0.362871

>  <SCORE.INTRA.DIHEDRAL>
0.441522

>  <SCORE.INTRA.DIHEDRAL.0>
2.22229

>  <SCORE.INTRA.POLAR>
0

>  <SCORE.INTRA.POLAR.0>
0

>  <SCORE.INTRA.REPUL>
0

>  <SCORE.INTRA.REPUL.0>
0

>  <SCORE.INTRA.SOLV>
0.339649

>  <SCORE.INTRA.SOLV.lig_0>
-31.87

>  <SCORE.INTRA.VDW>
-0.0277142

>  <SCORE.INTRA.VDW.0>
-0.575321

>  <SCORE.INTRA.norm>
0.0362871

>  <SCORE.RESTR>
0

>  <SCORE.RESTR.CAVITY>
0

>  <SCORE.RESTR.norm>
0

>  <SCORE.SYSTEM>
0

>  <SCORE.SYSTEM.CONST>
0

>  <SCORE.SYSTEM.DIHEDRAL>
0

>  <SCORE.SYSTEM.SOLV>
0

>  <SCORE.SYSTEM.norm>
0

>  <SCORE.heavy>
10

>  <SCORE.norm>
-0.778483

>  <RMSD>
5.480

$$$$
ligand
 OpenBabel11021811463D
libRbt.so/2013.1/901 2013/11/27
 10  9  0  0  0  0  0  0  0  0999 V2000
   24.2178   43.3862   19.4561 N   0  0  0  0  0  0  0  0  0  0  0  0
   25.3489   42.5052   19.1926 C   0  0  2  0  0  0  0  0  0  0  0  0
   25.4863   42.2270   17.6967 C   0  0  0  0  0  0  0  0  0  0  0  0
   24.6662   42.7035   16.9066 O   0  0  0  0  0  0  0  0  0  0  0  0
   25.2153   41.1990   19.9815 C   0  0  0  0  0  0  0  0  0  0  0  0
   25.3641   41.3781   21.4875 C   0  0  0  0  0  0  0  0  0  0  0  0
   25.1418   40.0743   22.2489 C   0  0  0  0  0  0  0  0  0  0  0  0
   23.6549   39.6910   22.3122 C   0  0  0  0  0  0  0  0  0  0  0  0
   23.3568   38.4991   23.1678 N   0  0  0  0  0  0  0  0  0  0  0  0
   26.4156   41.5424   17.2489 O   0  0  0  0  0  0  0  0  0  0  0  0
  2  1  1  6  0  0  0
  2  3  1  0  0  0  0
  2  5  1  0  0  0  0
  3  4  1  0  0  0  0
  3 10  1  0  0  0  0
  5  6  1  0  0  0  0
  6  7  1  0  0  0  0
  7  8  1  0  0  0  0
  8  9  1  0  0  0  0
M  END
>  <CHROM.1>
-2.02691520,-68.37032434,176.52450468,-74.81587127,-173.88739948,24.89351092
41.32171765,19.92666711,1.18766219,0.94570159,-0.72224553

>  <Name>
ligand

>  <RI>
0

>  <Rbt.Current_Directory>
/home/itssahil/PROJECTS/Mol_Feturizer/New_Systems/rnas/3D0U

>  <Rbt.Executable>
rbdock ($Id: //depot/dev/client3/rdock/2013.1/src/exe/rbdock.cxx#4 $)

>  <Rbt.Library>
libRbt.so (2013.1, Build901 2013/11/27)

>  <Rbt.Parameter_File>
/export/apps/rDock/src/rDock_2013.1_src/data/scripts/dock_solv.prm

>  <Rbt.Receptor>
prm/pocket_docking_7.prm

>  <SCORE>
-8.98874

>  <SCORE.INTER>
-9.2227

>  <SCORE.INTER.CONST>
1

>  <SCORE.INTER.POLAR>
0

>  <SCORE.INTER.ROT>
5

>  <SCORE.INTER.SOLV>
12.2557

>  <SCORE.INTER.VDW>
-17.167

>  <SCORE.INTER.norm>
-0.92227

>  <SCORE.INTRA>
0.233958

>  <SCORE.INTRA.DIHEDRAL>
0.614694

>  <SCORE.INTRA.DIHEDRAL.0>
2.22229

>  <SCORE.INTRA.POLAR>
0

>  <SCORE.INTRA.POLAR.0>
0

>  <SCORE.INTRA.REPUL>
0

>  <SCORE.INTRA.REPUL.0>
0

>  <SCORE.INTRA.SOLV>
-0.666051

>  <SCORE.INTRA.SOLV.lig_0>
-31.87

>  <SCORE.INTRA.VDW>
0.259636

>  <SCORE.INTRA.VDW.0>
-0.575321

>  <SCORE.INTRA.norm>
0.0233958

>  <SCORE.RESTR>
0

>  <SCORE.RESTR.CAVITY>
0

>  <SCORE.RESTR.norm>
0

>  <SCORE.SYSTEM>
0

>  <SCORE.SYSTEM.CONST>
0

>  <SCORE.SYSTEM.DIHEDRAL>
0

>  <SCORE.SYSTEM.SOLV>
0

>  <SCORE.SYSTEM.norm>
0

>  <SCORE.heavy>
10

>  <SCORE.norm>
-0.898874

>  <RMSD>
5.480

$$$$
ligand
 OpenBabel11021811463D
libRbt.so/2013.1/901 2013/11/27
 10  9  0  0  0  0  0  0  0  0999 V2000
   24.5115   43.5913   19.5175 N   0  0  0  0  0  0  0  0  0  0  0  0
   25.4919   42.5829   19.1338 C   0  0  2  0  0  0  0  0  0  0  0  0
   25.4609   42.3385   17.6261 C   0  0  0  0  0  0  0  0  0  0  0  0
   26.3578   41.6784   17.0934 O   0  0  0  0  0  0  0  0  0  0  0  0
   25.2600   41.2792   19.9038 C   0  0  0  0  0  0  0  0  0  0  0  0
   25.4576   41.4163   21.4086 C   0  0  0  0  0  0  0  0  0  0  0  0
   25.1931   40.1074   22.1474 C   0  0  0  0  0  0  0  0  0  0  0  0
   23.7081   39.7137   22.1076 C   0  0  0  0  0  0  0  0  0  0  0  0
   23.3689   38.4888   22.8989 N   0  0  0  0  0  0  0  0  0  0  0  0
   24.5437   42.7759   16.9188 O   0  0  0  0  0  0  0  0  0  0  0  0
  2  1  1  6  0  0  0
  2  3  1  0  0  0  0
  2  5  1  0  0  0  0
  3  4  1  0  0  0  0
  3 10  1  0  0  0  0
  5  6  1  0  0  0  0
  6  7  1  0  0  0  0
  7  8  1  0  0  0  0
  8  9  1  0  0  0  0
M  END
>  <CHROM.1>
168.61120265,-63.90857270,178.90544105,-68.41745273,-175.83032604,24.93855980
41.39861975,19.83241944,0.70973659,1.28561875,-0.16880533

>  <Name>
ligand

>  <RI>
0

>  <Rbt.Current_Directory>
/home/itssahil/PROJECTS/Mol_Feturizer/New_Systems/rnas/3D0U

>  <Rbt.Executable>
rbdock ($Id: //depot/dev/client3/rdock/2013.1/src/exe/rbdock.cxx#4 $)

>  <Rbt.Library>
libRbt.so (2013.1, Build901 2013/11/27)

>  <Rbt.Parameter_File>
/export/apps/rDock/src/rDock_2013.1_src/data/scripts/dock_solv.prm

>  <Rbt.Receptor>
prm/pocket_docking_4.prm

>  <SCORE>
-9.39528

>  <SCORE.INTER>
-9.3126

>  <SCORE.INTER.CONST>
1

>  <SCORE.INTER.POLAR>
0

>  <SCORE.INTER.ROT>
5

>  <SCORE.INTER.SOLV>
12.6887

>  <SCORE.INTER.VDW>
-17.3713

>  <SCORE.INTER.norm>
-0.93126

>  <SCORE.INTRA>
-0.0826774

>  <SCORE.INTRA.DIHEDRAL>
-0.333559

>  <SCORE.INTRA.DIHEDRAL.0>
2.22229

>  <SCORE.INTRA.POLAR>
0

>  <SCORE.INTRA.POLAR.0>
0

>  <SCORE.INTRA.REPUL>
0

>  <SCORE.INTRA.REPUL.0>
0

>  <SCORE.INTRA.SOLV>
-0.58484

>  <SCORE.INTRA.SOLV.lig_0>
-31.87

>  <SCORE.INTRA.VDW>
0.376522

>  <SCORE.INTRA.VDW.0>
-0.575321

>  <SCORE.INTRA.norm>
-0.00826774

>  <SCORE.RESTR>
0

>  <SCORE.RESTR.CAVITY>
0

>  <SCORE.RESTR.norm>
0

>  <SCORE.SYSTEM>
0

>  <SCORE.SYSTEM.CONST>
0

>  <SCORE.SYSTEM.DIHEDRAL>
0

>  <SCORE.SYSTEM.SOLV>
0

>  <SCORE.SYSTEM.norm>
0

>  <SCORE.heavy>
10

>  <SCORE.norm>
-0.939528

>  <RMSD>
5.483

$$$$
ligand
 OpenBabel11021811463D
libRbt.so/2013.1/901 2013/11/27
 10  9  0  0  0  0  0  0  0  0999 V2000
   25.3887   42.5803   17.2388 N   0  0  0  0  0  0  0  0  0  0  0  0
   24.2267   42.8257   18.0841 C   0  0  2  0  0  0  0  0  0  0  0  0
   24.2290   44.2597   18.6110 C   0  0  0  0  0  0  0  0  0  0  0  0
   25.2016   44.9896   18.3980 O   0  0  0  0  0  0  0  0  0  0  0  0
   24.1718   41.8195   19.2377 C   0  0  0  0  0  0  0  0  0  0  0  0
   25.3922   41.8693   20.1490 C   0  0  0  0  0  0  0  0  0  0  0  0
   25.2626   40.9240   21.3400 C   0  0  0  0  0  0  0  0  0  0  0  0
   24.1572   41.3690   22.3105 C   0  0  0  0  0  0  0  0  0  0  0  0
   23.9484   40.4528   23.4762 N   0  0  0  0  0  0  0  0  0  0  0  0
   23.2663   44.7194   19.2392 O   0  0  0  0  0  0  0  0  0  0  0  0
  2  1  1  1  0  0  0
  2  3  1  0  0  0  0
  2  5  1  0  0  0  0
  3  4  1  0  0  0  0
  3 10  1  0  0  0  0
  5  6  1  0  0  0  0
  6  7  1  0  0  0  0
  7  8  1  0  0  0  0
  8  9  1  0  0  0  0
M  END
>  <CHROM.1>
-6.42767219,60.02941948,176.06019551,-67.33956917,177.91448900,24.52264216
42.61905376,19.81003555,-1.50607868,-1.03690514,2.27204608

>  <Name>
ligand

>  <RI>
0

>  <Rbt.Current_Directory>
/home/itssahil/PROJECTS/Mol_Feturizer/New_Systems/rnas/3D0U

>  <Rbt.Executable>
rbdock ($Id: //depot/dev/client3/rdock/2013.1/src/exe/rbdock.cxx#4 $)

>  <Rbt.Library>
libRbt.so (2013.1, Build901 2013/11/27)

>  <Rbt.Parameter_File>
/export/apps/rDock/src/rDock_2013.1_src/data/scripts/dock_solv.prm

>  <Rbt.Receptor>
prm/pocket_docking_6.prm

>  <SCORE>
-8.33811

>  <SCORE.INTER>
-8.38011

>  <SCORE.INTER.CONST>
1

>  <SCORE.INTER.POLAR>
0

>  <SCORE.INTER.ROT>
5

>  <SCORE.INTER.SOLV>
16.2397

>  <SCORE.INTER.VDW>
-17.9333

>  <SCORE.INTER.norm>
-0.838011

>  <SCORE.INTRA>
0.0420065

>  <SCORE.INTRA.DIHEDRAL>
-0.428783

>  <SCORE.INTRA.DIHEDRAL.0>
2.22229

>  <SCORE.INTRA.POLAR>
0

>  <SCORE.INTRA.POLAR.0>
0

>  <SCORE.INTRA.REPUL>
0

>  <SCORE.INTRA.REPUL.0>
0

>  <SCORE.INTRA.SOLV>
-0.513394

>  <SCORE.INTRA.SOLV.lig_0>
-31.87

>  <SCORE.INTRA.VDW>
0.513095

>  <SCORE.INTRA.VDW.0>
-0.575321

>  <SCORE.INTRA.norm>
0.00420065

>  <SCORE.RESTR>
0

>  <SCORE.RESTR.CAVITY>
0

>  <SCORE.RESTR.norm>
0

>  <SCORE.SYSTEM>
0

>  <SCORE.SYSTEM.CONST>
0

>  <SCORE.SYSTEM.DIHEDRAL>
0

>  <SCORE.SYSTEM.SOLV>
0

>  <SCORE.SYSTEM.norm>
0

>  <SCORE.heavy>
10

>  <SCORE.norm>
-0.833811

>  <RMSD>
5.485

$$$$
ligand
 OpenBabel11021811463D
libRbt.so/2013.1/901 2013/11/27
 10  9  0  0  0  0  0  0  0  0999 V2000
   25.3503   42.5988   17.2602 N   0  0  0  0  0  0  0  0  0  0  0  0
   24.1979   42.8581   18.1145 C   0  0  2  0  0  0  0  0  0  0  0  0
   24.2178   44.2939   18.6358 C   0  0  0  0  0  0  0  0  0  0  0  0
   25.2016   45.0092   18.4248 O   0  0  0  0  0  0  0  0  0  0  0  0
   24.1439   41.8568   19.2724 C   0  0  0  0  0  0  0  0  0  0  0  0
   25.3884   41.8736   20.1518 C   0  0  0  0  0  0  0  0  0  0  0  0
   25.2701   40.9211   21.3382 C   0  0  0  0  0  0  0  0  0  0  0  0
   24.1741   41.3602   22.3219 C   0  0  0  0  0  0  0  0  0  0  0  0
   23.9658   40.4292   23.4758 N   0  0  0  0  0  0  0  0  0  0  0  0
   23.2585   44.7697   19.2572 O   0  0  0  0  0  0  0  0  0  0  0  0
  2  1  1  1  0  0  0
  2  3  1  0  0  0  0
  2  5  1  0  0  0  0
  3  4  1  0  0  0  0
  3 10  1  0  0  0  0
  5  6  1  0  0  0  0
  6  7  1  0  0  0  0
  7  8  1  0  0  0  0
  8  9  1  0  0  0  0
M  END
>  <CHROM.1>
-7.26244577,58.52349480,176.84887762,-65.80793084,177.26068835,24.51535034
42.63535372,19.82679625,-1.52054676,-1.04006493,2.27151460

>  <Name>
ligand

>  <RI>
0

>  <Rbt.Current_Directory>
/home/itssahil/PROJECTS/Mol_Feturizer/New_Systems/rnas/3D0U

>  <Rbt.Executable>
rbdock ($Id: //depot/dev/client3/rdock/2013.1/src/exe/rbdock.cxx#4 $)

>  <Rbt.Library>
libRbt.so (2013.1, Build901 2013/11/27)

>  <Rbt.Parameter_File>
/export/apps/rDock/src/rDock_2013.1_src/data/scripts/dock_solv.prm

>  <Rbt.Receptor>
prm/pocket_docking_7.prm

>  <SCORE>
-8.36633

>  <SCORE.INTER>
-8.4313

>  <SCORE.INTER.CONST>
1

>  <SCORE.INTER.POLAR>
0

>  <SCORE.INTER.ROT>
5

>  <SCORE.INTER.SOLV>
16.1287

>  <SCORE.INTER.VDW>
-17.9304

>  <SCORE.INTER.norm>
-0.84313

>  <SCORE.INTRA>
0.0649703

>  <SCORE.INTRA.DIHEDRAL>
-0.510416

>  <SCORE.INTRA.DIHEDRAL.0>
2.22229

>  <SCORE.INTRA.POLAR>
0

>  <SCORE.INTRA.POLAR.0>
0

>  <SCORE.INTRA.REPUL>
0

>  <SCORE.INTRA.REPUL.0>
0

>  <SCORE.INTRA.SOLV>
-0.47808

>  <SCORE.INTRA.SOLV.lig_0>
-31.87

>  <SCORE.INTRA.VDW>
0.559219

>  <SCORE.INTRA.VDW.0>
-0.575321

>  <SCORE.INTRA.norm>
0.00649703

>  <SCORE.RESTR>
0

>  <SCORE.RESTR.CAVITY>
0

>  <SCORE.RESTR.norm>
0

>  <SCORE.SYSTEM>
0

>  <SCORE.SYSTEM.CONST>
0

>  <SCORE.SYSTEM.DIHEDRAL>
0

>  <SCORE.SYSTEM.SOLV>
0

>  <SCORE.SYSTEM.norm>
0

>  <SCORE.heavy>
10

>  <SCORE.norm>
-0.836633

>  <RMSD>
5.485

$$$$
ligand
 OpenBabel11021811463D
libRbt.so/2013.1/901 2013/11/27
 10  9  0  0  0  0  0  0  0  0999 V2000
   24.5279   43.6003   19.5096 N   0  0  0  0  0  0  0  0  0  0  0  0
   25.5028   42.5899   19.1174 C   0  0  2  0  0  0  0  0  0  0  0  0
   25.4557   42.3429   17.6106 C   0  0  0  0  0  0  0  0  0  0  0  0
   26.3326   41.6598   17.0736 O   0  0  0  0  0  0  0  0  0  0  0  0
   25.2772   41.2879   19.8922 C   0  0  0  0  0  0  0  0  0  0  0  0
   25.4436   41.4384   21.3995 C   0  0  0  0  0  0  0  0  0  0  0  0
   25.1861   40.1304   22.1423 C   0  0  0  0  0  0  0  0  0  0  0  0
   23.7037   39.7270   22.1009 C   0  0  0  0  0  0  0  0  0  0  0  0
   23.3640   38.5247   22.9260 N   0  0  0  0  0  0  0  0  0  0  0  0
   24.5448   42.8011   16.9083 O   0  0  0  0  0  0  0  0  0  0  0  0
  2  1  1  1  0  0  0
  2  3  1  0  0  0  0
  2  5  1  0  0  0  0
  3  4  1  0  0  0  0
  3 10  1  0  0  0  0
  5  6  1  0  0  0  0
  6  7  1  0  0  0  0
  7  8  1  0  0  0  0
  8  9  1  0  0  0  0
M  END
>  <CHROM.1>
169.95505291,-61.91252833,178.90616336,-69.56488954,-174.23907811,24.93671188
41.41152473,19.82483445,0.68405882,1.29188146,-0.14706472

>  <Name>
ligand

>  <RI>
0

>  <Rbt.Current_Directory>
/home/itssahil/PROJECTS/Mol_Feturizer/New_Systems/rnas/3D0U

>  <Rbt.Executable>
rbdock ($Id: //depot/dev/client3/rdock/2013.1/src/exe/rbdock.cxx#4 $)

>  <Rbt.Library>
libRbt.so (2013.1, Build901 2013/11/27)

>  <Rbt.Parameter_File>
/export/apps/rDock/src/rDock_2013.1_src/data/scripts/dock_solv.prm

>  <Rbt.Receptor>
prm/pocket_docking_4.prm

>  <SCORE>
-9.41266

>  <SCORE.INTER>
-9.3816

>  <SCORE.INTER.CONST>
1

>  <SCORE.INTER.POLAR>
0

>  <SCORE.INTER.ROT>
5

>  <SCORE.INTER.SOLV>
12.6369

>  <SCORE.INTER.VDW>
-17.4

>  <SCORE.INTER.norm>
-0.93816

>  <SCORE.INTRA>
-0.0310604

>  <SCORE.INTRA.DIHEDRAL>
-0.238817

>  <SCORE.INTRA.DIHEDRAL.0>
2.22229

>  <SCORE.INTRA.POLAR>
0

>  <SCORE.INTRA.POLAR.0>
0

>  <SCORE.INTRA.REPUL>
0

>  <SCORE.INTRA.REPUL.0>
0

>  <SCORE.INTRA.SOLV>
-0.573508

>  <SCORE.INTRA.SOLV.lig_0>
-31.87

>  <SCORE.INTRA.VDW>
0.375102

>  <SCORE.INTRA.VDW.0>
-0.575321

>  <SCORE.INTRA.norm>
-0.00310604

>  <SCORE.RESTR>
0

>  <SCORE.RESTR.CAVITY>
0

>  <SCORE.RESTR.norm>
0

>  <SCORE.SYSTEM>
0

>  <SCORE.SYSTEM.CONST>
0

>  <SCORE.SYSTEM.DIHEDRAL>
0

>  <SCORE.SYSTEM.SOLV>
0

>  <SCORE.SYSTEM.norm>
0

>  <SCORE.heavy>
10

>  <SCORE.norm>
-0.941266

>  <RMSD>
5.487

$$$$
ligand
 OpenBabel11021811463D
libRbt.so/2013.1/901 2013/11/27
 10  9  0  0  0  0  0  0  0  0999 V2000
   24.8931   44.8453   18.4396 N   0  0  0  0  0  0  0  0  0  0  0  0
   25.3812   43.5740   18.9601 C   0  0  2  0  0  0  0  0  0  0  0  0
   25.3934   42.5063   17.8675 C   0  0  0  0  0  0  0  0  0  0  0  0
   24.7453   42.6817   16.8316 O   0  0  0  0  0  0  0  0  0  0  0  0
   24.5426   43.1200   20.1588 C   0  0  0  0  0  0  0  0  0  0  0  0
   25.0745   41.8615   20.8337 C   0  0  0  0  0  0  0  0  0  0  0  0
   24.1678   41.3858   21.9653 C   0  0  0  0  0  0  0  0  0  0  0  0
   24.6399   40.0487   22.5578 C   0  0  0  0  0  0  0  0  0  0  0  0
   23.7380   39.4829   23.6105 N   0  0  0  0  0  0  0  0  0  0  0  0
   26.0542   41.4662   17.9872 O   0  0  0  0  0  0  0  0  0  0  0  0
  2  1  1  6  0  0  0
  2  3  1  0  0  0  0
  2  5  1  0  0  0  0
  3  4  1  0  0  0  0
  3 10  1  0  0  0  0
  5  6  1  0  0  0  0
  6  7  1  0  0  0  0
  7  8  1  0  0  0  0
  8  9  1  0  0  0  0
M  END
>  <CHROM.1>
-16.73627664,-174.71779686,-176.29607811,174.83081303,-176.05420496,24.86688474
42.08018586,19.88685626,0.98515294,1.26024894,-0.46874986

>  <Name>
ligand

>  <RI>
0

>  <Rbt.Current_Directory>
/home/itssahil/PROJECTS/Mol_Feturizer/New_Systems/rnas/3D0U

>  <Rbt.Executable>
rbdock ($Id: //depot/dev/client3/rdock/2013.1/src/exe/rbdock.cxx#4 $)

>  <Rbt.Library>
libRbt.so (2013.1, Build901 2013/11/27)

>  <Rbt.Parameter_File>
/export/apps/rDock/src/rDock_2013.1_src/data/scripts/dock_solv.prm

>  <Rbt.Receptor>
prm/pocket_docking_3.prm

>  <SCORE>
-8.2875

>  <SCORE.INTER>
-7.2675

>  <SCORE.INTER.CONST>
1

>  <SCORE.INTER.POLAR>
0

>  <SCORE.INTER.ROT>
5

>  <SCORE.INTER.SOLV>
15.9426

>  <SCORE.INTER.VDW>
-17.0925

>  <SCORE.INTER.norm>
-0.72675

>  <SCORE.INTRA>
-1.02

>  <SCORE.INTRA.DIHEDRAL>
-0.391526

>  <SCORE.INTRA.DIHEDRAL.0>
2.22229

>  <SCORE.INTRA.POLAR>
0

>  <SCORE.INTRA.POLAR.0>
0

>  <SCORE.INTRA.REPUL>
0

>  <SCORE.INTRA.REPUL.0>
0

>  <SCORE.INTRA.SOLV>
-1.58729

>  <SCORE.INTRA.SOLV.lig_0>
-31.87

>  <SCORE.INTRA.VDW>
-0.0305923

>  <SCORE.INTRA.VDW.0>
-0.575321

>  <SCORE.INTRA.norm>
-0.102

>  <SCORE.RESTR>
0

>  <SCORE.RESTR.CAVITY>
0

>  <SCORE.RESTR.norm>
0

>  <SCORE.SYSTEM>
0

>  <SCORE.SYSTEM.CONST>
0

>  <SCORE.SYSTEM.DIHEDRAL>
0

>  <SCORE.SYSTEM.SOLV>
0

>  <SCORE.SYSTEM.norm>
0

>  <SCORE.heavy>
10

>  <SCORE.norm>
-0.82875

>  <RMSD>
5.488

$$$$
ligand
 OpenBabel11021811463D
libRbt.so/2013.1/901 2013/11/27
 10  9  0  0  0  0  0  0  0  0999 V2000
   25.3464   42.5648   17.2326 N   0  0  0  0  0  0  0  0  0  0  0  0
   24.1935   42.8200   18.0876 C   0  0  2  0  0  0  0  0  0  0  0  0
   24.2017   44.2598   18.5982 C   0  0  0  0  0  0  0  0  0  0  0  0
   25.1818   44.9799   18.3865 O   0  0  0  0  0  0  0  0  0  0  0  0
   24.1512   41.8269   19.2530 C   0  0  0  0  0  0  0  0  0  0  0  0
   25.3863   41.8791   20.1440 C   0  0  0  0  0  0  0  0  0  0  0  0
   25.2766   40.9363   21.3391 C   0  0  0  0  0  0  0  0  0  0  0  0
   24.1610   41.3611   22.3069 C   0  0  0  0  0  0  0  0  0  0  0  0
   23.9790   40.4519   23.4824 N   0  0  0  0  0  0  0  0  0  0  0  0
   23.2363   44.7339   19.2115 O   0  0  0  0  0  0  0  0  0  0  0  0
  2  1  1  1  0  0  0
  2  3  1  0  0  0  0
  2  5  1  0  0  0  0
  3  4  1  0  0  0  0
  3 10  1  0  0  0  0
  5  6  1  0  0  0  0
  6  7  1  0  0  0  0
  7  8  1  0  0  0  0
  8  9  1  0  0  0  0
M  END
>  <CHROM.1>
-7.68511868,59.56768852,176.69139943,-65.74927214,178.39796935,24.50957698
42.61963087,19.80539581,-1.52696722,-1.03489666,2.25362696

>  <Name>
ligand

>  <RI>
0

>  <Rbt.Current_Directory>
/home/itssahil/PROJECTS/Mol_Feturizer/New_Systems/rnas/3D0U

>  <Rbt.Executable>
rbdock ($Id: //depot/dev/client3/rdock/2013.1/src/exe/rbdock.cxx#4 $)

>  <Rbt.Library>
libRbt.so (2013.1, Build901 2013/11/27)

>  <Rbt.Parameter_File>
/export/apps/rDock/src/rDock_2013.1_src/data/scripts/dock_solv.prm

>  <Rbt.Receptor>
prm/pocket_docking_4.prm

>  <SCORE>
-8.37441

>  <SCORE.INTER>
-8.41616

>  <SCORE.INTER.CONST>
1

>  <SCORE.INTER.POLAR>
0

>  <SCORE.INTER.ROT>
5

>  <SCORE.INTER.SOLV>
16.2545

>  <SCORE.INTER.VDW>
-17.9623

>  <SCORE.INTER.norm>
-0.841616

>  <SCORE.INTRA>
0.0417488

>  <SCORE.INTRA.DIHEDRAL>
-0.536752

>  <SCORE.INTRA.DIHEDRAL.0>
2.22229

>  <SCORE.INTRA.POLAR>
0

>  <SCORE.INTRA.POLAR.0>
0

>  <SCORE.INTRA.REPUL>
0

>  <SCORE.INTRA.REPUL.0>
0

>  <SCORE.INTRA.SOLV>
-0.498281

>  <SCORE.INTRA.SOLV.lig_0>
-31.87

>  <SCORE.INTRA.VDW>
0.559265

>  <SCORE.INTRA.VDW.0>
-0.575321

>  <SCORE.INTRA.norm>
0.00417488

>  <SCORE.RESTR>
0

>  <SCORE.RESTR.CAVITY>
0

>  <SCORE.RESTR.norm>
0

>  <SCORE.SYSTEM>
0

>  <SCORE.SYSTEM.CONST>
0

>  <SCORE.SYSTEM.DIHEDRAL>
0

>  <SCORE.SYSTEM.SOLV>
0

>  <SCORE.SYSTEM.norm>
0

>  <SCORE.heavy>
10

>  <SCORE.norm>
-0.837441

>  <RMSD>
5.488

$$$$
ligand
 OpenBabel11021811463D
libRbt.so/2013.1/901 2013/11/27
 10  9  0  0  0  0  0  0  0  0999 V2000
   24.5435   43.6018   19.5082 N   0  0  0  0  0  0  0  0  0  0  0  0
   25.5097   42.5844   19.1126 C   0  0  2  0  0  0  0  0  0  0  0  0
   25.4592   42.3416   17.6052 C   0  0  0  0  0  0  0  0  0  0  0  0
   24.5284   42.8057   16.9402 O   0  0  0  0  0  0  0  0  0  0  0  0
   25.2740   41.2824   19.8842 C   0  0  0  0  0  0  0  0  0  0  0  0
   25.4630   41.4229   21.3898 C   0  0  0  0  0  0  0  0  0  0  0  0
   25.1837   40.1185   22.1312 C   0  0  0  0  0  0  0  0  0  0  0  0
   23.6954   39.7379   22.0858 C   0  0  0  0  0  0  0  0  0  0  0  0
   23.3411   38.5209   22.8827 N   0  0  0  0  0  0  0  0  0  0  0  0
   26.3431   41.6985   17.0238 O   0  0  0  0  0  0  0  0  0  0  0  0
  2  1  1  1  0  0  0
  2  3  1  0  0  0  0
  2  5  1  0  0  0  0
  3  4  1  0  0  0  0
  3 10  1  0  0  0  0
  5  6  1  0  0  0  0
  6  7  1  0  0  0  0
  7  8  1  0  0  0  0
  8  9  1  0  0  0  0
M  END
>  <CHROM.1>
-11.98565923,-62.75923761,178.43043703,-68.54717267,-175.64232511,24.93679604
41.41338877,19.81308744,0.64529222,1.29598736,-0.10459946

>  <Name>
ligand

>  <RI>
0

>  <Rbt.Current_Directory>
/home/itssahil/PROJECTS/Mol_Feturizer/New_Systems/rnas/3D0U

>  <Rbt.Executable>
rbdock ($Id: //depot/dev/client3/rdock/2013.1/src/exe/rbdock.cxx#4 $)

>  <Rbt.Library>
libRbt.so (2013.1, Build901 2013/11/27)

>  <Rbt.Parameter_File>
/export/apps/rDock/src/rDock_2013.1_src/data/scripts/dock_solv.prm

>  <Rbt.Receptor>
prm/pocket_docking_6.prm

>  <SCORE>
-9.34329

>  <SCORE.INTER>
-9.30564

>  <SCORE.INTER.CONST>
1

>  <SCORE.INTER.POLAR>
0

>  <SCORE.INTER.ROT>
5

>  <SCORE.INTER.SOLV>
12.7453

>  <SCORE.INTER.VDW>
-17.3855

>  <SCORE.INTER.norm>
-0.930564

>  <SCORE.INTRA>
-0.03765

>  <SCORE.INTRA.DIHEDRAL>
-0.30715

>  <SCORE.INTRA.DIHEDRAL.0>
2.22229

>  <SCORE.INTRA.POLAR>
0

>  <SCORE.INTRA.POLAR.0>
0

>  <SCORE.INTRA.REPUL>
0

>  <SCORE.INTRA.REPUL.0>
0

>  <SCORE.INTRA.SOLV>
-0.557866

>  <SCORE.INTRA.SOLV.lig_0>
-31.87

>  <SCORE.INTRA.VDW>
0.394858

>  <SCORE.INTRA.VDW.0>
-0.575321

>  <SCORE.INTRA.norm>
-0.003765

>  <SCORE.RESTR>
0

>  <SCORE.RESTR.CAVITY>
0

>  <SCORE.RESTR.norm>
0

>  <SCORE.SYSTEM>
0

>  <SCORE.SYSTEM.CONST>
0

>  <SCORE.SYSTEM.DIHEDRAL>
0

>  <SCORE.SYSTEM.SOLV>
0

>  <SCORE.SYSTEM.norm>
0

>  <SCORE.heavy>
10

>  <SCORE.norm>
-0.934329

>  <RMSD>
5.488

$$$$
ligand
 OpenBabel11021811463D
libRbt.so/2013.1/901 2013/11/27
 10  9  0  0  0  0  0  0  0  0999 V2000
   25.5644   42.9588   17.9962 N   0  0  0  0  0  0  0  0  0  0  0  0
   24.1895   43.2698   18.3678 C   0  0  2  0  0  0  0  0  0  0  0  0
   24.1232   44.5624   19.1793 C   0  0  0  0  0  0  0  0  0  0  0  0
   23.0533   45.1701   19.2782 O   0  0  0  0  0  0  0  0  0  0  0  0
   23.5592   42.1067   19.1399 C   0  0  0  0  0  0  0  0  0  0  0  0
   24.3685   41.6721   20.3559 C   0  0  0  0  0  0  0  0  0  0  0  0
   23.6938   40.5388   21.1237 C   0  0  0  0  0  0  0  0  0  0  0  0
   24.5074   40.1145   22.3565 C   0  0  0  0  0  0  0  0  0  0  0  0
   23.8718   39.0372   23.1794 N   0  0  0  0  0  0  0  0  0  0  0  0
   25.1198   45.0139   19.7589 O   0  0  0  0  0  0  0  0  0  0  0  0
  2  1  1  1  0  0  0
  2  3  1  0  0  0  0
  2  5  1  0  0  0  0
  3  4  1  0  0  0  0
  3 10  1  0  0  0  0
  5  6  1  0  0  0  0
  6  7  1  0  0  0  0
  7  8  1  0  0  0  0
  8  9  1  0  0  0  0
M  END
>  <CHROM.1>
160.79381144,54.28513773,178.40232629,-179.42724022,177.94427786,24.20290414
42.48271891,20.08286859,-1.47103802,-1.15184347,2.60624976

>  <Name>
ligand

>  <RI>
0

>  <Rbt.Current_Directory>
/home/itssahil/PROJECTS/Mol_Feturizer/New_Systems/rnas/3D0U

>  <Rbt.Executable>
rbdock ($Id: //depot/dev/client3/rdock/2013.1/src/exe/rbdock.cxx#4 $)

>  <Rbt.Library>
libRbt.so (2013.1, Build901 2013/11/27)

>  <Rbt.Parameter_File>
/export/apps/rDock/src/rDock_2013.1_src/data/scripts/dock_solv.prm

>  <Rbt.Receptor>
prm/pocket_docking_5.prm

>  <SCORE>
-8.71632

>  <SCORE.INTER>
-8.01433

>  <SCORE.INTER.CONST>
1

>  <SCORE.INTER.POLAR>
0

>  <SCORE.INTER.ROT>
5

>  <SCORE.INTER.SOLV>
14.0435

>  <SCORE.INTER.VDW>
-16.9574

>  <SCORE.INTER.norm>
-0.801433

>  <SCORE.INTRA>
-0.701982

>  <SCORE.INTRA.DIHEDRAL>
-0.605305

>  <SCORE.INTRA.DIHEDRAL.0>
2.22229

>  <SCORE.INTRA.POLAR>
0

>  <SCORE.INTRA.POLAR.0>
0

>  <SCORE.INTRA.REPUL>
0

>  <SCORE.INTRA.REPUL.0>
0

>  <SCORE.INTRA.SOLV>
-0.658713

>  <SCORE.INTRA.SOLV.lig_0>
-31.87

>  <SCORE.INTRA.VDW>
-0.0699731

>  <SCORE.INTRA.VDW.0>
-0.575321

>  <SCORE.INTRA.norm>
-0.0701982

>  <SCORE.RESTR>
0

>  <SCORE.RESTR.CAVITY>
0

>  <SCORE.RESTR.norm>
0

>  <SCORE.SYSTEM>
0

>  <SCORE.SYSTEM.CONST>
0

>  <SCORE.SYSTEM.DIHEDRAL>
0

>  <SCORE.SYSTEM.SOLV>
0

>  <SCORE.SYSTEM.norm>
0

>  <SCORE.heavy>
10

>  <SCORE.norm>
-0.871632

>  <RMSD>
5.492

$$$$
ligand
 OpenBabel11021811463D
libRbt.so/2013.1/901 2013/11/27
 10  9  0  0  0  0  0  0  0  0999 V2000
   25.1599   44.7477   18.4912 N   0  0  0  0  0  0  0  0  0  0  0  0
   25.5188   43.4168   18.9656 C   0  0  2  0  0  0  0  0  0  0  0  0
   25.4172   42.3906   17.8386 C   0  0  0  0  0  0  0  0  0  0  0  0
   24.5961   42.5552   16.9316 O   0  0  0  0  0  0  0  0  0  0  0  0
   24.6444   43.0102   20.1557 C   0  0  0  0  0  0  0  0  0  0  0  0
   25.0690   41.6984   20.8046 C   0  0  0  0  0  0  0  0  0  0  0  0
   24.1363   41.2875   21.9405 C   0  0  0  0  0  0  0  0  0  0  0  0
   24.5427   39.9414   22.5607 C   0  0  0  0  0  0  0  0  0  0  0  0
   23.6481   39.4712   23.6653 N   0  0  0  0  0  0  0  0  0  0  0  0
   26.1536   41.3960   17.8012 O   0  0  0  0  0  0  0  0  0  0  0  0
  2  1  1  6  0  0  0
  2  3  1  0  0  0  0
  2  5  1  0  0  0  0
  3  4  1  0  0  0  0
  3 10  1  0  0  0  0
  5  6  1  0  0  0  0
  6  7  1  0  0  0  0
  7  8  1  0  0  0  0
  8  9  1  0  0  0  0
M  END
>  <CHROM.1>
-30.04807894,-173.38652092,-177.12336473,178.14090328,-178.88625874,24.89028921
41.97514993,19.88035833,0.76743157,1.29199985,-0.26099089

>  <Name>
ligand

>  <RI>
0

>  <Rbt.Current_Directory>
/home/itssahil/PROJECTS/Mol_Feturizer/New_Systems/rnas/3D0U

>  <Rbt.Executable>
rbdock ($Id: //depot/dev/client3/rdock/2013.1/src/exe/rbdock.cxx#4 $)

>  <Rbt.Library>
libRbt.so (2013.1, Build901 2013/11/27)

>  <Rbt.Parameter_File>
/export/apps/rDock/src/rDock_2013.1_src/data/scripts/dock_solv.prm

>  <Rbt.Receptor>
prm/pocket_docking_8.prm

>  <SCORE>
-8.45752

>  <SCORE.INTER>
-7.20375

>  <SCORE.INTER.CONST>
1

>  <SCORE.INTER.POLAR>
0

>  <SCORE.INTER.ROT>
5

>  <SCORE.INTER.SOLV>
15.9825

>  <SCORE.INTER.VDW>
-17.0633

>  <SCORE.INTER.norm>
-0.720375

>  <SCORE.INTRA>
-1.25377

>  <SCORE.INTRA.DIHEDRAL>
-0.499254

>  <SCORE.INTRA.DIHEDRAL.0>
2.22229

>  <SCORE.INTRA.POLAR>
0

>  <SCORE.INTRA.POLAR.0>
0

>  <SCORE.INTRA.REPUL>
0

>  <SCORE.INTRA.REPUL.0>
0

>  <SCORE.INTRA.SOLV>
-1.59165

>  <SCORE.INTRA.SOLV.lig_0>
-31.87

>  <SCORE.INTRA.VDW>
-0.208316

>  <SCORE.INTRA.VDW.0>
-0.575321

>  <SCORE.INTRA.norm>
-0.125377

>  <SCORE.RESTR>
0

>  <SCORE.RESTR.CAVITY>
0

>  <SCORE.RESTR.norm>
0

>  <SCORE.SYSTEM>
0

>  <SCORE.SYSTEM.CONST>
0

>  <SCORE.SYSTEM.DIHEDRAL>
0

>  <SCORE.SYSTEM.SOLV>
0

>  <SCORE.SYSTEM.norm>
0

>  <SCORE.heavy>
10

>  <SCORE.norm>
-0.845752

>  <RMSD>
5.494

$$$$
ligand
 OpenBabel11021811463D
libRbt.so/2013.1/901 2013/11/27
 10  9  0  0  0  0  0  0  0  0999 V2000
   24.5260   43.5790   19.5156 N   0  0  0  0  0  0  0  0  0  0  0  0
   25.5065   42.5762   19.1179 C   0  0  2  0  0  0  0  0  0  0  0  0
   25.4702   42.3471   17.6080 C   0  0  0  0  0  0  0  0  0  0  0  0
   26.3675   41.6962   17.0648 O   0  0  0  0  0  0  0  0  0  0  0  0
   25.2796   41.2643   19.8755 C   0  0  0  0  0  0  0  0  0  0  0  0
   25.5176   41.3777   21.3764 C   0  0  0  0  0  0  0  0  0  0  0  0
   25.2255   40.0706   22.1079 C   0  0  0  0  0  0  0  0  0  0  0  0
   23.7207   39.7621   22.1567 C   0  0  0  0  0  0  0  0  0  0  0  0
   23.3511   38.6106   23.0394 N   0  0  0  0  0  0  0  0  0  0  0  0
   24.5483   42.7880   16.9090 O   0  0  0  0  0  0  0  0  0  0  0  0
  2  1  1  6  0  0  0
  2  3  1  0  0  0  0
  2  5  1  0  0  0  0
  3  4  1  0  0  0  0
  3 10  1  0  0  0  0
  5  6  1  0  0  0  0
  6  7  1  0  0  0  0
  7  8  1  0  0  0  0
  8  9  1  0  0  0  0
M  END
>  <CHROM.1>
168.46695207,-65.39631619,177.55270598,-71.07488494,-170.95566439,24.95438254
41.40883066,19.83375647,1.01121767,1.15693771,-0.50308611

>  <Name>
ligand

>  <RI>
0

>  <Rbt.Current_Directory>
/home/itssahil/PROJECTS/Mol_Feturizer/New_Systems/rnas/3D0U

>  <Rbt.Executable>
rbdock ($Id: //depot/dev/client3/rdock/2013.1/src/exe/rbdock.cxx#4 $)

>  <Rbt.Library>
libRbt.so (2013.1, Build901 2013/11/27)

>  <Rbt.Parameter_File>
/export/apps/rDock/src/rDock_2013.1_src/data/scripts/dock_solv.prm

>  <Rbt.Receptor>
prm/blind_docking_60.prm

>  <SCORE>
-9.37361

>  <SCORE.INTER>
-9.43416

>  <SCORE.INTER.CONST>
1

>  <SCORE.INTER.POLAR>
0

>  <SCORE.INTER.ROT>
5

>  <SCORE.INTER.SOLV>
12.4096

>  <SCORE.INTER.VDW>
-17.3593

>  <SCORE.INTER.norm>
-0.943416

>  <SCORE.INTRA>
0.0605478

>  <SCORE.INTRA.DIHEDRAL>
0.189415

>  <SCORE.INTRA.DIHEDRAL.0>
2.22229

>  <SCORE.INTRA.POLAR>
0

>  <SCORE.INTRA.POLAR.0>
0

>  <SCORE.INTRA.REPUL>
0

>  <SCORE.INTRA.REPUL.0>
0

>  <SCORE.INTRA.SOLV>
-0.631469

>  <SCORE.INTRA.SOLV.lig_0>
-31.87

>  <SCORE.INTRA.VDW>
0.281575

>  <SCORE.INTRA.VDW.0>
-0.575321

>  <SCORE.INTRA.norm>
0.00605478

>  <SCORE.RESTR>
0

>  <SCORE.RESTR.CAVITY>
0

>  <SCORE.RESTR.norm>
0

>  <SCORE.SYSTEM>
0

>  <SCORE.SYSTEM.CONST>
0

>  <SCORE.SYSTEM.DIHEDRAL>
0

>  <SCORE.SYSTEM.SOLV>
0

>  <SCORE.SYSTEM.norm>
0

>  <SCORE.heavy>
10

>  <SCORE.norm>
-0.937361

>  <RMSD>
5.495

$$$$
ligand
 OpenBabel11021811463D
libRbt.so/2013.1/901 2013/11/27
 10  9  0  0  0  0  0  0  0  0999 V2000
   23.8062   42.5223   18.0191 N   0  0  0  0  0  0  0  0  0  0  0  0
   24.0641   43.3147   19.2153 C   0  0  2  0  0  0  0  0  0  0  0  0
   23.9479   44.8081   18.9153 C   0  0  0  0  0  0  0  0  0  0  0  0
   24.7681   45.3491   18.1680 O   0  0  0  0  0  0  0  0  0  0  0  0
   25.4388   42.9803   19.8023 C   0  0  0  0  0  0  0  0  0  0  0  0
   25.4722   41.6609   20.5640 C   0  0  0  0  0  0  0  0  0  0  0  0
   24.6547   41.7164   21.8515 C   0  0  0  0  0  0  0  0  0  0  0  0
   24.6644   40.3731   22.5980 C   0  0  0  0  0  0  0  0  0  0  0  0
   24.0019   39.2494   21.8630 N   0  0  0  0  0  0  0  0  0  0  0  0
   23.0356   45.4948   19.3940 O   0  0  0  0  0  0  0  0  0  0  0  0
  2  1  1  6  0  0  0
  2  3  1  0  0  0  0
  2  5  1  0  0  0  0
  3  4  1  0  0  0  0
  3 10  1  0  0  0  0
  5  6  1  0  0  0  0
  6  7  1  0  0  0  0
  7  8  1  0  0  0  0
  8  9  1  0  0  0  0
M  END
>  <CHROM.1>
-66.88737415,-76.60551724,-68.06363863,178.62537759,-64.76156331,24.38057348
42.78872100,20.02584157,-2.04157981,-1.35150222,2.06020058

>  <Name>
ligand

>  <RI>
0

>  <Rbt.Current_Directory>
/home/itssahil/PROJECTS/Mol_Feturizer/New_Systems/rnas/3D0U

>  <Rbt.Executable>
rbdock ($Id: //depot/dev/client3/rdock/2013.1/src/exe/rbdock.cxx#4 $)

>  <Rbt.Library>
libRbt.so (2013.1, Build901 2013/11/27)

>  <Rbt.Parameter_File>
/export/apps/rDock/src/rDock_2013.1_src/data/scripts/dock_solv.prm

>  <Rbt.Receptor>
prm/pocket_docking_4.prm

>  <SCORE>
-7.87357

>  <SCORE.INTER>
-8.29764

>  <SCORE.INTER.CONST>
1

>  <SCORE.INTER.POLAR>
0

>  <SCORE.INTER.ROT>
5

>  <SCORE.INTER.SOLV>
14.1416

>  <SCORE.INTER.VDW>
-17.179

>  <SCORE.INTER.norm>
-0.829764

>  <SCORE.INTRA>
0.424071

>  <SCORE.INTRA.DIHEDRAL>
0.659919

>  <SCORE.INTRA.DIHEDRAL.0>
2.22229

>  <SCORE.INTRA.POLAR>
0

>  <SCORE.INTRA.POLAR.0>
0

>  <SCORE.INTRA.REPUL>
0

>  <SCORE.INTRA.REPUL.0>
0

>  <SCORE.INTRA.SOLV>
0.286754

>  <SCORE.INTRA.SOLV.lig_0>
-31.87

>  <SCORE.INTRA.VDW>
-0.0492657

>  <SCORE.INTRA.VDW.0>
-0.575321

>  <SCORE.INTRA.norm>
0.0424071

>  <SCORE.RESTR>
0

>  <SCORE.RESTR.CAVITY>
0

>  <SCORE.RESTR.norm>
0

>  <SCORE.SYSTEM>
0

>  <SCORE.SYSTEM.CONST>
0

>  <SCORE.SYSTEM.DIHEDRAL>
0

>  <SCORE.SYSTEM.SOLV>
0

>  <SCORE.SYSTEM.norm>
0

>  <SCORE.heavy>
10

>  <SCORE.norm>
-0.787357

>  <RMSD>
5.496

$$$$
ligand
 OpenBabel11021811463D
libRbt.so/2013.1/901 2013/11/27
 10  9  0  0  0  0  0  0  0  0999 V2000
   24.9038   44.8519   18.4165 N   0  0  0  0  0  0  0  0  0  0  0  0
   25.3779   43.5744   18.9344 C   0  0  2  0  0  0  0  0  0  0  0  0
   25.4383   42.5252   17.8257 C   0  0  0  0  0  0  0  0  0  0  0  0
   26.0852   41.4880   17.9976 O   0  0  0  0  0  0  0  0  0  0  0  0
   24.4956   43.0965   20.0918 C   0  0  0  0  0  0  0  0  0  0  0  0
   25.0131   41.8352   20.7727 C   0  0  0  0  0  0  0  0  0  0  0  0
   24.0495   41.3162   21.8362 C   0  0  0  0  0  0  0  0  0  0  0  0
   24.5385   40.0013   22.4637 C   0  0  0  0  0  0  0  0  0  0  0  0
   23.5950   39.3991   23.4582 N   0  0  0  0  0  0  0  0  0  0  0  0
   24.8378   42.6813   16.7543 O   0  0  0  0  0  0  0  0  0  0  0  0
  2  1  1  6  0  0  0
  2  3  1  0  0  0  0
  2  5  1  0  0  0  0
  3  4  1  0  0  0  0
  3 10  1  0  0  0  0
  5  6  1  0  0  0  0
  6  7  1  0  0  0  0
  7  8  1  0  0  0  0
  8  9  1  0  0  0  0
M  END
>  <CHROM.1>
163.90395125,-174.28901909,-174.89142050,176.78240957,-176.57546172,24.83865928
42.06001649,19.82104255,0.94612588,1.22864221,-0.41535358

>  <Name>
ligand

>  <RI>
0

>  <Rbt.Current_Directory>
/home/itssahil/PROJECTS/Mol_Feturizer/New_Systems/rnas/3D0U

>  <Rbt.Executable>
rbdock ($Id: //depot/dev/client3/rdock/2013.1/src/exe/rbdock.cxx#4 $)

>  <Rbt.Library>
libRbt.so (2013.1, Build901 2013/11/27)

>  <Rbt.Parameter_File>
/export/apps/rDock/src/rDock_2013.1_src/data/scripts/dock_solv.prm

>  <Rbt.Receptor>
prm/pocket_docking_3.prm

>  <SCORE>
-8.32202

>  <SCORE.INTER>
-7.28204

>  <SCORE.INTER.CONST>
1

>  <SCORE.INTER.POLAR>
0

>  <SCORE.INTER.ROT>
5

>  <SCORE.INTER.SOLV>
15.6952

>  <SCORE.INTER.VDW>
-17.0198

>  <SCORE.INTER.norm>
-0.728204

>  <SCORE.INTRA>
-1.03998

>  <SCORE.INTRA.DIHEDRAL>
-0.454177

>  <SCORE.INTRA.DIHEDRAL.0>
2.22229

>  <SCORE.INTRA.POLAR>
0

>  <SCORE.INTRA.POLAR.0>
0

>  <SCORE.INTRA.REPUL>
0

>  <SCORE.INTRA.REPUL.0>
0

>  <SCORE.INTRA.SOLV>
-1.60001

>  <SCORE.INTRA.SOLV.lig_0>
-31.87

>  <SCORE.INTRA.VDW>
-0.0128867

>  <SCORE.INTRA.VDW.0>
-0.575321

>  <SCORE.INTRA.norm>
-0.103998

>  <SCORE.RESTR>
0

>  <SCORE.RESTR.CAVITY>
0

>  <SCORE.RESTR.norm>
0

>  <SCORE.SYSTEM>
0

>  <SCORE.SYSTEM.CONST>
0

>  <SCORE.SYSTEM.DIHEDRAL>
0

>  <SCORE.SYSTEM.SOLV>
0

>  <SCORE.SYSTEM.norm>
0

>  <SCORE.heavy>
10

>  <SCORE.norm>
-0.832202

>  <RMSD>
5.499

$$$$
ligand
 OpenBabel11021811463D
libRbt.so/2013.1/901 2013/11/27
 10  9  0  0  0  0  0  0  0  0999 V2000
   24.5347   43.6024   19.4862 N   0  0  0  0  0  0  0  0  0  0  0  0
   25.5034   42.5846   19.0977 C   0  0  2  0  0  0  0  0  0  0  0  0
   25.4604   42.3383   17.5906 C   0  0  0  0  0  0  0  0  0  0  0  0
   24.5138   42.7692   16.9257 O   0  0  0  0  0  0  0  0  0  0  0  0
   25.2648   41.2843   19.8712 C   0  0  0  0  0  0  0  0  0  0  0  0
   25.4348   41.4312   21.3785 C   0  0  0  0  0  0  0  0  0  0  0  0
   25.1834   40.1204   22.1185 C   0  0  0  0  0  0  0  0  0  0  0  0
   23.6994   39.7216   22.0951 C   0  0  0  0  0  0  0  0  0  0  0  0
   23.3685   38.5118   22.9128 N   0  0  0  0  0  0  0  0  0  0  0  0
   26.3656   41.7253   17.0095 O   0  0  0  0  0  0  0  0  0  0  0  0
  2  1  1  6  0  0  0
  2  3  1  0  0  0  0
  2  5  1  0  0  0  0
  3  4  1  0  0  0  0
  3 10  1  0  0  0  0
  5  6  1  0  0  0  0
  6  7  1  0  0  0  0
  7  8  1  0  0  0  0
  8  9  1  0  0  0  0
M  END
>  <CHROM.1>
-13.95104399,-62.27120263,179.71186348,-70.27792418,-174.56383447,24.93573044
41.41076382,19.80524836,0.69990155,1.28500942,-0.16308934

>  <Name>
ligand

>  <RI>
0

>  <Rbt.Current_Directory>
/home/itssahil/PROJECTS/Mol_Feturizer/New_Systems/rnas/3D0U

>  <Rbt.Executable>
rbdock ($Id: //depot/dev/client3/rdock/2013.1/src/exe/rbdock.cxx#4 $)

>  <Rbt.Library>
libRbt.so (2013.1, Build901 2013/11/27)

>  <Rbt.Parameter_File>
/export/apps/rDock/src/rDock_2013.1_src/data/scripts/dock_solv.prm

>  <Rbt.Receptor>
prm/pocket_docking_4.prm

>  <SCORE>
-9.33557

>  <SCORE.INTER>
-9.30575

>  <SCORE.INTER.CONST>
1

>  <SCORE.INTER.POLAR>
0

>  <SCORE.INTER.ROT>
5

>  <SCORE.INTER.SOLV>
12.6913

>  <SCORE.INTER.VDW>
-17.3676

>  <SCORE.INTER.norm>
-0.930575

>  <SCORE.INTRA>
-0.0298277

>  <SCORE.INTRA.DIHEDRAL>
-0.154661

>  <SCORE.INTRA.DIHEDRAL.0>
2.22229

>  <SCORE.INTRA.POLAR>
0

>  <SCORE.INTRA.POLAR.0>
0

>  <SCORE.INTRA.REPUL>
0

>  <SCORE.INTRA.REPUL.0>
0

>  <SCORE.INTRA.SOLV>
-0.574472

>  <SCORE.INTRA.SOLV.lig_0>
-31.87

>  <SCORE.INTRA.VDW>
0.334739

>  <SCORE.INTRA.VDW.0>
-0.575321

>  <SCORE.INTRA.norm>
-0.00298277

>  <SCORE.RESTR>
0

>  <SCORE.RESTR.CAVITY>
0

>  <SCORE.RESTR.norm>
0

>  <SCORE.SYSTEM>
0

>  <SCORE.SYSTEM.CONST>
0

>  <SCORE.SYSTEM.DIHEDRAL>
0

>  <SCORE.SYSTEM.SOLV>
0

>  <SCORE.SYSTEM.norm>
0

>  <SCORE.heavy>
10

>  <SCORE.norm>
-0.933557

>  <RMSD>
5.499

$$$$
ligand
 OpenBabel11021811463D
libRbt.so/2013.1/901 2013/11/27
 10  9  0  0  0  0  0  0  0  0999 V2000
   25.3721   42.6544   18.0185 N   0  0  0  0  0  0  0  0  0  0  0  0
   24.1054   43.0889   18.5947 C   0  0  2  0  0  0  0  0  0  0  0  0
   24.1478   44.5749   18.9463 C   0  0  0  0  0  0  0  0  0  0  0  0
   23.1232   45.1420   19.3371 O   0  0  0  0  0  0  0  0  0  0  0  0
   23.7503   42.2462   19.8235 C   0  0  0  0  0  0  0  0  0  0  0  0
   24.8249   42.2602   20.9039 C   0  0  0  0  0  0  0  0  0  0  0  0
   24.4261   41.4372   22.1257 C   0  0  0  0  0  0  0  0  0  0  0  0
   24.3484   39.9356   21.8079 C   0  0  0  0  0  0  0  0  0  0  0  0
   23.8420   39.0880   22.9335 N   0  0  0  0  0  0  0  0  0  0  0  0
   25.1955   45.2294   18.8638 O   0  0  0  0  0  0  0  0  0  0  0  0
  2  1  1  1  0  0  0
  2  3  1  0  0  0  0
  2  5  1  0  0  0  0
  3  4  1  0  0  0  0
  3 10  1  0  0  0  0
  5  6  1  0  0  0  0
  6  7  1  0  0  0  0
  7  8  1  0  0  0  0
  8  9  1  0  0  0  0
M  END
>  <CHROM.1>
173.70312410,56.60300295,178.71733425,67.16918190,-174.73832863,24.31302200
42.60697382,20.13445338,-1.51104596,-1.01189437,2.53980141

>  <Name>
ligand

>  <RI>
0

>  <Rbt.Current_Directory>
/home/itssahil/PROJECTS/Mol_Feturizer/New_Systems/rnas/3D0U

>  <Rbt.Executable>
rbdock ($Id: //depot/dev/client3/rdock/2013.1/src/exe/rbdock.cxx#4 $)

>  <Rbt.Library>
libRbt.so (2013.1, Build901 2013/11/27)

>  <Rbt.Parameter_File>
/export/apps/rDock/src/rDock_2013.1_src/data/scripts/dock_solv.prm

>  <Rbt.Receptor>
prm/pocket_docking_5.prm

>  <SCORE>
-8.06802

>  <SCORE.INTER>
-8.20877

>  <SCORE.INTER.CONST>
1

>  <SCORE.INTER.POLAR>
0

>  <SCORE.INTER.ROT>
5

>  <SCORE.INTER.SOLV>
13.0105

>  <SCORE.INTER.VDW>
-16.7427

>  <SCORE.INTER.norm>
-0.820877

>  <SCORE.INTRA>
0.140741

>  <SCORE.INTRA.DIHEDRAL>
-0.380923

>  <SCORE.INTRA.DIHEDRAL.0>
2.22229

>  <SCORE.INTRA.POLAR>
0

>  <SCORE.INTRA.POLAR.0>
0

>  <SCORE.INTRA.REPUL>
0

>  <SCORE.INTRA.REPUL.0>
0

>  <SCORE.INTRA.SOLV>
-0.450793

>  <SCORE.INTRA.SOLV.lig_0>
-31.87

>  <SCORE.INTRA.VDW>
0.556599

>  <SCORE.INTRA.VDW.0>
-0.575321

>  <SCORE.INTRA.norm>
0.0140741

>  <SCORE.RESTR>
0

>  <SCORE.RESTR.CAVITY>
0

>  <SCORE.RESTR.norm>
0

>  <SCORE.SYSTEM>
0

>  <SCORE.SYSTEM.CONST>
0

>  <SCORE.SYSTEM.DIHEDRAL>
0

>  <SCORE.SYSTEM.SOLV>
0

>  <SCORE.SYSTEM.norm>
0

>  <SCORE.heavy>
10

>  <SCORE.norm>
-0.806802

>  <RMSD>
5.499

$$$$
ligand
 OpenBabel11021811463D
libRbt.so/2013.1/901 2013/11/27
 10  9  0  0  0  0  0  0  0  0999 V2000
   23.8432   42.5263   17.9785 N   0  0  0  0  0  0  0  0  0  0  0  0
   24.0957   43.3034   19.1858 C   0  0  2  0  0  0  0  0  0  0  0  0
   23.9844   44.8007   18.9033 C   0  0  0  0  0  0  0  0  0  0  0  0
   24.8031   45.3465   18.1578 O   0  0  0  0  0  0  0  0  0  0  0  0
   25.4662   42.9590   19.7768 C   0  0  0  0  0  0  0  0  0  0  0  0
   25.4808   41.6535   20.5629 C   0  0  0  0  0  0  0  0  0  0  0  0
   24.6280   41.7305   21.8261 C   0  0  0  0  0  0  0  0  0  0  0  0
   24.6483   40.4121   22.6156 C   0  0  0  0  0  0  0  0  0  0  0  0
   24.0640   39.2424   21.8863 N   0  0  0  0  0  0  0  0  0  0  0  0
   23.0777   45.4858   19.3946 O   0  0  0  0  0  0  0  0  0  0  0  0
  2  1  1  6  0  0  0
  2  3  1  0  0  0  0
  2  5  1  0  0  0  0
  3  4  1  0  0  0  0
  3 10  1  0  0  0  0
  5  6  1  0  0  0  0
  6  7  1  0  0  0  0
  7  8  1  0  0  0  0
  8  9  1  0  0  0  0
M  END
>  <CHROM.1>
-66.23178501,-78.57102607,-66.11808080,-179.91242295,-63.23682398,24.40447685
42.78786198,20.01586806,-1.95735955,-1.31915232,2.13997804

>  <Name>
ligand

>  <RI>
0

>  <Rbt.Current_Directory>
/home/itssahil/PROJECTS/Mol_Feturizer/New_Systems/rnas/3D0U

>  <Rbt.Executable>
rbdock ($Id: //depot/dev/client3/rdock/2013.1/src/exe/rbdock.cxx#4 $)

>  <Rbt.Library>
libRbt.so (2013.1, Build901 2013/11/27)

>  <Rbt.Parameter_File>
/export/apps/rDock/src/rDock_2013.1_src/data/scripts/dock_solv.prm

>  <Rbt.Receptor>
prm/pocket_docking_6.prm

>  <SCORE>
-7.9492

>  <SCORE.INTER>
-8.43868

>  <SCORE.INTER.CONST>
1

>  <SCORE.INTER.POLAR>
0

>  <SCORE.INTER.ROT>
5

>  <SCORE.INTER.SOLV>
14.0321

>  <SCORE.INTER.VDW>
-17.2365

>  <SCORE.INTER.norm>
-0.843868

>  <SCORE.INTRA>
0.489482

>  <SCORE.INTRA.DIHEDRAL>
0.734018

>  <SCORE.INTRA.DIHEDRAL.0>
2.22229

>  <SCORE.INTRA.POLAR>
0

>  <SCORE.INTRA.POLAR.0>
0

>  <SCORE.INTRA.REPUL>
0

>  <SCORE.INTRA.REPUL.0>
0

>  <SCORE.INTRA.SOLV>
0.285245

>  <SCORE.INTRA.SOLV.lig_0>
-31.87

>  <SCORE.INTRA.VDW>
-0.0201493

>  <SCORE.INTRA.VDW.0>
-0.575321

>  <SCORE.INTRA.norm>
0.0489482

>  <SCORE.RESTR>
0

>  <SCORE.RESTR.CAVITY>
0

>  <SCORE.RESTR.norm>
0

>  <SCORE.SYSTEM>
0

>  <SCORE.SYSTEM.CONST>
0

>  <SCORE.SYSTEM.DIHEDRAL>
0

>  <SCORE.SYSTEM.SOLV>
0

>  <SCORE.SYSTEM.norm>
0

>  <SCORE.heavy>
10

>  <SCORE.norm>
-0.79492

>  <RMSD>
5.503

$$$$
ligand
 OpenBabel11021811463D
libRbt.so/2013.1/901 2013/11/27
 10  9  0  0  0  0  0  0  0  0999 V2000
   25.3554   42.4842   16.8896 N   0  0  0  0  0  0  0  0  0  0  0  0
   24.6753   42.4739   18.1790 C   0  0  2  0  0  0  0  0  0  0  0  0
   24.4013   43.8970   18.6622 C   0  0  0  0  0  0  0  0  0  0  0  0
   23.3606   44.1458   19.2777 O   0  0  0  0  0  0  0  0  0  0  0  0
   25.4879   41.6916   19.2154 C   0  0  0  0  0  0  0  0  0  0  0  0
   24.7066   41.3638   20.4821 C   0  0  0  0  0  0  0  0  0  0  0  0
   25.5433   40.5819   21.4907 C   0  0  0  0  0  0  0  0  0  0  0  0
   24.7250   40.1774   22.7271 C   0  0  0  0  0  0  0  0  0  0  0  0
   23.6390   39.1833   22.4550 N   0  0  0  0  0  0  0  0  0  0  0  0
   25.2095   44.8139   18.4646 O   0  0  0  0  0  0  0  0  0  0  0  0
  2  1  1  6  0  0  0
  2  3  1  0  0  0  0
  2  5  1  0  0  0  0
  3  4  1  0  0  0  0
  3 10  1  0  0  0  0
  5  6  1  0  0  0  0
  6  7  1  0  0  0  0
  7  8  1  0  0  0  0
  8  9  1  0  0  0  0
M  END
>  <CHROM.1>
143.96754077,-166.72141934,179.84632768,-176.39539597,66.75397047,24.70320292
42.11994592,19.78633744,-1.49394483,-0.99790974,2.39666008

>  <Name>
ligand

>  <RI>
0

>  <Rbt.Current_Directory>
/home/itssahil/PROJECTS/Mol_Feturizer/New_Systems/rnas/3D0U

>  <Rbt.Executable>
rbdock ($Id: //depot/dev/client3/rdock/2013.1/src/exe/rbdock.cxx#4 $)

>  <Rbt.Library>
libRbt.so (2013.1, Build901 2013/11/27)

>  <Rbt.Parameter_File>
/export/apps/rDock/src/rDock_2013.1_src/data/scripts/dock_solv.prm

>  <Rbt.Receptor>
prm/blind_docking_60.prm

>  <SCORE>
-8.19721

>  <SCORE.INTER>
-7.53948

>  <SCORE.INTER.CONST>
1

>  <SCORE.INTER.POLAR>
0

>  <SCORE.INTER.ROT>
5

>  <SCORE.INTER.SOLV>
17.2008

>  <SCORE.INTER.VDW>
-17.6933

>  <SCORE.INTER.norm>
-0.753948

>  <SCORE.INTRA>
-0.66808

>  <SCORE.INTRA.DIHEDRAL>
0.103213

>  <SCORE.INTRA.DIHEDRAL.0>
2.22229

>  <SCORE.INTRA.POLAR>
0

>  <SCORE.INTRA.POLAR.0>
0

>  <SCORE.INTRA.REPUL>
0

>  <SCORE.INTRA.REPUL.0>
0

>  <SCORE.INTRA.SOLV>
-0.78559

>  <SCORE.INTRA.SOLV.lig_0>
-31.87

>  <SCORE.INTRA.VDW>
-0.326891

>  <SCORE.INTRA.VDW.0>
-0.575321

>  <SCORE.INTRA.norm>
-0.066808

>  <SCORE.RESTR>
0.0103554

>  <SCORE.RESTR.CAVITY>
0.0103554

>  <SCORE.RESTR.norm>
0.00103554

>  <SCORE.SYSTEM>
0

>  <SCORE.SYSTEM.CONST>
0

>  <SCORE.SYSTEM.DIHEDRAL>
0

>  <SCORE.SYSTEM.SOLV>
0

>  <SCORE.SYSTEM.norm>
0

>  <SCORE.heavy>
10

>  <SCORE.norm>
-0.819721

>  <RMSD>
5.505

$$$$
ligand
 OpenBabel11021811463D
libRbt.so/2013.1/901 2013/11/27
 10  9  0  0  0  0  0  0  0  0999 V2000
   23.9070   42.2323   19.5880 N   0  0  0  0  0  0  0  0  0  0  0  0
   25.2987   42.0982   19.1756 C   0  0  2  0  0  0  0  0  0  0  0  0
   25.4343   42.2392   17.6604 C   0  0  0  0  0  0  0  0  0  0  0  0
   24.5913   42.8807   17.0265 O   0  0  0  0  0  0  0  0  0  0  0  0
   25.8812   40.7651   19.6548 C   0  0  0  0  0  0  0  0  0  0  0  0
   25.8215   40.5816   21.1664 C   0  0  0  0  0  0  0  0  0  0  0  0
   24.4541   40.0924   21.6353 C   0  0  0  0  0  0  0  0  0  0  0  0
   24.4191   39.8481   23.1522 C   0  0  0  0  0  0  0  0  0  0  0  0
   23.1395   39.2567   23.6566 N   0  0  0  0  0  0  0  0  0  0  0  0
   26.3841   41.7355   17.0465 O   0  0  0  0  0  0  0  0  0  0  0  0
  2  1  1  6  0  0  0
  2  3  1  0  0  0  0
  2  5  1  0  0  0  0
  3  4  1  0  0  0  0
  3 10  1  0  0  0  0
  5  6  1  0  0  0  0
  6  7  1  0  0  0  0
  7  8  1  0  0  0  0
  8  9  1  0  0  0  0
M  END
>  <CHROM.1>
25.52452615,-58.40671394,82.06587399,177.40350274,-175.07991115,24.93920852
41.18299516,19.93237341,1.33096054,0.38248894,-1.04019260

>  <Name>
ligand

>  <RI>
0

>  <Rbt.Current_Directory>
/home/itssahil/PROJECTS/Mol_Feturizer/New_Systems/rnas/3D0U

>  <Rbt.Executable>
rbdock ($Id: //depot/dev/client3/rdock/2013.1/src/exe/rbdock.cxx#4 $)

>  <Rbt.Library>
libRbt.so (2013.1, Build901 2013/11/27)

>  <Rbt.Parameter_File>
/export/apps/rDock/src/rDock_2013.1_src/data/scripts/dock_solv.prm

>  <Rbt.Receptor>
prm/pocket_docking_8.prm

>  <SCORE>
-8.15134

>  <SCORE.INTER>
-9.50881

>  <SCORE.INTER.CONST>
1

>  <SCORE.INTER.POLAR>
0

>  <SCORE.INTER.ROT>
5

>  <SCORE.INTER.SOLV>
12.8232

>  <SCORE.INTER.VDW>
-17.5469

>  <SCORE.INTER.norm>
-0.950881

>  <SCORE.INTRA>
1.35747

>  <SCORE.INTRA.DIHEDRAL>
1.17662

>  <SCORE.INTRA.DIHEDRAL.0>
2.22229

>  <SCORE.INTRA.POLAR>
0

>  <SCORE.INTRA.POLAR.0>
0

>  <SCORE.INTRA.REPUL>
0

>  <SCORE.INTRA.REPUL.0>
0

>  <SCORE.INTRA.SOLV>
0.58985

>  <SCORE.INTRA.SOLV.lig_0>
-31.87

>  <SCORE.INTRA.VDW>
0.474237

>  <SCORE.INTRA.VDW.0>
-0.575321

>  <SCORE.INTRA.norm>
0.135747

>  <SCORE.RESTR>
0

>  <SCORE.RESTR.CAVITY>
0

>  <SCORE.RESTR.norm>
0

>  <SCORE.SYSTEM>
0

>  <SCORE.SYSTEM.CONST>
0

>  <SCORE.SYSTEM.DIHEDRAL>
0

>  <SCORE.SYSTEM.SOLV>
0

>  <SCORE.SYSTEM.norm>
0

>  <SCORE.heavy>
10

>  <SCORE.norm>
-0.815134

>  <RMSD>
5.514

$$$$
ligand
 OpenBabel11021811463D
libRbt.so/2013.1/901 2013/11/27
 10  9  0  0  0  0  0  0  0  0999 V2000
   25.3283   42.5499   16.6931 N   0  0  0  0  0  0  0  0  0  0  0  0
   24.6546   42.4363   17.9808 C   0  0  2  0  0  0  0  0  0  0  0  0
   24.3903   43.8159   18.5813 C   0  0  0  0  0  0  0  0  0  0  0  0
   25.2208   44.7175   18.4354 O   0  0  0  0  0  0  0  0  0  0  0  0
   25.4683   41.5673   18.9447 C   0  0  0  0  0  0  0  0  0  0  0  0
   24.7417   41.2571   20.2478 C   0  0  0  0  0  0  0  0  0  0  0  0
   25.6182   40.4820   21.2275 C   0  0  0  0  0  0  0  0  0  0  0  0
   24.8863   40.1879   22.5464 C   0  0  0  0  0  0  0  0  0  0  0  0
   23.7444   39.2275   22.4222 N   0  0  0  0  0  0  0  0  0  0  0  0
   23.3485   44.0614   19.2037 O   0  0  0  0  0  0  0  0  0  0  0  0
  2  1  1  6  0  0  0
  2  3  1  0  0  0  0
  2  5  1  0  0  0  0
  3  4  1  0  0  0  0
  3 10  1  0  0  0  0
  5  6  1  0  0  0  0
  6  7  1  0  0  0  0
  7  8  1  0  0  0  0
  8  9  1  0  0  0  0
M  END
>  <CHROM.1>
-36.76945207,-172.58319672,-175.60281011,179.26886081,67.64263780,24.73306210
42.06815556,19.63244603,-1.52833381,-1.00688486,2.35906936

>  <Name>
ligand

>  <RI>
0

>  <Rbt.Current_Directory>
/home/itssahil/PROJECTS/Mol_Feturizer/New_Systems/rnas/3D0U

>  <Rbt.Executable>
rbdock ($Id: //depot/dev/client3/rdock/2013.1/src/exe/rbdock.cxx#4 $)

>  <Rbt.Library>
libRbt.so (2013.1, Build901 2013/11/27)

>  <Rbt.Parameter_File>
/export/apps/rDock/src/rDock_2013.1_src/data/scripts/dock_solv.prm

>  <Rbt.Receptor>
prm/pocket_docking_3.prm

>  <SCORE>
-8.57828

>  <SCORE.INTER>
-7.79391

>  <SCORE.INTER.CONST>
1

>  <SCORE.INTER.POLAR>
0

>  <SCORE.INTER.ROT>
5

>  <SCORE.INTER.SOLV>
17.4137

>  <SCORE.INTER.VDW>
-17.9338

>  <SCORE.INTER.norm>
-0.779391

>  <SCORE.INTRA>
-0.784374

>  <SCORE.INTRA.DIHEDRAL>
-0.212023

>  <SCORE.INTRA.DIHEDRAL.0>
2.22229

>  <SCORE.INTRA.POLAR>
0

>  <SCORE.INTRA.POLAR.0>
0

>  <SCORE.INTRA.REPUL>
0

>  <SCORE.INTRA.REPUL.0>
0

>  <SCORE.INTRA.SOLV>
-0.81589

>  <SCORE.INTRA.SOLV.lig_0>
-31.87

>  <SCORE.INTRA.VDW>
-0.270417

>  <SCORE.INTRA.VDW.0>
-0.575321

>  <SCORE.INTRA.norm>
-0.0784374

>  <SCORE.RESTR>
0

>  <SCORE.RESTR.CAVITY>
0

>  <SCORE.RESTR.norm>
0

>  <SCORE.SYSTEM>
0

>  <SCORE.SYSTEM.CONST>
0

>  <SCORE.SYSTEM.DIHEDRAL>
0

>  <SCORE.SYSTEM.SOLV>
0

>  <SCORE.SYSTEM.norm>
0

>  <SCORE.heavy>
10

>  <SCORE.norm>
-0.857828

>  <RMSD>
5.516

$$$$
ligand
 OpenBabel11021811463D
libRbt.so/2013.1/901 2013/11/27
 10  9  0  0  0  0  0  0  0  0999 V2000
   25.1157   42.5919   17.0419 N   0  0  0  0  0  0  0  0  0  0  0  0
   24.3153   42.5343   18.2589 C   0  0  2  0  0  0  0  0  0  0  0  0
   24.2777   43.8955   18.9515 C   0  0  0  0  0  0  0  0  0  0  0  0
   23.1922   44.4015   19.2505 O   0  0  0  0  0  0  0  0  0  0  0  0
   24.8444   41.4532   19.2063 C   0  0  0  0  0  0  0  0  0  0  0  0
   23.9568   41.2210   20.4231 C   0  0  0  0  0  0  0  0  0  0  0  0
   24.5229   40.1539   21.3557 C   0  0  0  0  0  0  0  0  0  0  0  0
   23.6421   39.9493   22.5983 C   0  0  0  0  0  0  0  0  0  0  0  0
   24.1224   38.8810   23.5310 N   0  0  0  0  0  0  0  0  0  0  0  0
   25.3171   44.5043   19.2377 O   0  0  0  0  0  0  0  0  0  0  0  0
  2  1  1  6  0  0  0
  2  3  1  0  0  0  0
  2  5  1  0  0  0  0
  3  4  1  0  0  0  0
  3 10  1  0  0  0  0
  5  6  1  0  0  0  0
  6  7  1  0  0  0  0
  7  8  1  0  0  0  0
  8  9  1  0  0  0  0
M  END
>  <CHROM.1>
127.32444101,-173.00461696,-179.14147448,178.56091827,178.08517796,24.32931460
41.99688590,19.99176552,-1.35919671,-1.17738568,2.54887097

>  <Name>
ligand

>  <RI>
0

>  <Rbt.Current_Directory>
/home/itssahil/PROJECTS/Mol_Feturizer/New_Systems/rnas/3D0U

>  <Rbt.Executable>
rbdock ($Id: //depot/dev/client3/rdock/2013.1/src/exe/rbdock.cxx#4 $)

>  <Rbt.Library>
libRbt.so (2013.1, Build901 2013/11/27)

>  <Rbt.Parameter_File>
/export/apps/rDock/src/rDock_2013.1_src/data/scripts/dock_solv.prm

>  <Rbt.Receptor>
prm/pocket_docking_6.prm

>  <SCORE>
-7.61326

>  <SCORE.INTER>
-6.23495

>  <SCORE.INTER.CONST>
1

>  <SCORE.INTER.POLAR>
0

>  <SCORE.INTER.ROT>
5

>  <SCORE.INTER.SOLV>
17.7888

>  <SCORE.INTER.VDW>
-17.0196

>  <SCORE.INTER.norm>
-0.623495

>  <SCORE.INTRA>
-1.37832

>  <SCORE.INTRA.DIHEDRAL>
-0.549114

>  <SCORE.INTRA.DIHEDRAL.0>
2.22229

>  <SCORE.INTRA.POLAR>
0

>  <SCORE.INTRA.POLAR.0>
0

>  <SCORE.INTRA.REPUL>
0

>  <SCORE.INTRA.REPUL.0>
0

>  <SCORE.INTRA.SOLV>
-1.61554

>  <SCORE.INTRA.SOLV.lig_0>
-31.87

>  <SCORE.INTRA.VDW>
-0.295992

>  <SCORE.INTRA.VDW.0>
-0.575321

>  <SCORE.INTRA.norm>
-0.137832

>  <SCORE.RESTR>
0

>  <SCORE.RESTR.CAVITY>
0

>  <SCORE.RESTR.norm>
0

>  <SCORE.SYSTEM>
0

>  <SCORE.SYSTEM.CONST>
0

>  <SCORE.SYSTEM.DIHEDRAL>
0

>  <SCORE.SYSTEM.SOLV>
0

>  <SCORE.SYSTEM.norm>
0

>  <SCORE.heavy>
10

>  <SCORE.norm>
-0.761326

>  <RMSD>
5.516

$$$$
ligand
 OpenBabel11021811463D
libRbt.so/2013.1/901 2013/11/27
 10  9  0  0  0  0  0  0  0  0999 V2000
   24.0542   42.5124   17.8950 N   0  0  0  0  0  0  0  0  0  0  0  0
   24.1971   43.2671   19.1340 C   0  0  2  0  0  0  0  0  0  0  0  0
   24.0660   44.7672   18.8767 C   0  0  0  0  0  0  0  0  0  0  0  0
   24.9362   45.3566   18.2291 O   0  0  0  0  0  0  0  0  0  0  0  0
   25.5299   42.9439   19.8162 C   0  0  0  0  0  0  0  0  0  0  0  0
   25.5113   41.6396   20.6042 C   0  0  0  0  0  0  0  0  0  0  0  0
   24.5941   41.7135   21.8216 C   0  0  0  0  0  0  0  0  0  0  0  0
   24.5729   40.3929   22.6073 C   0  0  0  0  0  0  0  0  0  0  0  0
   23.9528   39.2440   21.8743 N   0  0  0  0  0  0  0  0  0  0  0  0
   23.0936   45.4119   19.2911 O   0  0  0  0  0  0  0  0  0  0  0  0
  2  1  1  6  0  0  0
  2  3  1  0  0  0  0
  2  5  1  0  0  0  0
  3  4  1  0  0  0  0
  3 10  1  0  0  0  0
  5  6  1  0  0  0  0
  6  7  1  0  0  0  0
  7  8  1  0  0  0  0
  8  9  1  0  0  0  0
M  END
>  <CHROM.1>
-67.76697616,-80.14124577,-67.15254476,179.65477465,-66.66240359,24.44606299
42.76673650,20.00244924,-1.76629688,-1.23362936,2.32403833

>  <Name>
ligand

>  <RI>
0

>  <Rbt.Current_Directory>
/home/itssahil/PROJECTS/Mol_Feturizer/New_Systems/rnas/3D0U

>  <Rbt.Executable>
rbdock ($Id: //depot/dev/client3/rdock/2013.1/src/exe/rbdock.cxx#4 $)

>  <Rbt.Library>
libRbt.so (2013.1, Build901 2013/11/27)

>  <Rbt.Parameter_File>
/export/apps/rDock/src/rDock_2013.1_src/data/scripts/dock_solv.prm

>  <Rbt.Receptor>
prm/pocket_docking_5.prm

>  <SCORE>
-7.67548

>  <SCORE.INTER>
-8.28345

>  <SCORE.INTER.CONST>
1

>  <SCORE.INTER.POLAR>
0

>  <SCORE.INTER.ROT>
5

>  <SCORE.INTER.SOLV>
14.2814

>  <SCORE.INTER.VDW>
-17.2161

>  <SCORE.INTER.norm>
-0.828345

>  <SCORE.INTRA>
0.607978

>  <SCORE.INTRA.DIHEDRAL>
1.11927

>  <SCORE.INTRA.DIHEDRAL.0>
2.22229

>  <SCORE.INTRA.POLAR>
0

>  <SCORE.INTRA.POLAR.0>
0

>  <SCORE.INTRA.REPUL>
0

>  <SCORE.INTRA.REPUL.0>
0

>  <SCORE.INTRA.SOLV>
0.200166

>  <SCORE.INTRA.SOLV.lig_0>
-31.87

>  <SCORE.INTRA.VDW>
-0.0517393

>  <SCORE.INTRA.VDW.0>
-0.575321

>  <SCORE.INTRA.norm>
0.0607978

>  <SCORE.RESTR>
0

>  <SCORE.RESTR.CAVITY>
0

>  <SCORE.RESTR.norm>
0

>  <SCORE.SYSTEM>
0

>  <SCORE.SYSTEM.CONST>
0

>  <SCORE.SYSTEM.DIHEDRAL>
0

>  <SCORE.SYSTEM.SOLV>
0

>  <SCORE.SYSTEM.norm>
0

>  <SCORE.heavy>
10

>  <SCORE.norm>
-0.767548

>  <RMSD>
5.517

$$$$
ligand
 OpenBabel11021811463D
libRbt.so/2013.1/901 2013/11/27
 10  9  0  0  0  0  0  0  0  0999 V2000
   24.2096   42.5406   18.0413 N   0  0  0  0  0  0  0  0  0  0  0  0
   23.9154   43.2734   19.2666 C   0  0  2  0  0  0  0  0  0  0  0  0
   23.8439   44.7758   18.9994 C   0  0  0  0  0  0  0  0  0  0  0  0
   22.9390   45.4462   19.5051 O   0  0  0  0  0  0  0  0  0  0  0  0
   24.9522   42.9595   20.3495 C   0  0  0  0  0  0  0  0  0  0  0  0
   24.9696   41.4951   20.7712 C   0  0  0  0  0  0  0  0  0  0  0  0
   23.6522   41.0619   21.4083 C   0  0  0  0  0  0  0  0  0  0  0  0
   23.7166   39.6218   21.9410 C   0  0  0  0  0  0  0  0  0  0  0  0
   24.6316   39.4327   23.1108 N   0  0  0  0  0  0  0  0  0  0  0  0
   24.6858   45.3481   18.2948 O   0  0  0  0  0  0  0  0  0  0  0  0
  2  1  1  6  0  0  0
  2  3  1  0  0  0  0
  2  5  1  0  0  0  0
  3  4  1  0  0  0  0
  3 10  1  0  0  0  0
  5  6  1  0  0  0  0
  6  7  1  0  0  0  0
  7  8  1  0  0  0  0
  8  9  1  0  0  0  0
M  END
>  <CHROM.1>
136.49112901,-62.57226767,-63.20011365,-175.06223333,67.64507708,24.14809806
42.63831101,20.15636017,-1.67058576,-1.05421979,2.44531773

>  <Name>
ligand

>  <RI>
0

>  <Rbt.Current_Directory>
/home/itssahil/PROJECTS/Mol_Feturizer/New_Systems/rnas/3D0U

>  <Rbt.Executable>
rbdock ($Id: //depot/dev/client3/rdock/2013.1/src/exe/rbdock.cxx#4 $)

>  <Rbt.Library>
libRbt.so (2013.1, Build901 2013/11/27)

>  <Rbt.Parameter_File>
/export/apps/rDock/src/rDock_2013.1_src/data/scripts/dock_solv.prm

>  <Rbt.Receptor>
prm/pocket_docking_7.prm

>  <SCORE>
-7.44749

>  <SCORE.INTER>
-7.5634

>  <SCORE.INTER.CONST>
1

>  <SCORE.INTER.POLAR>
0

>  <SCORE.INTER.ROT>
5

>  <SCORE.INTER.SOLV>
14.0836

>  <SCORE.INTER.VDW>
-16.6701

>  <SCORE.INTER.norm>
-0.75634

>  <SCORE.INTRA>
0.115908

>  <SCORE.INTRA.DIHEDRAL>
-0.374139

>  <SCORE.INTRA.DIHEDRAL.0>
2.22229

>  <SCORE.INTRA.POLAR>
0

>  <SCORE.INTRA.POLAR.0>
0

>  <SCORE.INTRA.REPUL>
0

>  <SCORE.INTRA.REPUL.0>
0

>  <SCORE.INTRA.SOLV>
0.586063

>  <SCORE.INTRA.SOLV.lig_0>
-31.87

>  <SCORE.INTRA.VDW>
0.00994608

>  <SCORE.INTRA.VDW.0>
-0.575321

>  <SCORE.INTRA.norm>
0.0115908

>  <SCORE.RESTR>
0

>  <SCORE.RESTR.CAVITY>
0

>  <SCORE.RESTR.norm>
0

>  <SCORE.SYSTEM>
0

>  <SCORE.SYSTEM.CONST>
0

>  <SCORE.SYSTEM.DIHEDRAL>
0

>  <SCORE.SYSTEM.SOLV>
0

>  <SCORE.SYSTEM.norm>
0

>  <SCORE.heavy>
10

>  <SCORE.norm>
-0.744749

>  <RMSD>
5.521

$$$$
ligand
 OpenBabel11021811463D
libRbt.so/2013.1/901 2013/11/27
 10  9  0  0  0  0  0  0  0  0999 V2000
   24.7598   45.0697   18.3972 N   0  0  0  0  0  0  0  0  0  0  0  0
   25.2209   43.7238   18.7150 C   0  0  2  0  0  0  0  0  0  0  0  0
   24.7992   42.7330   17.6314 C   0  0  0  0  0  0  0  0  0  0  0  0
   23.6341   42.3268   17.5919 O   0  0  0  0  0  0  0  0  0  0  0  0
   24.7059   43.2835   20.0888 C   0  0  0  0  0  0  0  0  0  0  0  0
   25.2027   41.9070   20.5140 C   0  0  0  0  0  0  0  0  0  0  0  0
   24.5790   41.4488   21.8292 C   0  0  0  0  0  0  0  0  0  0  0  0
   25.0221   40.0280   22.2123 C   0  0  0  0  0  0  0  0  0  0  0  0
   24.3518   39.4760   23.4320 N   0  0  0  0  0  0  0  0  0  0  0  0
   25.5980   42.3337   16.7739 O   0  0  0  0  0  0  0  0  0  0  0  0
  2  1  1  6  0  0  0
  2  3  1  0  0  0  0
  2  5  1  0  0  0  0
  3  4  1  0  0  0  0
  3 10  1  0  0  0  0
  5  6  1  0  0  0  0
  6  7  1  0  0  0  0
  7  8  1  0  0  0  0
  8  9  1  0  0  0  0
M  END
>  <CHROM.1>
-77.24934473,-177.39092467,-175.14384617,176.76320509,-174.96657007,24.77935497
42.21796099,19.68431304,-0.60853873,1.53252542,1.17780922

>  <Name>
ligand

>  <RI>
0

>  <Rbt.Current_Directory>
/home/itssahil/PROJECTS/Mol_Feturizer/New_Systems/rnas/3D0U

>  <Rbt.Executable>
rbdock ($Id: //depot/dev/client3/rdock/2013.1/src/exe/rbdock.cxx#4 $)

>  <Rbt.Library>
libRbt.so (2013.1, Build901 2013/11/27)

>  <Rbt.Parameter_File>
/export/apps/rDock/src/rDock_2013.1_src/data/scripts/dock_solv.prm

>  <Rbt.Receptor>
prm/pocket_docking_3.prm

>  <SCORE>
-7.91093

>  <SCORE.INTER>
-6.88463

>  <SCORE.INTER.CONST>
1

>  <SCORE.INTER.POLAR>
0

>  <SCORE.INTER.ROT>
5

>  <SCORE.INTER.SOLV>
16.9114

>  <SCORE.INTER.VDW>
-17.1602

>  <SCORE.INTER.norm>
-0.688463

>  <SCORE.INTRA>
-1.0263

>  <SCORE.INTRA.DIHEDRAL>
-0.510602

>  <SCORE.INTRA.DIHEDRAL.0>
2.22229

>  <SCORE.INTRA.POLAR>
0

>  <SCORE.INTRA.POLAR.0>
0

>  <SCORE.INTRA.REPUL>
0

>  <SCORE.INTRA.REPUL.0>
0

>  <SCORE.INTRA.SOLV>
-1.6146

>  <SCORE.INTRA.SOLV.lig_0>
-31.87

>  <SCORE.INTRA.VDW>
0.0363032

>  <SCORE.INTRA.VDW.0>
-0.575321

>  <SCORE.INTRA.norm>
-0.10263

>  <SCORE.RESTR>
0

>  <SCORE.RESTR.CAVITY>
0

>  <SCORE.RESTR.norm>
0

>  <SCORE.SYSTEM>
0

>  <SCORE.SYSTEM.CONST>
0

>  <SCORE.SYSTEM.DIHEDRAL>
0

>  <SCORE.SYSTEM.SOLV>
0

>  <SCORE.SYSTEM.norm>
0

>  <SCORE.heavy>
10

>  <SCORE.norm>
-0.791093

>  <RMSD>
5.522

$$$$
ligand
 OpenBabel11021811463D
libRbt.so/2013.1/901 2013/11/27
 10  9  0  0  0  0  0  0  0  0999 V2000
   23.9868   42.5270   17.9010 N   0  0  0  0  0  0  0  0  0  0  0  0
   24.1420   43.3007   19.1268 C   0  0  2  0  0  0  0  0  0  0  0  0
   23.9952   44.7959   18.8498 C   0  0  0  0  0  0  0  0  0  0  0  0
   23.0705   45.4278   19.3691 O   0  0  0  0  0  0  0  0  0  0  0  0
   25.4873   42.9978   19.7937 C   0  0  0  0  0  0  0  0  0  0  0  0
   25.5032   41.6840   20.5657 C   0  0  0  0  0  0  0  0  0  0  0  0
   24.6249   41.7362   21.8126 C   0  0  0  0  0  0  0  0  0  0  0  0
   24.6559   40.4134   22.5943 C   0  0  0  0  0  0  0  0  0  0  0  0
   24.0802   39.2435   21.8583 N   0  0  0  0  0  0  0  0  0  0  0  0
   24.7950   45.4007   18.1236 O   0  0  0  0  0  0  0  0  0  0  0  0
  2  1  1  6  0  0  0
  2  3  1  0  0  0  0
  2  5  1  0  0  0  0
  3  4  1  0  0  0  0
  3 10  1  0  0  0  0
  5  6  1  0  0  0  0
  6  7  1  0  0  0  0
  7  8  1  0  0  0  0
  8  9  1  0  0  0  0
M  END
>  <CHROM.1>
117.02155994,-78.39004143,-68.71415799,-179.43835112,-64.55960006,24.42855560
42.79452937,19.98714773,-1.90011674,-1.28561980,2.19266594

>  <Name>
ligand

>  <RI>
0

>  <Rbt.Current_Directory>
/home/itssahil/PROJECTS/Mol_Feturizer/New_Systems/rnas/3D0U

>  <Rbt.Executable>
rbdock ($Id: //depot/dev/client3/rdock/2013.1/src/exe/rbdock.cxx#4 $)

>  <Rbt.Library>
libRbt.so (2013.1, Build901 2013/11/27)

>  <Rbt.Parameter_File>
/export/apps/rDock/src/rDock_2013.1_src/data/scripts/dock_solv.prm

>  <Rbt.Receptor>
prm/pocket_docking_8.prm

>  <SCORE>
-7.96176

>  <SCORE.INTER>
-8.42079

>  <SCORE.INTER.CONST>
1

>  <SCORE.INTER.POLAR>
0

>  <SCORE.INTER.ROT>
5

>  <SCORE.INTER.SOLV>
14.1134

>  <SCORE.INTER.VDW>
-17.2517

>  <SCORE.INTER.norm>
-0.842079

>  <SCORE.INTRA>
0.459031

>  <SCORE.INTRA.DIHEDRAL>
0.926596

>  <SCORE.INTRA.DIHEDRAL.0>
2.22229

>  <SCORE.INTRA.POLAR>
0

>  <SCORE.INTRA.POLAR.0>
0

>  <SCORE.INTRA.REPUL>
0

>  <SCORE.INTRA.REPUL.0>
0

>  <SCORE.INTRA.SOLV>
0.229755

>  <SCORE.INTRA.SOLV.lig_0>
-31.87

>  <SCORE.INTRA.VDW>
-0.119145

>  <SCORE.INTRA.VDW.0>
-0.575321

>  <SCORE.INTRA.norm>
0.0459031

>  <SCORE.RESTR>
0

>  <SCORE.RESTR.CAVITY>
0

>  <SCORE.RESTR.norm>
0

>  <SCORE.SYSTEM>
0

>  <SCORE.SYSTEM.CONST>
0

>  <SCORE.SYSTEM.DIHEDRAL>
0

>  <SCORE.SYSTEM.SOLV>
0

>  <SCORE.SYSTEM.norm>
0

>  <SCORE.heavy>
10

>  <SCORE.norm>
-0.796176

>  <RMSD>
5.522

$$$$
ligand
 OpenBabel11021811463D
libRbt.so/2013.1/901 2013/11/27
 10  9  0  0  0  0  0  0  0  0999 V2000
   25.5024   42.6714   18.0101 N   0  0  0  0  0  0  0  0  0  0  0  0
   24.1900   43.0546   18.5159 C   0  0  2  0  0  0  0  0  0  0  0  0
   24.1430   44.5483   18.8333 C   0  0  0  0  0  0  0  0  0  0  0  0
   25.1208   45.2592   18.5834 O   0  0  0  0  0  0  0  0  0  0  0  0
   23.8180   42.2223   19.7468 C   0  0  0  0  0  0  0  0  0  0  0  0
   24.8324   42.3216   20.8796 C   0  0  0  0  0  0  0  0  0  0  0  0
   24.4156   41.5072   22.1011 C   0  0  0  0  0  0  0  0  0  0  0  0
   24.4498   39.9959   21.8244 C   0  0  0  0  0  0  0  0  0  0  0  0
   23.9455   39.1469   22.9499 N   0  0  0  0  0  0  0  0  0  0  0  0
   23.1355   45.0735   19.3252 O   0  0  0  0  0  0  0  0  0  0  0  0
  2  1  1  1  0  0  0
  2  3  1  0  0  0  0
  2  5  1  0  0  0  0
  3  4  1  0  0  0  0
  3 10  1  0  0  0  0
  5  6  1  0  0  0  0
  6  7  1  0  0  0  0
  7  8  1  0  0  0  0
  8  9  1  0  0  0  0
M  END
>  <CHROM.1>
3.72471858,57.04093291,178.67001410,67.75494075,-175.31654013,24.35306304
42.62136871,20.07438409,-1.52852826,-0.96248978,2.49667990

>  <Name>
ligand

>  <RI>
0

>  <Rbt.Current_Directory>
/home/itssahil/PROJECTS/Mol_Feturizer/New_Systems/rnas/3D0U

>  <Rbt.Executable>
rbdock ($Id: //depot/dev/client3/rdock/2013.1/src/exe/rbdock.cxx#4 $)

>  <Rbt.Library>
libRbt.so (2013.1, Build901 2013/11/27)

>  <Rbt.Parameter_File>
/export/apps/rDock/src/rDock_2013.1_src/data/scripts/dock_solv.prm

>  <Rbt.Receptor>
prm/pocket_docking_7.prm

>  <SCORE>
-8.01844

>  <SCORE.INTER>
-8.26346

>  <SCORE.INTER.CONST>
1

>  <SCORE.INTER.POLAR>
0

>  <SCORE.INTER.ROT>
5

>  <SCORE.INTER.SOLV>
13.3525

>  <SCORE.INTER.VDW>
-16.8931

>  <SCORE.INTER.norm>
-0.826346

>  <SCORE.INTRA>
0.245023

>  <SCORE.INTRA.DIHEDRAL>
-0.370734

>  <SCORE.INTRA.DIHEDRAL.0>
2.22229

>  <SCORE.INTRA.POLAR>
0

>  <SCORE.INTRA.POLAR.0>
0

>  <SCORE.INTRA.REPUL>
0

>  <SCORE.INTRA.REPUL.0>
0

>  <SCORE.INTRA.SOLV>
-0.453067

>  <SCORE.INTRA.SOLV.lig_0>
-31.87

>  <SCORE.INTRA.VDW>
0.656923

>  <SCORE.INTRA.VDW.0>
-0.575321

>  <SCORE.INTRA.norm>
0.0245023

>  <SCORE.RESTR>
0

>  <SCORE.RESTR.CAVITY>
0

>  <SCORE.RESTR.norm>
0

>  <SCORE.SYSTEM>
0

>  <SCORE.SYSTEM.CONST>
0

>  <SCORE.SYSTEM.DIHEDRAL>
0

>  <SCORE.SYSTEM.SOLV>
0

>  <SCORE.SYSTEM.norm>
0

>  <SCORE.heavy>
10

>  <SCORE.norm>
-0.801844

>  <RMSD>
5.525

$$$$
ligand
 OpenBabel11021811463D
libRbt.so/2013.1/901 2013/11/27
 10  9  0  0  0  0  0  0  0  0999 V2000
   25.3152   42.6036   18.1006 N   0  0  0  0  0  0  0  0  0  0  0  0
   24.3923   43.1141   19.1069 C   0  0  2  0  0  0  0  0  0  0  0  0
   24.0754   44.5877   18.8582 C   0  0  0  0  0  0  0  0  0  0  0  0
   24.8813   45.2930   18.2441 O   0  0  0  0  0  0  0  0  0  0  0  0
   24.9558   42.9063   20.5160 C   0  0  0  0  0  0  0  0  0  0  0  0
   25.0053   41.4445   20.9437 C   0  0  0  0  0  0  0  0  0  0  0  0
   23.6131   40.8323   21.0700 C   0  0  0  0  0  0  0  0  0  0  0  0
   23.6610   39.4063   21.6410 C   0  0  0  0  0  0  0  0  0  0  0  0
   24.1234   39.3217   23.0626 N   0  0  0  0  0  0  0  0  0  0  0  0
   23.0151   45.0956   19.2464 O   0  0  0  0  0  0  0  0  0  0  0  0
  2  1  1  6  0  0  0
  2  3  1  0  0  0  0
  2  5  1  0  0  0  0
  3  4  1  0  0  0  0
  3 10  1  0  0  0  0
  5  6  1  0  0  0  0
  6  7  1  0  0  0  0
  7  8  1  0  0  0  0
  8  9  1  0  0  0  0
M  END
>  <CHROM.1>
-25.17488075,-69.16962199,-65.14700732,-174.05431105,66.54085523,24.29637145
42.50232130,20.06590707,-1.51197965,-0.70377296,2.56820316

>  <Name>
ligand

>  <RI>
0

>  <Rbt.Current_Directory>
/home/itssahil/PROJECTS/Mol_Feturizer/New_Systems/rnas/3D0U

>  <Rbt.Executable>
rbdock ($Id: //depot/dev/client3/rdock/2013.1/src/exe/rbdock.cxx#4 $)

>  <Rbt.Library>
libRbt.so (2013.1, Build901 2013/11/27)

>  <Rbt.Parameter_File>
/export/apps/rDock/src/rDock_2013.1_src/data/scripts/dock_solv.prm

>  <Rbt.Receptor>
prm/pocket_docking_3.prm

>  <SCORE>
-6.95003

>  <SCORE.INTER>
-7.21029

>  <SCORE.INTER.CONST>
1

>  <SCORE.INTER.POLAR>
0

>  <SCORE.INTER.ROT>
5

>  <SCORE.INTER.SOLV>
12.861

>  <SCORE.INTER.VDW>
-16.0272

>  <SCORE.INTER.norm>
-0.721029

>  <SCORE.INTRA>
0.260259

>  <SCORE.INTRA.DIHEDRAL>
0.0470911

>  <SCORE.INTRA.DIHEDRAL.0>
2.22229

>  <SCORE.INTRA.POLAR>
0

>  <SCORE.INTRA.POLAR.0>
0

>  <SCORE.INTRA.REPUL>
0

>  <SCORE.INTRA.REPUL.0>
0

>  <SCORE.INTRA.SOLV>
0.477437

>  <SCORE.INTRA.SOLV.lig_0>
-31.87

>  <SCORE.INTRA.VDW>
-0.00200466

>  <SCORE.INTRA.VDW.0>
-0.575321

>  <SCORE.INTRA.norm>
0.0260259

>  <SCORE.RESTR>
0

>  <SCORE.RESTR.CAVITY>
0

>  <SCORE.RESTR.norm>
0

>  <SCORE.SYSTEM>
0

>  <SCORE.SYSTEM.CONST>
0

>  <SCORE.SYSTEM.DIHEDRAL>
0

>  <SCORE.SYSTEM.SOLV>
0

>  <SCORE.SYSTEM.norm>
0

>  <SCORE.heavy>
10

>  <SCORE.norm>
-0.695003

>  <RMSD>
5.529

$$$$
ligand
 OpenBabel11021811463D
libRbt.so/2013.1/901 2013/11/27
 10  9  0  0  0  0  0  0  0  0999 V2000
   25.5838   42.9625   18.0034 N   0  0  0  0  0  0  0  0  0  0  0  0
   24.2034   43.2981   18.3304 C   0  0  2  0  0  0  0  0  0  0  0  0
   24.1320   44.6060   19.1165 C   0  0  0  0  0  0  0  0  0  0  0  0
   25.1667   45.1109   19.5621 O   0  0  0  0  0  0  0  0  0  0  0  0
   23.5360   42.1576   19.1050 C   0  0  0  0  0  0  0  0  0  0  0  0
   24.2788   41.7678   20.3772 C   0  0  0  0  0  0  0  0  0  0  0  0
   23.6113   40.6022   21.1017 C   0  0  0  0  0  0  0  0  0  0  0  0
   24.3605   40.2185   22.3875 C   0  0  0  0  0  0  0  0  0  0  0  0
   23.7760   39.0524   23.1224 N   0  0  0  0  0  0  0  0  0  0  0  0
   23.0558   45.1875   19.3080 O   0  0  0  0  0  0  0  0  0  0  0  0
  2  1  1  1  0  0  0
  2  3  1  0  0  0  0
  2  5  1  0  0  0  0
  3  4  1  0  0  0  0
  3 10  1  0  0  0  0
  5  6  1  0  0  0  0
  6  7  1  0  0  0  0
  7  8  1  0  0  0  0
  8  9  1  0  0  0  0
M  END
>  <CHROM.1>
-11.04991587,56.32248559,-178.27221038,-179.69742056,-178.25287174,24.16895391
42.53506909,20.04975671,-1.42376464,-1.08985240,2.64065971

>  <Name>
ligand

>  <RI>
0

>  <Rbt.Current_Directory>
/home/itssahil/PROJECTS/Mol_Feturizer/New_Systems/rnas/3D0U

>  <Rbt.Executable>
rbdock ($Id: //depot/dev/client3/rdock/2013.1/src/exe/rbdock.cxx#4 $)

>  <Rbt.Library>
libRbt.so (2013.1, Build901 2013/11/27)

>  <Rbt.Parameter_File>
/export/apps/rDock/src/rDock_2013.1_src/data/scripts/dock_solv.prm

>  <Rbt.Receptor>
prm/pocket_docking_7.prm

>  <SCORE>
-8.63734

>  <SCORE.INTER>
-7.9962

>  <SCORE.INTER.CONST>
1

>  <SCORE.INTER.POLAR>
0

>  <SCORE.INTER.ROT>
5

>  <SCORE.INTER.SOLV>
13.827

>  <SCORE.INTER.VDW>
-16.8731

>  <SCORE.INTER.norm>
-0.79962

>  <SCORE.INTRA>
-0.641138

>  <SCORE.INTRA.DIHEDRAL>
-0.64213

>  <SCORE.INTRA.DIHEDRAL.0>
2.22229

>  <SCORE.INTRA.POLAR>
0

>  <SCORE.INTRA.POLAR.0>
0

>  <SCORE.INTRA.REPUL>
0

>  <SCORE.INTRA.REPUL.0>
0

>  <SCORE.INTRA.SOLV>
-0.654308

>  <SCORE.INTRA.SOLV.lig_0>
-31.87

>  <SCORE.INTRA.VDW>
0.00708076

>  <SCORE.INTRA.VDW.0>
-0.575321

>  <SCORE.INTRA.norm>
-0.0641138

>  <SCORE.RESTR>
0

>  <SCORE.RESTR.CAVITY>
0

>  <SCORE.RESTR.norm>
0

>  <SCORE.SYSTEM>
0

>  <SCORE.SYSTEM.CONST>
0

>  <SCORE.SYSTEM.DIHEDRAL>
0

>  <SCORE.SYSTEM.SOLV>
0

>  <SCORE.SYSTEM.norm>
0

>  <SCORE.heavy>
10

>  <SCORE.norm>
-0.863734

>  <RMSD>
5.531

$$$$
ligand
 OpenBabel11021811463D
libRbt.so/2013.1/901 2013/11/27
 10  9  0  0  0  0  0  0  0  0999 V2000
   25.8742   42.9644   19.2832 N   0  0  0  0  0  0  0  0  0  0  0  0
   24.6142   43.3579   18.6646 C   0  0  2  0  0  0  0  0  0  0  0  0
   24.4891   44.8792   18.6027 C   0  0  0  0  0  0  0  0  0  0  0  0
   23.5242   45.4372   19.1334 O   0  0  0  0  0  0  0  0  0  0  0  0
   23.4269   42.7417   19.4108 C   0  0  0  0  0  0  0  0  0  0  0  0
   23.5221   41.2285   19.5647 C   0  0  0  0  0  0  0  0  0  0  0  0
   24.3946   40.8223   20.7491 C   0  0  0  0  0  0  0  0  0  0  0  0
   23.7196   41.1324   22.0945 C   0  0  0  0  0  0  0  0  0  0  0  0
   24.4935   40.6845   23.2954 N   0  0  0  0  0  0  0  0  0  0  0  0
   25.3452   45.5762   18.0422 O   0  0  0  0  0  0  0  0  0  0  0  0
  2  1  1  1  0  0  0
  2  3  1  0  0  0  0
  2  5  1  0  0  0  0
  3  4  1  0  0  0  0
  3 10  1  0  0  0  0
  5  6  1  0  0  0  0
  6  7  1  0  0  0  0
  7  8  1  0  0  0  0
  8  9  1  0  0  0  0
M  END
>  <CHROM.1>
-122.68593590,-53.73486377,82.58711421,70.88047417,176.66635965,24.33867505
42.92417814,19.87443113,-1.31925037,-1.18866839,2.68577431

>  <Name>
ligand

>  <RI>
0

>  <Rbt.Current_Directory>
/home/itssahil/PROJECTS/Mol_Feturizer/New_Systems/rnas/3D0U

>  <Rbt.Executable>
rbdock ($Id: //depot/dev/client3/rdock/2013.1/src/exe/rbdock.cxx#4 $)

>  <Rbt.Library>
libRbt.so (2013.1, Build901 2013/11/27)

>  <Rbt.Parameter_File>
/export/apps/rDock/src/rDock_2013.1_src/data/scripts/dock_solv.prm

>  <Rbt.Receptor>
prm/pocket_docking_8.prm

>  <SCORE>
-4.50638

>  <SCORE.INTER>
-7.25848

>  <SCORE.INTER.CONST>
1

>  <SCORE.INTER.POLAR>
0

>  <SCORE.INTER.ROT>
5

>  <SCORE.INTER.SOLV>
12.574

>  <SCORE.INTER.VDW>
-15.9637

>  <SCORE.INTER.norm>
-0.725848

>  <SCORE.INTRA>
2.7521

>  <SCORE.INTRA.DIHEDRAL>
1.83196

>  <SCORE.INTRA.DIHEDRAL.0>
2.22229

>  <SCORE.INTRA.POLAR>
0

>  <SCORE.INTRA.POLAR.0>
0

>  <SCORE.INTRA.REPUL>
0

>  <SCORE.INTRA.REPUL.0>
0

>  <SCORE.INTRA.SOLV>
1.00306

>  <SCORE.INTRA.SOLV.lig_0>
-31.87

>  <SCORE.INTRA.VDW>
1.3346

>  <SCORE.INTRA.VDW.0>
-0.575321

>  <SCORE.INTRA.norm>
0.27521

>  <SCORE.RESTR>
0

>  <SCORE.RESTR.CAVITY>
0

>  <SCORE.RESTR.norm>
0

>  <SCORE.SYSTEM>
0

>  <SCORE.SYSTEM.CONST>
0

>  <SCORE.SYSTEM.DIHEDRAL>
0

>  <SCORE.SYSTEM.SOLV>
0

>  <SCORE.SYSTEM.norm>
0

>  <SCORE.heavy>
10

>  <SCORE.norm>
-0.450638

>  <RMSD>
5.531

$$$$
ligand
 OpenBabel11021811463D
libRbt.so/2013.1/901 2013/11/27
 10  9  0  0  0  0  0  0  0  0999 V2000
   24.0617   42.3644   17.6560 N   0  0  0  0  0  0  0  0  0  0  0  0
   24.3510   43.0522   18.9083 C   0  0  2  0  0  0  0  0  0  0  0  0
   24.1452   44.5590   18.7628 C   0  0  0  0  0  0  0  0  0  0  0  0
   23.1732   45.0996   19.2985 O   0  0  0  0  0  0  0  0  0  0  0  0
   25.7724   42.7381   19.3847 C   0  0  0  0  0  0  0  0  0  0  0  0
   25.9004   41.3835   20.0710 C   0  0  0  0  0  0  0  0  0  0  0  0
   25.0751   41.3049   21.3523 C   0  0  0  0  0  0  0  0  0  0  0  0
   25.1365   39.9089   21.9918 C   0  0  0  0  0  0  0  0  0  0  0  0
   24.2254   39.7228   23.1654 N   0  0  0  0  0  0  0  0  0  0  0  0
   24.9426   45.2623   18.1285 O   0  0  0  0  0  0  0  0  0  0  0  0
  2  1  1  6  0  0  0
  2  3  1  0  0  0  0
  2  5  1  0  0  0  0
  3  4  1  0  0  0  0
  3 10  1  0  0  0  0
  5  6  1  0  0  0  0
  6  7  1  0  0  0  0
  7  8  1  0  0  0  0
  8  9  1  0  0  0  0
M  END
>  <CHROM.1>
107.66397256,-79.38513867,-63.26405275,176.35816348,-173.43034221,24.67111061
42.58132593,19.86211674,-1.74706702,-0.84507704,2.31359212

>  <Name>
ligand

>  <RI>
0

>  <Rbt.Current_Directory>
/home/itssahil/PROJECTS/Mol_Feturizer/New_Systems/rnas/3D0U

>  <Rbt.Executable>
rbdock ($Id: //depot/dev/client3/rdock/2013.1/src/exe/rbdock.cxx#4 $)

>  <Rbt.Library>
libRbt.so (2013.1, Build901 2013/11/27)

>  <Rbt.Parameter_File>
/export/apps/rDock/src/rDock_2013.1_src/data/scripts/dock_solv.prm

>  <Rbt.Receptor>
prm/pocket_docking_3.prm

>  <SCORE>
-8.13148

>  <SCORE.INTER>
-8.34038

>  <SCORE.INTER.CONST>
1

>  <SCORE.INTER.POLAR>
0

>  <SCORE.INTER.ROT>
5

>  <SCORE.INTER.SOLV>
15.6729

>  <SCORE.INTER.VDW>
-17.7179

>  <SCORE.INTER.norm>
-0.834038

>  <SCORE.INTRA>
0.208906

>  <SCORE.INTRA.DIHEDRAL>
0.936601

>  <SCORE.INTRA.DIHEDRAL.0>
2.22229

>  <SCORE.INTRA.POLAR>
0

>  <SCORE.INTRA.POLAR.0>
0

>  <SCORE.INTRA.REPUL>
0

>  <SCORE.INTRA.REPUL.0>
0

>  <SCORE.INTRA.SOLV>
-0.548895

>  <SCORE.INTRA.SOLV.lig_0>
-31.87

>  <SCORE.INTRA.VDW>
0.0150532

>  <SCORE.INTRA.VDW.0>
-0.575321

>  <SCORE.INTRA.norm>
0.0208906

>  <SCORE.RESTR>
0

>  <SCORE.RESTR.CAVITY>
0

>  <SCORE.RESTR.norm>
0

>  <SCORE.SYSTEM>
0

>  <SCORE.SYSTEM.CONST>
0

>  <SCORE.SYSTEM.DIHEDRAL>
0

>  <SCORE.SYSTEM.SOLV>
0

>  <SCORE.SYSTEM.norm>
0

>  <SCORE.heavy>
10

>  <SCORE.norm>
-0.813148

>  <RMSD>
5.532

$$$$
ligand
 OpenBabel11021811463D
libRbt.so/2013.1/901 2013/11/27
 10  9  0  0  0  0  0  0  0  0999 V2000
   25.3004   42.5148   16.6941 N   0  0  0  0  0  0  0  0  0  0  0  0
   24.6396   42.4500   17.9919 C   0  0  2  0  0  0  0  0  0  0  0  0
   24.4015   43.8508   18.5529 C   0  0  0  0  0  0  0  0  0  0  0  0
   25.2244   44.7455   18.3378 O   0  0  0  0  0  0  0  0  0  0  0  0
   25.4518   41.5990   18.9729 C   0  0  0  0  0  0  0  0  0  0  0  0
   24.7300   41.3275   20.2873 C   0  0  0  0  0  0  0  0  0  0  0  0
   25.6074   40.5741   21.2831 C   0  0  0  0  0  0  0  0  0  0  0  0
   24.8420   40.2117   22.5655 C   0  0  0  0  0  0  0  0  0  0  0  0
   23.7648   39.1889   22.3778 N   0  0  0  0  0  0  0  0  0  0  0  0
   23.3881   44.1201   19.2112 O   0  0  0  0  0  0  0  0  0  0  0  0
  2  1  1  6  0  0  0
  2  3  1  0  0  0  0
  2  5  1  0  0  0  0
  3  4  1  0  0  0  0
  3 10  1  0  0  0  0
  5  6  1  0  0  0  0
  6  7  1  0  0  0  0
  7  8  1  0  0  0  0
  8  9  1  0  0  0  0
M  END
>  <CHROM.1>
-34.68726310,-172.01402629,-175.42389159,-175.76127288,68.18310614,24.72851243
42.09656211,19.63066229,-1.52230560,-1.04241144,2.36417623

>  <Name>
ligand

>  <RI>
0

>  <Rbt.Current_Directory>
/home/itssahil/PROJECTS/Mol_Feturizer/New_Systems/rnas/3D0U

>  <Rbt.Executable>
rbdock ($Id: //depot/dev/client3/rdock/2013.1/src/exe/rbdock.cxx#4 $)

>  <Rbt.Library>
libRbt.so (2013.1, Build901 2013/11/27)

>  <Rbt.Parameter_File>
/export/apps/rDock/src/rDock_2013.1_src/data/scripts/dock_solv.prm

>  <Rbt.Receptor>
prm/pocket_docking_3.prm

>  <SCORE>
-8.54149

>  <SCORE.INTER>
-7.85566

>  <SCORE.INTER.CONST>
1

>  <SCORE.INTER.POLAR>
0

>  <SCORE.INTER.ROT>
5

>  <SCORE.INTER.SOLV>
17.387

>  <SCORE.INTER.VDW>
-17.9661

>  <SCORE.INTER.norm>
-0.785566

>  <SCORE.INTRA>
-0.685822

>  <SCORE.INTRA.DIHEDRAL>
-0.0669016

>  <SCORE.INTRA.DIHEDRAL.0>
2.22229

>  <SCORE.INTRA.POLAR>
0

>  <SCORE.INTRA.POLAR.0>
0

>  <SCORE.INTRA.REPUL>
0

>  <SCORE.INTRA.REPUL.0>
0

>  <SCORE.INTRA.SOLV>
-0.794395

>  <SCORE.INTRA.SOLV.lig_0>
-31.87

>  <SCORE.INTRA.VDW>
-0.255174

>  <SCORE.INTRA.VDW.0>
-0.575321

>  <SCORE.INTRA.norm>
-0.0685822

>  <SCORE.RESTR>
0

>  <SCORE.RESTR.CAVITY>
0

>  <SCORE.RESTR.norm>
0

>  <SCORE.SYSTEM>
0

>  <SCORE.SYSTEM.CONST>
0

>  <SCORE.SYSTEM.DIHEDRAL>
0

>  <SCORE.SYSTEM.SOLV>
0

>  <SCORE.SYSTEM.norm>
0

>  <SCORE.heavy>
10

>  <SCORE.norm>
-0.854149

>  <RMSD>
5.532

$$$$
ligand
 OpenBabel11021811463D
libRbt.so/2013.1/901 2013/11/27
 10  9  0  0  0  0  0  0  0  0999 V2000
   25.4893   43.0834   17.9150 N   0  0  0  0  0  0  0  0  0  0  0  0
   24.1326   43.4130   18.3344 C   0  0  2  0  0  0  0  0  0  0  0  0
   24.1123   44.7070   19.1462 C   0  0  0  0  0  0  0  0  0  0  0  0
   23.0421   45.2892   19.3451 O   0  0  0  0  0  0  0  0  0  0  0  0
   23.5144   42.2590   19.1295 C   0  0  0  0  0  0  0  0  0  0  0  0
   24.3444   41.8357   20.3355 C   0  0  0  0  0  0  0  0  0  0  0  0
   23.7139   40.6681   21.0893 C   0  0  0  0  0  0  0  0  0  0  0  0
   24.5695   40.2272   22.2874 C   0  0  0  0  0  0  0  0  0  0  0  0
   23.9819   39.1100   23.0925 N   0  0  0  0  0  0  0  0  0  0  0  0
   25.1480   45.1845   19.6279 O   0  0  0  0  0  0  0  0  0  0  0  0
  2  1  1  1  0  0  0
  2  3  1  0  0  0  0
  2  5  1  0  0  0  0
  3  4  1  0  0  0  0
  3 10  1  0  0  0  0
  5  6  1  0  0  0  0
  6  7  1  0  0  0  0
  7  8  1  0  0  0  0
  8  9  1  0  0  0  0
M  END
>  <CHROM.1>
164.84184862,55.61192037,-178.92918852,178.84226726,178.25708413,24.20345813
42.61609033,20.03968494,-1.50177107,-1.16452375,2.58827751

>  <Name>
ligand

>  <RI>
0

>  <Rbt.Current_Directory>
/home/itssahil/PROJECTS/Mol_Feturizer/New_Systems/rnas/3D0U

>  <Rbt.Executable>
rbdock ($Id: //depot/dev/client3/rdock/2013.1/src/exe/rbdock.cxx#4 $)

>  <Rbt.Library>
libRbt.so (2013.1, Build901 2013/11/27)

>  <Rbt.Parameter_File>
/export/apps/rDock/src/rDock_2013.1_src/data/scripts/dock_solv.prm

>  <Rbt.Receptor>
prm/pocket_docking_5.prm

>  <SCORE>
-8.63456

>  <SCORE.INTER>
-7.92892

>  <SCORE.INTER.CONST>
1

>  <SCORE.INTER.POLAR>
0

>  <SCORE.INTER.ROT>
5

>  <SCORE.INTER.SOLV>
14.0618

>  <SCORE.INTER.VDW>
-16.9066

>  <SCORE.INTER.norm>
-0.792892

>  <SCORE.INTRA>
-0.70564

>  <SCORE.INTRA.DIHEDRAL>
-0.662583

>  <SCORE.INTRA.DIHEDRAL.0>
2.22229

>  <SCORE.INTRA.POLAR>
0

>  <SCORE.INTRA.POLAR.0>
0

>  <SCORE.INTRA.REPUL>
0

>  <SCORE.INTRA.REPUL.0>
0

>  <SCORE.INTRA.SOLV>
-0.661689

>  <SCORE.INTRA.SOLV.lig_0>
-31.87

>  <SCORE.INTRA.VDW>
-0.0435042

>  <SCORE.INTRA.VDW.0>
-0.575321

>  <SCORE.INTRA.norm>
-0.070564

>  <SCORE.RESTR>
0

>  <SCORE.RESTR.CAVITY>
0

>  <SCORE.RESTR.norm>
0

>  <SCORE.SYSTEM>
0

>  <SCORE.SYSTEM.CONST>
0

>  <SCORE.SYSTEM.DIHEDRAL>
0

>  <SCORE.SYSTEM.SOLV>
0

>  <SCORE.SYSTEM.norm>
0

>  <SCORE.heavy>
10

>  <SCORE.norm>
-0.863456

>  <RMSD>
5.532

$$$$
ligand
 OpenBabel11021811463D
libRbt.so/2013.1/901 2013/11/27
 10  9  0  0  0  0  0  0  0  0999 V2000
   24.1395   43.4932   20.0847 N   0  0  0  0  0  0  0  0  0  0  0  0
   24.8448   42.2596   19.7590 C   0  0  2  0  0  0  0  0  0  0  0  0
   25.0485   42.1302   18.2505 C   0  0  0  0  0  0  0  0  0  0  0  0
   24.2569   42.6754   17.4759 O   0  0  0  0  0  0  0  0  0  0  0  0
   24.0982   41.0437   20.3162 C   0  0  0  0  0  0  0  0  0  0  0  0
   24.1824   40.9185   21.8326 C   0  0  0  0  0  0  0  0  0  0  0  0
   23.5531   39.6245   22.3410 C   0  0  0  0  0  0  0  0  0  0  0  0
   23.6616   39.4930   23.8684 C   0  0  0  0  0  0  0  0  0  0  0  0
   23.0419   38.2512   24.4303 N   0  0  0  0  0  0  0  0  0  0  0  0
   26.0040   41.4998   17.7787 O   0  0  0  0  0  0  0  0  0  0  0  0
  2  1  1  6  0  0  0
  2  3  1  0  0  0  0
  2  5  1  0  0  0  0
  3  4  1  0  0  0  0
  3 10  1  0  0  0  0
  5  6  1  0  0  0  0
  6  7  1  0  0  0  0
  7  8  1  0  0  0  0
  8  9  1  0  0  0  0
M  END
>  <CHROM.1>
-27.22188697,-71.77356103,-174.11427674,179.05692553,179.09471687,24.29204947
41.14336129,20.56964344,1.02345531,1.10733909,-0.53699621

>  <Name>
ligand

>  <RI>
0

>  <Rbt.Current_Directory>
/home/itssahil/PROJECTS/Mol_Feturizer/New_Systems/rnas/3D0U

>  <Rbt.Executable>
rbdock ($Id: //depot/dev/client3/rdock/2013.1/src/exe/rbdock.cxx#4 $)

>  <Rbt.Library>
libRbt.so (2013.1, Build901 2013/11/27)

>  <Rbt.Parameter_File>
/export/apps/rDock/src/rDock_2013.1_src/data/scripts/dock_solv.prm

>  <Rbt.Receptor>
prm/pocket_docking_3.prm

>  <SCORE>
-7.52691

>  <SCORE.INTER>
-6.94511

>  <SCORE.INTER.CONST>
1

>  <SCORE.INTER.POLAR>
0

>  <SCORE.INTER.ROT>
5

>  <SCORE.INTER.SOLV>
12.2746

>  <SCORE.INTER.VDW>
-15.6549

>  <SCORE.INTER.norm>
-0.694511

>  <SCORE.INTRA>
-0.706137

>  <SCORE.INTRA.DIHEDRAL>
-0.00920685

>  <SCORE.INTRA.DIHEDRAL.0>
2.22229

>  <SCORE.INTRA.POLAR>
0

>  <SCORE.INTRA.POLAR.0>
0

>  <SCORE.INTRA.REPUL>
0

>  <SCORE.INTRA.REPUL.0>
0

>  <SCORE.INTRA.SOLV>
-0.881711

>  <SCORE.INTRA.SOLV.lig_0>
-31.87

>  <SCORE.INTRA.VDW>
-0.260679

>  <SCORE.INTRA.VDW.0>
-0.575321

>  <SCORE.INTRA.norm>
-0.0706137

>  <SCORE.RESTR>
0.124334

>  <SCORE.RESTR.CAVITY>
0.124334

>  <SCORE.RESTR.norm>
0.0124334

>  <SCORE.SYSTEM>
0

>  <SCORE.SYSTEM.CONST>
0

>  <SCORE.SYSTEM.DIHEDRAL>
0

>  <SCORE.SYSTEM.SOLV>
0

>  <SCORE.SYSTEM.norm>
0

>  <SCORE.heavy>
10

>  <SCORE.norm>
-0.752691

>  <RMSD>
5.535

$$$$
ligand
 OpenBabel11021811463D
libRbt.so/2013.1/901 2013/11/27
 10  9  0  0  0  0  0  0  0  0999 V2000
   25.5903   43.0154   18.0658 N   0  0  0  0  0  0  0  0  0  0  0  0
   24.2012   43.3416   18.3643 C   0  0  2  0  0  0  0  0  0  0  0  0
   24.1027   44.6642   19.1224 C   0  0  0  0  0  0  0  0  0  0  0  0
   23.0020   45.2007   19.2790 O   0  0  0  0  0  0  0  0  0  0  0  0
   23.5345   42.2093   19.1515 C   0  0  0  0  0  0  0  0  0  0  0  0
   24.2961   41.8104   20.4098 C   0  0  0  0  0  0  0  0  0  0  0  0
   23.6361   40.6436   21.1389 C   0  0  0  0  0  0  0  0  0  0  0  0
   24.3990   40.2569   22.4157 C   0  0  0  0  0  0  0  0  0  0  0  0
   23.8018   39.1119   23.1733 N   0  0  0  0  0  0  0  0  0  0  0  0
   25.1047   45.2109   19.6021 O   0  0  0  0  0  0  0  0  0  0  0  0
  2  1  1  1  0  0  0
  2  3  1  0  0  0  0
  2  5  1  0  0  0  0
  3  4  1  0  0  0  0
  3 10  1  0  0  0  0
  5  6  1  0  0  0  0
  6  7  1  0  0  0  0
  7  8  1  0  0  0  0
  8  9  1  0  0  0  0
M  END
>  <CHROM.1>
168.90524391,53.66863379,-177.67412009,-179.31296334,-179.75372569,24.16419601
42.58532738,20.08024526,-1.45665882,-1.06282954,2.60902171

>  <Name>
ligand

>  <RI>
0

>  <Rbt.Current_Directory>
/home/itssahil/PROJECTS/Mol_Feturizer/New_Systems/rnas/3D0U

>  <Rbt.Executable>
rbdock ($Id: //depot/dev/client3/rdock/2013.1/src/exe/rbdock.cxx#4 $)

>  <Rbt.Library>
libRbt.so (2013.1, Build901 2013/11/27)

>  <Rbt.Parameter_File>
/export/apps/rDock/src/rDock_2013.1_src/data/scripts/dock_solv.prm

>  <Rbt.Receptor>
prm/pocket_docking_6.prm

>  <SCORE>
-8.67707

>  <SCORE.INTER>
-8.07746

>  <SCORE.INTER.CONST>
1

>  <SCORE.INTER.POLAR>
0

>  <SCORE.INTER.ROT>
5

>  <SCORE.INTER.SOLV>
13.6811

>  <SCORE.INTER.VDW>
-16.8787

>  <SCORE.INTER.norm>
-0.807746

>  <SCORE.INTRA>
-0.599608

>  <SCORE.INTRA.DIHEDRAL>
-0.569666

>  <SCORE.INTRA.DIHEDRAL.0>
2.22229

>  <SCORE.INTRA.POLAR>
0

>  <SCORE.INTRA.POLAR.0>
0

>  <SCORE.INTRA.REPUL>
0

>  <SCORE.INTRA.REPUL.0>
0

>  <SCORE.INTRA.SOLV>
-0.63202

>  <SCORE.INTRA.SOLV.lig_0>
-31.87

>  <SCORE.INTRA.VDW>
0.00123456

>  <SCORE.INTRA.VDW.0>
-0.575321

>  <SCORE.INTRA.norm>
-0.0599608

>  <SCORE.RESTR>
0

>  <SCORE.RESTR.CAVITY>
0

>  <SCORE.RESTR.norm>
0

>  <SCORE.SYSTEM>
0

>  <SCORE.SYSTEM.CONST>
0

>  <SCORE.SYSTEM.DIHEDRAL>
0

>  <SCORE.SYSTEM.SOLV>
0

>  <SCORE.SYSTEM.norm>
0

>  <SCORE.heavy>
10

>  <SCORE.norm>
-0.867707

>  <RMSD>
5.535

$$$$
ligand
 OpenBabel11021811463D
libRbt.so/2013.1/901 2013/11/27
 10  9  0  0  0  0  0  0  0  0999 V2000
   26.5004   41.1823   19.5670 N   0  0  0  0  0  0  0  0  0  0  0  0
   25.0767   41.1404   19.2565 C   0  0  2  0  0  0  0  0  0  0  0  0
   24.7590   42.0049   18.0376 C   0  0  0  0  0  0  0  0  0  0  0  0
   25.6632   42.3254   17.2608 O   0  0  0  0  0  0  0  0  0  0  0  0
   24.2438   41.5744   20.4666 C   0  0  0  0  0  0  0  0  0  0  0  0
   24.3732   40.6393   21.6630 C   0  0  0  0  0  0  0  0  0  0  0  0
   23.6194   41.1571   22.8847 C   0  0  0  0  0  0  0  0  0  0  0  0
   23.7094   40.1848   24.0714 C   0  0  0  0  0  0  0  0  0  0  0  0
   23.1324   38.8285   23.8081 N   0  0  0  0  0  0  0  0  0  0  0  0
   23.6052   42.3842   17.7969 O   0  0  0  0  0  0  0  0  0  0  0  0
  2  1  1  1  0  0  0
  2  3  1  0  0  0  0
  2  5  1  0  0  0  0
  3  4  1  0  0  0  0
  3 10  1  0  0  0  0
  5  6  1  0  0  0  0
  6  7  1  0  0  0  0
  7  8  1  0  0  0  0
  8  9  1  0  0  0  0
M  END
>  <CHROM.1>
19.13937733,-64.09157949,175.52606560,177.85110980,-60.67966869,24.46431814
41.16404661,20.44202388,-1.32389743,-0.20828699,1.98759140

>  <Name>
ligand

>  <RI>
0

>  <Rbt.Current_Directory>
/home/itssahil/PROJECTS/Mol_Feturizer/New_Systems/rnas/3D0U

>  <Rbt.Executable>
rbdock ($Id: //depot/dev/client3/rdock/2013.1/src/exe/rbdock.cxx#4 $)

>  <Rbt.Library>
libRbt.so (2013.1, Build901 2013/11/27)

>  <Rbt.Parameter_File>
/export/apps/rDock/src/rDock_2013.1_src/data/scripts/dock_solv.prm

>  <Rbt.Receptor>
prm/pocket_docking_6.prm

>  <SCORE>
-7.24245

>  <SCORE.INTER>
-7.28784

>  <SCORE.INTER.CONST>
1

>  <SCORE.INTER.POLAR>
0

>  <SCORE.INTER.ROT>
5

>  <SCORE.INTER.SOLV>
16.0512

>  <SCORE.INTER.VDW>
-17.1423

>  <SCORE.INTER.norm>
-0.728784

>  <SCORE.INTRA>
0.0453859

>  <SCORE.INTRA.DIHEDRAL>
-0.592254

>  <SCORE.INTRA.DIHEDRAL.0>
2.22229

>  <SCORE.INTRA.POLAR>
0

>  <SCORE.INTRA.POLAR.0>
0

>  <SCORE.INTRA.REPUL>
0

>  <SCORE.INTRA.REPUL.0>
0

>  <SCORE.INTRA.SOLV>
0.155669

>  <SCORE.INTRA.SOLV.lig_0>
-31.87

>  <SCORE.INTRA.VDW>
0.263678

>  <SCORE.INTRA.VDW.0>
-0.575321

>  <SCORE.INTRA.norm>
0.00453859

>  <SCORE.RESTR>
0

>  <SCORE.RESTR.CAVITY>
0

>  <SCORE.RESTR.norm>
0

>  <SCORE.SYSTEM>
0

>  <SCORE.SYSTEM.CONST>
0

>  <SCORE.SYSTEM.DIHEDRAL>
0

>  <SCORE.SYSTEM.SOLV>
0

>  <SCORE.SYSTEM.norm>
0

>  <SCORE.heavy>
10

>  <SCORE.norm>
-0.724245

>  <RMSD>
5.538

$$$$
ligand
 OpenBabel11021811463D
libRbt.so/2013.1/901 2013/11/27
 10  9  0  0  0  0  0  0  0  0999 V2000
   25.3393   42.4855   16.6955 N   0  0  0  0  0  0  0  0  0  0  0  0
   24.6656   42.4327   17.9871 C   0  0  2  0  0  0  0  0  0  0  0  0
   24.3768   43.8391   18.5091 C   0  0  0  0  0  0  0  0  0  0  0  0
   25.1669   44.7566   18.2686 O   0  0  0  0  0  0  0  0  0  0  0  0
   25.4924   41.6332   18.9988 C   0  0  0  0  0  0  0  0  0  0  0  0
   24.7446   41.3259   20.2906 C   0  0  0  0  0  0  0  0  0  0  0  0
   25.6147   40.5796   21.2980 C   0  0  0  0  0  0  0  0  0  0  0  0
   24.8413   40.2299   22.5791 C   0  0  0  0  0  0  0  0  0  0  0  0
   23.7527   39.2193   22.3910 N   0  0  0  0  0  0  0  0  0  0  0  0
   23.3543   44.0899   19.1605 O   0  0  0  0  0  0  0  0  0  0  0  0
  2  1  1  6  0  0  0
  2  3  1  0  0  0  0
  2  5  1  0  0  0  0
  3  4  1  0  0  0  0
  3 10  1  0  0  0  0
  5  6  1  0  0  0  0
  6  7  1  0  0  0  0
  7  8  1  0  0  0  0
  8  9  1  0  0  0  0
M  END
>  <CHROM.1>
-33.95168975,-169.77473233,-177.63414587,-178.03094211,67.50771476,24.72725261
42.09752177,19.62007537,-1.53072315,-0.99758950,2.34678614

>  <Name>
ligand

>  <RI>
0

>  <Rbt.Current_Directory>
/home/itssahil/PROJECTS/Mol_Feturizer/New_Systems/rnas/3D0U

>  <Rbt.Executable>
rbdock ($Id: //depot/dev/client3/rdock/2013.1/src/exe/rbdock.cxx#4 $)

>  <Rbt.Library>
libRbt.so (2013.1, Build901 2013/11/27)

>  <Rbt.Parameter_File>
/export/apps/rDock/src/rDock_2013.1_src/data/scripts/dock_solv.prm

>  <Rbt.Receptor>
prm/pocket_docking_3.prm

>  <SCORE>
-8.51302

>  <SCORE.INTER>
-7.81591

>  <SCORE.INTER.CONST>
1

>  <SCORE.INTER.POLAR>
0

>  <SCORE.INTER.ROT>
5

>  <SCORE.INTER.SOLV>
17.4407

>  <SCORE.INTER.VDW>
-17.9575

>  <SCORE.INTER.norm>
-0.781591

>  <SCORE.INTRA>
-0.697104

>  <SCORE.INTRA.DIHEDRAL>
-0.0757305

>  <SCORE.INTRA.DIHEDRAL.0>
2.22229

>  <SCORE.INTRA.POLAR>
0

>  <SCORE.INTRA.POLAR.0>
0

>  <SCORE.INTRA.REPUL>
0

>  <SCORE.INTRA.REPUL.0>
0

>  <SCORE.INTRA.SOLV>
-0.795118

>  <SCORE.INTRA.SOLV.lig_0>
-31.87

>  <SCORE.INTRA.VDW>
-0.26168

>  <SCORE.INTRA.VDW.0>
-0.575321

>  <SCORE.INTRA.norm>
-0.0697104

>  <SCORE.RESTR>
0

>  <SCORE.RESTR.CAVITY>
0

>  <SCORE.RESTR.norm>
0

>  <SCORE.SYSTEM>
0

>  <SCORE.SYSTEM.CONST>
0

>  <SCORE.SYSTEM.DIHEDRAL>
0

>  <SCORE.SYSTEM.SOLV>
0

>  <SCORE.SYSTEM.norm>
0

>  <SCORE.heavy>
10

>  <SCORE.norm>
-0.851302

>  <RMSD>
5.544

$$$$
ligand
 OpenBabel11021811463D
libRbt.so/2013.1/901 2013/11/27
 10  9  0  0  0  0  0  0  0  0999 V2000
   24.8828   42.9003   17.2461 N   0  0  0  0  0  0  0  0  0  0  0  0
   24.2676   43.2343   18.5249 C   0  0  2  0  0  0  0  0  0  0  0  0
   24.1250   44.7472   18.6825 C   0  0  0  0  0  0  0  0  0  0  0  0
   23.1729   45.2105   19.3171 O   0  0  0  0  0  0  0  0  0  0  0  0
   25.0689   42.6369   19.6856 C   0  0  0  0  0  0  0  0  0  0  0  0
   25.1947   41.1195   19.6226 C   0  0  0  0  0  0  0  0  0  0  0  0
   25.9211   40.5493   20.8376 C   0  0  0  0  0  0  0  0  0  0  0  0
   25.0633   40.6278   22.1103 C   0  0  0  0  0  0  0  0  0  0  0  0
   23.8362   39.7703   22.0861 N   0  0  0  0  0  0  0  0  0  0  0  0
   24.9547   45.5287   18.1991 O   0  0  0  0  0  0  0  0  0  0  0  0
  2  1  1  6  0  0  0
  2  3  1  0  0  0  0
  2  5  1  0  0  0  0
  3  4  1  0  0  0  0
  3 10  1  0  0  0  0
  5  6  1  0  0  0  0
  6  7  1  0  0  0  0
  7  8  1  0  0  0  0
  8  9  1  0  0  0  0
M  END
>  <CHROM.1>
147.67989311,-59.00812674,-176.36972083,71.45408724,65.90932017,24.64266387
42.67485921,19.62822133,-1.76354309,-0.94684459,2.37759331

>  <Name>
ligand

>  <RI>
0

>  <Rbt.Current_Directory>
/home/itssahil/PROJECTS/Mol_Feturizer/New_Systems/rnas/3D0U

>  <Rbt.Executable>
rbdock ($Id: //depot/dev/client3/rdock/2013.1/src/exe/rbdock.cxx#4 $)

>  <Rbt.Library>
libRbt.so (2013.1, Build901 2013/11/27)

>  <Rbt.Parameter_File>
/export/apps/rDock/src/rDock_2013.1_src/data/scripts/dock_solv.prm

>  <Rbt.Receptor>
prm/pocket_docking_6.prm

>  <SCORE>
-8.20578

>  <SCORE.INTER>
-8.67302

>  <SCORE.INTER.CONST>
1

>  <SCORE.INTER.POLAR>
0

>  <SCORE.INTER.ROT>
5

>  <SCORE.INTER.SOLV>
15.0974

>  <SCORE.INTER.VDW>
-17.7478

>  <SCORE.INTER.norm>
-0.867302

>  <SCORE.INTRA>
0.467241

>  <SCORE.INTRA.DIHEDRAL>
-0.0534639

>  <SCORE.INTRA.DIHEDRAL.0>
2.22229

>  <SCORE.INTRA.POLAR>
0

>  <SCORE.INTRA.POLAR.0>
0

>  <SCORE.INTRA.REPUL>
0

>  <SCORE.INTRA.REPUL.0>
0

>  <SCORE.INTRA.SOLV>
0.54593

>  <SCORE.INTRA.SOLV.lig_0>
-31.87

>  <SCORE.INTRA.VDW>
0.221008

>  <SCORE.INTRA.VDW.0>
-0.575321

>  <SCORE.INTRA.norm>
0.0467241

>  <SCORE.RESTR>
0

>  <SCORE.RESTR.CAVITY>
0

>  <SCORE.RESTR.norm>
0

>  <SCORE.SYSTEM>
0

>  <SCORE.SYSTEM.CONST>
0

>  <SCORE.SYSTEM.DIHEDRAL>
0

>  <SCORE.SYSTEM.SOLV>
0

>  <SCORE.SYSTEM.norm>
0

>  <SCORE.heavy>
10

>  <SCORE.norm>
-0.820578

>  <RMSD>
5.545

$$$$
ligand
 OpenBabel11021811463D
libRbt.so/2013.1/901 2013/11/27
 10  9  0  0  0  0  0  0  0  0999 V2000
   24.8009   43.4818   19.7752 N   0  0  0  0  0  0  0  0  0  0  0  0
   25.3616   42.2467   19.2409 C   0  0  2  0  0  0  0  0  0  0  0  0
   25.4974   42.3224   17.7212 C   0  0  0  0  0  0  0  0  0  0  0  0
   24.7086   43.0124   17.0687 O   0  0  0  0  0  0  0  0  0  0  0  0
   24.5121   41.0411   19.6545 C   0  0  0  0  0  0  0  0  0  0  0  0
   24.4309   40.8408   21.1630 C   0  0  0  0  0  0  0  0  0  0  0  0
   23.6644   39.5754   21.5372 C   0  0  0  0  0  0  0  0  0  0  0  0
   23.4747   39.4453   23.0567 C   0  0  0  0  0  0  0  0  0  0  0  0
   24.7463   39.2784   23.8293 N   0  0  0  0  0  0  0  0  0  0  0  0
   26.3952   41.7167   17.1212 O   0  0  0  0  0  0  0  0  0  0  0  0
  2  1  1  6  0  0  0
  2  3  1  0  0  0  0
  2  5  1  0  0  0  0
  3  4  1  0  0  0  0
  3 10  1  0  0  0  0
  5  6  1  0  0  0  0
  6  7  1  0  0  0  0
  7  8  1  0  0  0  0
  8  9  1  0  0  0  0
M  END
>  <CHROM.1>
-29.91547285,-61.11471562,-175.79601932,-174.79120259,-64.51464893,24.76651739
41.30451806,19.97293639,1.00797029,1.14228895,-0.53228140

>  <Name>
ligand

>  <RI>
0

>  <Rbt.Current_Directory>
/home/itssahil/PROJECTS/Mol_Feturizer/New_Systems/rnas/3D0U

>  <Rbt.Executable>
rbdock ($Id: //depot/dev/client3/rdock/2013.1/src/exe/rbdock.cxx#4 $)

>  <Rbt.Library>
libRbt.so (2013.1, Build901 2013/11/27)

>  <Rbt.Parameter_File>
/export/apps/rDock/src/rDock_2013.1_src/data/scripts/dock_solv.prm

>  <Rbt.Receptor>
prm/pocket_docking_6.prm

>  <SCORE>
-7.81739

>  <SCORE.INTER>
-7.48021

>  <SCORE.INTER.CONST>
1

>  <SCORE.INTER.POLAR>
0

>  <SCORE.INTER.ROT>
5

>  <SCORE.INTER.SOLV>
14.4098

>  <SCORE.INTER.VDW>
-16.7234

>  <SCORE.INTER.norm>
-0.748021

>  <SCORE.INTRA>
-0.337182

>  <SCORE.INTRA.DIHEDRAL>
-0.443323

>  <SCORE.INTRA.DIHEDRAL.0>
2.22229

>  <SCORE.INTRA.POLAR>
0

>  <SCORE.INTRA.POLAR.0>
0

>  <SCORE.INTRA.REPUL>
0

>  <SCORE.INTRA.REPUL.0>
0

>  <SCORE.INTRA.SOLV>
0.0628458

>  <SCORE.INTRA.SOLV.lig_0>
-31.87

>  <SCORE.INTRA.VDW>
-0.146943

>  <SCORE.INTRA.VDW.0>
-0.575321

>  <SCORE.INTRA.norm>
-0.0337182

>  <SCORE.RESTR>
0

>  <SCORE.RESTR.CAVITY>
0

>  <SCORE.RESTR.norm>
0

>  <SCORE.SYSTEM>
0

>  <SCORE.SYSTEM.CONST>
0

>  <SCORE.SYSTEM.DIHEDRAL>
0

>  <SCORE.SYSTEM.SOLV>
0

>  <SCORE.SYSTEM.norm>
0

>  <SCORE.heavy>
10

>  <SCORE.norm>
-0.781739

>  <RMSD>
5.546

$$$$
ligand
 OpenBabel11021811463D
libRbt.so/2013.1/901 2013/11/27
 10  9  0  0  0  0  0  0  0  0999 V2000
   25.5384   43.1363   17.9339 N   0  0  0  0  0  0  0  0  0  0  0  0
   24.1624   43.4422   18.3057 C   0  0  2  0  0  0  0  0  0  0  0  0
   24.0914   44.7350   19.1166 C   0  0  0  0  0  0  0  0  0  0  0  0
   23.0010   45.2829   19.3027 O   0  0  0  0  0  0  0  0  0  0  0  0
   23.5368   42.2771   19.0787 C   0  0  0  0  0  0  0  0  0  0  0  0
   24.3091   41.8942   20.3354 C   0  0  0  0  0  0  0  0  0  0  0  0
   23.6758   40.7128   21.0649 C   0  0  0  0  0  0  0  0  0  0  0  0
   24.4500   40.3412   22.3394 C   0  0  0  0  0  0  0  0  0  0  0  0
   23.8731   39.1898   23.1030 N   0  0  0  0  0  0  0  0  0  0  0  0
   25.1058   45.2454   19.6099 O   0  0  0  0  0  0  0  0  0  0  0  0
  2  1  1  1  0  0  0
  2  3  1  0  0  0  0
  2  5  1  0  0  0  0
  3  4  1  0  0  0  0
  3 10  1  0  0  0  0
  5  6  1  0  0  0  0
  6  7  1  0  0  0  0
  7  8  1  0  0  0  0
  8  9  1  0  0  0  0
M  END
>  <CHROM.1>
166.41935481,57.32135178,-178.80716146,-179.37155850,179.79694940,24.17210794
42.66388917,20.02828512,-1.46630386,-1.13592614,2.60729034

>  <Name>
ligand

>  <RI>
0

>  <Rbt.Current_Directory>
/home/itssahil/PROJECTS/Mol_Feturizer/New_Systems/rnas/3D0U

>  <Rbt.Executable>
rbdock ($Id: //depot/dev/client3/rdock/2013.1/src/exe/rbdock.cxx#4 $)

>  <Rbt.Library>
libRbt.so (2013.1, Build901 2013/11/27)

>  <Rbt.Parameter_File>
/export/apps/rDock/src/rDock_2013.1_src/data/scripts/dock_solv.prm

>  <Rbt.Receptor>
prm/pocket_docking_7.prm

>  <SCORE>
-8.76951

>  <SCORE.INTER>
-8.03201

>  <SCORE.INTER.CONST>
1

>  <SCORE.INTER.POLAR>
0

>  <SCORE.INTER.ROT>
5

>  <SCORE.INTER.SOLV>
13.9378

>  <SCORE.INTER.VDW>
-16.934

>  <SCORE.INTER.norm>
-0.803201

>  <SCORE.INTRA>
-0.737502

>  <SCORE.INTRA.DIHEDRAL>
-0.725677

>  <SCORE.INTRA.DIHEDRAL.0>
2.22229

>  <SCORE.INTRA.POLAR>
0

>  <SCORE.INTRA.POLAR.0>
0

>  <SCORE.INTRA.REPUL>
0

>  <SCORE.INTRA.REPUL.0>
0

>  <SCORE.INTRA.SOLV>
-0.681445

>  <SCORE.INTRA.SOLV.lig_0>
-31.87

>  <SCORE.INTRA.VDW>
-0.0339413

>  <SCORE.INTRA.VDW.0>
-0.575321

>  <SCORE.INTRA.norm>
-0.0737502

>  <SCORE.RESTR>
0

>  <SCORE.RESTR.CAVITY>
0

>  <SCORE.RESTR.norm>
0

>  <SCORE.SYSTEM>
0

>  <SCORE.SYSTEM.CONST>
0

>  <SCORE.SYSTEM.DIHEDRAL>
0

>  <SCORE.SYSTEM.SOLV>
0

>  <SCORE.SYSTEM.norm>
0

>  <SCORE.heavy>
10

>  <SCORE.norm>
-0.876951

>  <RMSD>
5.547

$$$$
ligand
 OpenBabel11021811463D
libRbt.so/2013.1/901 2013/11/27
 10  9  0  0  0  0  0  0  0  0999 V2000
   24.7208   43.4690   19.7140 N   0  0  0  0  0  0  0  0  0  0  0  0
   25.3178   42.2331   19.2228 C   0  0  2  0  0  0  0  0  0  0  0  0
   25.4772   42.2708   17.7039 C   0  0  0  0  0  0  0  0  0  0  0  0
   24.6588   42.8886   17.0167 O   0  0  0  0  0  0  0  0  0  0  0  0
   24.4888   41.0200   19.6556 C   0  0  0  0  0  0  0  0  0  0  0  0
   24.4330   40.8268   21.1662 C   0  0  0  0  0  0  0  0  0  0  0  0
   23.6261   39.5933   21.5613 C   0  0  0  0  0  0  0  0  0  0  0  0
   23.5124   39.4440   23.0866 C   0  0  0  0  0  0  0  0  0  0  0  0
   24.8173   39.2296   23.7886 N   0  0  0  0  0  0  0  0  0  0  0  0
   26.4227   41.7056   17.1387 O   0  0  0  0  0  0  0  0  0  0  0  0
  2  1  1  6  0  0  0
  2  3  1  0  0  0  0
  2  5  1  0  0  0  0
  3  4  1  0  0  0  0
  3 10  1  0  0  0  0
  5  6  1  0  0  0  0
  6  7  1  0  0  0  0
  7  8  1  0  0  0  0
  8  9  1  0  0  0  0
M  END
>  <CHROM.1>
-32.28047208,-63.41550617,-178.72343254,-177.06069788,-63.30079416,24.75516803
41.27561284,19.96154561,1.12874999,1.04871067,-0.67072559

>  <Name>
ligand

>  <RI>
0

>  <Rbt.Current_Directory>
/home/itssahil/PROJECTS/Mol_Feturizer/New_Systems/rnas/3D0U

>  <Rbt.Executable>
rbdock ($Id: //depot/dev/client3/rdock/2013.1/src/exe/rbdock.cxx#4 $)

>  <Rbt.Library>
libRbt.so (2013.1, Build901 2013/11/27)

>  <Rbt.Parameter_File>
/export/apps/rDock/src/rDock_2013.1_src/data/scripts/dock_solv.prm

>  <Rbt.Receptor>
prm/pocket_docking_4.prm

>  <SCORE>
-8.04629

>  <SCORE.INTER>
-7.61811

>  <SCORE.INTER.CONST>
1

>  <SCORE.INTER.POLAR>
0

>  <SCORE.INTER.ROT>
5

>  <SCORE.INTER.SOLV>
14.398

>  <SCORE.INTER.VDW>
-16.8114

>  <SCORE.INTER.norm>
-0.761811

>  <SCORE.INTRA>
-0.428177

>  <SCORE.INTRA.DIHEDRAL>
-0.577935

>  <SCORE.INTRA.DIHEDRAL.0>
2.22229

>  <SCORE.INTRA.POLAR>
0

>  <SCORE.INTRA.POLAR.0>
0

>  <SCORE.INTRA.REPUL>
0

>  <SCORE.INTRA.REPUL.0>
0

>  <SCORE.INTRA.SOLV>
0.0721639

>  <SCORE.INTRA.SOLV.lig_0>
-31.87

>  <SCORE.INTRA.VDW>
-0.175291

>  <SCORE.INTRA.VDW.0>
-0.575321

>  <SCORE.INTRA.norm>
-0.0428177

>  <SCORE.RESTR>
0

>  <SCORE.RESTR.CAVITY>
0

>  <SCORE.RESTR.norm>
0

>  <SCORE.SYSTEM>
0

>  <SCORE.SYSTEM.CONST>
0

>  <SCORE.SYSTEM.DIHEDRAL>
0

>  <SCORE.SYSTEM.SOLV>
0

>  <SCORE.SYSTEM.norm>
0

>  <SCORE.heavy>
10

>  <SCORE.norm>
-0.804629

>  <RMSD>
5.549

$$$$
ligand
 OpenBabel11021811463D
libRbt.so/2013.1/901 2013/11/27
 10  9  0  0  0  0  0  0  0  0999 V2000
   25.0196   42.8944   17.2506 N   0  0  0  0  0  0  0  0  0  0  0  0
   24.3331   43.1976   18.5003 C   0  0  2  0  0  0  0  0  0  0  0  0
   24.1400   44.7041   18.6646 C   0  0  0  0  0  0  0  0  0  0  0  0
   24.9470   45.4852   18.1521 O   0  0  0  0  0  0  0  0  0  0  0  0
   25.0930   42.6105   19.6937 C   0  0  0  0  0  0  0  0  0  0  0  0
   25.2526   41.0963   19.6301 C   0  0  0  0  0  0  0  0  0  0  0  0
   25.9528   40.5370   20.8653 C   0  0  0  0  0  0  0  0  0  0  0  0
   25.0480   40.5753   22.1068 C   0  0  0  0  0  0  0  0  0  0  0  0
   23.8436   39.6896   22.0251 N   0  0  0  0  0  0  0  0  0  0  0  0
   23.1783   45.1683   19.2911 O   0  0  0  0  0  0  0  0  0  0  0  0
  2  1  1  6  0  0  0
  2  3  1  0  0  0  0
  2  5  1  0  0  0  0
  3  4  1  0  0  0  0
  3 10  1  0  0  0  0
  5  6  1  0  0  0  0
  6  7  1  0  0  0  0
  7  8  1  0  0  0  0
  8  9  1  0  0  0  0
M  END
>  <CHROM.1>
-28.96836244,-59.58920805,-177.19877719,72.22536241,65.35400857,24.67378100
42.63812009,19.61450627,-1.74724268,-0.90478501,2.39427220

>  <Name>
ligand

>  <RI>
0

>  <Rbt.Current_Directory>
/home/itssahil/PROJECTS/Mol_Feturizer/New_Systems/rnas/3D0U

>  <Rbt.Executable>
rbdock ($Id: //depot/dev/client3/rdock/2013.1/src/exe/rbdock.cxx#4 $)

>  <Rbt.Library>
libRbt.so (2013.1, Build901 2013/11/27)

>  <Rbt.Parameter_File>
/export/apps/rDock/src/rDock_2013.1_src/data/scripts/dock_solv.prm

>  <Rbt.Receptor>
prm/blind_docking_60.prm

>  <SCORE>
-8.17988

>  <SCORE.INTER>
-8.70982

>  <SCORE.INTER.CONST>
1

>  <SCORE.INTER.POLAR>
0

>  <SCORE.INTER.ROT>
5

>  <SCORE.INTER.SOLV>
15.2296

>  <SCORE.INTER.VDW>
-17.8164

>  <SCORE.INTER.norm>
-0.870982

>  <SCORE.INTRA>
0.529943

>  <SCORE.INTRA.DIHEDRAL>
0.0324608

>  <SCORE.INTRA.DIHEDRAL.0>
2.22229

>  <SCORE.INTRA.POLAR>
0

>  <SCORE.INTRA.POLAR.0>
0

>  <SCORE.INTRA.REPUL>
0

>  <SCORE.INTRA.REPUL.0>
0

>  <SCORE.INTRA.SOLV>
0.557638

>  <SCORE.INTRA.SOLV.lig_0>
-31.87

>  <SCORE.INTRA.VDW>
0.234894

>  <SCORE.INTRA.VDW.0>
-0.575321

>  <SCORE.INTRA.norm>
0.0529943

>  <SCORE.RESTR>
0

>  <SCORE.RESTR.CAVITY>
0

>  <SCORE.RESTR.norm>
0

>  <SCORE.SYSTEM>
0

>  <SCORE.SYSTEM.CONST>
0

>  <SCORE.SYSTEM.DIHEDRAL>
0

>  <SCORE.SYSTEM.SOLV>
0

>  <SCORE.SYSTEM.norm>
0

>  <SCORE.heavy>
10

>  <SCORE.norm>
-0.817988

>  <RMSD>
5.550

$$$$
ligand
 OpenBabel11021811463D
libRbt.so/2013.1/901 2013/11/27
 10  9  0  0  0  0  0  0  0  0999 V2000
   23.9873   42.5510   17.7917 N   0  0  0  0  0  0  0  0  0  0  0  0
   24.1955   43.2647   19.0456 C   0  0  2  0  0  0  0  0  0  0  0  0
   24.0204   44.7699   18.8516 C   0  0  0  0  0  0  0  0  0  0  0  0
   23.0928   45.3570   19.4162 O   0  0  0  0  0  0  0  0  0  0  0  0
   25.5752   42.9457   19.6295 C   0  0  0  0  0  0  0  0  0  0  0  0
   25.7036   41.5177   20.1459 C   0  0  0  0  0  0  0  0  0  0  0  0
   24.7615   41.2389   21.3137 C   0  0  0  0  0  0  0  0  0  0  0  0
   24.8821   39.7922   21.8180 C   0  0  0  0  0  0  0  0  0  0  0  0
   23.9357   39.4387   22.9229 N   0  0  0  0  0  0  0  0  0  0  0  0
   24.8000   45.4264   18.1487 O   0  0  0  0  0  0  0  0  0  0  0  0
  2  1  1  6  0  0  0
  2  3  1  0  0  0  0
  2  5  1  0  0  0  0
  3  4  1  0  0  0  0
  3 10  1  0  0  0  0
  5  6  1  0  0  0  0
  6  7  1  0  0  0  0
  7  8  1  0  0  0  0
  8  9  1  0  0  0  0
M  END
>  <CHROM.1>
114.92485348,-69.70255390,-63.55757943,179.24534989,-177.28014744,24.48914756
42.67278753,19.89803447,-1.69397436,-0.79001917,2.43712116

>  <Name>
ligand

>  <RI>
0

>  <Rbt.Current_Directory>
/home/itssahil/PROJECTS/Mol_Feturizer/New_Systems/rnas/3D0U

>  <Rbt.Executable>
rbdock ($Id: //depot/dev/client3/rdock/2013.1/src/exe/rbdock.cxx#4 $)

>  <Rbt.Library>
libRbt.so (2013.1, Build901 2013/11/27)

>  <Rbt.Parameter_File>
/export/apps/rDock/src/rDock_2013.1_src/data/scripts/dock_solv.prm

>  <Rbt.Receptor>
prm/pocket_docking_4.prm

>  <SCORE>
-8.57027

>  <SCORE.INTER>
-8.26166

>  <SCORE.INTER.CONST>
1

>  <SCORE.INTER.POLAR>
0

>  <SCORE.INTER.ROT>
5

>  <SCORE.INTER.SOLV>
14.1887

>  <SCORE.INTER.VDW>
-17.1707

>  <SCORE.INTER.norm>
-0.826166

>  <SCORE.INTRA>
-0.308606

>  <SCORE.INTRA.DIHEDRAL>
-0.269041

>  <SCORE.INTRA.DIHEDRAL.0>
2.22229

>  <SCORE.INTRA.POLAR>
0

>  <SCORE.INTRA.POLAR.0>
0

>  <SCORE.INTRA.REPUL>
0

>  <SCORE.INTRA.REPUL.0>
0

>  <SCORE.INTRA.SOLV>
-0.371711

>  <SCORE.INTRA.SOLV.lig_0>
-31.87

>  <SCORE.INTRA.VDW>
0.0117706

>  <SCORE.INTRA.VDW.0>
-0.575321

>  <SCORE.INTRA.norm>
-0.0308606

>  <SCORE.RESTR>
0

>  <SCORE.RESTR.CAVITY>
0

>  <SCORE.RESTR.norm>
0

>  <SCORE.SYSTEM>
0

>  <SCORE.SYSTEM.CONST>
0

>  <SCORE.SYSTEM.DIHEDRAL>
0

>  <SCORE.SYSTEM.SOLV>
0

>  <SCORE.SYSTEM.norm>
0

>  <SCORE.heavy>
10

>  <SCORE.norm>
-0.857027

>  <RMSD>
5.550

$$$$
ligand
 OpenBabel11021811463D
libRbt.so/2013.1/901 2013/11/27
 10  9  0  0  0  0  0  0  0  0999 V2000
   23.9744   42.5690   17.7745 N   0  0  0  0  0  0  0  0  0  0  0  0
   24.2483   43.2694   19.0233 C   0  0  2  0  0  0  0  0  0  0  0  0
   24.0686   44.7770   18.8535 C   0  0  0  0  0  0  0  0  0  0  0  0
   24.8665   45.4154   18.1609 O   0  0  0  0  0  0  0  0  0  0  0  0
   25.6548   42.9406   19.5332 C   0  0  0  0  0  0  0  0  0  0  0  0
   25.7895   41.5249   20.0809 C   0  0  0  0  0  0  0  0  0  0  0  0
   24.9234   41.2990   21.3170 C   0  0  0  0  0  0  0  0  0  0  0  0
   24.9827   39.8422   21.8030 C   0  0  0  0  0  0  0  0  0  0  0  0
   24.0529   39.5264   22.9333 N   0  0  0  0  0  0  0  0  0  0  0  0
   23.1264   45.3798   19.3844 O   0  0  0  0  0  0  0  0  0  0  0  0
  2  1  1  6  0  0  0
  2  3  1  0  0  0  0
  2  5  1  0  0  0  0
  3  4  1  0  0  0  0
  3 10  1  0  0  0  0
  5  6  1  0  0  0  0
  6  7  1  0  0  0  0
  7  8  1  0  0  0  0
  8  9  1  0  0  0  0
M  END
>  <CHROM.1>
-69.20468321,-72.06878842,-64.05653779,175.76608136,-174.43562553,24.56232565
42.69680429,19.87605836,-1.71457511,-0.78517491,2.41664596

>  <Name>
ligand

>  <RI>
0

>  <Rbt.Current_Directory>
/home/itssahil/PROJECTS/Mol_Feturizer/New_Systems/rnas/3D0U

>  <Rbt.Executable>
rbdock ($Id: //depot/dev/client3/rdock/2013.1/src/exe/rbdock.cxx#4 $)

>  <Rbt.Library>
libRbt.so (2013.1, Build901 2013/11/27)

>  <Rbt.Parameter_File>
/export/apps/rDock/src/rDock_2013.1_src/data/scripts/dock_solv.prm

>  <Rbt.Receptor>
prm/pocket_docking_5.prm

>  <SCORE>
-8.58787

>  <SCORE.INTER>
-8.48514

>  <SCORE.INTER.CONST>
1

>  <SCORE.INTER.POLAR>
0

>  <SCORE.INTER.ROT>
5

>  <SCORE.INTER.SOLV>
14.4842

>  <SCORE.INTER.VDW>
-17.4182

>  <SCORE.INTER.norm>
-0.848514

>  <SCORE.INTRA>
-0.102727

>  <SCORE.INTRA.DIHEDRAL>
0.0794416

>  <SCORE.INTRA.DIHEDRAL.0>
2.22229

>  <SCORE.INTRA.POLAR>
0

>  <SCORE.INTRA.POLAR.0>
0

>  <SCORE.INTRA.REPUL>
0

>  <SCORE.INTRA.REPUL.0>
0

>  <SCORE.INTRA.SOLV>
-0.410686

>  <SCORE.INTRA.SOLV.lig_0>
-31.87

>  <SCORE.INTRA.VDW>
0.0628951

>  <SCORE.INTRA.VDW.0>
-0.575321

>  <SCORE.INTRA.norm>
-0.0102727

>  <SCORE.RESTR>
0

>  <SCORE.RESTR.CAVITY>
0

>  <SCORE.RESTR.norm>
0

>  <SCORE.SYSTEM>
0

>  <SCORE.SYSTEM.CONST>
0

>  <SCORE.SYSTEM.DIHEDRAL>
0

>  <SCORE.SYSTEM.SOLV>
0

>  <SCORE.SYSTEM.norm>
0

>  <SCORE.heavy>
10

>  <SCORE.norm>
-0.858787

>  <RMSD>
5.550

$$$$
ligand
 OpenBabel11021811463D
libRbt.so/2013.1/901 2013/11/27
 10  9  0  0  0  0  0  0  0  0999 V2000
   23.9616   42.5953   17.8481 N   0  0  0  0  0  0  0  0  0  0  0  0
   24.1653   43.3172   19.0981 C   0  0  2  0  0  0  0  0  0  0  0  0
   24.0003   44.8218   18.8918 C   0  0  0  0  0  0  0  0  0  0  0  0
   23.0684   45.4174   19.4403 O   0  0  0  0  0  0  0  0  0  0  0  0
   25.5389   42.9945   19.6940 C   0  0  0  0  0  0  0  0  0  0  0  0
   25.6722   41.5546   20.1749 C   0  0  0  0  0  0  0  0  0  0  0  0
   24.7539   41.2527   21.3558 C   0  0  0  0  0  0  0  0  0  0  0  0
   24.8456   39.7829   21.7953 C   0  0  0  0  0  0  0  0  0  0  0  0
   23.9125   39.4069   22.9042 N   0  0  0  0  0  0  0  0  0  0  0  0
   24.7922   45.4696   18.1947 O   0  0  0  0  0  0  0  0  0  0  0  0
  2  1  1  6  0  0  0
  2  3  1  0  0  0  0
  2  5  1  0  0  0  0
  3  4  1  0  0  0  0
  3 10  1  0  0  0  0
  5  6  1  0  0  0  0
  6  7  1  0  0  0  0
  7  8  1  0  0  0  0
  8  9  1  0  0  0  0
M  END
>  <CHROM.1>
114.57719464,-67.56489615,-65.74972154,177.40361190,-176.88980472,24.46503616
42.70398686,19.92917954,-1.69069733,-0.77309932,2.45488330

>  <Name>
ligand

>  <RI>
0

>  <Rbt.Current_Directory>
/home/itssahil/PROJECTS/Mol_Feturizer/New_Systems/rnas/3D0U

>  <Rbt.Executable>
rbdock ($Id: //depot/dev/client3/rdock/2013.1/src/exe/rbdock.cxx#4 $)

>  <Rbt.Library>
libRbt.so (2013.1, Build901 2013/11/27)

>  <Rbt.Parameter_File>
/export/apps/rDock/src/rDock_2013.1_src/data/scripts/dock_solv.prm

>  <Rbt.Receptor>
prm/pocket_docking_7.prm

>  <SCORE>
-8.54305

>  <SCORE.INTER>
-8.20307

>  <SCORE.INTER.CONST>
1

>  <SCORE.INTER.POLAR>
0

>  <SCORE.INTER.ROT>
5

>  <SCORE.INTER.SOLV>
13.9881

>  <SCORE.INTER.VDW>
-17.0648

>  <SCORE.INTER.norm>
-0.820307

>  <SCORE.INTRA>
-0.339975

>  <SCORE.INTRA.DIHEDRAL>
-0.294636

>  <SCORE.INTRA.DIHEDRAL.0>
2.22229

>  <SCORE.INTRA.POLAR>
0

>  <SCORE.INTRA.POLAR.0>
0

>  <SCORE.INTRA.REPUL>
0

>  <SCORE.INTRA.REPUL.0>
0

>  <SCORE.INTRA.SOLV>
-0.35618

>  <SCORE.INTRA.SOLV.lig_0>
-31.87

>  <SCORE.INTRA.VDW>
-0.0145666

>  <SCORE.INTRA.VDW.0>
-0.575321

>  <SCORE.INTRA.norm>
-0.0339975

>  <SCORE.RESTR>
0

>  <SCORE.RESTR.CAVITY>
0

>  <SCORE.RESTR.norm>
0

>  <SCORE.SYSTEM>
0

>  <SCORE.SYSTEM.CONST>
0

>  <SCORE.SYSTEM.DIHEDRAL>
0

>  <SCORE.SYSTEM.SOLV>
0

>  <SCORE.SYSTEM.norm>
0

>  <SCORE.heavy>
10

>  <SCORE.norm>
-0.854305

>  <RMSD>
5.550

$$$$
ligand
 OpenBabel11021811463D
libRbt.so/2013.1/901 2013/11/27
 10  9  0  0  0  0  0  0  0  0999 V2000
   25.6222   43.2079   17.9796 N   0  0  0  0  0  0  0  0  0  0  0  0
   24.2351   43.5054   18.3153 C   0  0  2  0  0  0  0  0  0  0  0  0
   24.1370   44.7866   19.1416 C   0  0  0  0  0  0  0  0  0  0  0  0
   23.0316   45.2878   19.3669 O   0  0  0  0  0  0  0  0  0  0  0  0
   23.5904   42.3282   19.0533 C   0  0  0  0  0  0  0  0  0  0  0  0
   24.3269   41.9293   20.3264 C   0  0  0  0  0  0  0  0  0  0  0  0
   23.6920   40.7193   21.0059 C   0  0  0  0  0  0  0  0  0  0  0  0
   24.4187   40.3423   22.3065 C   0  0  0  0  0  0  0  0  0  0  0  0
   23.8423   39.1585   23.0193 N   0  0  0  0  0  0  0  0  0  0  0  0
   25.1447   45.3333   19.6091 O   0  0  0  0  0  0  0  0  0  0  0  0
  2  1  1  1  0  0  0
  2  3  1  0  0  0  0
  2  5  1  0  0  0  0
  3  4  1  0  0  0  0
  3 10  1  0  0  0  0
  5  6  1  0  0  0  0
  6  7  1  0  0  0  0
  7  8  1  0  0  0  0
  8  9  1  0  0  0  0
M  END
>  <CHROM.1>
170.50175468,57.30749020,-177.67938134,-178.64321991,-179.89979475,24.20144785
42.69795752,20.02214257,-1.44225233,-1.09413821,2.64687324

>  <Name>
ligand

>  <RI>
0

>  <Rbt.Current_Directory>
/home/itssahil/PROJECTS/Mol_Feturizer/New_Systems/rnas/3D0U

>  <Rbt.Executable>
rbdock ($Id: //depot/dev/client3/rdock/2013.1/src/exe/rbdock.cxx#4 $)

>  <Rbt.Library>
libRbt.so (2013.1, Build901 2013/11/27)

>  <Rbt.Parameter_File>
/export/apps/rDock/src/rDock_2013.1_src/data/scripts/dock_solv.prm

>  <Rbt.Receptor>
prm/pocket_docking_4.prm

>  <SCORE>
-8.86092

>  <SCORE.INTER>
-8.17776

>  <SCORE.INTER.CONST>
1

>  <SCORE.INTER.POLAR>
0

>  <SCORE.INTER.ROT>
5

>  <SCORE.INTER.SOLV>
13.7742

>  <SCORE.INTER.VDW>
-16.9766

>  <SCORE.INTER.norm>
-0.817776

>  <SCORE.INTRA>
-0.683163

>  <SCORE.INTRA.DIHEDRAL>
-0.697548

>  <SCORE.INTRA.DIHEDRAL.0>
2.22229

>  <SCORE.INTRA.POLAR>
0

>  <SCORE.INTRA.POLAR.0>
0

>  <SCORE.INTRA.REPUL>
0

>  <SCORE.INTRA.REPUL.0>
0

>  <SCORE.INTRA.SOLV>
-0.674878

>  <SCORE.INTRA.SOLV.lig_0>
-31.87

>  <SCORE.INTRA.VDW>
0.00305022

>  <SCORE.INTRA.VDW.0>
-0.575321

>  <SCORE.INTRA.norm>
-0.0683163

>  <SCORE.RESTR>
0

>  <SCORE.RESTR.CAVITY>
0

>  <SCORE.RESTR.norm>
0

>  <SCORE.SYSTEM>
0

>  <SCORE.SYSTEM.CONST>
0

>  <SCORE.SYSTEM.DIHEDRAL>
0

>  <SCORE.SYSTEM.SOLV>
0

>  <SCORE.SYSTEM.norm>
0

>  <SCORE.heavy>
10

>  <SCORE.norm>
-0.886092

>  <RMSD>
5.551

$$$$
ligand
 OpenBabel11021811463D
libRbt.so/2013.1/901 2013/11/27
 10  9  0  0  0  0  0  0  0  0999 V2000
   24.0018   42.5773   17.8812 N   0  0  0  0  0  0  0  0  0  0  0  0
   24.1715   43.3159   19.1265 C   0  0  2  0  0  0  0  0  0  0  0  0
   23.9981   44.8164   18.8982 C   0  0  0  0  0  0  0  0  0  0  0  0
   23.0759   45.4188   19.4554 O   0  0  0  0  0  0  0  0  0  0  0  0
   25.5345   43.0126   19.7563 C   0  0  0  0  0  0  0  0  0  0  0  0
   25.6592   41.5885   20.2841 C   0  0  0  0  0  0  0  0  0  0  0  0
   24.6995   41.3143   21.4386 C   0  0  0  0  0  0  0  0  0  0  0  0
   24.8234   39.8742   21.9606 C   0  0  0  0  0  0  0  0  0  0  0  0
   23.8196   39.5048   23.0082 N   0  0  0  0  0  0  0  0  0  0  0  0
   24.7740   45.4544   18.1744 O   0  0  0  0  0  0  0  0  0  0  0  0
  2  1  1  6  0  0  0
  2  3  1  0  0  0  0
  2  5  1  0  0  0  0
  3  4  1  0  0  0  0
  3 10  1  0  0  0  0
  5  6  1  0  0  0  0
  6  7  1  0  0  0  0
  7  8  1  0  0  0  0
  8  9  1  0  0  0  0
M  END
>  <CHROM.1>
117.03886424,-68.79017253,-64.55831578,179.63029792,-174.58114954,24.44963078
42.73015028,19.98708161,-1.67646124,-0.77400712,2.43827734

>  <Name>
ligand

>  <RI>
0

>  <Rbt.Current_Directory>
/home/itssahil/PROJECTS/Mol_Feturizer/New_Systems/rnas/3D0U

>  <Rbt.Executable>
rbdock ($Id: //depot/dev/client3/rdock/2013.1/src/exe/rbdock.cxx#4 $)

>  <Rbt.Library>
libRbt.so (2013.1, Build901 2013/11/27)

>  <Rbt.Parameter_File>
/export/apps/rDock/src/rDock_2013.1_src/data/scripts/dock_solv.prm

>  <Rbt.Receptor>
prm/pocket_docking_6.prm

>  <SCORE>
-8.61373

>  <SCORE.INTER>
-8.30076

>  <SCORE.INTER.CONST>
1

>  <SCORE.INTER.POLAR>
0

>  <SCORE.INTER.ROT>
5

>  <SCORE.INTER.SOLV>
13.9499

>  <SCORE.INTER.VDW>
-17.1171

>  <SCORE.INTER.norm>
-0.830076

>  <SCORE.INTRA>
-0.312973

>  <SCORE.INTRA.DIHEDRAL>
-0.223936

>  <SCORE.INTRA.DIHEDRAL.0>
2.22229

>  <SCORE.INTRA.POLAR>
0

>  <SCORE.INTRA.POLAR.0>
0

>  <SCORE.INTRA.REPUL>
0

>  <SCORE.INTRA.REPUL.0>
0

>  <SCORE.INTRA.SOLV>
-0.364123

>  <SCORE.INTRA.SOLV.lig_0>
-31.87

>  <SCORE.INTRA.VDW>
-0.0189434

>  <SCORE.INTRA.VDW.0>
-0.575321

>  <SCORE.INTRA.norm>
-0.0312973

>  <SCORE.RESTR>
0

>  <SCORE.RESTR.CAVITY>
0

>  <SCORE.RESTR.norm>
0

>  <SCORE.SYSTEM>
0

>  <SCORE.SYSTEM.CONST>
0

>  <SCORE.SYSTEM.DIHEDRAL>
0

>  <SCORE.SYSTEM.SOLV>
0

>  <SCORE.SYSTEM.norm>
0

>  <SCORE.heavy>
10

>  <SCORE.norm>
-0.861373

>  <RMSD>
5.552

$$$$
ligand
 OpenBabel11021811463D
libRbt.so/2013.1/901 2013/11/27
 10  9  0  0  0  0  0  0  0  0999 V2000
   25.6036   43.1746   18.0032 N   0  0  0  0  0  0  0  0  0  0  0  0
   24.1998   43.4324   18.2998 C   0  0  2  0  0  0  0  0  0  0  0  0
   24.0384   44.7332   19.0846 C   0  0  0  0  0  0  0  0  0  0  0  0
   22.9137   45.2151   19.2481 O   0  0  0  0  0  0  0  0  0  0  0  0
   23.5800   42.2553   19.0592 C   0  0  0  0  0  0  0  0  0  0  0  0
   24.3250   41.8949   20.3388 C   0  0  0  0  0  0  0  0  0  0  0  0
   23.6927   40.7081   21.0604 C   0  0  0  0  0  0  0  0  0  0  0  0
   24.3898   40.4091   22.3970 C   0  0  0  0  0  0  0  0  0  0  0  0
   23.8116   39.2542   23.1543 N   0  0  0  0  0  0  0  0  0  0  0  0
   25.0129   45.3152   19.5790 O   0  0  0  0  0  0  0  0  0  0  0  0
  2  1  1  1  0  0  0
  2  3  1  0  0  0  0
  2  5  1  0  0  0  0
  3  4  1  0  0  0  0
  3 10  1  0  0  0  0
  5  6  1  0  0  0  0
  6  7  1  0  0  0  0
  7  8  1  0  0  0  0
  8  9  1  0  0  0  0
M  END
>  <CHROM.1>
169.07748596,55.63227906,-179.25718809,-176.14389486,179.89931117,24.15256002
42.67745328,20.03095390,-1.47554165,-1.06485920,2.58337234

>  <Name>
ligand

>  <RI>
0

>  <Rbt.Current_Directory>
/home/itssahil/PROJECTS/Mol_Feturizer/New_Systems/rnas/3D0U

>  <Rbt.Executable>
rbdock ($Id: //depot/dev/client3/rdock/2013.1/src/exe/rbdock.cxx#4 $)

>  <Rbt.Library>
libRbt.so (2013.1, Build901 2013/11/27)

>  <Rbt.Parameter_File>
/export/apps/rDock/src/rDock_2013.1_src/data/scripts/dock_solv.prm

>  <Rbt.Receptor>
prm/pocket_docking_7.prm

>  <SCORE>
-8.58519

>  <SCORE.INTER>
-7.93872

>  <SCORE.INTER.CONST>
1

>  <SCORE.INTER.POLAR>
0

>  <SCORE.INTER.ROT>
5

>  <SCORE.INTER.SOLV>
13.882

>  <SCORE.INTER.VDW>
-16.8531

>  <SCORE.INTER.norm>
-0.793872

>  <SCORE.INTRA>
-0.64647

>  <SCORE.INTRA.DIHEDRAL>
-0.615602

>  <SCORE.INTRA.DIHEDRAL.0>
2.22229

>  <SCORE.INTRA.POLAR>
0

>  <SCORE.INTRA.POLAR.0>
0

>  <SCORE.INTRA.REPUL>
0

>  <SCORE.INTRA.REPUL.0>
0

>  <SCORE.INTRA.SOLV>
-0.662544

>  <SCORE.INTRA.SOLV.lig_0>
-31.87

>  <SCORE.INTRA.VDW>
-0.0073966

>  <SCORE.INTRA.VDW.0>
-0.575321

>  <SCORE.INTRA.norm>
-0.064647

>  <SCORE.RESTR>
0

>  <SCORE.RESTR.CAVITY>
0

>  <SCORE.RESTR.norm>
0

>  <SCORE.SYSTEM>
0

>  <SCORE.SYSTEM.CONST>
0

>  <SCORE.SYSTEM.DIHEDRAL>
0

>  <SCORE.SYSTEM.SOLV>
0

>  <SCORE.SYSTEM.norm>
0

>  <SCORE.heavy>
10

>  <SCORE.norm>
-0.858519

>  <RMSD>
5.552

$$$$
ligand
 OpenBabel11021811463D
libRbt.so/2013.1/901 2013/11/27
 10  9  0  0  0  0  0  0  0  0999 V2000
   25.6066   43.1986   18.0073 N   0  0  0  0  0  0  0  0  0  0  0  0
   24.2103   43.4796   18.3178 C   0  0  2  0  0  0  0  0  0  0  0  0
   24.0808   44.7681   19.1283 C   0  0  0  0  0  0  0  0  0  0  0  0
   25.0941   45.3248   19.5609 O   0  0  0  0  0  0  0  0  0  0  0  0
   23.5709   42.3012   19.0587 C   0  0  0  0  0  0  0  0  0  0  0  0
   24.3184   41.8982   20.3240 C   0  0  0  0  0  0  0  0  0  0  0  0
   23.6719   40.7046   21.0214 C   0  0  0  0  0  0  0  0  0  0  0  0
   24.4149   40.3191   22.3102 C   0  0  0  0  0  0  0  0  0  0  0  0
   23.8371   39.1412   23.0315 N   0  0  0  0  0  0  0  0  0  0  0  0
   22.9773   45.2828   19.3525 O   0  0  0  0  0  0  0  0  0  0  0  0
  2  1  1  1  0  0  0
  2  3  1  0  0  0  0
  2  5  1  0  0  0  0
  3  4  1  0  0  0  0
  3 10  1  0  0  0  0
  5  6  1  0  0  0  0
  6  7  1  0  0  0  0
  7  8  1  0  0  0  0
  8  9  1  0  0  0  0
M  END
>  <CHROM.1>
-8.50997130,55.45630539,-178.82997208,-178.95575324,-179.24888339,24.17524167
42.68030084,20.02031118,-1.46700322,-1.04760868,2.62142493

>  <Name>
ligand

>  <RI>
0

>  <Rbt.Current_Directory>
/home/itssahil/PROJECTS/Mol_Feturizer/New_Systems/rnas/3D0U

>  <Rbt.Executable>
rbdock ($Id: //depot/dev/client3/rdock/2013.1/src/exe/rbdock.cxx#4 $)

>  <Rbt.Library>
libRbt.so (2013.1, Build901 2013/11/27)

>  <Rbt.Parameter_File>
/export/apps/rDock/src/rDock_2013.1_src/data/scripts/dock_solv.prm

>  <Rbt.Receptor>
prm/pocket_docking_5.prm

>  <SCORE>
-8.79824

>  <SCORE.INTER>
-8.19115

>  <SCORE.INTER.CONST>
1

>  <SCORE.INTER.POLAR>
0

>  <SCORE.INTER.ROT>
5

>  <SCORE.INTER.SOLV>
13.7041

>  <SCORE.INTER.VDW>
-16.9621

>  <SCORE.INTER.norm>
-0.819115

>  <SCORE.INTRA>
-0.607092

>  <SCORE.INTRA.DIHEDRAL>
-0.628014

>  <SCORE.INTRA.DIHEDRAL.0>
2.22229

>  <SCORE.INTRA.POLAR>
0

>  <SCORE.INTRA.POLAR.0>
0

>  <SCORE.INTRA.REPUL>
0

>  <SCORE.INTRA.REPUL.0>
0

>  <SCORE.INTRA.SOLV>
-0.646445

>  <SCORE.INTRA.SOLV.lig_0>
-31.87

>  <SCORE.INTRA.VDW>
0.0301377

>  <SCORE.INTRA.VDW.0>
-0.575321

>  <SCORE.INTRA.norm>
-0.0607092

>  <SCORE.RESTR>
0

>  <SCORE.RESTR.CAVITY>
0

>  <SCORE.RESTR.norm>
0

>  <SCORE.SYSTEM>
0

>  <SCORE.SYSTEM.CONST>
0

>  <SCORE.SYSTEM.DIHEDRAL>
0

>  <SCORE.SYSTEM.SOLV>
0

>  <SCORE.SYSTEM.norm>
0

>  <SCORE.heavy>
10

>  <SCORE.norm>
-0.879824

>  <RMSD>
5.554

$$$$
ligand
 OpenBabel11021811463D
libRbt.so/2013.1/901 2013/11/27
 10  9  0  0  0  0  0  0  0  0999 V2000
   25.6527   43.2321   17.9692 N   0  0  0  0  0  0  0  0  0  0  0  0
   24.2530   43.4872   18.2866 C   0  0  2  0  0  0  0  0  0  0  0  0
   24.1055   44.7623   19.1149 C   0  0  0  0  0  0  0  0  0  0  0  0
   25.1116   45.3337   19.5453 O   0  0  0  0  0  0  0  0  0  0  0  0
   23.6336   42.2890   19.0126 C   0  0  0  0  0  0  0  0  0  0  0  0
   24.3302   41.9433   20.3232 C   0  0  0  0  0  0  0  0  0  0  0  0
   23.7106   40.7254   21.0028 C   0  0  0  0  0  0  0  0  0  0  0  0
   24.4251   40.3741   22.3173 C   0  0  0  0  0  0  0  0  0  0  0  0
   23.8376   39.2088   23.0512 N   0  0  0  0  0  0  0  0  0  0  0  0
   22.9942   45.2519   19.3560 O   0  0  0  0  0  0  0  0  0  0  0  0
  2  1  1  1  0  0  0
  2  3  1  0  0  0  0
  2  5  1  0  0  0  0
  3  4  1  0  0  0  0
  3 10  1  0  0  0  0
  5  6  1  0  0  0  0
  6  7  1  0  0  0  0
  7  8  1  0  0  0  0
  8  9  1  0  0  0  0
M  END
>  <CHROM.1>
-8.02423300,59.62743462,-178.59401127,179.48679728,178.38522198,24.20208602
42.69883835,20.00730303,-1.45248354,-1.06107636,2.62276820

>  <Name>
ligand

>  <RI>
0

>  <Rbt.Current_Directory>
/home/itssahil/PROJECTS/Mol_Feturizer/New_Systems/rnas/3D0U

>  <Rbt.Executable>
rbdock ($Id: //depot/dev/client3/rdock/2013.1/src/exe/rbdock.cxx#4 $)

>  <Rbt.Library>
libRbt.so (2013.1, Build901 2013/11/27)

>  <Rbt.Parameter_File>
/export/apps/rDock/src/rDock_2013.1_src/data/scripts/dock_solv.prm

>  <Rbt.Receptor>
prm/pocket_docking_5.prm

>  <SCORE>
-8.82573

>  <SCORE.INTER>
-8.15431

>  <SCORE.INTER.CONST>
1

>  <SCORE.INTER.POLAR>
0

>  <SCORE.INTER.ROT>
5

>  <SCORE.INTER.SOLV>
13.8994

>  <SCORE.INTER.VDW>
-17.0027

>  <SCORE.INTER.norm>
-0.815431

>  <SCORE.INTRA>
-0.671424

>  <SCORE.INTRA.DIHEDRAL>
-0.710412

>  <SCORE.INTRA.DIHEDRAL.0>
2.22229

>  <SCORE.INTRA.POLAR>
0

>  <SCORE.INTRA.POLAR.0>
0

>  <SCORE.INTRA.REPUL>
0

>  <SCORE.INTRA.REPUL.0>
0

>  <SCORE.INTRA.SOLV>
-0.69572

>  <SCORE.INTRA.SOLV.lig_0>
-31.87

>  <SCORE.INTRA.VDW>
0.0316422

>  <SCORE.INTRA.VDW.0>
-0.575321

>  <SCORE.INTRA.norm>
-0.0671424

>  <SCORE.RESTR>
0

>  <SCORE.RESTR.CAVITY>
0

>  <SCORE.RESTR.norm>
0

>  <SCORE.SYSTEM>
0

>  <SCORE.SYSTEM.CONST>
0

>  <SCORE.SYSTEM.DIHEDRAL>
0

>  <SCORE.SYSTEM.SOLV>
0

>  <SCORE.SYSTEM.norm>
0

>  <SCORE.heavy>
10

>  <SCORE.norm>
-0.882573

>  <RMSD>
5.554

$$$$
ligand
 OpenBabel11021811463D
libRbt.so/2013.1/901 2013/11/27
 10  9  0  0  0  0  0  0  0  0999 V2000
   25.4642   42.5681   16.9037 N   0  0  0  0  0  0  0  0  0  0  0  0
   24.3815   42.8262   17.8451 C   0  0  2  0  0  0  0  0  0  0  0  0
   24.4481   44.2581   18.3732 C   0  0  0  0  0  0  0  0  0  0  0  0
   23.5154   44.7077   19.0454 O   0  0  0  0  0  0  0  0  0  0  0  0
   24.4110   41.8168   18.9969 C   0  0  0  0  0  0  0  0  0  0  0  0
   25.7025   41.8512   19.8051 C   0  0  0  0  0  0  0  0  0  0  0  0
   25.6298   40.9684   21.0478 C   0  0  0  0  0  0  0  0  0  0  0  0
   24.5859   41.4766   22.0547 C   0  0  0  0  0  0  0  0  0  0  0  0
   24.3949   40.5949   23.2497 N   0  0  0  0  0  0  0  0  0  0  0  0
   25.4284   44.9825   18.1561 O   0  0  0  0  0  0  0  0  0  0  0  0
  2  1  1  6  0  0  0
  2  3  1  0  0  0  0
  2  5  1  0  0  0  0
  3  4  1  0  0  0  0
  3 10  1  0  0  0  0
  5  6  1  0  0  0  0
  6  7  1  0  0  0  0
  7  8  1  0  0  0  0
  8  9  1  0  0  0  0
M  END
>  <CHROM.1>
170.66281510,60.27370708,172.55912233,-65.01680632,175.65994004,24.79498677
42.64277024,19.55010225,-1.59350266,-1.09369592,2.17605254

>  <Name>
ligand

>  <RI>
0

>  <Rbt.Current_Directory>
/home/itssahil/PROJECTS/Mol_Feturizer/New_Systems/rnas/3D0U

>  <Rbt.Executable>
rbdock ($Id: //depot/dev/client3/rdock/2013.1/src/exe/rbdock.cxx#4 $)

>  <Rbt.Library>
libRbt.so (2013.1, Build901 2013/11/27)

>  <Rbt.Parameter_File>
/export/apps/rDock/src/rDock_2013.1_src/data/scripts/dock_solv.prm

>  <Rbt.Receptor>
prm/pocket_docking_3.prm

>  <SCORE>
-8.3058

>  <SCORE.INTER>
-8.41496

>  <SCORE.INTER.CONST>
1

>  <SCORE.INTER.POLAR>
0

>  <SCORE.INTER.ROT>
5

>  <SCORE.INTER.SOLV>
17.1217

>  <SCORE.INTER.VDW>
-18.2505

>  <SCORE.INTER.norm>
-0.841496

>  <SCORE.INTRA>
0.109168

>  <SCORE.INTRA.DIHEDRAL>
-0.356125

>  <SCORE.INTRA.DIHEDRAL.0>
2.22229

>  <SCORE.INTRA.POLAR>
0

>  <SCORE.INTRA.POLAR.0>
0

>  <SCORE.INTRA.REPUL>
0

>  <SCORE.INTRA.REPUL.0>
0

>  <SCORE.INTRA.SOLV>
-0.511586

>  <SCORE.INTRA.SOLV.lig_0>
-31.87

>  <SCORE.INTRA.VDW>
0.543024

>  <SCORE.INTRA.VDW.0>
-0.575321

>  <SCORE.INTRA.norm>
0.0109168

>  <SCORE.RESTR>
0

>  <SCORE.RESTR.CAVITY>
0

>  <SCORE.RESTR.norm>
0

>  <SCORE.SYSTEM>
0

>  <SCORE.SYSTEM.CONST>
0

>  <SCORE.SYSTEM.DIHEDRAL>
0

>  <SCORE.SYSTEM.SOLV>
0

>  <SCORE.SYSTEM.norm>
0

>  <SCORE.heavy>
10

>  <SCORE.norm>
-0.83058

>  <RMSD>
5.555

$$$$
ligand
 OpenBabel11021811463D
libRbt.so/2013.1/901 2013/11/27
 10  9  0  0  0  0  0  0  0  0999 V2000
   25.5991   43.1701   18.0179 N   0  0  0  0  0  0  0  0  0  0  0  0
   24.2039   43.4620   18.3235 C   0  0  2  0  0  0  0  0  0  0  0  0
   24.0806   44.7581   19.1226 C   0  0  0  0  0  0  0  0  0  0  0  0
   25.0956   45.3070   19.5611 O   0  0  0  0  0  0  0  0  0  0  0  0
   23.5562   42.2938   19.0731 C   0  0  0  0  0  0  0  0  0  0  0  0
   24.3145   41.8788   20.3280 C   0  0  0  0  0  0  0  0  0  0  0  0
   23.6399   40.7176   21.0530 C   0  0  0  0  0  0  0  0  0  0  0  0
   24.4061   40.3072   22.3204 C   0  0  0  0  0  0  0  0  0  0  0  0
   23.8040   39.1560   23.0647 N   0  0  0  0  0  0  0  0  0  0  0  0
   22.9807   45.2866   19.3319 O   0  0  0  0  0  0  0  0  0  0  0  0
  2  1  1  1  0  0  0
  2  3  1  0  0  0  0
  2  5  1  0  0  0  0
  3  4  1  0  0  0  0
  3 10  1  0  0  0  0
  5  6  1  0  0  0  0
  6  7  1  0  0  0  0
  7  8  1  0  0  0  0
  8  9  1  0  0  0  0
M  END
>  <CHROM.1>
-9.05798403,54.28989604,179.76710093,-179.77883087,-179.05734464,24.16528251
42.67234396,20.02838276,-1.46176747,-1.04099983,2.62022054

>  <Name>
ligand

>  <RI>
0

>  <Rbt.Current_Directory>
/home/itssahil/PROJECTS/Mol_Feturizer/New_Systems/rnas/3D0U

>  <Rbt.Executable>
rbdock ($Id: //depot/dev/client3/rdock/2013.1/src/exe/rbdock.cxx#4 $)

>  <Rbt.Library>
libRbt.so (2013.1, Build901 2013/11/27)

>  <Rbt.Parameter_File>
/export/apps/rDock/src/rDock_2013.1_src/data/scripts/dock_solv.prm

>  <Rbt.Receptor>
prm/pocket_docking_7.prm

>  <SCORE>
-8.77947

>  <SCORE.INTER>
-8.19661

>  <SCORE.INTER.CONST>
1

>  <SCORE.INTER.POLAR>
0

>  <SCORE.INTER.ROT>
5

>  <SCORE.INTER.SOLV>
13.6771

>  <SCORE.INTER.VDW>
-16.9568

>  <SCORE.INTER.norm>
-0.819661

>  <SCORE.INTRA>
-0.582855

>  <SCORE.INTRA.DIHEDRAL>
-0.586888

>  <SCORE.INTRA.DIHEDRAL.0>
2.22229

>  <SCORE.INTRA.POLAR>
0

>  <SCORE.INTRA.POLAR.0>
0

>  <SCORE.INTRA.REPUL>
0

>  <SCORE.INTRA.REPUL.0>
0

>  <SCORE.INTRA.SOLV>
-0.638926

>  <SCORE.INTRA.SOLV.lig_0>
-31.87

>  <SCORE.INTRA.VDW>
0.0300518

>  <SCORE.INTRA.VDW.0>
-0.575321

>  <SCORE.INTRA.norm>
-0.0582855

>  <SCORE.RESTR>
0

>  <SCORE.RESTR.CAVITY>
0

>  <SCORE.RESTR.norm>
0

>  <SCORE.SYSTEM>
0

>  <SCORE.SYSTEM.CONST>
0

>  <SCORE.SYSTEM.DIHEDRAL>
0

>  <SCORE.SYSTEM.SOLV>
0

>  <SCORE.SYSTEM.norm>
0

>  <SCORE.heavy>
10

>  <SCORE.norm>
-0.877947

>  <RMSD>
5.555

$$$$
ligand
 OpenBabel11021811463D
libRbt.so/2013.1/901 2013/11/27
 10  9  0  0  0  0  0  0  0  0999 V2000
   23.9585   42.5612   17.8760 N   0  0  0  0  0  0  0  0  0  0  0  0
   24.1749   43.3086   19.1088 C   0  0  2  0  0  0  0  0  0  0  0  0
   23.9907   44.8073   18.8770 C   0  0  0  0  0  0  0  0  0  0  0  0
   23.0450   45.3980   19.4067 O   0  0  0  0  0  0  0  0  0  0  0  0
   25.5614   43.0113   19.6880 C   0  0  0  0  0  0  0  0  0  0  0  0
   25.6990   41.6005   20.2475 C   0  0  0  0  0  0  0  0  0  0  0  0
   24.8262   41.3804   21.4799 C   0  0  0  0  0  0  0  0  0  0  0  0
   24.9342   39.9428   22.0125 C   0  0  0  0  0  0  0  0  0  0  0  0
   24.0187   39.6339   23.1563 N   0  0  0  0  0  0  0  0  0  0  0  0
   24.7806   45.4554   18.1777 O   0  0  0  0  0  0  0  0  0  0  0  0
  2  1  1  6  0  0  0
  2  3  1  0  0  0  0
  2  5  1  0  0  0  0
  3  4  1  0  0  0  0
  3 10  1  0  0  0  0
  5  6  1  0  0  0  0
  6  7  1  0  0  0  0
  7  8  1  0  0  0  0
  8  9  1  0  0  0  0
M  END
>  <CHROM.1>
113.03353815,-70.02936705,-66.68116366,178.13946517,-175.41249394,24.49224842
42.75211162,19.99151419,-1.71926793,-0.80167980,2.38030715

>  <Name>
ligand

>  <RI>
0

>  <Rbt.Current_Directory>
/home/itssahil/PROJECTS/Mol_Feturizer/New_Systems/rnas/3D0U

>  <Rbt.Executable>
rbdock ($Id: //depot/dev/client3/rdock/2013.1/src/exe/rbdock.cxx#4 $)

>  <Rbt.Library>
libRbt.so (2013.1, Build901 2013/11/27)

>  <Rbt.Parameter_File>
/export/apps/rDock/src/rDock_2013.1_src/data/scripts/dock_solv.prm

>  <Rbt.Receptor>
prm/pocket_docking_5.prm

>  <SCORE>
-8.68515

>  <SCORE.INTER>
-8.42046

>  <SCORE.INTER.CONST>
1

>  <SCORE.INTER.POLAR>
0

>  <SCORE.INTER.ROT>
5

>  <SCORE.INTER.SOLV>
14.5036

>  <SCORE.INTER.VDW>
-17.3815

>  <SCORE.INTER.norm>
-0.842046

>  <SCORE.INTRA>
-0.264696

>  <SCORE.INTRA.DIHEDRAL>
-0.0453044

>  <SCORE.INTRA.DIHEDRAL.0>
2.22229

>  <SCORE.INTRA.POLAR>
0

>  <SCORE.INTRA.POLAR.0>
0

>  <SCORE.INTRA.REPUL>
0

>  <SCORE.INTRA.REPUL.0>
0

>  <SCORE.INTRA.SOLV>
-0.413662

>  <SCORE.INTRA.SOLV.lig_0>
-31.87

>  <SCORE.INTRA.VDW>
-0.0352121

>  <SCORE.INTRA.VDW.0>
-0.575321

>  <SCORE.INTRA.norm>
-0.0264696

>  <SCORE.RESTR>
0

>  <SCORE.RESTR.CAVITY>
0

>  <SCORE.RESTR.norm>
0

>  <SCORE.SYSTEM>
0

>  <SCORE.SYSTEM.CONST>
0

>  <SCORE.SYSTEM.DIHEDRAL>
0

>  <SCORE.SYSTEM.SOLV>
0

>  <SCORE.SYSTEM.norm>
0

>  <SCORE.heavy>
10

>  <SCORE.norm>
-0.868515

>  <RMSD>
5.557

$$$$
ligand
 OpenBabel11021811463D
libRbt.so/2013.1/901 2013/11/27
 10  9  0  0  0  0  0  0  0  0999 V2000
   23.9592   42.5600   17.8254 N   0  0  0  0  0  0  0  0  0  0  0  0
   24.2666   43.2966   19.0453 C   0  0  2  0  0  0  0  0  0  0  0  0
   24.0716   44.7977   18.8394 C   0  0  0  0  0  0  0  0  0  0  0  0
   23.1201   45.3719   19.3770 O   0  0  0  0  0  0  0  0  0  0  0  0
   25.6902   42.9904   19.5206 C   0  0  0  0  0  0  0  0  0  0  0  0
   25.8551   41.5854   20.0872 C   0  0  0  0  0  0  0  0  0  0  0  0
   25.0530   41.3820   21.3695 C   0  0  0  0  0  0  0  0  0  0  0  0
   25.1494   39.9378   21.8859 C   0  0  0  0  0  0  0  0  0  0  0  0
   24.2910   39.6456   23.0773 N   0  0  0  0  0  0  0  0  0  0  0  0
   24.8581   45.4639   18.1535 O   0  0  0  0  0  0  0  0  0  0  0  0
  2  1  1  6  0  0  0
  2  3  1  0  0  0  0
  2  5  1  0  0  0  0
  3  4  1  0  0  0  0
  3 10  1  0  0  0  0
  5  6  1  0  0  0  0
  6  7  1  0  0  0  0
  7  8  1  0  0  0  0
  8  9  1  0  0  0  0
M  END
>  <CHROM.1>
108.67942735,-71.36497562,-65.43843850,176.26333015,-175.09406517,24.62419337
42.74532925,19.90737499,-1.76295048,-0.80296600,2.35761262

>  <Name>
ligand

>  <RI>
0

>  <Rbt.Current_Directory>
/home/itssahil/PROJECTS/Mol_Feturizer/New_Systems/rnas/3D0U

>  <Rbt.Executable>
rbdock ($Id: //depot/dev/client3/rdock/2013.1/src/exe/rbdock.cxx#4 $)

>  <Rbt.Library>
libRbt.so (2013.1, Build901 2013/11/27)

>  <Rbt.Parameter_File>
/export/apps/rDock/src/rDock_2013.1_src/data/scripts/dock_solv.prm

>  <Rbt.Receptor>
prm/pocket_docking_6.prm

>  <SCORE>
-8.67551

>  <SCORE.INTER>
-8.51602

>  <SCORE.INTER.CONST>
1

>  <SCORE.INTER.POLAR>
0

>  <SCORE.INTER.ROT>
5

>  <SCORE.INTER.SOLV>
15.0158

>  <SCORE.INTER.VDW>
-17.616

>  <SCORE.INTER.norm>
-0.851602

>  <SCORE.INTRA>
-0.159488

>  <SCORE.INTRA.DIHEDRAL>
0.0637202

>  <SCORE.INTRA.DIHEDRAL.0>
2.22229

>  <SCORE.INTRA.POLAR>
0

>  <SCORE.INTRA.POLAR.0>
0

>  <SCORE.INTRA.REPUL>
0

>  <SCORE.INTRA.REPUL.0>
0

>  <SCORE.INTRA.SOLV>
-0.424891

>  <SCORE.INTRA.SOLV.lig_0>
-31.87

>  <SCORE.INTRA.VDW>
0.0210971

>  <SCORE.INTRA.VDW.0>
-0.575321

>  <SCORE.INTRA.norm>
-0.0159488

>  <SCORE.RESTR>
0

>  <SCORE.RESTR.CAVITY>
0

>  <SCORE.RESTR.norm>
0

>  <SCORE.SYSTEM>
0

>  <SCORE.SYSTEM.CONST>
0

>  <SCORE.SYSTEM.DIHEDRAL>
0

>  <SCORE.SYSTEM.SOLV>
0

>  <SCORE.SYSTEM.norm>
0

>  <SCORE.heavy>
10

>  <SCORE.norm>
-0.867551

>  <RMSD>
5.557

$$$$
ligand
 OpenBabel11021811463D
libRbt.so/2013.1/901 2013/11/27
 10  9  0  0  0  0  0  0  0  0999 V2000
   25.5035   42.5922   16.8974 N   0  0  0  0  0  0  0  0  0  0  0  0
   24.4068   42.8211   17.8301 C   0  0  2  0  0  0  0  0  0  0  0  0
   24.4371   44.2510   18.3669 C   0  0  0  0  0  0  0  0  0  0  0  0
   23.4953   44.6714   19.0452 O   0  0  0  0  0  0  0  0  0  0  0  0
   24.4478   41.8058   18.9764 C   0  0  0  0  0  0  0  0  0  0  0  0
   25.7261   41.8708   19.8033 C   0  0  0  0  0  0  0  0  0  0  0  0
   25.6687   40.9618   21.0278 C   0  0  0  0  0  0  0  0  0  0  0  0
   24.6230   41.4368   22.0489 C   0  0  0  0  0  0  0  0  0  0  0  0
   24.4426   40.5252   23.2229 N   0  0  0  0  0  0  0  0  0  0  0  0
   25.3970   45.0025   18.1510 O   0  0  0  0  0  0  0  0  0  0  0  0
  2  1  1  6  0  0  0
  2  3  1  0  0  0  0
  2  5  1  0  0  0  0
  3  4  1  0  0  0  0
  3 10  1  0  0  0  0
  5  6  1  0  0  0  0
  6  7  1  0  0  0  0
  7  8  1  0  0  0  0
  8  9  1  0  0  0  0
M  END
>  <CHROM.1>
171.44809240,60.71414186,173.46879161,-66.74631486,175.38788045,24.81274543
42.63158979,19.53950659,-1.60997072,-1.07477716,2.17015099

>  <Name>
ligand

>  <RI>
0

>  <Rbt.Current_Directory>
/home/itssahil/PROJECTS/Mol_Feturizer/New_Systems/rnas/3D0U

>  <Rbt.Executable>
rbdock ($Id: //depot/dev/client3/rdock/2013.1/src/exe/rbdock.cxx#4 $)

>  <Rbt.Library>
libRbt.so (2013.1, Build901 2013/11/27)

>  <Rbt.Parameter_File>
/export/apps/rDock/src/rDock_2013.1_src/data/scripts/dock_solv.prm

>  <Rbt.Receptor>
prm/pocket_docking_3.prm

>  <SCORE>
-8.27324

>  <SCORE.INTER>
-8.34852

>  <SCORE.INTER.CONST>
1

>  <SCORE.INTER.POLAR>
0

>  <SCORE.INTER.ROT>
5

>  <SCORE.INTER.SOLV>
17.1979

>  <SCORE.INTER.VDW>
-18.2316

>  <SCORE.INTER.norm>
-0.834852

>  <SCORE.INTRA>
0.0752763

>  <SCORE.INTRA.DIHEDRAL>
-0.31309

>  <SCORE.INTRA.DIHEDRAL.0>
2.22229

>  <SCORE.INTRA.POLAR>
0

>  <SCORE.INTRA.POLAR.0>
0

>  <SCORE.INTRA.REPUL>
0

>  <SCORE.INTRA.REPUL.0>
0

>  <SCORE.INTRA.SOLV>
-0.522895

>  <SCORE.INTRA.SOLV.lig_0>
-31.87

>  <SCORE.INTRA.VDW>
0.493269

>  <SCORE.INTRA.VDW.0>
-0.575321

>  <SCORE.INTRA.norm>
0.00752763

>  <SCORE.RESTR>
0

>  <SCORE.RESTR.CAVITY>
0

>  <SCORE.RESTR.norm>
0

>  <SCORE.SYSTEM>
0

>  <SCORE.SYSTEM.CONST>
0

>  <SCORE.SYSTEM.DIHEDRAL>
0

>  <SCORE.SYSTEM.SOLV>
0

>  <SCORE.SYSTEM.norm>
0

>  <SCORE.heavy>
10

>  <SCORE.norm>
-0.827324

>  <RMSD>
5.560

$$$$
ligand
 OpenBabel11021811463D
libRbt.so/2013.1/901 2013/11/27
 10  9  0  0  0  0  0  0  0  0999 V2000
   25.8514   40.5645   18.9931 N   0  0  0  0  0  0  0  0  0  0  0  0
   24.8014   41.5756   19.0058 C   0  0  2  0  0  0  0  0  0  0  0  0
   25.0468   42.6300   17.9280 C   0  0  0  0  0  0  0  0  0  0  0  0
   24.6079   43.7740   18.0781 O   0  0  0  0  0  0  0  0  0  0  0  0
   24.6883   42.2239   20.3891 C   0  0  0  0  0  0  0  0  0  0  0  0
   24.1677   41.2786   21.4650 C   0  0  0  0  0  0  0  0  0  0  0  0
   24.2085   41.9072   22.8550 C   0  0  0  0  0  0  0  0  0  0  0  0
   23.5643   41.0009   23.9158 C   0  0  0  0  0  0  0  0  0  0  0  0
   24.1745   39.6377   24.0214 N   0  0  0  0  0  0  0  0  0  0  0  0
   25.6932   42.3702   16.9045 O   0  0  0  0  0  0  0  0  0  0  0  0
  2  1  1  1  0  0  0
  2  3  1  0  0  0  0
  2  5  1  0  0  0  0
  3  4  1  0  0  0  0
  3 10  1  0  0  0  0
  5  6  1  0  0  0  0
  6  7  1  0  0  0  0
  7  8  1  0  0  0  0
  8  9  1  0  0  0  0
M  END
>  <CHROM.1>
-153.03858780,-68.08127753,173.85712939,174.76131632,57.34112833,24.68735639
41.72269225,20.31949131,-1.11376043,-1.09221260,2.29270835

>  <Name>
ligand

>  <RI>
0

>  <Rbt.Current_Directory>
/home/itssahil/PROJECTS/Mol_Feturizer/New_Systems/rnas/3D0U

>  <Rbt.Executable>
rbdock ($Id: //depot/dev/client3/rdock/2013.1/src/exe/rbdock.cxx#4 $)

>  <Rbt.Library>
libRbt.so (2013.1, Build901 2013/11/27)

>  <Rbt.Parameter_File>
/export/apps/rDock/src/rDock_2013.1_src/data/scripts/dock_solv.prm

>  <Rbt.Receptor>
prm/blind_docking_60.prm

>  <SCORE>
-6.89186

>  <SCORE.INTER>
-7.33116

>  <SCORE.INTER.CONST>
1

>  <SCORE.INTER.POLAR>
0

>  <SCORE.INTER.ROT>
5

>  <SCORE.INTER.SOLV>
16.7648

>  <SCORE.INTER.VDW>
-17.409

>  <SCORE.INTER.norm>
-0.733116

>  <SCORE.INTRA>
0.439293

>  <SCORE.INTRA.DIHEDRAL>
-0.146705

>  <SCORE.INTRA.DIHEDRAL.0>
2.22229

>  <SCORE.INTRA.POLAR>
0

>  <SCORE.INTRA.POLAR.0>
0

>  <SCORE.INTRA.REPUL>
0

>  <SCORE.INTRA.REPUL.0>
0

>  <SCORE.INTRA.SOLV>
0.115489

>  <SCORE.INTRA.SOLV.lig_0>
-31.87

>  <SCORE.INTRA.VDW>
0.454901

>  <SCORE.INTRA.VDW.0>
-0.575321

>  <SCORE.INTRA.norm>
0.0439293

>  <SCORE.RESTR>
0

>  <SCORE.RESTR.CAVITY>
0

>  <SCORE.RESTR.norm>
0

>  <SCORE.SYSTEM>
0

>  <SCORE.SYSTEM.CONST>
0

>  <SCORE.SYSTEM.DIHEDRAL>
0

>  <SCORE.SYSTEM.SOLV>
0

>  <SCORE.SYSTEM.norm>
0

>  <SCORE.heavy>
10

>  <SCORE.norm>
-0.689186

>  <RMSD>
5.561

$$$$
ligand
 OpenBabel11021811463D
libRbt.so/2013.1/901 2013/11/27
 10  9  0  0  0  0  0  0  0  0999 V2000
   25.6157   43.2320   17.9833 N   0  0  0  0  0  0  0  0  0  0  0  0
   24.2181   43.5006   18.2989 C   0  0  2  0  0  0  0  0  0  0  0  0
   24.0802   44.7876   19.1103 C   0  0  0  0  0  0  0  0  0  0  0  0
   25.0873   45.3327   19.5713 O   0  0  0  0  0  0  0  0  0  0  0  0
   23.5916   42.3164   19.0415 C   0  0  0  0  0  0  0  0  0  0  0  0
   24.3395   41.9279   20.3112 C   0  0  0  0  0  0  0  0  0  0  0  0
   23.7023   40.7325   21.0139 C   0  0  0  0  0  0  0  0  0  0  0  0
   24.4485   40.3585   22.3043 C   0  0  0  0  0  0  0  0  0  0  0  0
   23.8601   39.2001   23.0484 N   0  0  0  0  0  0  0  0  0  0  0  0
   22.9764   45.3125   19.3076 O   0  0  0  0  0  0  0  0  0  0  0  0
  2  1  1  1  0  0  0
  2  3  1  0  0  0  0
  2  5  1  0  0  0  0
  3  4  1  0  0  0  0
  3 10  1  0  0  0  0
  5  6  1  0  0  0  0
  6  7  1  0  0  0  0
  7  8  1  0  0  0  0
  8  9  1  0  0  0  0
M  END
>  <CHROM.1>
-10.52511322,56.01200693,-179.10927078,-179.16058848,179.33866498,24.18873553
42.70847891,20.00812324,-1.47665600,-1.05778736,2.60699954

>  <Name>
ligand

>  <RI>
0

>  <Rbt.Current_Directory>
/home/itssahil/PROJECTS/Mol_Feturizer/New_Systems/rnas/3D0U

>  <Rbt.Executable>
rbdock ($Id: //depot/dev/client3/rdock/2013.1/src/exe/rbdock.cxx#4 $)

>  <Rbt.Library>
libRbt.so (2013.1, Build901 2013/11/27)

>  <Rbt.Parameter_File>
/export/apps/rDock/src/rDock_2013.1_src/data/scripts/dock_solv.prm

>  <Rbt.Receptor>
prm/pocket_docking_7.prm

>  <SCORE>
-8.8414

>  <SCORE.INTER>
-8.20108

>  <SCORE.INTER.CONST>
1

>  <SCORE.INTER.POLAR>
0

>  <SCORE.INTER.ROT>
5

>  <SCORE.INTER.SOLV>
13.8118

>  <SCORE.INTER.VDW>
-17.0047

>  <SCORE.INTER.norm>
-0.820108

>  <SCORE.INTRA>
-0.640315

>  <SCORE.INTRA.DIHEDRAL>
-0.649386

>  <SCORE.INTRA.DIHEDRAL.0>
2.22229

>  <SCORE.INTRA.POLAR>
0

>  <SCORE.INTRA.POLAR.0>
0

>  <SCORE.INTRA.REPUL>
0

>  <SCORE.INTRA.REPUL.0>
0

>  <SCORE.INTRA.SOLV>
-0.65461

>  <SCORE.INTRA.SOLV.lig_0>
-31.87

>  <SCORE.INTRA.VDW>
0.0116834

>  <SCORE.INTRA.VDW.0>
-0.575321

>  <SCORE.INTRA.norm>
-0.0640315

>  <SCORE.RESTR>
0

>  <SCORE.RESTR.CAVITY>
0

>  <SCORE.RESTR.norm>
0

>  <SCORE.SYSTEM>
0

>  <SCORE.SYSTEM.CONST>
0

>  <SCORE.SYSTEM.DIHEDRAL>
0

>  <SCORE.SYSTEM.SOLV>
0

>  <SCORE.SYSTEM.norm>
0

>  <SCORE.heavy>
10

>  <SCORE.norm>
-0.88414

>  <RMSD>
5.561

$$$$
ligand
 OpenBabel11021811463D
libRbt.so/2013.1/901 2013/11/27
 10  9  0  0  0  0  0  0  0  0999 V2000
   25.6238   43.0777   17.9447 N   0  0  0  0  0  0  0  0  0  0  0  0
   24.2421   43.4072   18.2725 C   0  0  2  0  0  0  0  0  0  0  0  0
   24.1660   44.7115   19.0643 C   0  0  0  0  0  0  0  0  0  0  0  0
   23.0662   45.2125   19.3163 O   0  0  0  0  0  0  0  0  0  0  0  0
   23.5783   42.2611   19.0418 C   0  0  0  0  0  0  0  0  0  0  0  0
   24.3262   41.8629   20.3084 C   0  0  0  0  0  0  0  0  0  0  0  0
   23.6495   40.7067   21.0394 C   0  0  0  0  0  0  0  0  0  0  0  0
   24.4113   40.3058   22.3124 C   0  0  0  0  0  0  0  0  0  0  0  0
   23.8006   39.1673   23.0691 N   0  0  0  0  0  0  0  0  0  0  0  0
   25.1866   45.2777   19.4774 O   0  0  0  0  0  0  0  0  0  0  0  0
  2  1  1  1  0  0  0
  2  3  1  0  0  0  0
  2  5  1  0  0  0  0
  3  4  1  0  0  0  0
  3 10  1  0  0  0  0
  5  6  1  0  0  0  0
  6  7  1  0  0  0  0
  7  8  1  0  0  0  0
  8  9  1  0  0  0  0
M  END
>  <CHROM.1>
173.01607070,55.99042832,-179.19463366,179.75758229,-179.55649496,24.20300975
42.63748457,19.99343517,-1.42229564,-1.07961358,2.64274432

>  <Name>
ligand

>  <RI>
0

>  <Rbt.Current_Directory>
/home/itssahil/PROJECTS/Mol_Feturizer/New_Systems/rnas/3D0U

>  <Rbt.Executable>
rbdock ($Id: //depot/dev/client3/rdock/2013.1/src/exe/rbdock.cxx#4 $)

>  <Rbt.Library>
libRbt.so (2013.1, Build901 2013/11/27)

>  <Rbt.Parameter_File>
/export/apps/rDock/src/rDock_2013.1_src/data/scripts/dock_solv.prm

>  <Rbt.Receptor>
prm/pocket_docking_7.prm

>  <SCORE>
-8.70627

>  <SCORE.INTER>
-8.06129

>  <SCORE.INTER.CONST>
1

>  <SCORE.INTER.POLAR>
0

>  <SCORE.INTER.ROT>
5

>  <SCORE.INTER.SOLV>
13.9448

>  <SCORE.INTER.VDW>
-16.9558

>  <SCORE.INTER.norm>
-0.806129

>  <SCORE.INTRA>
-0.644976

>  <SCORE.INTRA.DIHEDRAL>
-0.683295

>  <SCORE.INTRA.DIHEDRAL.0>
2.22229

>  <SCORE.INTRA.POLAR>
0

>  <SCORE.INTRA.POLAR.0>
0

>  <SCORE.INTRA.REPUL>
0

>  <SCORE.INTRA.REPUL.0>
0

>  <SCORE.INTRA.SOLV>
-0.66575

>  <SCORE.INTRA.SOLV.lig_0>
-31.87

>  <SCORE.INTRA.VDW>
0.0295463

>  <SCORE.INTRA.VDW.0>
-0.575321

>  <SCORE.INTRA.norm>
-0.0644976

>  <SCORE.RESTR>
0

>  <SCORE.RESTR.CAVITY>
0

>  <SCORE.RESTR.norm>
0

>  <SCORE.SYSTEM>
0

>  <SCORE.SYSTEM.CONST>
0

>  <SCORE.SYSTEM.DIHEDRAL>
0

>  <SCORE.SYSTEM.SOLV>
0

>  <SCORE.SYSTEM.norm>
0

>  <SCORE.heavy>
10

>  <SCORE.norm>
-0.870627

>  <RMSD>
5.561

$$$$
ligand
 OpenBabel11021811463D
libRbt.so/2013.1/901 2013/11/27
 10  9  0  0  0  0  0  0  0  0999 V2000
   23.9520   42.5938   17.8543 N   0  0  0  0  0  0  0  0  0  0  0  0
   24.1642   43.3224   19.0989 C   0  0  2  0  0  0  0  0  0  0  0  0
   23.9842   44.8248   18.8885 C   0  0  0  0  0  0  0  0  0  0  0  0
   24.7932   45.4481   18.1950 O   0  0  0  0  0  0  0  0  0  0  0  0
   25.5474   43.0136   19.6800 C   0  0  0  0  0  0  0  0  0  0  0  0
   25.6707   41.6039   20.2454 C   0  0  0  0  0  0  0  0  0  0  0  0
   24.7958   41.3977   21.4787 C   0  0  0  0  0  0  0  0  0  0  0  0
   24.8750   39.9565   22.0063 C   0  0  0  0  0  0  0  0  0  0  0  0
   23.9809   39.6723   23.1732 N   0  0  0  0  0  0  0  0  0  0  0  0
   23.0312   45.4380   19.3871 O   0  0  0  0  0  0  0  0  0  0  0  0
  2  1  1  6  0  0  0
  2  3  1  0  0  0  0
  2  5  1  0  0  0  0
  3  4  1  0  0  0  0
  3 10  1  0  0  0  0
  5  6  1  0  0  0  0
  6  7  1  0  0  0  0
  7  8  1  0  0  0  0
  8  9  1  0  0  0  0
M  END
>  <CHROM.1>
-67.58944401,-71.22529430,-66.71277639,177.39489311,-176.89242254,24.47305905
42.76928681,19.98910997,-1.71210361,-0.81088181,2.38274605

>  <Name>
ligand

>  <RI>
0

>  <Rbt.Current_Directory>
/home/itssahil/PROJECTS/Mol_Feturizer/New_Systems/rnas/3D0U

>  <Rbt.Executable>
rbdock ($Id: //depot/dev/client3/rdock/2013.1/src/exe/rbdock.cxx#4 $)

>  <Rbt.Library>
libRbt.so (2013.1, Build901 2013/11/27)

>  <Rbt.Parameter_File>
/export/apps/rDock/src/rDock_2013.1_src/data/scripts/dock_solv.prm

>  <Rbt.Receptor>
prm/blind_docking_60.prm

>  <SCORE>
-8.68824

>  <SCORE.INTER>
-8.47511

>  <SCORE.INTER.CONST>
1

>  <SCORE.INTER.POLAR>
0

>  <SCORE.INTER.ROT>
5

>  <SCORE.INTER.SOLV>
14.4868

>  <SCORE.INTER.VDW>
-17.4123

>  <SCORE.INTER.norm>
-0.847511

>  <SCORE.INTRA>
-0.213137

>  <SCORE.INTRA.DIHEDRAL>
-0.000885705

>  <SCORE.INTRA.DIHEDRAL.0>
2.22229

>  <SCORE.INTRA.POLAR>
0

>  <SCORE.INTRA.POLAR.0>
0

>  <SCORE.INTRA.REPUL>
0

>  <SCORE.INTRA.REPUL.0>
0

>  <SCORE.INTRA.SOLV>
-0.426542

>  <SCORE.INTRA.SOLV.lig_0>
-31.87

>  <SCORE.INTRA.VDW>
0.000577313

>  <SCORE.INTRA.VDW.0>
-0.575321

>  <SCORE.INTRA.norm>
-0.0213137

>  <SCORE.RESTR>
0

>  <SCORE.RESTR.CAVITY>
0

>  <SCORE.RESTR.norm>
0

>  <SCORE.SYSTEM>
0

>  <SCORE.SYSTEM.CONST>
0

>  <SCORE.SYSTEM.DIHEDRAL>
0

>  <SCORE.SYSTEM.SOLV>
0

>  <SCORE.SYSTEM.norm>
0

>  <SCORE.heavy>
10

>  <SCORE.norm>
-0.868824

>  <RMSD>
5.562

$$$$
ligand
 OpenBabel11021811463D
libRbt.so/2013.1/901 2013/11/27
 10  9  0  0  0  0  0  0  0  0999 V2000
   23.9650   42.5659   17.8656 N   0  0  0  0  0  0  0  0  0  0  0  0
   24.1695   43.3228   19.0946 C   0  0  2  0  0  0  0  0  0  0  0  0
   23.9773   44.8188   18.8518 C   0  0  0  0  0  0  0  0  0  0  0  0
   23.0289   45.4085   19.3780 O   0  0  0  0  0  0  0  0  0  0  0  0
   25.5545   43.0382   19.6837 C   0  0  0  0  0  0  0  0  0  0  0  0
   25.6955   41.6345   20.2600 C   0  0  0  0  0  0  0  0  0  0  0  0
   24.7654   41.4016   21.4473 C   0  0  0  0  0  0  0  0  0  0  0  0
   24.8760   39.9691   21.9929 C   0  0  0  0  0  0  0  0  0  0  0  0
   23.9019   39.6424   23.0819 N   0  0  0  0  0  0  0  0  0  0  0  0
   24.7630   45.4657   18.1468 O   0  0  0  0  0  0  0  0  0  0  0  0
  2  1  1  6  0  0  0
  2  3  1  0  0  0  0
  2  5  1  0  0  0  0
  3  4  1  0  0  0  0
  3 10  1  0  0  0  0
  5  6  1  0  0  0  0
  6  7  1  0  0  0  0
  7  8  1  0  0  0  0
  8  9  1  0  0  0  0
M  END
>  <CHROM.1>
113.42768719,-70.33124579,-63.76600793,177.98600641,-174.91444451,24.46298965
42.76883206,19.96851671,-1.69749332,-0.75850146,2.40204075

>  <Name>
ligand

>  <RI>
0

>  <Rbt.Current_Directory>
/home/itssahil/PROJECTS/Mol_Feturizer/New_Systems/rnas/3D0U

>  <Rbt.Executable>
rbdock ($Id: //depot/dev/client3/rdock/2013.1/src/exe/rbdock.cxx#4 $)

>  <Rbt.Library>
libRbt.so (2013.1, Build901 2013/11/27)

>  <Rbt.Parameter_File>
/export/apps/rDock/src/rDock_2013.1_src/data/scripts/dock_solv.prm

>  <Rbt.Receptor>
prm/blind_docking_60.prm

>  <SCORE>
-8.66199

>  <SCORE.INTER>
-8.42071

>  <SCORE.INTER.CONST>
1

>  <SCORE.INTER.POLAR>
0

>  <SCORE.INTER.ROT>
5

>  <SCORE.INTER.SOLV>
14.1903

>  <SCORE.INTER.VDW>
-17.2772

>  <SCORE.INTER.norm>
-0.842071

>  <SCORE.INTRA>
-0.241271

>  <SCORE.INTRA.DIHEDRAL>
-0.127637

>  <SCORE.INTRA.DIHEDRAL.0>
2.22229

>  <SCORE.INTRA.POLAR>
0

>  <SCORE.INTRA.POLAR.0>
0

>  <SCORE.INTRA.REPUL>
0

>  <SCORE.INTRA.REPUL.0>
0

>  <SCORE.INTRA.SOLV>
-0.385068

>  <SCORE.INTRA.SOLV.lig_0>
-31.87

>  <SCORE.INTRA.VDW>
0.0150818

>  <SCORE.INTRA.VDW.0>
-0.575321

>  <SCORE.INTRA.norm>
-0.0241271

>  <SCORE.RESTR>
0

>  <SCORE.RESTR.CAVITY>
0

>  <SCORE.RESTR.norm>
0

>  <SCORE.SYSTEM>
0

>  <SCORE.SYSTEM.CONST>
0

>  <SCORE.SYSTEM.DIHEDRAL>
0

>  <SCORE.SYSTEM.SOLV>
0

>  <SCORE.SYSTEM.norm>
0

>  <SCORE.heavy>
10

>  <SCORE.norm>
-0.866199

>  <RMSD>
5.563

$$$$
ligand
 OpenBabel11021811463D
libRbt.so/2013.1/901 2013/11/27
 10  9  0  0  0  0  0  0  0  0999 V2000
   23.9792   42.5742   17.8577 N   0  0  0  0  0  0  0  0  0  0  0  0
   24.2084   43.3184   19.0901 C   0  0  2  0  0  0  0  0  0  0  0  0
   24.0385   44.8191   18.8602 C   0  0  0  0  0  0  0  0  0  0  0  0
   23.1066   45.4208   19.4021 O   0  0  0  0  0  0  0  0  0  0  0  0
   25.5942   43.0066   19.6632 C   0  0  0  0  0  0  0  0  0  0  0  0
   25.7155   41.5989   20.2342 C   0  0  0  0  0  0  0  0  0  0  0  0
   24.8502   41.4028   21.4759 C   0  0  0  0  0  0  0  0  0  0  0  0
   24.9088   39.9579   21.9961 C   0  0  0  0  0  0  0  0  0  0  0  0
   23.9918   39.6738   23.1450 N   0  0  0  0  0  0  0  0  0  0  0  0
   24.8264   45.4579   18.1503 O   0  0  0  0  0  0  0  0  0  0  0  0
  2  1  1  6  0  0  0
  2  3  1  0  0  0  0
  2  5  1  0  0  0  0
  3  4  1  0  0  0  0
  3 10  1  0  0  0  0
  5  6  1  0  0  0  0
  6  7  1  0  0  0  0
  7  8  1  0  0  0  0
  8  9  1  0  0  0  0
M  END
>  <CHROM.1>
113.55570941,-70.62799045,-66.82000277,176.45541684,-175.14930484,24.51572879
42.76526708,19.97597257,-1.70586000,-0.81372549,2.38634892

>  <Name>
ligand

>  <RI>
0

>  <Rbt.Current_Directory>
/home/itssahil/PROJECTS/Mol_Feturizer/New_Systems/rnas/3D0U

>  <Rbt.Executable>
rbdock ($Id: //depot/dev/client3/rdock/2013.1/src/exe/rbdock.cxx#4 $)

>  <Rbt.Library>
libRbt.so (2013.1, Build901 2013/11/27)

>  <Rbt.Parameter_File>
/export/apps/rDock/src/rDock_2013.1_src/data/scripts/dock_solv.prm

>  <Rbt.Receptor>
prm/pocket_docking_5.prm

>  <SCORE>
-8.63304

>  <SCORE.INTER>
-8.40073

>  <SCORE.INTER.CONST>
1

>  <SCORE.INTER.POLAR>
0

>  <SCORE.INTER.ROT>
5

>  <SCORE.INTER.SOLV>
14.444

>  <SCORE.INTER.VDW>
-17.3485

>  <SCORE.INTER.norm>
-0.840073

>  <SCORE.INTRA>
-0.232309

>  <SCORE.INTRA.DIHEDRAL>
0.0567013

>  <SCORE.INTRA.DIHEDRAL.0>
2.22229

>  <SCORE.INTRA.POLAR>
0

>  <SCORE.INTRA.POLAR.0>
0

>  <SCORE.INTRA.REPUL>
0

>  <SCORE.INTRA.REPUL.0>
0

>  <SCORE.INTRA.SOLV>
-0.425752

>  <SCORE.INTRA.SOLV.lig_0>
-31.87

>  <SCORE.INTRA.VDW>
-0.0477832

>  <SCORE.INTRA.VDW.0>
-0.575321

>  <SCORE.INTRA.norm>
-0.0232309

>  <SCORE.RESTR>
0

>  <SCORE.RESTR.CAVITY>
0

>  <SCORE.RESTR.norm>
0

>  <SCORE.SYSTEM>
0

>  <SCORE.SYSTEM.CONST>
0

>  <SCORE.SYSTEM.DIHEDRAL>
0

>  <SCORE.SYSTEM.SOLV>
0

>  <SCORE.SYSTEM.norm>
0

>  <SCORE.heavy>
10

>  <SCORE.norm>
-0.863304

>  <RMSD>
5.564

$$$$
ligand
 OpenBabel11021811463D
libRbt.so/2013.1/901 2013/11/27
 10  9  0  0  0  0  0  0  0  0999 V2000
   24.9303   42.8969   17.2266 N   0  0  0  0  0  0  0  0  0  0  0  0
   24.3274   43.2554   18.5046 C   0  0  2  0  0  0  0  0  0  0  0  0
   24.2246   44.7724   18.6523 C   0  0  0  0  0  0  0  0  0  0  0  0
   25.1118   45.4951   18.1891 O   0  0  0  0  0  0  0  0  0  0  0  0
   25.1160   42.6451   19.6673 C   0  0  0  0  0  0  0  0  0  0  0  0
   25.1947   41.1240   19.6191 C   0  0  0  0  0  0  0  0  0  0  0  0
   25.9050   40.5435   20.8387 C   0  0  0  0  0  0  0  0  0  0  0  0
   25.0563   40.6699   22.1136 C   0  0  0  0  0  0  0  0  0  0  0  0
   23.7827   39.8830   22.0924 N   0  0  0  0  0  0  0  0  0  0  0  0
   23.2586   45.3032   19.2162 O   0  0  0  0  0  0  0  0  0  0  0  0
  2  1  1  6  0  0  0
  2  3  1  0  0  0  0
  2  5  1  0  0  0  0
  3  4  1  0  0  0  0
  3 10  1  0  0  0  0
  5  6  1  0  0  0  0
  6  7  1  0  0  0  0
  7  8  1  0  0  0  0
  8  9  1  0  0  0  0
M  END
>  <CHROM.1>
-35.58642922,-59.37690701,-176.16222810,71.05237147,64.53669052,24.68595375
42.70138491,19.60818412,-1.72881743,-0.95147412,2.39710084

>  <Name>
ligand

>  <RI>
0

>  <Rbt.Current_Directory>
/home/itssahil/PROJECTS/Mol_Feturizer/New_Systems/rnas/3D0U

>  <Rbt.Executable>
rbdock ($Id: //depot/dev/client3/rdock/2013.1/src/exe/rbdock.cxx#4 $)

>  <Rbt.Library>
libRbt.so (2013.1, Build901 2013/11/27)

>  <Rbt.Parameter_File>
/export/apps/rDock/src/rDock_2013.1_src/data/scripts/dock_solv.prm

>  <Rbt.Receptor>
prm/pocket_docking_4.prm

>  <SCORE>
-8.20438

>  <SCORE.INTER>
-8.70223

>  <SCORE.INTER.CONST>
1

>  <SCORE.INTER.POLAR>
0

>  <SCORE.INTER.ROT>
5

>  <SCORE.INTER.SOLV>
15.1989

>  <SCORE.INTER.VDW>
-17.8011

>  <SCORE.INTER.norm>
-0.870223

>  <SCORE.INTRA>
0.497847

>  <SCORE.INTRA.DIHEDRAL>
-0.077963

>  <SCORE.INTRA.DIHEDRAL.0>
2.22229

>  <SCORE.INTRA.POLAR>
0

>  <SCORE.INTRA.POLAR.0>
0

>  <SCORE.INTRA.REPUL>
0

>  <SCORE.INTRA.REPUL.0>
0

>  <SCORE.INTRA.SOLV>
0.584534

>  <SCORE.INTRA.SOLV.lig_0>
-31.87

>  <SCORE.INTRA.VDW>
0.244562

>  <SCORE.INTRA.VDW.0>
-0.575321

>  <SCORE.INTRA.norm>
0.0497847

>  <SCORE.RESTR>
0

>  <SCORE.RESTR.CAVITY>
0

>  <SCORE.RESTR.norm>
0

>  <SCORE.SYSTEM>
0

>  <SCORE.SYSTEM.CONST>
0

>  <SCORE.SYSTEM.DIHEDRAL>
0

>  <SCORE.SYSTEM.SOLV>
0

>  <SCORE.SYSTEM.norm>
0

>  <SCORE.heavy>
10

>  <SCORE.norm>
-0.820438

>  <RMSD>
5.567

$$$$
ligand
 OpenBabel11021811463D
libRbt.so/2013.1/901 2013/11/27
 10  9  0  0  0  0  0  0  0  0999 V2000
   23.9534   42.6226   17.8365 N   0  0  0  0  0  0  0  0  0  0  0  0
   24.1641   43.3551   19.0792 C   0  0  2  0  0  0  0  0  0  0  0  0
   24.0023   44.8583   18.8599 C   0  0  0  0  0  0  0  0  0  0  0  0
   24.8151   45.4664   18.1574 O   0  0  0  0  0  0  0  0  0  0  0  0
   25.5392   43.0340   19.6725 C   0  0  0  0  0  0  0  0  0  0  0  0
   25.6832   41.5878   20.1307 C   0  0  0  0  0  0  0  0  0  0  0  0
   24.7350   41.2481   21.2772 C   0  0  0  0  0  0  0  0  0  0  0  0
   24.9426   39.8145   21.7904 C   0  0  0  0  0  0  0  0  0  0  0  0
   23.9753   39.3882   22.8508 N   0  0  0  0  0  0  0  0  0  0  0  0
   23.0604   45.4872   19.3602 O   0  0  0  0  0  0  0  0  0  0  0  0
  2  1  1  6  0  0  0
  2  3  1  0  0  0  0
  2  5  1  0  0  0  0
  3  4  1  0  0  0  0
  3 10  1  0  0  0  0
  5  6  1  0  0  0  0
  6  7  1  0  0  0  0
  7  8  1  0  0  0  0
  8  9  1  0  0  0  0
M  END
>  <CHROM.1>
-66.77863561,-65.97798661,-64.01471643,-176.61219430,-175.86199704,24.48108483
42.72892287,19.89015231,-1.70116024,-0.74642674,2.45422103

>  <Name>
ligand

>  <RI>
0

>  <Rbt.Current_Directory>
/home/itssahil/PROJECTS/Mol_Feturizer/New_Systems/rnas/3D0U

>  <Rbt.Executable>
rbdock ($Id: //depot/dev/client3/rdock/2013.1/src/exe/rbdock.cxx#4 $)

>  <Rbt.Library>
libRbt.so (2013.1, Build901 2013/11/27)

>  <Rbt.Parameter_File>
/export/apps/rDock/src/rDock_2013.1_src/data/scripts/dock_solv.prm

>  <Rbt.Receptor>
prm/pocket_docking_6.prm

>  <SCORE>
-8.53524

>  <SCORE.INTER>
-8.26002

>  <SCORE.INTER.CONST>
1

>  <SCORE.INTER.POLAR>
0

>  <SCORE.INTER.ROT>
5

>  <SCORE.INTER.SOLV>
13.9961

>  <SCORE.INTER.VDW>
-17.1054

>  <SCORE.INTER.norm>
-0.826002

>  <SCORE.INTRA>
-0.275223

>  <SCORE.INTRA.DIHEDRAL>
-0.426132

>  <SCORE.INTRA.DIHEDRAL.0>
2.22229

>  <SCORE.INTRA.POLAR>
0

>  <SCORE.INTRA.POLAR.0>
0

>  <SCORE.INTRA.REPUL>
0

>  <SCORE.INTRA.REPUL.0>
0

>  <SCORE.INTRA.SOLV>
-0.295967

>  <SCORE.INTRA.SOLV.lig_0>
-31.87

>  <SCORE.INTRA.VDW>
0.0858258

>  <SCORE.INTRA.VDW.0>
-0.575321

>  <SCORE.INTRA.norm>
-0.0275223

>  <SCORE.RESTR>
0

>  <SCORE.RESTR.CAVITY>
0

>  <SCORE.RESTR.norm>
0

>  <SCORE.SYSTEM>
0

>  <SCORE.SYSTEM.CONST>
0

>  <SCORE.SYSTEM.DIHEDRAL>
0

>  <SCORE.SYSTEM.SOLV>
0

>  <SCORE.SYSTEM.norm>
0

>  <SCORE.heavy>
10

>  <SCORE.norm>
-0.853524

>  <RMSD>
5.571

$$$$
ligand
 OpenBabel11021811463D
libRbt.so/2013.1/901 2013/11/27
 10  9  0  0  0  0  0  0  0  0999 V2000
   25.6481   43.1603   17.8901 N   0  0  0  0  0  0  0  0  0  0  0  0
   24.2655   43.4663   18.2364 C   0  0  2  0  0  0  0  0  0  0  0  0
   24.1791   44.7616   19.0417 C   0  0  0  0  0  0  0  0  0  0  0  0
   25.2113   45.2912   19.4638 O   0  0  0  0  0  0  0  0  0  0  0  0
   23.6270   42.3031   19.0016 C   0  0  0  0  0  0  0  0  0  0  0  0
   24.3550   41.9499   20.2929 C   0  0  0  0  0  0  0  0  0  0  0  0
   23.7396   40.7400   20.9904 C   0  0  0  0  0  0  0  0  0  0  0  0
   24.4664   40.3998   22.3011 C   0  0  0  0  0  0  0  0  0  0  0  0
   23.8661   39.2618   23.0668 N   0  0  0  0  0  0  0  0  0  0  0  0
   23.0925   45.3085   19.2723 O   0  0  0  0  0  0  0  0  0  0  0  0
  2  1  1  1  0  0  0
  2  3  1  0  0  0  0
  2  5  1  0  0  0  0
  3  4  1  0  0  0  0
  3 10  1  0  0  0  0
  5  6  1  0  0  0  0
  6  7  1  0  0  0  0
  7  8  1  0  0  0  0
  8  9  1  0  0  0  0
M  END
>  <CHROM.1>
-9.79634373,58.91350496,-176.86094790,-179.25746446,177.13331294,24.24313032
42.70265475,19.96446171,-1.43451463,-1.10339207,2.62702725

>  <Name>
ligand

>  <RI>
0

>  <Rbt.Current_Directory>
/home/itssahil/PROJECTS/Mol_Feturizer/New_Systems/rnas/3D0U

>  <Rbt.Executable>
rbdock ($Id: //depot/dev/client3/rdock/2013.1/src/exe/rbdock.cxx#4 $)

>  <Rbt.Library>
libRbt.so (2013.1, Build901 2013/11/27)

>  <Rbt.Parameter_File>
/export/apps/rDock/src/rDock_2013.1_src/data/scripts/dock_solv.prm

>  <Rbt.Receptor>
prm/pocket_docking_4.prm

>  <SCORE>
-8.74884

>  <SCORE.INTER>
-8.10266

>  <SCORE.INTER.CONST>
1

>  <SCORE.INTER.POLAR>
0

>  <SCORE.INTER.ROT>
5

>  <SCORE.INTER.SOLV>
14.1594

>  <SCORE.INTER.VDW>
-17.0549

>  <SCORE.INTER.norm>
-0.810266

>  <SCORE.INTRA>
-0.646184

>  <SCORE.INTRA.DIHEDRAL>
-0.647164

>  <SCORE.INTRA.DIHEDRAL.0>
2.22229

>  <SCORE.INTRA.POLAR>
0

>  <SCORE.INTRA.POLAR.0>
0

>  <SCORE.INTRA.REPUL>
0

>  <SCORE.INTRA.REPUL.0>
0

>  <SCORE.INTRA.SOLV>
-0.67816

>  <SCORE.INTRA.SOLV.lig_0>
-31.87

>  <SCORE.INTRA.VDW>
0.0164784

>  <SCORE.INTRA.VDW.0>
-0.575321

>  <SCORE.INTRA.norm>
-0.0646184

>  <SCORE.RESTR>
0

>  <SCORE.RESTR.CAVITY>
0

>  <SCORE.RESTR.norm>
0

>  <SCORE.SYSTEM>
0

>  <SCORE.SYSTEM.CONST>
0

>  <SCORE.SYSTEM.DIHEDRAL>
0

>  <SCORE.SYSTEM.SOLV>
0

>  <SCORE.SYSTEM.norm>
0

>  <SCORE.heavy>
10

>  <SCORE.norm>
-0.874884

>  <RMSD>
5.578

$$$$
ligand
 OpenBabel11021811463D
libRbt.so/2013.1/901 2013/11/27
 10  9  0  0  0  0  0  0  0  0999 V2000
   23.9728   42.5694   17.7876 N   0  0  0  0  0  0  0  0  0  0  0  0
   24.2567   43.3065   19.0128 C   0  0  2  0  0  0  0  0  0  0  0  0
   24.1047   44.8105   18.7918 C   0  0  0  0  0  0  0  0  0  0  0  0
   23.1768   45.4190   19.3327 O   0  0  0  0  0  0  0  0  0  0  0  0
   25.6558   42.9697   19.5375 C   0  0  0  0  0  0  0  0  0  0  0  0
   25.7610   41.5750   20.1424 C   0  0  0  0  0  0  0  0  0  0  0  0
   24.9011   41.4219   21.3939 C   0  0  0  0  0  0  0  0  0  0  0  0
   24.9336   39.9868   21.9427 C   0  0  0  0  0  0  0  0  0  0  0  0
   24.0325   39.7494   23.1146 N   0  0  0  0  0  0  0  0  0  0  0  0
   24.9035   45.4449   18.0902 O   0  0  0  0  0  0  0  0  0  0  0  0
  2  1  1  6  0  0  0
  2  3  1  0  0  0  0
  2  5  1  0  0  0  0
  3  4  1  0  0  0  0
  3 10  1  0  0  0  0
  5  6  1  0  0  0  0
  6  7  1  0  0  0  0
  7  8  1  0  0  0  0
  8  9  1  0  0  0  0
M  END
>  <CHROM.1>
111.25424368,-72.50130360,-64.65008893,175.99131121,-175.88570073,24.56408398
42.76748435,19.90330735,-1.70241752,-0.82680838,2.37984045

>  <Name>
ligand

>  <RI>
0

>  <Rbt.Current_Directory>
/home/itssahil/PROJECTS/Mol_Feturizer/New_Systems/rnas/3D0U

>  <Rbt.Executable>
rbdock ($Id: //depot/dev/client3/rdock/2013.1/src/exe/rbdock.cxx#4 $)

>  <Rbt.Library>
libRbt.so (2013.1, Build901 2013/11/27)

>  <Rbt.Parameter_File>
/export/apps/rDock/src/rDock_2013.1_src/data/scripts/dock_solv.prm

>  <Rbt.Receptor>
prm/pocket_docking_4.prm

>  <SCORE>
-8.62062

>  <SCORE.INTER>
-8.46049

>  <SCORE.INTER.CONST>
1

>  <SCORE.INTER.POLAR>
0

>  <SCORE.INTER.ROT>
5

>  <SCORE.INTER.SOLV>
14.6114

>  <SCORE.INTER.VDW>
-17.4441

>  <SCORE.INTER.norm>
-0.846049

>  <SCORE.INTRA>
-0.160131

>  <SCORE.INTRA.DIHEDRAL>
0.111881

>  <SCORE.INTRA.DIHEDRAL.0>
2.22229

>  <SCORE.INTRA.POLAR>
0

>  <SCORE.INTRA.POLAR.0>
0

>  <SCORE.INTRA.REPUL>
0

>  <SCORE.INTRA.REPUL.0>
0

>  <SCORE.INTRA.SOLV>
-0.437016

>  <SCORE.INTRA.SOLV.lig_0>
-31.87

>  <SCORE.INTRA.VDW>
0.00243674

>  <SCORE.INTRA.VDW.0>
-0.575321

>  <SCORE.INTRA.norm>
-0.0160131

>  <SCORE.RESTR>
0

>  <SCORE.RESTR.CAVITY>
0

>  <SCORE.RESTR.norm>
0

>  <SCORE.SYSTEM>
0

>  <SCORE.SYSTEM.CONST>
0

>  <SCORE.SYSTEM.DIHEDRAL>
0

>  <SCORE.SYSTEM.SOLV>
0

>  <SCORE.SYSTEM.norm>
0

>  <SCORE.heavy>
10

>  <SCORE.norm>
-0.862062

>  <RMSD>
5.578

$$$$
ligand
 OpenBabel11021811463D
libRbt.so/2013.1/901 2013/11/27
 10  9  0  0  0  0  0  0  0  0999 V2000
   24.5330   43.6720   19.4867 N   0  0  0  0  0  0  0  0  0  0  0  0
   25.3128   42.4565   19.2874 C   0  0  2  0  0  0  0  0  0  0  0  0
   25.5181   42.1784   17.7994 C   0  0  0  0  0  0  0  0  0  0  0  0
   24.7879   42.7244   16.9671 O   0  0  0  0  0  0  0  0  0  0  0  0
   24.6459   41.2638   19.9796 C   0  0  0  0  0  0  0  0  0  0  0  0
   24.5522   41.4113   21.4934 C   0  0  0  0  0  0  0  0  0  0  0  0
   23.9320   40.1844   22.1560 C   0  0  0  0  0  0  0  0  0  0  0  0
   23.7946   40.3590   23.6766 C   0  0  0  0  0  0  0  0  0  0  0  0
   23.2303   39.1696   24.3898 N   0  0  0  0  0  0  0  0  0  0  0  0
   26.4155   41.4246   17.4002 O   0  0  0  0  0  0  0  0  0  0  0  0
  2  1  1  6  0  0  0
  2  3  1  0  0  0  0
  2  5  1  0  0  0  0
  3  4  1  0  0  0  0
  3 10  1  0  0  0  0
  5  6  1  0  0  0  0
  6  7  1  0  0  0  0
  7  8  1  0  0  0  0
  8  9  1  0  0  0  0
M  END
>  <CHROM.1>
-18.19997161,-62.82883087,-177.81680212,-177.98452690,-178.20070266,24.68177710
41.48406033,20.21922016,0.95548584,1.08360319,-0.61267515

>  <Name>
ligand

>  <RI>
0

>  <Rbt.Current_Directory>
/home/itssahil/PROJECTS/Mol_Feturizer/New_Systems/rnas/3D0U

>  <Rbt.Executable>
rbdock ($Id: //depot/dev/client3/rdock/2013.1/src/exe/rbdock.cxx#4 $)

>  <Rbt.Library>
libRbt.so (2013.1, Build901 2013/11/27)

>  <Rbt.Parameter_File>
/export/apps/rDock/src/rDock_2013.1_src/data/scripts/dock_solv.prm

>  <Rbt.Receptor>
prm/pocket_docking_4.prm

>  <SCORE>
-9.4492

>  <SCORE.INTER>
-8.62913

>  <SCORE.INTER.CONST>
1

>  <SCORE.INTER.POLAR>
0

>  <SCORE.INTER.ROT>
5

>  <SCORE.INTER.SOLV>
12.8357

>  <SCORE.INTER.VDW>
-16.9647

>  <SCORE.INTER.norm>
-0.862913

>  <SCORE.INTRA>
-0.820074

>  <SCORE.INTRA.DIHEDRAL>
-0.632741

>  <SCORE.INTRA.DIHEDRAL.0>
2.22229

>  <SCORE.INTRA.POLAR>
0

>  <SCORE.INTRA.POLAR.0>
0

>  <SCORE.INTRA.REPUL>
0

>  <SCORE.INTRA.REPUL.0>
0

>  <SCORE.INTRA.SOLV>
-0.746885

>  <SCORE.INTRA.SOLV.lig_0>
-31.87

>  <SCORE.INTRA.VDW>
-0.130261

>  <SCORE.INTRA.VDW.0>
-0.575321

>  <SCORE.INTRA.norm>
-0.0820074

>  <SCORE.RESTR>
0

>  <SCORE.RESTR.CAVITY>
0

>  <SCORE.RESTR.norm>
0

>  <SCORE.SYSTEM>
0

>  <SCORE.SYSTEM.CONST>
0

>  <SCORE.SYSTEM.DIHEDRAL>
0

>  <SCORE.SYSTEM.SOLV>
0

>  <SCORE.SYSTEM.norm>
0

>  <SCORE.heavy>
10

>  <SCORE.norm>
-0.94492

>  <RMSD>
5.588

$$$$
ligand
 OpenBabel11021811463D
libRbt.so/2013.1/901 2013/11/27
 10  9  0  0  0  0  0  0  0  0999 V2000
   25.3094   42.4745   16.9110 N   0  0  0  0  0  0  0  0  0  0  0  0
   24.4365   42.4909   18.0785 C   0  0  2  0  0  0  0  0  0  0  0  0
   24.2900   43.9081   18.6297 C   0  0  0  0  0  0  0  0  0  0  0  0
   25.2110   44.7182   18.4909 O   0  0  0  0  0  0  0  0  0  0  0  0
   24.9547   41.5353   19.1576 C   0  0  0  0  0  0  0  0  0  0  0  0
   24.0333   41.4226   20.3661 C   0  0  0  0  0  0  0  0  0  0  0  0
   24.6094   40.5147   21.4491 C   0  0  0  0  0  0  0  0  0  0  0  0
   23.7140   40.4676   22.6972 C   0  0  0  0  0  0  0  0  0  0  0  0
   24.2184   39.5771   23.7901 N   0  0  0  0  0  0  0  0  0  0  0  0
   23.2565   44.2748   19.2044 O   0  0  0  0  0  0  0  0  0  0  0  0
  2  1  1  6  0  0  0
  2  3  1  0  0  0  0
  2  5  1  0  0  0  0
  3  4  1  0  0  0  0
  3 10  1  0  0  0  0
  5  6  1  0  0  0  0
  6  7  1  0  0  0  0
  7  8  1  0  0  0  0
  8  9  1  0  0  0  0
M  END
>  <CHROM.1>
-29.36037762,-175.65607736,-177.33501841,176.78052405,179.22884793,24.39986041
42.17682256,19.87920967,-1.36740082,-1.11360509,2.40703313

>  <Name>
ligand

>  <RI>
0

>  <Rbt.Current_Directory>
/home/itssahil/PROJECTS/Mol_Feturizer/New_Systems/rnas/3D0U

>  <Rbt.Executable>
rbdock ($Id: //depot/dev/client3/rdock/2013.1/src/exe/rbdock.cxx#4 $)

>  <Rbt.Library>
libRbt.so (2013.1, Build901 2013/11/27)

>  <Rbt.Parameter_File>
/export/apps/rDock/src/rDock_2013.1_src/data/scripts/dock_solv.prm

>  <Rbt.Receptor>
prm/blind_docking_60.prm

>  <SCORE>
-7.8499

>  <SCORE.INTER>
-6.61186

>  <SCORE.INTER.CONST>
1

>  <SCORE.INTER.POLAR>
0

>  <SCORE.INTER.ROT>
5

>  <SCORE.INTER.SOLV>
18.4469

>  <SCORE.INTER.VDW>
-17.4902

>  <SCORE.INTER.norm>
-0.661186

>  <SCORE.INTRA>
-1.23805

>  <SCORE.INTRA.DIHEDRAL>
-0.571372

>  <SCORE.INTRA.DIHEDRAL.0>
2.22229

>  <SCORE.INTRA.POLAR>
0

>  <SCORE.INTRA.POLAR.0>
0

>  <SCORE.INTRA.REPUL>
0

>  <SCORE.INTRA.REPUL.0>
0

>  <SCORE.INTRA.SOLV>
-1.59311

>  <SCORE.INTRA.SOLV.lig_0>
-31.87

>  <SCORE.INTRA.VDW>
-0.155804

>  <SCORE.INTRA.VDW.0>
-0.575321

>  <SCORE.INTRA.norm>
-0.123805

>  <SCORE.RESTR>
0

>  <SCORE.RESTR.CAVITY>
0

>  <SCORE.RESTR.norm>
0

>  <SCORE.SYSTEM>
0

>  <SCORE.SYSTEM.CONST>
0

>  <SCORE.SYSTEM.DIHEDRAL>
0

>  <SCORE.SYSTEM.SOLV>
0

>  <SCORE.SYSTEM.norm>
0

>  <SCORE.heavy>
10

>  <SCORE.norm>
-0.78499

>  <RMSD>
5.591

$$$$
ligand
 OpenBabel11021811463D
libRbt.so/2013.1/901 2013/11/27
 10  9  0  0  0  0  0  0  0  0999 V2000
   25.2858   42.4786   16.8997 N   0  0  0  0  0  0  0  0  0  0  0  0
   24.4263   42.5017   18.0769 C   0  0  2  0  0  0  0  0  0  0  0  0
   24.2929   43.9208   18.6266 C   0  0  0  0  0  0  0  0  0  0  0  0
   23.2822   44.2409   19.2590 O   0  0  0  0  0  0  0  0  0  0  0  0
   24.9521   41.5460   19.1522 C   0  0  0  0  0  0  0  0  0  0  0  0
   24.0232   41.4075   20.3523 C   0  0  0  0  0  0  0  0  0  0  0  0
   24.6161   40.5188   21.4421 C   0  0  0  0  0  0  0  0  0  0  0  0
   23.7076   40.4411   22.6791 C   0  0  0  0  0  0  0  0  0  0  0  0
   24.2106   39.5395   23.7634 N   0  0  0  0  0  0  0  0  0  0  0  0
   25.1865   44.7628   18.4669 O   0  0  0  0  0  0  0  0  0  0  0  0
  2  1  1  6  0  0  0
  2  3  1  0  0  0  0
  2  5  1  0  0  0  0
  3  4  1  0  0  0  0
  3 10  1  0  0  0  0
  5  6  1  0  0  0  0
  6  7  1  0  0  0  0
  7  8  1  0  0  0  0
  8  9  1  0  0  0  0
M  END
>  <CHROM.1>
153.13248528,-173.88473226,-176.39371400,177.06678893,177.71424268,24.39494078
42.17412552,19.87407885,-1.35903292,-1.12774585,2.42271100

>  <Name>
ligand

>  <RI>
0

>  <Rbt.Current_Directory>
/home/itssahil/PROJECTS/Mol_Feturizer/New_Systems/rnas/3D0U

>  <Rbt.Executable>
rbdock ($Id: //depot/dev/client3/rdock/2013.1/src/exe/rbdock.cxx#4 $)

>  <Rbt.Library>
libRbt.so (2013.1, Build901 2013/11/27)

>  <Rbt.Parameter_File>
/export/apps/rDock/src/rDock_2013.1_src/data/scripts/dock_solv.prm

>  <Rbt.Receptor>
prm/pocket_docking_5.prm

>  <SCORE>
-7.91231

>  <SCORE.INTER>
-6.65106

>  <SCORE.INTER.CONST>
1

>  <SCORE.INTER.POLAR>
0

>  <SCORE.INTER.ROT>
5

>  <SCORE.INTER.SOLV>
18.4121

>  <SCORE.INTER.VDW>
-17.5047

>  <SCORE.INTER.norm>
-0.665106

>  <SCORE.INTRA>
-1.26159

>  <SCORE.INTRA.DIHEDRAL>
-0.529028

>  <SCORE.INTRA.DIHEDRAL.0>
2.22229

>  <SCORE.INTRA.POLAR>
0

>  <SCORE.INTRA.POLAR.0>
0

>  <SCORE.INTRA.REPUL>
0

>  <SCORE.INTRA.REPUL.0>
0

>  <SCORE.INTRA.SOLV>
-1.60411

>  <SCORE.INTRA.SOLV.lig_0>
-31.87

>  <SCORE.INTRA.VDW>
-0.195018

>  <SCORE.INTRA.VDW.0>
-0.575321

>  <SCORE.INTRA.norm>
-0.126159

>  <SCORE.RESTR>
0.00033993

>  <SCORE.RESTR.CAVITY>
0.00033993

>  <SCORE.RESTR.norm>
3.3993e-05

>  <SCORE.SYSTEM>
0

>  <SCORE.SYSTEM.CONST>
0

>  <SCORE.SYSTEM.DIHEDRAL>
0

>  <SCORE.SYSTEM.SOLV>
0

>  <SCORE.SYSTEM.norm>
0

>  <SCORE.heavy>
10

>  <SCORE.norm>
-0.791231

>  <RMSD>
5.592

$$$$
ligand
 OpenBabel11021811463D
libRbt.so/2013.1/901 2013/11/27
 10  9  0  0  0  0  0  0  0  0999 V2000
   25.4506   42.9007   17.5232 N   0  0  0  0  0  0  0  0  0  0  0  0
   24.4622   43.1271   18.5706 C   0  0  2  0  0  0  0  0  0  0  0  0
   24.1873   44.6194   18.7473 C   0  0  0  0  0  0  0  0  0  0  0  0
   24.9837   45.4473   18.2953 O   0  0  0  0  0  0  0  0  0  0  0  0
   24.9146   42.4945   19.8902 C   0  0  0  0  0  0  0  0  0  0  0  0
   25.2031   41.0019   19.7838 C   0  0  0  0  0  0  0  0  0  0  0  0
   25.4223   40.3572   21.1496 C   0  0  0  0  0  0  0  0  0  0  0  0
   24.1301   40.3153   21.9804 C   0  0  0  0  0  0  0  0  0  0  0  0
   24.2584   39.6064   23.2929 N   0  0  0  0  0  0  0  0  0  0  0  0
   23.1699   45.0257   19.3241 O   0  0  0  0  0  0  0  0  0  0  0  0
  2  1  1  6  0  0  0
  2  3  1  0  0  0  0
  2  5  1  0  0  0  0
  3  4  1  0  0  0  0
  3 10  1  0  0  0  0
  5  6  1  0  0  0  0
  6  7  1  0  0  0  0
  7  8  1  0  0  0  0
  8  9  1  0  0  0  0
M  END
>  <CHROM.1>
-17.43591814,-56.53043118,-170.41904005,68.68526861,175.86870506,24.61029736
42.53170845,19.85136078,-1.61539283,-0.90372803,2.43337965

>  <Name>
ligand

>  <RI>
0

>  <Rbt.Current_Directory>
/home/itssahil/PROJECTS/Mol_Feturizer/New_Systems/rnas/3D0U

>  <Rbt.Executable>
rbdock ($Id: //depot/dev/client3/rdock/2013.1/src/exe/rbdock.cxx#4 $)

>  <Rbt.Library>
libRbt.so (2013.1, Build901 2013/11/27)

>  <Rbt.Parameter_File>
/export/apps/rDock/src/rDock_2013.1_src/data/scripts/dock_solv.prm

>  <Rbt.Receptor>
prm/pocket_docking_6.prm

>  <SCORE>
-7.88941

>  <SCORE.INTER>
-8.09798

>  <SCORE.INTER.CONST>
1

>  <SCORE.INTER.POLAR>
0

>  <SCORE.INTER.ROT>
5

>  <SCORE.INTER.SOLV>
15.5543

>  <SCORE.INTER.VDW>
-17.5168

>  <SCORE.INTER.norm>
-0.809798

>  <SCORE.INTRA>
0.208563

>  <SCORE.INTRA.DIHEDRAL>
0.0746019

>  <SCORE.INTRA.DIHEDRAL.0>
2.22229

>  <SCORE.INTRA.POLAR>
0

>  <SCORE.INTRA.POLAR.0>
0

>  <SCORE.INTRA.REPUL>
0

>  <SCORE.INTRA.REPUL.0>
0

>  <SCORE.INTRA.SOLV>
-0.523135

>  <SCORE.INTRA.SOLV.lig_0>
-31.87

>  <SCORE.INTRA.VDW>
0.43283

>  <SCORE.INTRA.VDW.0>
-0.575321

>  <SCORE.INTRA.norm>
0.0208563

>  <SCORE.RESTR>
0

>  <SCORE.RESTR.CAVITY>
0

>  <SCORE.RESTR.norm>
0

>  <SCORE.SYSTEM>
0

>  <SCORE.SYSTEM.CONST>
0

>  <SCORE.SYSTEM.DIHEDRAL>
0

>  <SCORE.SYSTEM.SOLV>
0

>  <SCORE.SYSTEM.norm>
0

>  <SCORE.heavy>
10

>  <SCORE.norm>
-0.788941

>  <RMSD>
5.592

$$$$
ligand
 OpenBabel11021811463D
libRbt.so/2013.1/901 2013/11/27
 10  9  0  0  0  0  0  0  0  0999 V2000
   25.0223   42.8872   17.2254 N   0  0  0  0  0  0  0  0  0  0  0  0
   24.3921   43.2768   18.4809 C   0  0  2  0  0  0  0  0  0  0  0  0
   24.3299   44.7977   18.6106 C   0  0  0  0  0  0  0  0  0  0  0  0
   23.3578   45.3273   19.1570 O   0  0  0  0  0  0  0  0  0  0  0  0
   25.1269   42.6561   19.6730 C   0  0  0  0  0  0  0  0  0  0  0  0
   25.2005   41.1350   19.6193 C   0  0  0  0  0  0  0  0  0  0  0  0
   25.8962   40.5468   20.8437 C   0  0  0  0  0  0  0  0  0  0  0  0
   25.0330   40.6673   22.1095 C   0  0  0  0  0  0  0  0  0  0  0  0
   23.7672   39.8683   22.0764 N   0  0  0  0  0  0  0  0  0  0  0  0
   25.2439   45.5204   18.1919 O   0  0  0  0  0  0  0  0  0  0  0  0
  2  1  1  6  0  0  0
  2  3  1  0  0  0  0
  2  5  1  0  0  0  0
  3  4  1  0  0  0  0
  3 10  1  0  0  0  0
  5  6  1  0  0  0  0
  6  7  1  0  0  0  0
  7  8  1  0  0  0  0
  8  9  1  0  0  0  0
M  END
>  <CHROM.1>
144.37391530,-57.53132966,-178.05094022,71.22698054,65.27758441,24.73316293
42.71094240,19.59502869,-1.68785053,-0.95687357,2.43011654

>  <Name>
ligand

>  <RI>
0

>  <Rbt.Current_Directory>
/home/itssahil/PROJECTS/Mol_Feturizer/New_Systems/rnas/3D0U

>  <Rbt.Executable>
rbdock ($Id: //depot/dev/client3/rdock/2013.1/src/exe/rbdock.cxx#4 $)

>  <Rbt.Library>
libRbt.so (2013.1, Build901 2013/11/27)

>  <Rbt.Parameter_File>
/export/apps/rDock/src/rDock_2013.1_src/data/scripts/dock_solv.prm

>  <Rbt.Receptor>
prm/pocket_docking_7.prm

>  <SCORE>
-8.26711

>  <SCORE.INTER>
-8.73777

>  <SCORE.INTER.CONST>
1

>  <SCORE.INTER.POLAR>
0

>  <SCORE.INTER.ROT>
5

>  <SCORE.INTER.SOLV>
15.2648

>  <SCORE.INTER.VDW>
-17.8468

>  <SCORE.INTER.norm>
-0.873777

>  <SCORE.INTRA>
0.470658

>  <SCORE.INTRA.DIHEDRAL>
-0.120275

>  <SCORE.INTRA.DIHEDRAL.0>
2.22229

>  <SCORE.INTRA.POLAR>
0

>  <SCORE.INTRA.POLAR.0>
0

>  <SCORE.INTRA.REPUL>
0

>  <SCORE.INTRA.REPUL.0>
0

>  <SCORE.INTRA.SOLV>
0.58454

>  <SCORE.INTRA.SOLV.lig_0>
-31.87

>  <SCORE.INTRA.VDW>
0.238526

>  <SCORE.INTRA.VDW.0>
-0.575321

>  <SCORE.INTRA.norm>
0.0470658

>  <SCORE.RESTR>
0

>  <SCORE.RESTR.CAVITY>
0

>  <SCORE.RESTR.norm>
0

>  <SCORE.SYSTEM>
0

>  <SCORE.SYSTEM.CONST>
0

>  <SCORE.SYSTEM.DIHEDRAL>
0

>  <SCORE.SYSTEM.SOLV>
0

>  <SCORE.SYSTEM.norm>
0

>  <SCORE.heavy>
10

>  <SCORE.norm>
-0.826711

>  <RMSD>
5.593

$$$$
ligand
 OpenBabel11021811463D
libRbt.so/2013.1/901 2013/11/27
 10  9  0  0  0  0  0  0  0  0999 V2000
   25.2822   42.4421   16.9008 N   0  0  0  0  0  0  0  0  0  0  0  0
   24.4382   42.5051   18.0877 C   0  0  2  0  0  0  0  0  0  0  0  0
   24.3491   43.9350   18.6180 C   0  0  0  0  0  0  0  0  0  0  0  0
   23.3428   44.2992   19.2332 O   0  0  0  0  0  0  0  0  0  0  0  0
   24.9519   41.5514   19.1708 C   0  0  0  0  0  0  0  0  0  0  0  0
   24.0278   41.4446   20.3778 C   0  0  0  0  0  0  0  0  0  0  0  0
   24.5859   40.5154   21.4520 C   0  0  0  0  0  0  0  0  0  0  0  0
   23.6962   40.4838   22.7047 C   0  0  0  0  0  0  0  0  0  0  0  0
   24.1513   39.5306   23.7658 N   0  0  0  0  0  0  0  0  0  0  0  0
   25.2742   44.7424   18.4592 O   0  0  0  0  0  0  0  0  0  0  0  0
  2  1  1  6  0  0  0
  2  3  1  0  0  0  0
  2  5  1  0  0  0  0
  3  4  1  0  0  0  0
  3 10  1  0  0  0  0
  5  6  1  0  0  0  0
  6  7  1  0  0  0  0
  7  8  1  0  0  0  0
  8  9  1  0  0  0  0
M  END
>  <CHROM.1>
151.61332939,-173.31772289,-178.53609978,176.22411537,176.76990784,24.40770621
42.18357564,19.87881992,-1.32017716,-1.14471839,2.45778351

>  <Name>
ligand

>  <RI>
0

>  <Rbt.Current_Directory>
/home/itssahil/PROJECTS/Mol_Feturizer/New_Systems/rnas/3D0U

>  <Rbt.Executable>
rbdock ($Id: //depot/dev/client3/rdock/2013.1/src/exe/rbdock.cxx#4 $)

>  <Rbt.Library>
libRbt.so (2013.1, Build901 2013/11/27)

>  <Rbt.Parameter_File>
/export/apps/rDock/src/rDock_2013.1_src/data/scripts/dock_solv.prm

>  <Rbt.Receptor>
prm/pocket_docking_4.prm

>  <SCORE>
-7.88154

>  <SCORE.INTER>
-6.62383

>  <SCORE.INTER.CONST>
1

>  <SCORE.INTER.POLAR>
0

>  <SCORE.INTER.ROT>
5

>  <SCORE.INTER.SOLV>
18.3235

>  <SCORE.INTER.VDW>
-17.4571

>  <SCORE.INTER.norm>
-0.662383

>  <SCORE.INTRA>
-1.2577

>  <SCORE.INTRA.DIHEDRAL>
-0.503993

>  <SCORE.INTRA.DIHEDRAL.0>
2.22229

>  <SCORE.INTRA.POLAR>
0

>  <SCORE.INTRA.POLAR.0>
0

>  <SCORE.INTRA.REPUL>
0

>  <SCORE.INTRA.REPUL.0>
0

>  <SCORE.INTRA.SOLV>
-1.60396

>  <SCORE.INTRA.SOLV.lig_0>
-31.87

>  <SCORE.INTRA.VDW>
-0.203726

>  <SCORE.INTRA.VDW.0>
-0.575321

>  <SCORE.INTRA.norm>
-0.12577

>  <SCORE.RESTR>
0

>  <SCORE.RESTR.CAVITY>
0

>  <SCORE.RESTR.norm>
0

>  <SCORE.SYSTEM>
0

>  <SCORE.SYSTEM.CONST>
0

>  <SCORE.SYSTEM.DIHEDRAL>
0

>  <SCORE.SYSTEM.SOLV>
0

>  <SCORE.SYSTEM.norm>
0

>  <SCORE.heavy>
10

>  <SCORE.norm>
-0.788154

>  <RMSD>
5.602

$$$$
ligand
 OpenBabel11021811463D
libRbt.so/2013.1/901 2013/11/27
 10  9  0  0  0  0  0  0  0  0999 V2000
   25.3225   42.4737   16.8993 N   0  0  0  0  0  0  0  0  0  0  0  0
   24.4946   42.4979   18.0989 C   0  0  2  0  0  0  0  0  0  0  0  0
   24.3234   43.9257   18.6144 C   0  0  0  0  0  0  0  0  0  0  0  0
   23.2867   44.2447   19.2037 O   0  0  0  0  0  0  0  0  0  0  0  0
   25.0842   41.5919   19.1842 C   0  0  0  0  0  0  0  0  0  0  0  0
   24.1808   41.4297   20.4006 C   0  0  0  0  0  0  0  0  0  0  0  0
   24.7886   40.5061   21.4524 C   0  0  0  0  0  0  0  0  0  0  0  0
   23.8844   40.3659   22.6872 C   0  0  0  0  0  0  0  0  0  0  0  0
   24.3989   39.4227   23.7299 N   0  0  0  0  0  0  0  0  0  0  0  0
   25.2112   44.7764   18.4693 O   0  0  0  0  0  0  0  0  0  0  0  0
  2  1  1  6  0  0  0
  2  3  1  0  0  0  0
  2  5  1  0  0  0  0
  3  4  1  0  0  0  0
  3 10  1  0  0  0  0
  5  6  1  0  0  0  0
  6  7  1  0  0  0  0
  7  8  1  0  0  0  0
  8  9  1  0  0  0  0
M  END
>  <CHROM.1>
149.25668003,-172.68961947,179.17411442,178.99871461,177.39933159,24.49298423
42.16211781,19.87553928,-1.43676188,-1.09679501,2.36491614

>  <Name>
ligand

>  <RI>
0

>  <Rbt.Current_Directory>
/home/itssahil/PROJECTS/Mol_Feturizer/New_Systems/rnas/3D0U

>  <Rbt.Executable>
rbdock ($Id: //depot/dev/client3/rdock/2013.1/src/exe/rbdock.cxx#4 $)

>  <Rbt.Library>
libRbt.so (2013.1, Build901 2013/11/27)

>  <Rbt.Parameter_File>
/export/apps/rDock/src/rDock_2013.1_src/data/scripts/dock_solv.prm

>  <Rbt.Receptor>
prm/pocket_docking_5.prm

>  <SCORE>
-7.96319

>  <SCORE.INTER>
-6.66918

>  <SCORE.INTER.CONST>
1

>  <SCORE.INTER.POLAR>
0

>  <SCORE.INTER.ROT>
5

>  <SCORE.INTER.SOLV>
18.7074

>  <SCORE.INTER.VDW>
-17.6153

>  <SCORE.INTER.norm>
-0.666918

>  <SCORE.INTRA>
-1.29471

>  <SCORE.INTRA.DIHEDRAL>
-0.546079

>  <SCORE.INTRA.DIHEDRAL.0>
2.22229

>  <SCORE.INTRA.POLAR>
0

>  <SCORE.INTRA.POLAR.0>
0

>  <SCORE.INTRA.REPUL>
0

>  <SCORE.INTRA.REPUL.0>
0

>  <SCORE.INTRA.SOLV>
-1.60466

>  <SCORE.INTRA.SOLV.lig_0>
-31.87

>  <SCORE.INTRA.VDW>
-0.219336

>  <SCORE.INTRA.VDW.0>
-0.575321

>  <SCORE.INTRA.norm>
-0.129471

>  <SCORE.RESTR>
0.000689614

>  <SCORE.RESTR.CAVITY>
0.000689614

>  <SCORE.RESTR.norm>
6.89614e-05

>  <SCORE.SYSTEM>
0

>  <SCORE.SYSTEM.CONST>
0

>  <SCORE.SYSTEM.DIHEDRAL>
0

>  <SCORE.SYSTEM.SOLV>
0

>  <SCORE.SYSTEM.norm>
0

>  <SCORE.heavy>
10

>  <SCORE.norm>
-0.796319

>  <RMSD>
5.602

$$$$
ligand
 OpenBabel11021811463D
libRbt.so/2013.1/901 2013/11/27
 10  9  0  0  0  0  0  0  0  0999 V2000
   25.3254   42.4689   16.8998 N   0  0  0  0  0  0  0  0  0  0  0  0
   24.4991   42.5008   18.1004 C   0  0  2  0  0  0  0  0  0  0  0  0
   24.3398   43.9304   18.6147 C   0  0  0  0  0  0  0  0  0  0  0  0
   23.3203   44.2494   19.2334 O   0  0  0  0  0  0  0  0  0  0  0  0
   25.0829   41.5912   19.1858 C   0  0  0  0  0  0  0  0  0  0  0  0
   24.1832   41.4437   20.4069 C   0  0  0  0  0  0  0  0  0  0  0  0
   24.7834   40.5137   21.4575 C   0  0  0  0  0  0  0  0  0  0  0  0
   23.8681   40.3626   22.6828 C   0  0  0  0  0  0  0  0  0  0  0  0
   24.3803   39.4211   23.7282 N   0  0  0  0  0  0  0  0  0  0  0  0
   25.2206   44.7826   18.4394 O   0  0  0  0  0  0  0  0  0  0  0  0
  2  1  1  6  0  0  0
  2  3  1  0  0  0  0
  2  5  1  0  0  0  0
  3  4  1  0  0  0  0
  3 10  1  0  0  0  0
  5  6  1  0  0  0  0
  6  7  1  0  0  0  0
  7  8  1  0  0  0  0
  8  9  1  0  0  0  0
M  END
>  <CHROM.1>
151.02098937,-173.02319110,179.04303906,-179.67210997,177.86116589,24.49609433
42.16512923,19.87641542,-1.42300490,-1.10309281,2.37763026

>  <Name>
ligand

>  <RI>
0

>  <Rbt.Current_Directory>
/home/itssahil/PROJECTS/Mol_Feturizer/New_Systems/rnas/3D0U

>  <Rbt.Executable>
rbdock ($Id: //depot/dev/client3/rdock/2013.1/src/exe/rbdock.cxx#4 $)

>  <Rbt.Library>
libRbt.so (2013.1, Build901 2013/11/27)

>  <Rbt.Parameter_File>
/export/apps/rDock/src/rDock_2013.1_src/data/scripts/dock_solv.prm

>  <Rbt.Receptor>
prm/pocket_docking_6.prm

>  <SCORE>
-7.96496

>  <SCORE.INTER>
-6.67943

>  <SCORE.INTER.CONST>
1

>  <SCORE.INTER.POLAR>
0

>  <SCORE.INTER.ROT>
5

>  <SCORE.INTER.SOLV>
18.6548

>  <SCORE.INTER.VDW>
-17.6045

>  <SCORE.INTER.norm>
-0.667943

>  <SCORE.INTRA>
-1.28572

>  <SCORE.INTRA.DIHEDRAL>
-0.575219

>  <SCORE.INTRA.DIHEDRAL.0>
2.22229

>  <SCORE.INTRA.POLAR>
0

>  <SCORE.INTRA.POLAR.0>
0

>  <SCORE.INTRA.REPUL>
0

>  <SCORE.INTRA.REPUL.0>
0

>  <SCORE.INTRA.SOLV>
-1.60433

>  <SCORE.INTRA.SOLV.lig_0>
-31.87

>  <SCORE.INTRA.VDW>
-0.195941

>  <SCORE.INTRA.VDW.0>
-0.575321

>  <SCORE.INTRA.norm>
-0.128572

>  <SCORE.RESTR>
0.000191585

>  <SCORE.RESTR.CAVITY>
0.000191585

>  <SCORE.RESTR.norm>
1.91585e-05

>  <SCORE.SYSTEM>
0

>  <SCORE.SYSTEM.CONST>
0

>  <SCORE.SYSTEM.DIHEDRAL>
0

>  <SCORE.SYSTEM.SOLV>
0

>  <SCORE.SYSTEM.norm>
0

>  <SCORE.heavy>
10

>  <SCORE.norm>
-0.796496

>  <RMSD>
5.603

$$$$
ligand
 OpenBabel11021811463D
libRbt.so/2013.1/901 2013/11/27
 10  9  0  0  0  0  0  0  0  0999 V2000
   25.2956   42.5004   16.9004 N   0  0  0  0  0  0  0  0  0  0  0  0
   24.4821   42.5264   18.1098 C   0  0  2  0  0  0  0  0  0  0  0  0
   24.3289   43.9535   18.6331 C   0  0  0  0  0  0  0  0  0  0  0  0
   23.3072   44.2751   19.2467 O   0  0  0  0  0  0  0  0  0  0  0  0
   25.0771   41.6111   19.1843 C   0  0  0  0  0  0  0  0  0  0  0  0
   24.1891   41.4555   20.4130 C   0  0  0  0  0  0  0  0  0  0  0  0
   24.7974   40.5155   21.4499 C   0  0  0  0  0  0  0  0  0  0  0  0
   23.8874   40.3451   22.6766 C   0  0  0  0  0  0  0  0  0  0  0  0
   24.3827   39.3549   23.6845 N   0  0  0  0  0  0  0  0  0  0  0  0
   25.2167   44.8008   18.4701 O   0  0  0  0  0  0  0  0  0  0  0  0
  2  1  1  6  0  0  0
  2  3  1  0  0  0  0
  2  5  1  0  0  0  0
  3  4  1  0  0  0  0
  3 10  1  0  0  0  0
  5  6  1  0  0  0  0
  6  7  1  0  0  0  0
  7  8  1  0  0  0  0
  8  9  1  0  0  0  0
M  END
>  <CHROM.1>
149.93088395,-172.90836896,178.81026659,-179.09422558,175.68295027,24.49226402
42.17258466,19.87864389,-1.43373483,-1.10514360,2.38055595

>  <Name>
ligand

>  <RI>
0

>  <Rbt.Current_Directory>
/home/itssahil/PROJECTS/Mol_Feturizer/New_Systems/rnas/3D0U

>  <Rbt.Executable>
rbdock ($Id: //depot/dev/client3/rdock/2013.1/src/exe/rbdock.cxx#4 $)

>  <Rbt.Library>
libRbt.so (2013.1, Build901 2013/11/27)

>  <Rbt.Parameter_File>
/export/apps/rDock/src/rDock_2013.1_src/data/scripts/dock_solv.prm

>  <Rbt.Receptor>
prm/pocket_docking_8.prm

>  <SCORE>
-7.93937

>  <SCORE.INTER>
-6.6731

>  <SCORE.INTER.CONST>
1

>  <SCORE.INTER.POLAR>
0

>  <SCORE.INTER.ROT>
5

>  <SCORE.INTER.SOLV>
18.5798

>  <SCORE.INTER.VDW>
-17.5753

>  <SCORE.INTER.norm>
-0.66731

>  <SCORE.INTRA>
-1.26627

>  <SCORE.INTRA.DIHEDRAL>
-0.51107

>  <SCORE.INTRA.DIHEDRAL.0>
2.22229

>  <SCORE.INTRA.POLAR>
0

>  <SCORE.INTRA.POLAR.0>
0

>  <SCORE.INTRA.REPUL>
0

>  <SCORE.INTRA.REPUL.0>
0

>  <SCORE.INTRA.SOLV>
-1.60381

>  <SCORE.INTRA.SOLV.lig_0>
-31.87

>  <SCORE.INTRA.VDW>
-0.208831

>  <SCORE.INTRA.VDW.0>
-0.575321

>  <SCORE.INTRA.norm>
-0.126627

>  <SCORE.RESTR>
0

>  <SCORE.RESTR.CAVITY>
0

>  <SCORE.RESTR.norm>
0

>  <SCORE.SYSTEM>
0

>  <SCORE.SYSTEM.CONST>
0

>  <SCORE.SYSTEM.DIHEDRAL>
0

>  <SCORE.SYSTEM.SOLV>
0

>  <SCORE.SYSTEM.norm>
0

>  <SCORE.heavy>
10

>  <SCORE.norm>
-0.793937

>  <RMSD>
5.603

$$$$
ligand
 OpenBabel11021811463D
libRbt.so/2013.1/901 2013/11/27
 10  9  0  0  0  0  0  0  0  0999 V2000
   24.5629   43.6269   19.5447 N   0  0  0  0  0  0  0  0  0  0  0  0
   25.3234   42.4114   19.2809 C   0  0  2  0  0  0  0  0  0  0  0  0
   25.5096   42.2000   17.7795 C   0  0  0  0  0  0  0  0  0  0  0  0
   24.7507   42.7596   16.9827 O   0  0  0  0  0  0  0  0  0  0  0  0
   24.6468   41.1971   19.9242 C   0  0  0  0  0  0  0  0  0  0  0  0
   24.5945   41.2628   21.4458 C   0  0  0  0  0  0  0  0  0  0  0  0
   23.9326   40.0300   22.0548 C   0  0  0  0  0  0  0  0  0  0  0  0
   23.8669   40.1100   23.5881 C   0  0  0  0  0  0  0  0  0  0  0  0
   23.2373   38.9214   24.2457 N   0  0  0  0  0  0  0  0  0  0  0  0
   26.4194   41.4878   17.3346 O   0  0  0  0  0  0  0  0  0  0  0  0
  2  1  1  6  0  0  0
  2  3  1  0  0  0  0
  2  5  1  0  0  0  0
  3  4  1  0  0  0  0
  3 10  1  0  0  0  0
  5  6  1  0  0  0  0
  6  7  1  0  0  0  0
  7  8  1  0  0  0  0
  8  9  1  0  0  0  0
M  END
>  <CHROM.1>
-20.58072727,-63.93729339,-179.19864920,-179.28558415,-179.49292025,24.69346326
41.40231750,20.17363172,0.95319366,1.09538794,-0.56547226

>  <Name>
ligand

>  <RI>
0

>  <Rbt.Current_Directory>
/home/itssahil/PROJECTS/Mol_Feturizer/New_Systems/rnas/3D0U

>  <Rbt.Executable>
rbdock ($Id: //depot/dev/client3/rdock/2013.1/src/exe/rbdock.cxx#4 $)

>  <Rbt.Library>
libRbt.so (2013.1, Build901 2013/11/27)

>  <Rbt.Parameter_File>
/export/apps/rDock/src/rDock_2013.1_src/data/scripts/dock_solv.prm

>  <Rbt.Receptor>
prm/blind_docking_60.prm

>  <SCORE>
-9.46526

>  <SCORE.INTER>
-8.60792

>  <SCORE.INTER.CONST>
1

>  <SCORE.INTER.POLAR>
0

>  <SCORE.INTER.ROT>
5

>  <SCORE.INTER.SOLV>
12.5476

>  <SCORE.INTER.VDW>
-16.8545

>  <SCORE.INTER.norm>
-0.860792

>  <SCORE.INTRA>
-0.857341

>  <SCORE.INTRA.DIHEDRAL>
-0.642685

>  <SCORE.INTRA.DIHEDRAL.0>
2.22229

>  <SCORE.INTRA.POLAR>
0

>  <SCORE.INTRA.POLAR.0>
0

>  <SCORE.INTRA.REPUL>
0

>  <SCORE.INTRA.REPUL.0>
0

>  <SCORE.INTRA.SOLV>
-0.755459

>  <SCORE.INTRA.SOLV.lig_0>
-31.87

>  <SCORE.INTRA.VDW>
-0.158269

>  <SCORE.INTRA.VDW.0>
-0.575321

>  <SCORE.INTRA.norm>
-0.0857341

>  <SCORE.RESTR>
0

>  <SCORE.RESTR.CAVITY>
0

>  <SCORE.RESTR.norm>
0

>  <SCORE.SYSTEM>
0

>  <SCORE.SYSTEM.CONST>
0

>  <SCORE.SYSTEM.DIHEDRAL>
0

>  <SCORE.SYSTEM.SOLV>
0

>  <SCORE.SYSTEM.norm>
0

>  <SCORE.heavy>
10

>  <SCORE.norm>
-0.946526

>  <RMSD>
5.606

$$$$
ligand
 OpenBabel11021811463D
libRbt.so/2013.1/901 2013/11/27
 10  9  0  0  0  0  0  0  0  0999 V2000
   25.4238   42.4297   16.9004 N   0  0  0  0  0  0  0  0  0  0  0  0
   24.5674   42.4524   18.0798 C   0  0  2  0  0  0  0  0  0  0  0  0
   24.3716   43.8812   18.5839 C   0  0  0  0  0  0  0  0  0  0  0  0
   23.3338   44.1844   19.1796 O   0  0  0  0  0  0  0  0  0  0  0  0
   25.1388   41.5569   19.1833 C   0  0  0  0  0  0  0  0  0  0  0  0
   24.2135   41.4032   20.3844 C   0  0  0  0  0  0  0  0  0  0  0  0
   24.8060   40.4939   21.4572 C   0  0  0  0  0  0  0  0  0  0  0  0
   23.8771   40.3581   22.6740 C   0  0  0  0  0  0  0  0  0  0  0  0
   24.3731   39.4227   23.7326 N   0  0  0  0  0  0  0  0  0  0  0  0
   25.2405   44.7484   18.4230 O   0  0  0  0  0  0  0  0  0  0  0  0
  2  1  1  6  0  0  0
  2  3  1  0  0  0  0
  2  5  1  0  0  0  0
  3  4  1  0  0  0  0
  3 10  1  0  0  0  0
  5  6  1  0  0  0  0
  6  7  1  0  0  0  0
  7  8  1  0  0  0  0
  8  9  1  0  0  0  0
M  END
>  <CHROM.1>
151.26806823,-173.23281022,179.38513197,179.21804712,177.08083416,24.52962280
42.13166775,19.86103165,-1.41502012,-1.07711480,2.37524961

>  <Name>
ligand

>  <RI>
0

>  <Rbt.Current_Directory>
/home/itssahil/PROJECTS/Mol_Feturizer/New_Systems/rnas/3D0U

>  <Rbt.Executable>
rbdock ($Id: //depot/dev/client3/rdock/2013.1/src/exe/rbdock.cxx#4 $)

>  <Rbt.Library>
libRbt.so (2013.1, Build901 2013/11/27)

>  <Rbt.Parameter_File>
/export/apps/rDock/src/rDock_2013.1_src/data/scripts/dock_solv.prm

>  <Rbt.Receptor>
prm/pocket_docking_8.prm

>  <SCORE>
-7.96168

>  <SCORE.INTER>
-6.68456

>  <SCORE.INTER.CONST>
1

>  <SCORE.INTER.POLAR>
0

>  <SCORE.INTER.ROT>
5

>  <SCORE.INTER.SOLV>
18.8129

>  <SCORE.INTER.VDW>
-17.6607

>  <SCORE.INTER.norm>
-0.668456

>  <SCORE.INTRA>
-1.27712

>  <SCORE.INTRA.DIHEDRAL>
-0.571342

>  <SCORE.INTRA.DIHEDRAL.0>
2.22229

>  <SCORE.INTRA.POLAR>
0

>  <SCORE.INTRA.POLAR.0>
0

>  <SCORE.INTRA.REPUL>
0

>  <SCORE.INTRA.REPUL.0>
0

>  <SCORE.INTRA.SOLV>
-1.60417

>  <SCORE.INTRA.SOLV.lig_0>
-31.87

>  <SCORE.INTRA.VDW>
-0.189367

>  <SCORE.INTRA.VDW.0>
-0.575321

>  <SCORE.INTRA.norm>
-0.127712

>  <SCORE.RESTR>
0

>  <SCORE.RESTR.CAVITY>
0

>  <SCORE.RESTR.norm>
0

>  <SCORE.SYSTEM>
0

>  <SCORE.SYSTEM.CONST>
0

>  <SCORE.SYSTEM.DIHEDRAL>
0

>  <SCORE.SYSTEM.SOLV>
0

>  <SCORE.SYSTEM.norm>
0

>  <SCORE.heavy>
10

>  <SCORE.norm>
-0.796168

>  <RMSD>
5.606

$$$$
ligand
 OpenBabel11021811463D
libRbt.so/2013.1/901 2013/11/27
 10  9  0  0  0  0  0  0  0  0999 V2000
   25.4298   42.4200   16.8971 N   0  0  0  0  0  0  0  0  0  0  0  0
   24.5677   42.4436   18.0723 C   0  0  2  0  0  0  0  0  0  0  0  0
   24.3542   43.8745   18.5631 C   0  0  0  0  0  0  0  0  0  0  0  0
   25.2059   44.7367   18.3283 O   0  0  0  0  0  0  0  0  0  0  0  0
   25.1435   41.5638   19.1862 C   0  0  0  0  0  0  0  0  0  0  0  0
   24.2093   41.4007   20.3791 C   0  0  0  0  0  0  0  0  0  0  0  0
   24.8101   40.5139   21.4661 C   0  0  0  0  0  0  0  0  0  0  0  0
   23.8633   40.3523   22.6658 C   0  0  0  0  0  0  0  0  0  0  0  0
   24.3621   39.4248   23.7300 N   0  0  0  0  0  0  0  0  0  0  0  0
   23.3332   44.2000   19.1831 O   0  0  0  0  0  0  0  0  0  0  0  0
  2  1  1  6  0  0  0
  2  3  1  0  0  0  0
  2  5  1  0  0  0  0
  3  4  1  0  0  0  0
  3 10  1  0  0  0  0
  5  6  1  0  0  0  0
  6  7  1  0  0  0  0
  7  8  1  0  0  0  0
  8  9  1  0  0  0  0
M  END
>  <CHROM.1>
-26.23119878,-172.73017277,179.71732893,-179.96241921,176.45324035,24.52278500
42.13181688,19.84747625,-1.42013299,-1.06085771,2.36652249

>  <Name>
ligand

>  <RI>
0

>  <Rbt.Current_Directory>
/home/itssahil/PROJECTS/Mol_Feturizer/New_Systems/rnas/3D0U

>  <Rbt.Executable>
rbdock ($Id: //depot/dev/client3/rdock/2013.1/src/exe/rbdock.cxx#4 $)

>  <Rbt.Library>
libRbt.so (2013.1, Build901 2013/11/27)

>  <Rbt.Parameter_File>
/export/apps/rDock/src/rDock_2013.1_src/data/scripts/dock_solv.prm

>  <Rbt.Receptor>
prm/pocket_docking_5.prm

>  <SCORE>
-7.87012

>  <SCORE.INTER>
-6.67818

>  <SCORE.INTER.CONST>
1

>  <SCORE.INTER.POLAR>
0

>  <SCORE.INTER.ROT>
5

>  <SCORE.INTER.SOLV>
18.8215

>  <SCORE.INTER.VDW>
-17.6593

>  <SCORE.INTER.norm>
-0.667818

>  <SCORE.INTRA>
-1.19485

>  <SCORE.INTRA.DIHEDRAL>
-0.471176

>  <SCORE.INTRA.DIHEDRAL.0>
2.22229

>  <SCORE.INTRA.POLAR>
0

>  <SCORE.INTRA.POLAR.0>
0

>  <SCORE.INTRA.REPUL>
0

>  <SCORE.INTRA.REPUL.0>
0

>  <SCORE.INTRA.SOLV>
-1.58881

>  <SCORE.INTRA.SOLV.lig_0>
-31.87

>  <SCORE.INTRA.VDW>
-0.164855

>  <SCORE.INTRA.VDW.0>
-0.575321

>  <SCORE.INTRA.norm>
-0.119485

>  <SCORE.RESTR>
0.00291073

>  <SCORE.RESTR.CAVITY>
0.00291073

>  <SCORE.RESTR.norm>
0.000291073

>  <SCORE.SYSTEM>
0

>  <SCORE.SYSTEM.CONST>
0

>  <SCORE.SYSTEM.DIHEDRAL>
0

>  <SCORE.SYSTEM.SOLV>
0

>  <SCORE.SYSTEM.norm>
0

>  <SCORE.heavy>
10

>  <SCORE.norm>
-0.787012

>  <RMSD>
5.614

$$$$
ligand
 OpenBabel11021811463D
libRbt.so/2013.1/901 2013/11/27
 10  9  0  0  0  0  0  0  0  0999 V2000
   25.2749   42.4964   16.7747 N   0  0  0  0  0  0  0  0  0  0  0  0
   24.4612   42.5213   17.9840 C   0  0  2  0  0  0  0  0  0  0  0  0
   24.3711   43.9369   18.5513 C   0  0  0  0  0  0  0  0  0  0  0  0
   23.3679   44.2817   19.1827 O   0  0  0  0  0  0  0  0  0  0  0  0
   25.0126   41.5474   19.0298 C   0  0  0  0  0  0  0  0  0  0  0  0
   24.1366   41.4245   20.2706 C   0  0  0  0  0  0  0  0  0  0  0  0
   24.7283   40.4690   21.3030 C   0  0  0  0  0  0  0  0  0  0  0  0
   23.8630   40.3828   22.5702 C   0  0  0  0  0  0  0  0  0  0  0  0
   24.3833   39.4449   23.6149 N   0  0  0  0  0  0  0  0  0  0  0  0
   25.2923   44.7514   18.4066 O   0  0  0  0  0  0  0  0  0  0  0  0
  2  1  1  6  0  0  0
  2  3  1  0  0  0  0
  2  5  1  0  0  0  0
  3  4  1  0  0  0  0
  3 10  1  0  0  0  0
  5  6  1  0  0  0  0
  6  7  1  0  0  0  0
  7  8  1  0  0  0  0
  8  9  1  0  0  0  0
M  END
>  <CHROM.1>
150.46565998,-174.59091399,-178.84900616,178.21608366,179.21738770,24.48647172
42.16410849,19.77156692,-1.38944083,-1.15750021,2.41411081

>  <Name>
ligand

>  <RI>
0

>  <Rbt.Current_Directory>
/home/itssahil/PROJECTS/Mol_Feturizer/New_Systems/rnas/3D0U

>  <Rbt.Executable>
rbdock ($Id: //depot/dev/client3/rdock/2013.1/src/exe/rbdock.cxx#4 $)

>  <Rbt.Library>
libRbt.so (2013.1, Build901 2013/11/27)

>  <Rbt.Parameter_File>
/export/apps/rDock/src/rDock_2013.1_src/data/scripts/dock_solv.prm

>  <Rbt.Receptor>
prm/pocket_docking_3.prm

>  <SCORE>
-8.10382

>  <SCORE.INTER>
-6.78796

>  <SCORE.INTER.CONST>
1

>  <SCORE.INTER.POLAR>
0

>  <SCORE.INTER.ROT>
5

>  <SCORE.INTER.SOLV>
18.6241

>  <SCORE.INTER.VDW>
-17.6667

>  <SCORE.INTER.norm>
-0.678796

>  <SCORE.INTRA>
-1.31587

>  <SCORE.INTRA.DIHEDRAL>
-0.648849

>  <SCORE.INTRA.DIHEDRAL.0>
2.22229

>  <SCORE.INTRA.POLAR>
0

>  <SCORE.INTRA.POLAR.0>
0

>  <SCORE.INTRA.REPUL>
0

>  <SCORE.INTRA.REPUL.0>
0

>  <SCORE.INTRA.SOLV>
-1.60614

>  <SCORE.INTRA.SOLV.lig_0>
-31.87

>  <SCORE.INTRA.VDW>
-0.188372

>  <SCORE.INTRA.VDW.0>
-0.575321

>  <SCORE.INTRA.norm>
-0.131587

>  <SCORE.RESTR>
0

>  <SCORE.RESTR.CAVITY>
0

>  <SCORE.RESTR.norm>
0

>  <SCORE.SYSTEM>
0

>  <SCORE.SYSTEM.CONST>
0

>  <SCORE.SYSTEM.DIHEDRAL>
0

>  <SCORE.SYSTEM.SOLV>
0

>  <SCORE.SYSTEM.norm>
0

>  <SCORE.heavy>
10

>  <SCORE.norm>
-0.810382

>  <RMSD>
5.620

$$$$
ligand
 OpenBabel11021811463D
libRbt.so/2013.1/901 2013/11/27
 10  9  0  0  0  0  0  0  0  0999 V2000
   24.9204   43.5359   19.7670 N   0  0  0  0  0  0  0  0  0  0  0  0
   25.4272   42.2536   19.2938 C   0  0  2  0  0  0  0  0  0  0  0  0
   25.4136   42.1920   17.7674 C   0  0  0  0  0  0  0  0  0  0  0  0
   26.3556   41.6670   17.1666 O   0  0  0  0  0  0  0  0  0  0  0  0
   24.6232   41.0966   19.8948 C   0  0  0  0  0  0  0  0  0  0  0  0
   24.7368   40.9979   21.4112 C   0  0  0  0  0  0  0  0  0  0  0  0
   23.9482   39.8187   21.9739 C   0  0  0  0  0  0  0  0  0  0  0  0
   24.0164   39.7602   23.5081 C   0  0  0  0  0  0  0  0  0  0  0  0
   23.2803   38.6083   24.1190 N   0  0  0  0  0  0  0  0  0  0  0  0
   24.4672   42.6451   17.1102 O   0  0  0  0  0  0  0  0  0  0  0  0
  2  1  1  6  0  0  0
  2  3  1  0  0  0  0
  2  5  1  0  0  0  0
  3  4  1  0  0  0  0
  3 10  1  0  0  0  0
  5  6  1  0  0  0  0
  6  7  1  0  0  0  0
  7  8  1  0  0  0  0
  8  9  1  0  0  0  0
M  END
>  <CHROM.1>
139.89218371,-63.51705405,-178.81718980,-177.51571369,-178.97048735,24.72345282
41.26223661,20.15632529,0.59768217,1.26756623,-0.13075371

>  <Name>
ligand

>  <RI>
0

>  <Rbt.Current_Directory>
/home/itssahil/PROJECTS/Mol_Feturizer/New_Systems/rnas/3D0U

>  <Rbt.Executable>
rbdock ($Id: //depot/dev/client3/rdock/2013.1/src/exe/rbdock.cxx#4 $)

>  <Rbt.Library>
libRbt.so (2013.1, Build901 2013/11/27)

>  <Rbt.Parameter_File>
/export/apps/rDock/src/rDock_2013.1_src/data/scripts/dock_solv.prm

>  <Rbt.Receptor>
prm/pocket_docking_4.prm

>  <SCORE>
-9.35219

>  <SCORE.INTER>
-8.36485

>  <SCORE.INTER.CONST>
1

>  <SCORE.INTER.POLAR>
0

>  <SCORE.INTER.ROT>
5

>  <SCORE.INTER.SOLV>
13.2517

>  <SCORE.INTER.VDW>
-16.9271

>  <SCORE.INTER.norm>
-0.836485

>  <SCORE.INTRA>
-0.987333

>  <SCORE.INTRA.DIHEDRAL>
-0.680169

>  <SCORE.INTRA.DIHEDRAL.0>
2.22229

>  <SCORE.INTRA.POLAR>
0

>  <SCORE.INTRA.POLAR.0>
0

>  <SCORE.INTRA.REPUL>
0

>  <SCORE.INTRA.REPUL.0>
0

>  <SCORE.INTRA.SOLV>
-0.772553

>  <SCORE.INTRA.SOLV.lig_0>
-31.87

>  <SCORE.INTRA.VDW>
-0.260972

>  <SCORE.INTRA.VDW.0>
-0.575321

>  <SCORE.INTRA.norm>
-0.0987333

>  <SCORE.RESTR>
0

>  <SCORE.RESTR.CAVITY>
0

>  <SCORE.RESTR.norm>
0

>  <SCORE.SYSTEM>
0

>  <SCORE.SYSTEM.CONST>
0

>  <SCORE.SYSTEM.DIHEDRAL>
0

>  <SCORE.SYSTEM.SOLV>
0

>  <SCORE.SYSTEM.norm>
0

>  <SCORE.heavy>
10

>  <SCORE.norm>
-0.935219

>  <RMSD>
5.621

$$$$
ligand
 OpenBabel11021811463D
libRbt.so/2013.1/901 2013/11/27
 10  9  0  0  0  0  0  0  0  0999 V2000
   25.3169   42.5114   16.7801 N   0  0  0  0  0  0  0  0  0  0  0  0
   24.4922   42.5250   17.9821 C   0  0  2  0  0  0  0  0  0  0  0  0
   24.3708   43.9404   18.5439 C   0  0  0  0  0  0  0  0  0  0  0  0
   23.3713   44.2581   19.1950 O   0  0  0  0  0  0  0  0  0  0  0  0
   25.0522   41.5647   19.0360 C   0  0  0  0  0  0  0  0  0  0  0  0
   24.1674   41.4293   20.2693 C   0  0  0  0  0  0  0  0  0  0  0  0
   24.7545   40.4676   21.2985 C   0  0  0  0  0  0  0  0  0  0  0  0
   23.8938   40.3885   22.5692 C   0  0  0  0  0  0  0  0  0  0  0  0
   24.3833   39.4097   23.5910 N   0  0  0  0  0  0  0  0  0  0  0  0
   25.2633   44.7818   18.3753 O   0  0  0  0  0  0  0  0  0  0  0  0
  2  1  1  6  0  0  0
  2  3  1  0  0  0  0
  2  5  1  0  0  0  0
  3  4  1  0  0  0  0
  3 10  1  0  0  0  0
  5  6  1  0  0  0  0
  6  7  1  0  0  0  0
  7  8  1  0  0  0  0
  8  9  1  0  0  0  0
M  END
>  <CHROM.1>
152.34035179,-174.58063851,-179.93746058,177.16029270,177.17583202,24.50322670
42.16612372,19.76671953,-1.39988281,-1.13754405,2.40720441

>  <Name>
ligand

>  <RI>
0

>  <Rbt.Current_Directory>
/home/itssahil/PROJECTS/Mol_Feturizer/New_Systems/rnas/3D0U

>  <Rbt.Executable>
rbdock ($Id: //depot/dev/client3/rdock/2013.1/src/exe/rbdock.cxx#4 $)

>  <Rbt.Library>
libRbt.so (2013.1, Build901 2013/11/27)

>  <Rbt.Parameter_File>
/export/apps/rDock/src/rDock_2013.1_src/data/scripts/dock_solv.prm

>  <Rbt.Receptor>
prm/pocket_docking_3.prm

>  <SCORE>
-8.0831

>  <SCORE.INTER>
-6.81079

>  <SCORE.INTER.CONST>
1

>  <SCORE.INTER.POLAR>
0

>  <SCORE.INTER.ROT>
5

>  <SCORE.INTER.SOLV>
18.6088

>  <SCORE.INTER.VDW>
-17.6768

>  <SCORE.INTER.norm>
-0.681079

>  <SCORE.INTRA>
-1.27231

>  <SCORE.INTRA.DIHEDRAL>
-0.605678

>  <SCORE.INTRA.DIHEDRAL.0>
2.22229

>  <SCORE.INTRA.POLAR>
0

>  <SCORE.INTRA.POLAR.0>
0

>  <SCORE.INTRA.REPUL>
0

>  <SCORE.INTRA.REPUL.0>
0

>  <SCORE.INTRA.SOLV>
-1.60485

>  <SCORE.INTRA.SOLV.lig_0>
-31.87

>  <SCORE.INTRA.VDW>
-0.167043

>  <SCORE.INTRA.VDW.0>
-0.575321

>  <SCORE.INTRA.norm>
-0.127231

>  <SCORE.RESTR>
0

>  <SCORE.RESTR.CAVITY>
0

>  <SCORE.RESTR.norm>
0

>  <SCORE.SYSTEM>
0

>  <SCORE.SYSTEM.CONST>
0

>  <SCORE.SYSTEM.DIHEDRAL>
0

>  <SCORE.SYSTEM.SOLV>
0

>  <SCORE.SYSTEM.norm>
0

>  <SCORE.heavy>
10

>  <SCORE.norm>
-0.80831

>  <RMSD>
5.624

$$$$
ligand
 OpenBabel11021811463D
libRbt.so/2013.1/901 2013/11/27
 10  9  0  0  0  0  0  0  0  0999 V2000
   25.2679   42.5099   16.7641 N   0  0  0  0  0  0  0  0  0  0  0  0
   24.4635   42.5332   17.9797 C   0  0  2  0  0  0  0  0  0  0  0  0
   24.3739   43.9489   18.5469 C   0  0  0  0  0  0  0  0  0  0  0  0
   23.3690   44.2954   19.1747 O   0  0  0  0  0  0  0  0  0  0  0  0
   25.0256   41.5613   19.0217 C   0  0  0  0  0  0  0  0  0  0  0  0
   24.1501   41.4226   20.2613 C   0  0  0  0  0  0  0  0  0  0  0  0
   24.7505   40.4669   21.2884 C   0  0  0  0  0  0  0  0  0  0  0  0
   23.8986   40.3844   22.5649 C   0  0  0  0  0  0  0  0  0  0  0  0
   24.3962   39.4040   23.5812 N   0  0  0  0  0  0  0  0  0  0  0  0
   25.2971   44.7617   18.4058 O   0  0  0  0  0  0  0  0  0  0  0  0
  2  1  1  6  0  0  0
  2  3  1  0  0  0  0
  2  5  1  0  0  0  0
  3  4  1  0  0  0  0
  3 10  1  0  0  0  0
  5  6  1  0  0  0  0
  6  7  1  0  0  0  0
  7  8  1  0  0  0  0
  8  9  1  0  0  0  0
M  END
>  <CHROM.1>
149.76149282,-173.81995811,-178.99891651,177.17963365,176.77786912,24.49654748
42.16735730,19.76169467,-1.40013294,-1.15742167,2.41060556

>  <Name>
ligand

>  <RI>
0

>  <Rbt.Current_Directory>
/home/itssahil/PROJECTS/Mol_Feturizer/New_Systems/rnas/3D0U

>  <Rbt.Executable>
rbdock ($Id: //depot/dev/client3/rdock/2013.1/src/exe/rbdock.cxx#4 $)

>  <Rbt.Library>
libRbt.so (2013.1, Build901 2013/11/27)

>  <Rbt.Parameter_File>
/export/apps/rDock/src/rDock_2013.1_src/data/scripts/dock_solv.prm

>  <Rbt.Receptor>
prm/pocket_docking_3.prm

>  <SCORE>
-8.07891

>  <SCORE.INTER>
-6.78486

>  <SCORE.INTER.CONST>
1

>  <SCORE.INTER.POLAR>
0

>  <SCORE.INTER.ROT>
5

>  <SCORE.INTER.SOLV>
18.6032

>  <SCORE.INTER.VDW>
-17.6577

>  <SCORE.INTER.norm>
-0.678486

>  <SCORE.INTRA>
-1.29405

>  <SCORE.INTRA.DIHEDRAL>
-0.559605

>  <SCORE.INTRA.DIHEDRAL.0>
2.22229

>  <SCORE.INTRA.POLAR>
0

>  <SCORE.INTRA.POLAR.0>
0

>  <SCORE.INTRA.REPUL>
0

>  <SCORE.INTRA.REPUL.0>
0

>  <SCORE.INTRA.SOLV>
-1.60522

>  <SCORE.INTRA.SOLV.lig_0>
-31.87

>  <SCORE.INTRA.VDW>
-0.211636

>  <SCORE.INTRA.VDW.0>
-0.575321

>  <SCORE.INTRA.norm>
-0.129405

>  <SCORE.RESTR>
0

>  <SCORE.RESTR.CAVITY>
0

>  <SCORE.RESTR.norm>
0

>  <SCORE.SYSTEM>
0

>  <SCORE.SYSTEM.CONST>
0

>  <SCORE.SYSTEM.DIHEDRAL>
0

>  <SCORE.SYSTEM.SOLV>
0

>  <SCORE.SYSTEM.norm>
0

>  <SCORE.heavy>
10

>  <SCORE.norm>
-0.807891

>  <RMSD>
5.625

$$$$
ligand
 OpenBabel11021811463D
libRbt.so/2013.1/901 2013/11/27
 10  9  0  0  0  0  0  0  0  0999 V2000
   24.2381   42.7690   17.9102 N   0  0  0  0  0  0  0  0  0  0  0  0
   23.8020   43.4636   19.1154 C   0  0  2  0  0  0  0  0  0  0  0  0
   23.8429   44.9778   18.9168 C   0  0  0  0  0  0  0  0  0  0  0  0
   24.7676   45.4876   18.2772 O   0  0  0  0  0  0  0  0  0  0  0  0
   24.6517   43.0470   20.3199 C   0  0  0  0  0  0  0  0  0  0  0  0
   24.4281   41.6035   20.7540 C   0  0  0  0  0  0  0  0  0  0  0  0
   25.2341   41.2433   21.9988 C   0  0  0  0  0  0  0  0  0  0  0  0
   24.9452   39.8118   22.4775 C   0  0  0  0  0  0  0  0  0  0  0  0
   23.5307   39.5741   22.9068 N   0  0  0  0  0  0  0  0  0  0  0  0
   22.9572   45.7138   19.3714 O   0  0  0  0  0  0  0  0  0  0  0  0
  2  1  1  6  0  0  0
  2  3  1  0  0  0  0
  2  5  1  0  0  0  0
  3  4  1  0  0  0  0
  3 10  1  0  0  0  0
  5  6  1  0  0  0  0
  6  7  1  0  0  0  0
  7  8  1  0  0  0  0
  8  9  1  0  0  0  0
M  END
>  <CHROM.1>
-38.68929011,-68.51367281,-177.02202044,176.82115043,-63.00125828,24.23810709
42.81225870,20.19232418,-1.74541245,-1.04632265,2.34034897

>  <Name>
ligand

>  <RI>
0

>  <Rbt.Current_Directory>
/home/itssahil/PROJECTS/Mol_Feturizer/New_Systems/rnas/3D0U

>  <Rbt.Executable>
rbdock ($Id: //depot/dev/client3/rdock/2013.1/src/exe/rbdock.cxx#4 $)

>  <Rbt.Library>
libRbt.so (2013.1, Build901 2013/11/27)

>  <Rbt.Parameter_File>
/export/apps/rDock/src/rDock_2013.1_src/data/scripts/dock_solv.prm

>  <Rbt.Receptor>
prm/pocket_docking_5.prm

>  <SCORE>
-7.80332

>  <SCORE.INTER>
-7.4269

>  <SCORE.INTER.CONST>
1

>  <SCORE.INTER.POLAR>
0

>  <SCORE.INTER.ROT>
5

>  <SCORE.INTER.SOLV>
13.4878

>  <SCORE.INTER.VDW>
-16.3805

>  <SCORE.INTER.norm>
-0.74269

>  <SCORE.INTRA>
-0.376422

>  <SCORE.INTRA.DIHEDRAL>
-0.30619

>  <SCORE.INTRA.DIHEDRAL.0>
2.22229

>  <SCORE.INTRA.POLAR>
0

>  <SCORE.INTRA.POLAR.0>
0

>  <SCORE.INTRA.REPUL>
0

>  <SCORE.INTRA.REPUL.0>
0

>  <SCORE.INTRA.SOLV>
0.031208

>  <SCORE.INTRA.SOLV.lig_0>
-31.87

>  <SCORE.INTRA.VDW>
-0.238931

>  <SCORE.INTRA.VDW.0>
-0.575321

>  <SCORE.INTRA.norm>
-0.0376422

>  <SCORE.RESTR>
0

>  <SCORE.RESTR.CAVITY>
0

>  <SCORE.RESTR.norm>
0

>  <SCORE.SYSTEM>
0

>  <SCORE.SYSTEM.CONST>
0

>  <SCORE.SYSTEM.DIHEDRAL>
0

>  <SCORE.SYSTEM.SOLV>
0

>  <SCORE.SYSTEM.norm>
0

>  <SCORE.heavy>
10

>  <SCORE.norm>
-0.780332

>  <RMSD>
5.626

$$$$
ligand
 OpenBabel11021811463D
libRbt.so/2013.1/901 2013/11/27
 10  9  0  0  0  0  0  0  0  0999 V2000
   24.1708   42.7646   17.8897 N   0  0  0  0  0  0  0  0  0  0  0  0
   23.7885   43.4696   19.1071 C   0  0  2  0  0  0  0  0  0  0  0  0
   23.8590   44.9824   18.9058 C   0  0  0  0  0  0  0  0  0  0  0  0
   22.9835   45.7066   19.3884 O   0  0  0  0  0  0  0  0  0  0  0  0
   24.6647   43.0334   20.2853 C   0  0  0  0  0  0  0  0  0  0  0  0
   24.4212   41.5953   20.7269 C   0  0  0  0  0  0  0  0  0  0  0  0
   25.2331   41.2261   21.9652 C   0  0  0  0  0  0  0  0  0  0  0  0
   24.9480   39.7904   22.4335 C   0  0  0  0  0  0  0  0  0  0  0  0
   23.5436   39.5555   22.8961 N   0  0  0  0  0  0  0  0  0  0  0  0
   24.7877   45.5087   18.2787 O   0  0  0  0  0  0  0  0  0  0  0  0
  2  1  1  6  0  0  0
  2  3  1  0  0  0  0
  2  5  1  0  0  0  0
  3  4  1  0  0  0  0
  3 10  1  0  0  0  0
  5  6  1  0  0  0  0
  6  7  1  0  0  0  0
  7  8  1  0  0  0  0
  8  9  1  0  0  0  0
M  END
>  <CHROM.1>
139.75903457,-68.46929380,-175.75356225,178.08183597,-64.30725610,24.23887508
42.80648799,20.17577565,-1.75758667,-1.09153221,2.33161788

>  <Name>
ligand

>  <RI>
0

>  <Rbt.Current_Directory>
/home/itssahil/PROJECTS/Mol_Feturizer/New_Systems/rnas/3D0U

>  <Rbt.Executable>
rbdock ($Id: //depot/dev/client3/rdock/2013.1/src/exe/rbdock.cxx#4 $)

>  <Rbt.Library>
libRbt.so (2013.1, Build901 2013/11/27)

>  <Rbt.Parameter_File>
/export/apps/rDock/src/rDock_2013.1_src/data/scripts/dock_solv.prm

>  <Rbt.Receptor>
prm/pocket_docking_8.prm

>  <SCORE>
-7.86839

>  <SCORE.INTER>
-7.43391

>  <SCORE.INTER.CONST>
1

>  <SCORE.INTER.POLAR>
0

>  <SCORE.INTER.ROT>
5

>  <SCORE.INTER.SOLV>
13.6128

>  <SCORE.INTER.VDW>
-16.4269

>  <SCORE.INTER.norm>
-0.743391

>  <SCORE.INTRA>
-0.434484

>  <SCORE.INTRA.DIHEDRAL>
-0.315151

>  <SCORE.INTRA.DIHEDRAL.0>
2.22229

>  <SCORE.INTRA.POLAR>
0

>  <SCORE.INTRA.POLAR.0>
0

>  <SCORE.INTRA.REPUL>
0

>  <SCORE.INTRA.REPUL.0>
0

>  <SCORE.INTRA.SOLV>
-0.0120991

>  <SCORE.INTRA.SOLV.lig_0>
-31.87

>  <SCORE.INTRA.VDW>
-0.270859

>  <SCORE.INTRA.VDW.0>
-0.575321

>  <SCORE.INTRA.norm>
-0.0434484

>  <SCORE.RESTR>
0

>  <SCORE.RESTR.CAVITY>
0

>  <SCORE.RESTR.norm>
0

>  <SCORE.SYSTEM>
0

>  <SCORE.SYSTEM.CONST>
0

>  <SCORE.SYSTEM.DIHEDRAL>
0

>  <SCORE.SYSTEM.SOLV>
0

>  <SCORE.SYSTEM.norm>
0

>  <SCORE.heavy>
10

>  <SCORE.norm>
-0.786839

>  <RMSD>
5.626

$$$$
ligand
 OpenBabel11021811463D
libRbt.so/2013.1/901 2013/11/27
 10  9  0  0  0  0  0  0  0  0999 V2000
   24.5286   43.4753   19.6236 N   0  0  0  0  0  0  0  0  0  0  0  0
   25.3721   42.3443   19.2571 C   0  0  2  0  0  0  0  0  0  0  0  0
   25.5070   42.2341   17.7394 C   0  0  0  0  0  0  0  0  0  0  0  0
   26.4274   41.5712   17.2521 O   0  0  0  0  0  0  0  0  0  0  0  0
   24.8256   41.0435   19.8533 C   0  0  0  0  0  0  0  0  0  0  0  0
   24.7962   41.0358   21.3769 C   0  0  0  0  0  0  0  0  0  0  0  0
   24.1464   39.7731   21.9357 C   0  0  0  0  0  0  0  0  0  0  0  0
   24.0550   39.8032   23.4695 C   0  0  0  0  0  0  0  0  0  0  0  0
   23.3849   38.6091   24.0752 N   0  0  0  0  0  0  0  0  0  0  0  0
   24.7016   42.7844   16.9770 O   0  0  0  0  0  0  0  0  0  0  0  0
  2  1  1  6  0  0  0
  2  3  1  0  0  0  0
  2  5  1  0  0  0  0
  3  4  1  0  0  0  0
  3 10  1  0  0  0  0
  5  6  1  0  0  0  0
  6  7  1  0  0  0  0
  7  8  1  0  0  0  0
  8  9  1  0  0  0  0
M  END
>  <CHROM.1>
161.75170157,-62.13070987,175.51493340,-177.09342363,178.09877706,24.78206406
41.27141574,20.11140012,1.04543678,1.08024823,-0.60595775

>  <Name>
ligand

>  <RI>
0

>  <Rbt.Current_Directory>
/home/itssahil/PROJECTS/Mol_Feturizer/New_Systems/rnas/3D0U

>  <Rbt.Executable>
rbdock ($Id: //depot/dev/client3/rdock/2013.1/src/exe/rbdock.cxx#4 $)

>  <Rbt.Library>
libRbt.so (2013.1, Build901 2013/11/27)

>  <Rbt.Parameter_File>
/export/apps/rDock/src/rDock_2013.1_src/data/scripts/dock_solv.prm

>  <Rbt.Receptor>
prm/pocket_docking_8.prm

>  <SCORE>
-9.59412

>  <SCORE.INTER>
-8.77987

>  <SCORE.INTER.CONST>
1

>  <SCORE.INTER.POLAR>
0

>  <SCORE.INTER.ROT>
5

>  <SCORE.INTER.SOLV>
12.4104

>  <SCORE.INTER.VDW>
-16.9234

>  <SCORE.INTER.norm>
-0.877987

>  <SCORE.INTRA>
-0.814256

>  <SCORE.INTRA.DIHEDRAL>
-0.616661

>  <SCORE.INTRA.DIHEDRAL.0>
2.22229

>  <SCORE.INTRA.POLAR>
0

>  <SCORE.INTRA.POLAR.0>
0

>  <SCORE.INTRA.REPUL>
0

>  <SCORE.INTRA.REPUL.0>
0

>  <SCORE.INTRA.SOLV>
-0.717586

>  <SCORE.INTRA.SOLV.lig_0>
-31.87

>  <SCORE.INTRA.VDW>
-0.147133

>  <SCORE.INTRA.VDW.0>
-0.575321

>  <SCORE.INTRA.norm>
-0.0814256

>  <SCORE.RESTR>
0

>  <SCORE.RESTR.CAVITY>
0

>  <SCORE.RESTR.norm>
0

>  <SCORE.SYSTEM>
0

>  <SCORE.SYSTEM.CONST>
0

>  <SCORE.SYSTEM.DIHEDRAL>
0

>  <SCORE.SYSTEM.SOLV>
0

>  <SCORE.SYSTEM.norm>
0

>  <SCORE.heavy>
10

>  <SCORE.norm>
-0.959412

>  <RMSD>
5.629

$$$$
ligand
 OpenBabel11021811463D
libRbt.so/2013.1/901 2013/11/27
 10  9  0  0  0  0  0  0  0  0999 V2000
   24.4939   43.4611   19.5646 N   0  0  0  0  0  0  0  0  0  0  0  0
   25.3633   42.3372   19.2392 C   0  0  2  0  0  0  0  0  0  0  0  0
   25.5333   42.1995   17.7272 C   0  0  0  0  0  0  0  0  0  0  0  0
   26.4780   41.5473   17.2733 O   0  0  0  0  0  0  0  0  0  0  0  0
   24.8247   41.0394   19.8492 C   0  0  0  0  0  0  0  0  0  0  0  0
   24.7451   41.0677   21.3707 C   0  0  0  0  0  0  0  0  0  0  0  0
   24.1194   39.7975   21.9400 C   0  0  0  0  0  0  0  0  0  0  0  0
   23.9956   39.8530   23.4708 C   0  0  0  0  0  0  0  0  0  0  0  0
   23.3495   38.6503   24.0856 N   0  0  0  0  0  0  0  0  0  0  0  0
   24.7330   42.7167   16.9368 O   0  0  0  0  0  0  0  0  0  0  0  0
  2  1  1  6  0  0  0
  2  3  1  0  0  0  0
  2  5  1  0  0  0  0
  3  4  1  0  0  0  0
  3 10  1  0  0  0  0
  5  6  1  0  0  0  0
  6  7  1  0  0  0  0
  7  8  1  0  0  0  0
  8  9  1  0  0  0  0
M  END
>  <CHROM.1>
161.44649831,-61.38701686,176.21224877,-177.95255785,178.23289166,24.77208427
41.27026334,20.10127610,1.04829698,1.05369752,-0.62703913

>  <Name>
ligand

>  <RI>
0

>  <Rbt.Current_Directory>
/home/itssahil/PROJECTS/Mol_Feturizer/New_Systems/rnas/3D0U

>  <Rbt.Executable>
rbdock ($Id: //depot/dev/client3/rdock/2013.1/src/exe/rbdock.cxx#4 $)

>  <Rbt.Library>
libRbt.so (2013.1, Build901 2013/11/27)

>  <Rbt.Parameter_File>
/export/apps/rDock/src/rDock_2013.1_src/data/scripts/dock_solv.prm

>  <Rbt.Receptor>
prm/pocket_docking_4.prm

>  <SCORE>
-9.56299

>  <SCORE.INTER>
-8.72977

>  <SCORE.INTER.CONST>
1

>  <SCORE.INTER.POLAR>
0

>  <SCORE.INTER.ROT>
5

>  <SCORE.INTER.SOLV>
12.3468

>  <SCORE.INTER.VDW>
-16.8688

>  <SCORE.INTER.norm>
-0.872977

>  <SCORE.INTRA>
-0.833211

>  <SCORE.INTRA.DIHEDRAL>
-0.672293

>  <SCORE.INTRA.DIHEDRAL.0>
2.22229

>  <SCORE.INTRA.POLAR>
0

>  <SCORE.INTRA.POLAR.0>
0

>  <SCORE.INTRA.REPUL>
0

>  <SCORE.INTRA.REPUL.0>
0

>  <SCORE.INTRA.SOLV>
-0.712304

>  <SCORE.INTRA.SOLV.lig_0>
-31.87

>  <SCORE.INTRA.VDW>
-0.140912

>  <SCORE.INTRA.VDW.0>
-0.575321

>  <SCORE.INTRA.norm>
-0.0833211

>  <SCORE.RESTR>
0

>  <SCORE.RESTR.CAVITY>
0

>  <SCORE.RESTR.norm>
0

>  <SCORE.SYSTEM>
0

>  <SCORE.SYSTEM.CONST>
0

>  <SCORE.SYSTEM.DIHEDRAL>
0

>  <SCORE.SYSTEM.SOLV>
0

>  <SCORE.SYSTEM.norm>
0

>  <SCORE.heavy>
10

>  <SCORE.norm>
-0.956299

>  <RMSD>
5.630

$$$$
ligand
 OpenBabel11021811463D
libRbt.so/2013.1/901 2013/11/27
 10  9  0  0  0  0  0  0  0  0999 V2000
   24.2233   42.7724   17.9025 N   0  0  0  0  0  0  0  0  0  0  0  0
   23.7895   43.4690   19.1074 C   0  0  2  0  0  0  0  0  0  0  0  0
   23.8400   44.9830   18.9097 C   0  0  0  0  0  0  0  0  0  0  0  0
   24.7679   45.4873   18.2705 O   0  0  0  0  0  0  0  0  0  0  0  0
   24.6346   43.0466   20.3131 C   0  0  0  0  0  0  0  0  0  0  0  0
   24.4146   41.5989   20.7350 C   0  0  0  0  0  0  0  0  0  0  0  0
   25.2102   41.2344   21.9853 C   0  0  0  0  0  0  0  0  0  0  0  0
   24.9583   39.7837   22.4253 C   0  0  0  0  0  0  0  0  0  0  0  0
   23.5547   39.5027   22.8644 N   0  0  0  0  0  0  0  0  0  0  0  0
   22.9589   45.7243   19.3647 O   0  0  0  0  0  0  0  0  0  0  0  0
  2  1  1  6  0  0  0
  2  3  1  0  0  0  0
  2  5  1  0  0  0  0
  3  4  1  0  0  0  0
  3 10  1  0  0  0  0
  5  6  1  0  0  0  0
  6  7  1  0  0  0  0
  7  8  1  0  0  0  0
  8  9  1  0  0  0  0
M  END
>  <CHROM.1>
-38.60062735,-67.77754898,-176.73190840,178.63328893,-64.81178065,24.23372207
42.80342057,20.17539171,-1.75586646,-1.07155216,2.33783265

>  <Name>
ligand

>  <RI>
0

>  <Rbt.Current_Directory>
/home/itssahil/PROJECTS/Mol_Feturizer/New_Systems/rnas/3D0U

>  <Rbt.Executable>
rbdock ($Id: //depot/dev/client3/rdock/2013.1/src/exe/rbdock.cxx#4 $)

>  <Rbt.Library>
libRbt.so (2013.1, Build901 2013/11/27)

>  <Rbt.Parameter_File>
/export/apps/rDock/src/rDock_2013.1_src/data/scripts/dock_solv.prm

>  <Rbt.Receptor>
prm/pocket_docking_5.prm

>  <SCORE>
-7.8397

>  <SCORE.INTER>
-7.43504

>  <SCORE.INTER.CONST>
1

>  <SCORE.INTER.POLAR>
0

>  <SCORE.INTER.ROT>
5

>  <SCORE.INTER.SOLV>
13.4682

>  <SCORE.INTER.VDW>
-16.3794

>  <SCORE.INTER.norm>
-0.743504

>  <SCORE.INTRA>
-0.404652

>  <SCORE.INTRA.DIHEDRAL>
-0.32735

>  <SCORE.INTRA.DIHEDRAL.0>
2.22229

>  <SCORE.INTRA.POLAR>
0

>  <SCORE.INTRA.POLAR.0>
0

>  <SCORE.INTRA.REPUL>
0

>  <SCORE.INTRA.REPUL.0>
0

>  <SCORE.INTRA.SOLV>
0.00502789

>  <SCORE.INTRA.SOLV.lig_0>
-31.87

>  <SCORE.INTRA.VDW>
-0.243491

>  <SCORE.INTRA.VDW.0>
-0.575321

>  <SCORE.INTRA.norm>
-0.0404652

>  <SCORE.RESTR>
0

>  <SCORE.RESTR.CAVITY>
0

>  <SCORE.RESTR.norm>
0

>  <SCORE.SYSTEM>
0

>  <SCORE.SYSTEM.CONST>
0

>  <SCORE.SYSTEM.DIHEDRAL>
0

>  <SCORE.SYSTEM.SOLV>
0

>  <SCORE.SYSTEM.norm>
0

>  <SCORE.heavy>
10

>  <SCORE.norm>
-0.78397

>  <RMSD>
5.630

$$$$
ligand
 OpenBabel11021811463D
libRbt.so/2013.1/901 2013/11/27
 10  9  0  0  0  0  0  0  0  0999 V2000
   24.5943   43.5233   19.5886 N   0  0  0  0  0  0  0  0  0  0  0  0
   25.4076   42.3659   19.2364 C   0  0  2  0  0  0  0  0  0  0  0  0
   25.5353   42.2304   17.7201 C   0  0  0  0  0  0  0  0  0  0  0  0
   26.4547   41.5613   17.2396 O   0  0  0  0  0  0  0  0  0  0  0  0
   24.8299   41.0882   19.8528 C   0  0  0  0  0  0  0  0  0  0  0  0
   24.7883   41.1106   21.3760 C   0  0  0  0  0  0  0  0  0  0  0  0
   24.1632   39.8447   21.9553 C   0  0  0  0  0  0  0  0  0  0  0  0
   24.0547   39.9052   23.4871 C   0  0  0  0  0  0  0  0  0  0  0  0
   23.4429   38.6915   24.1148 N   0  0  0  0  0  0  0  0  0  0  0  0
   24.7250   42.7661   16.9525 O   0  0  0  0  0  0  0  0  0  0  0  0
  2  1  1  6  0  0  0
  2  3  1  0  0  0  0
  2  5  1  0  0  0  0
  3  4  1  0  0  0  0
  3 10  1  0  0  0  0
  5  6  1  0  0  0  0
  6  7  1  0  0  0  0
  7  8  1  0  0  0  0
  8  9  1  0  0  0  0
M  END
>  <CHROM.1>
160.16139001,-61.39471749,178.00569541,-176.92395539,179.76481923,24.80703817
41.31197607,20.10768635,1.02396286,1.09731679,-0.59762376

>  <Name>
ligand

>  <RI>
0

>  <Rbt.Current_Directory>
/home/itssahil/PROJECTS/Mol_Feturizer/New_Systems/rnas/3D0U

>  <Rbt.Executable>
rbdock ($Id: //depot/dev/client3/rdock/2013.1/src/exe/rbdock.cxx#4 $)

>  <Rbt.Library>
libRbt.so (2013.1, Build901 2013/11/27)

>  <Rbt.Parameter_File>
/export/apps/rDock/src/rDock_2013.1_src/data/scripts/dock_solv.prm

>  <Rbt.Receptor>
prm/pocket_docking_5.prm

>  <SCORE>
-9.56472

>  <SCORE.INTER>
-8.70078

>  <SCORE.INTER.CONST>
1

>  <SCORE.INTER.POLAR>
0

>  <SCORE.INTER.ROT>
5

>  <SCORE.INTER.SOLV>
12.5861

>  <SCORE.INTER.VDW>
-16.9292

>  <SCORE.INTER.norm>
-0.870078

>  <SCORE.INTRA>
-0.863945

>  <SCORE.INTRA.DIHEDRAL>
-0.706099

>  <SCORE.INTRA.DIHEDRAL.0>
2.22229

>  <SCORE.INTRA.POLAR>
0

>  <SCORE.INTRA.POLAR.0>
0

>  <SCORE.INTRA.REPUL>
0

>  <SCORE.INTRA.REPUL.0>
0

>  <SCORE.INTRA.SOLV>
-0.722286

>  <SCORE.INTRA.SOLV.lig_0>
-31.87

>  <SCORE.INTRA.VDW>
-0.149752

>  <SCORE.INTRA.VDW.0>
-0.575321

>  <SCORE.INTRA.norm>
-0.0863945

>  <SCORE.RESTR>
0

>  <SCORE.RESTR.CAVITY>
0

>  <SCORE.RESTR.norm>
0

>  <SCORE.SYSTEM>
0

>  <SCORE.SYSTEM.CONST>
0

>  <SCORE.SYSTEM.DIHEDRAL>
0

>  <SCORE.SYSTEM.SOLV>
0

>  <SCORE.SYSTEM.norm>
0

>  <SCORE.heavy>
10

>  <SCORE.norm>
-0.956472

>  <RMSD>
5.631

$$$$
ligand
 OpenBabel11021811463D
libRbt.so/2013.1/901 2013/11/27
 10  9  0  0  0  0  0  0  0  0999 V2000
   24.7271   43.5565   19.6610 N   0  0  0  0  0  0  0  0  0  0  0  0
   25.4217   42.3370   19.2666 C   0  0  2  0  0  0  0  0  0  0  0  0
   25.5192   42.2329   17.7456 C   0  0  0  0  0  0  0  0  0  0  0  0
   26.4301   41.5760   17.2331 O   0  0  0  0  0  0  0  0  0  0  0  0
   24.7305   41.1035   19.8557 C   0  0  0  0  0  0  0  0  0  0  0  0
   24.7896   41.0396   21.3772 C   0  0  0  0  0  0  0  0  0  0  0  0
   24.0819   39.8063   21.9313 C   0  0  0  0  0  0  0  0  0  0  0  0
   24.1237   39.7600   23.4669 C   0  0  0  0  0  0  0  0  0  0  0  0
   23.4280   38.5802   24.0718 N   0  0  0  0  0  0  0  0  0  0  0  0
   24.6927   42.7824   17.0055 O   0  0  0  0  0  0  0  0  0  0  0  0
  2  1  1  6  0  0  0
  2  3  1  0  0  0  0
  2  5  1  0  0  0  0
  3  4  1  0  0  0  0
  3 10  1  0  0  0  0
  5  6  1  0  0  0  0
  6  7  1  0  0  0  0
  7  8  1  0  0  0  0
  8  9  1  0  0  0  0
M  END
>  <CHROM.1>
154.50147688,-65.26391718,179.49873901,-179.01062742,179.20082972,24.80125921
41.28149293,20.11683077,0.94327868,1.15586108,-0.48637280

>  <Name>
ligand

>  <RI>
0

>  <Rbt.Current_Directory>
/home/itssahil/PROJECTS/Mol_Feturizer/New_Systems/rnas/3D0U

>  <Rbt.Executable>
rbdock ($Id: //depot/dev/client3/rdock/2013.1/src/exe/rbdock.cxx#4 $)

>  <Rbt.Library>
libRbt.so (2013.1, Build901 2013/11/27)

>  <Rbt.Parameter_File>
/export/apps/rDock/src/rDock_2013.1_src/data/scripts/dock_solv.prm

>  <Rbt.Receptor>
prm/pocket_docking_5.prm

>  <SCORE>
-9.57749

>  <SCORE.INTER>
-8.63736

>  <SCORE.INTER.CONST>
1

>  <SCORE.INTER.POLAR>
0

>  <SCORE.INTER.ROT>
5

>  <SCORE.INTER.SOLV>
12.8163

>  <SCORE.INTER.VDW>
-16.9637

>  <SCORE.INTER.norm>
-0.863736

>  <SCORE.INTRA>
-0.940128

>  <SCORE.INTRA.DIHEDRAL>
-0.649458

>  <SCORE.INTRA.DIHEDRAL.0>
2.22229

>  <SCORE.INTRA.POLAR>
0

>  <SCORE.INTRA.POLAR.0>
0

>  <SCORE.INTRA.REPUL>
0

>  <SCORE.INTRA.REPUL.0>
0

>  <SCORE.INTRA.SOLV>
-0.780334

>  <SCORE.INTRA.SOLV.lig_0>
-31.87

>  <SCORE.INTRA.VDW>
-0.225232

>  <SCORE.INTRA.VDW.0>
-0.575321

>  <SCORE.INTRA.norm>
-0.0940128

>  <SCORE.RESTR>
0

>  <SCORE.RESTR.CAVITY>
0

>  <SCORE.RESTR.norm>
0

>  <SCORE.SYSTEM>
0

>  <SCORE.SYSTEM.CONST>
0

>  <SCORE.SYSTEM.DIHEDRAL>
0

>  <SCORE.SYSTEM.SOLV>
0

>  <SCORE.SYSTEM.norm>
0

>  <SCORE.heavy>
10

>  <SCORE.norm>
-0.957749

>  <RMSD>
5.632

$$$$
ligand
 OpenBabel11021811463D
libRbt.so/2013.1/901 2013/11/27
 10  9  0  0  0  0  0  0  0  0999 V2000
   24.2290   42.7698   17.8883 N   0  0  0  0  0  0  0  0  0  0  0  0
   23.8020   43.4678   19.0947 C   0  0  2  0  0  0  0  0  0  0  0  0
   23.8585   44.9817   18.8974 C   0  0  0  0  0  0  0  0  0  0  0  0
   22.9579   45.6932   19.3520 O   0  0  0  0  0  0  0  0  0  0  0  0
   24.6491   43.0413   20.2976 C   0  0  0  0  0  0  0  0  0  0  0  0
   24.3993   41.6049   20.7409 C   0  0  0  0  0  0  0  0  0  0  0  0
   25.2201   41.2292   21.9714 C   0  0  0  0  0  0  0  0  0  0  0  0
   24.9191   39.8001   22.4498 C   0  0  0  0  0  0  0  0  0  0  0  0
   23.5149   39.5866   22.9235 N   0  0  0  0  0  0  0  0  0  0  0  0
   24.7998   45.5214   18.3013 O   0  0  0  0  0  0  0  0  0  0  0  0
  2  1  1  6  0  0  0
  2  3  1  0  0  0  0
  2  5  1  0  0  0  0
  3  4  1  0  0  0  0
  3 10  1  0  0  0  0
  5  6  1  0  0  0  0
  6  7  1  0  0  0  0
  7  8  1  0  0  0  0
  8  9  1  0  0  0  0
M  END
>  <CHROM.1>
139.56850967,-69.18226729,-177.88674971,177.53860127,-64.01665154,24.23357009
42.81279886,20.17977574,-1.73210859,-1.04331094,2.35309101

>  <Name>
ligand

>  <RI>
0

>  <Rbt.Current_Directory>
/home/itssahil/PROJECTS/Mol_Feturizer/New_Systems/rnas/3D0U

>  <Rbt.Executable>
rbdock ($Id: //depot/dev/client3/rdock/2013.1/src/exe/rbdock.cxx#4 $)

>  <Rbt.Library>
libRbt.so (2013.1, Build901 2013/11/27)

>  <Rbt.Parameter_File>
/export/apps/rDock/src/rDock_2013.1_src/data/scripts/dock_solv.prm

>  <Rbt.Receptor>
prm/pocket_docking_6.prm

>  <SCORE>
-7.83665

>  <SCORE.INTER>
-7.39818

>  <SCORE.INTER.CONST>
1

>  <SCORE.INTER.POLAR>
0

>  <SCORE.INTER.ROT>
5

>  <SCORE.INTER.SOLV>
13.6072

>  <SCORE.INTER.VDW>
-16.4012

>  <SCORE.INTER.norm>
-0.739818

>  <SCORE.INTRA>
-0.438466

>  <SCORE.INTRA.DIHEDRAL>
-0.321274

>  <SCORE.INTRA.DIHEDRAL.0>
2.22229

>  <SCORE.INTRA.POLAR>
0

>  <SCORE.INTRA.POLAR.0>
0

>  <SCORE.INTRA.REPUL>
0

>  <SCORE.INTRA.REPUL.0>
0

>  <SCORE.INTRA.SOLV>
-0.00503097

>  <SCORE.INTRA.SOLV.lig_0>
-31.87

>  <SCORE.INTRA.VDW>
-0.275314

>  <SCORE.INTRA.VDW.0>
-0.575321

>  <SCORE.INTRA.norm>
-0.0438466

>  <SCORE.RESTR>
0

>  <SCORE.RESTR.CAVITY>
0

>  <SCORE.RESTR.norm>
0

>  <SCORE.SYSTEM>
0

>  <SCORE.SYSTEM.CONST>
0

>  <SCORE.SYSTEM.DIHEDRAL>
0

>  <SCORE.SYSTEM.SOLV>
0

>  <SCORE.SYSTEM.norm>
0

>  <SCORE.heavy>
10

>  <SCORE.norm>
-0.783665

>  <RMSD>
5.632

$$$$
ligand
 OpenBabel11021811463D
libRbt.so/2013.1/901 2013/11/27
 10  9  0  0  0  0  0  0  0  0999 V2000
   24.2483   42.7704   17.9171 N   0  0  0  0  0  0  0  0  0  0  0  0
   23.8046   43.4701   19.1166 C   0  0  2  0  0  0  0  0  0  0  0  0
   23.8462   44.9834   18.9118 C   0  0  0  0  0  0  0  0  0  0  0  0
   24.7729   45.4904   18.2729 O   0  0  0  0  0  0  0  0  0  0  0  0
   24.6471   43.0590   20.3280 C   0  0  0  0  0  0  0  0  0  0  0  0
   24.4247   41.6159   20.7642 C   0  0  0  0  0  0  0  0  0  0  0  0
   25.2001   41.2698   22.0322 C   0  0  0  0  0  0  0  0  0  0  0  0
   24.9694   39.8145   22.4690 C   0  0  0  0  0  0  0  0  0  0  0  0
   23.5624   39.5040   22.8762 N   0  0  0  0  0  0  0  0  0  0  0  0
   22.9591   45.7213   19.3605 O   0  0  0  0  0  0  0  0  0  0  0  0
  2  1  1  6  0  0  0
  2  3  1  0  0  0  0
  2  5  1  0  0  0  0
  3  4  1  0  0  0  0
  3 10  1  0  0  0  0
  5  6  1  0  0  0  0
  6  7  1  0  0  0  0
  7  8  1  0  0  0  0
  8  9  1  0  0  0  0
M  END
>  <CHROM.1>
-38.51751761,-68.32161260,-175.81592063,179.86222878,-64.75379247,24.24184640
42.81301668,20.19222191,-1.75670785,-1.07730004,2.33064001

>  <Name>
ligand

>  <RI>
0

>  <Rbt.Current_Directory>
/home/itssahil/PROJECTS/Mol_Feturizer/New_Systems/rnas/3D0U

>  <Rbt.Executable>
rbdock ($Id: //depot/dev/client3/rdock/2013.1/src/exe/rbdock.cxx#4 $)

>  <Rbt.Library>
libRbt.so (2013.1, Build901 2013/11/27)

>  <Rbt.Parameter_File>
/export/apps/rDock/src/rDock_2013.1_src/data/scripts/dock_solv.prm

>  <Rbt.Receptor>
prm/pocket_docking_4.prm

>  <SCORE>
-7.79792

>  <SCORE.INTER>
-7.40837

>  <SCORE.INTER.CONST>
1

>  <SCORE.INTER.POLAR>
0

>  <SCORE.INTER.ROT>
5

>  <SCORE.INTER.SOLV>
13.3873

>  <SCORE.INTER.VDW>
-16.3347

>  <SCORE.INTER.norm>
-0.740837

>  <SCORE.INTRA>
-0.389551

>  <SCORE.INTRA.DIHEDRAL>
-0.273959

>  <SCORE.INTRA.DIHEDRAL.0>
2.22229

>  <SCORE.INTRA.POLAR>
0

>  <SCORE.INTRA.POLAR.0>
0

>  <SCORE.INTRA.REPUL>
0

>  <SCORE.INTRA.REPUL.0>
0

>  <SCORE.INTRA.SOLV>
-0.0116614

>  <SCORE.INTRA.SOLV.lig_0>
-31.87

>  <SCORE.INTRA.VDW>
-0.246741

>  <SCORE.INTRA.VDW.0>
-0.575321

>  <SCORE.INTRA.norm>
-0.0389551

>  <SCORE.RESTR>
0

>  <SCORE.RESTR.CAVITY>
0

>  <SCORE.RESTR.norm>
0

>  <SCORE.SYSTEM>
0

>  <SCORE.SYSTEM.CONST>
0

>  <SCORE.SYSTEM.DIHEDRAL>
0

>  <SCORE.SYSTEM.SOLV>
0

>  <SCORE.SYSTEM.norm>
0

>  <SCORE.heavy>
10

>  <SCORE.norm>
-0.779792

>  <RMSD>
5.633

$$$$
ligand
 OpenBabel11021811463D
libRbt.so/2013.1/901 2013/11/27
 10  9  0  0  0  0  0  0  0  0999 V2000
   24.6708   43.5116   19.6602 N   0  0  0  0  0  0  0  0  0  0  0  0
   25.4269   42.3336   19.2531 C   0  0  2  0  0  0  0  0  0  0  0  0
   25.5104   42.2388   17.7307 C   0  0  0  0  0  0  0  0  0  0  0  0
   26.4241   41.5960   17.2055 O   0  0  0  0  0  0  0  0  0  0  0  0
   24.8132   41.0621   19.8472 C   0  0  0  0  0  0  0  0  0  0  0  0
   24.8481   41.0220   21.3702 C   0  0  0  0  0  0  0  0  0  0  0  0
   24.1555   39.7834   21.9314 C   0  0  0  0  0  0  0  0  0  0  0  0
   24.1510   39.7729   23.4681 C   0  0  0  0  0  0  0  0  0  0  0  0
   23.4710   38.5871   24.0791 N   0  0  0  0  0  0  0  0  0  0  0  0
   24.6697   42.7819   17.0019 O   0  0  0  0  0  0  0  0  0  0  0  0
  2  1  1  6  0  0  0
  2  3  1  0  0  0  0
  2  5  1  0  0  0  0
  3  4  1  0  0  0  0
  3 10  1  0  0  0  0
  5  6  1  0  0  0  0
  6  7  1  0  0  0  0
  7  8  1  0  0  0  0
  8  9  1  0  0  0  0
M  END
>  <CHROM.1>
156.99356605,-63.08564230,176.58375782,-178.01284181,179.37779680,24.82042517
41.27327342,20.11001596,1.00093494,1.13533783,-0.54854828

>  <Name>
ligand

>  <RI>
0

>  <Rbt.Current_Directory>
/home/itssahil/PROJECTS/Mol_Feturizer/New_Systems/rnas/3D0U

>  <Rbt.Executable>
rbdock ($Id: //depot/dev/client3/rdock/2013.1/src/exe/rbdock.cxx#4 $)

>  <Rbt.Library>
libRbt.so (2013.1, Build901 2013/11/27)

>  <Rbt.Parameter_File>
/export/apps/rDock/src/rDock_2013.1_src/data/scripts/dock_solv.prm

>  <Rbt.Receptor>
prm/pocket_docking_5.prm

>  <SCORE>
-9.61177

>  <SCORE.INTER>
-8.72093

>  <SCORE.INTER.CONST>
1

>  <SCORE.INTER.POLAR>
0

>  <SCORE.INTER.ROT>
5

>  <SCORE.INTER.SOLV>
12.7161

>  <SCORE.INTER.VDW>
-16.986

>  <SCORE.INTER.norm>
-0.872093

>  <SCORE.INTRA>
-0.89084

>  <SCORE.INTRA.DIHEDRAL>
-0.664707

>  <SCORE.INTRA.DIHEDRAL.0>
2.22229

>  <SCORE.INTRA.POLAR>
0

>  <SCORE.INTRA.POLAR.0>
0

>  <SCORE.INTRA.REPUL>
0

>  <SCORE.INTRA.REPUL.0>
0

>  <SCORE.INTRA.SOLV>
-0.737029

>  <SCORE.INTRA.SOLV.lig_0>
-31.87

>  <SCORE.INTRA.VDW>
-0.189971

>  <SCORE.INTRA.VDW.0>
-0.575321

>  <SCORE.INTRA.norm>
-0.089084

>  <SCORE.RESTR>
0

>  <SCORE.RESTR.CAVITY>
0

>  <SCORE.RESTR.norm>
0

>  <SCORE.SYSTEM>
0

>  <SCORE.SYSTEM.CONST>
0

>  <SCORE.SYSTEM.DIHEDRAL>
0

>  <SCORE.SYSTEM.SOLV>
0

>  <SCORE.SYSTEM.norm>
0

>  <SCORE.heavy>
10

>  <SCORE.norm>
-0.961177

>  <RMSD>
5.634

$$$$
ligand
 OpenBabel11021811463D
libRbt.so/2013.1/901 2013/11/27
 10  9  0  0  0  0  0  0  0  0999 V2000
   24.7206   43.5388   19.6739 N   0  0  0  0  0  0  0  0  0  0  0  0
   25.4257   42.3340   19.2539 C   0  0  2  0  0  0  0  0  0  0  0  0
   25.4948   42.2460   17.7303 C   0  0  0  0  0  0  0  0  0  0  0  0
   26.4044   41.6069   17.1937 O   0  0  0  0  0  0  0  0  0  0  0  0
   24.7650   41.0844   19.8442 C   0  0  0  0  0  0  0  0  0  0  0  0
   24.8041   41.0353   21.3668 C   0  0  0  0  0  0  0  0  0  0  0  0
   24.1158   39.7917   21.9224 C   0  0  0  0  0  0  0  0  0  0  0  0
   24.1260   39.7661   23.4590 C   0  0  0  0  0  0  0  0  0  0  0  0
   23.4468   38.5773   24.0648 N   0  0  0  0  0  0  0  0  0  0  0  0
   24.6465   42.7911   17.0120 O   0  0  0  0  0  0  0  0  0  0  0  0
  2  1  1  6  0  0  0
  2  3  1  0  0  0  0
  2  5  1  0  0  0  0
  3  4  1  0  0  0  0
  3 10  1  0  0  0  0
  5  6  1  0  0  0  0
  6  7  1  0  0  0  0
  7  8  1  0  0  0  0
  8  9  1  0  0  0  0
M  END
>  <CHROM.1>
154.58673087,-62.86461965,178.95282019,-178.50804850,179.17684362,24.80108988
41.28160456,20.10737140,0.95150515,1.16193685,-0.49250382

>  <Name>
ligand

>  <RI>
0

>  <Rbt.Current_Directory>
/home/itssahil/PROJECTS/Mol_Feturizer/New_Systems/rnas/3D0U

>  <Rbt.Executable>
rbdock ($Id: //depot/dev/client3/rdock/2013.1/src/exe/rbdock.cxx#4 $)

>  <Rbt.Library>
libRbt.so (2013.1, Build901 2013/11/27)

>  <Rbt.Parameter_File>
/export/apps/rDock/src/rDock_2013.1_src/data/scripts/dock_solv.prm

>  <Rbt.Receptor>
prm/pocket_docking_7.prm

>  <SCORE>
-9.58152

>  <SCORE.INTER>
-8.64563

>  <SCORE.INTER.CONST>
1

>  <SCORE.INTER.POLAR>
0

>  <SCORE.INTER.ROT>
5

>  <SCORE.INTER.SOLV>
12.795

>  <SCORE.INTER.VDW>
-16.9621

>  <SCORE.INTER.norm>
-0.864563

>  <SCORE.INTRA>
-0.935892

>  <SCORE.INTRA.DIHEDRAL>
-0.721621

>  <SCORE.INTRA.DIHEDRAL.0>
2.22229

>  <SCORE.INTRA.POLAR>
0

>  <SCORE.INTRA.POLAR.0>
0

>  <SCORE.INTRA.REPUL>
0

>  <SCORE.INTRA.REPUL.0>
0

>  <SCORE.INTRA.SOLV>
-0.747306

>  <SCORE.INTRA.SOLV.lig_0>
-31.87

>  <SCORE.INTRA.VDW>
-0.201429

>  <SCORE.INTRA.VDW.0>
-0.575321

>  <SCORE.INTRA.norm>
-0.0935892

>  <SCORE.RESTR>
0

>  <SCORE.RESTR.CAVITY>
0

>  <SCORE.RESTR.norm>
0

>  <SCORE.SYSTEM>
0

>  <SCORE.SYSTEM.CONST>
0

>  <SCORE.SYSTEM.DIHEDRAL>
0

>  <SCORE.SYSTEM.SOLV>
0

>  <SCORE.SYSTEM.norm>
0

>  <SCORE.heavy>
10

>  <SCORE.norm>
-0.958152

>  <RMSD>
5.634

$$$$
ligand
 OpenBabel11021811463D
libRbt.so/2013.1/901 2013/11/27
 10  9  0  0  0  0  0  0  0  0999 V2000
   24.6399   43.5005   19.6683 N   0  0  0  0  0  0  0  0  0  0  0  0
   25.4180   42.3399   19.2529 C   0  0  2  0  0  0  0  0  0  0  0  0
   25.4969   42.2534   17.7297 C   0  0  0  0  0  0  0  0  0  0  0  0
   26.4013   41.6022   17.1986 O   0  0  0  0  0  0  0  0  0  0  0  0
   24.8326   41.0537   19.8439 C   0  0  0  0  0  0  0  0  0  0  0  0
   24.8377   41.0251   21.3675 C   0  0  0  0  0  0  0  0  0  0  0  0
   24.1972   39.7564   21.9235 C   0  0  0  0  0  0  0  0  0  0  0  0
   24.1705   39.7507   23.4600 C   0  0  0  0  0  0  0  0  0  0  0  0
   23.5523   38.5291   24.0659 N   0  0  0  0  0  0  0  0  0  0  0  0
   24.6616   42.8115   17.0061 O   0  0  0  0  0  0  0  0  0  0  0  0
  2  1  1  6  0  0  0
  2  3  1  0  0  0  0
  2  5  1  0  0  0  0
  3  4  1  0  0  0  0
  3 10  1  0  0  0  0
  5  6  1  0  0  0  0
  6  7  1  0  0  0  0
  7  8  1  0  0  0  0
  8  9  1  0  0  0  0
M  END
>  <CHROM.1>
158.88446668,-61.40737728,177.68496927,-178.43232942,179.99439202,24.82694657
41.26688015,20.10690732,1.03282670,1.13237389,-0.57181186

>  <Name>
ligand

>  <RI>
0

>  <Rbt.Current_Directory>
/home/itssahil/PROJECTS/Mol_Feturizer/New_Systems/rnas/3D0U

>  <Rbt.Executable>
rbdock ($Id: //depot/dev/client3/rdock/2013.1/src/exe/rbdock.cxx#4 $)

>  <Rbt.Library>
libRbt.so (2013.1, Build901 2013/11/27)

>  <Rbt.Parameter_File>
/export/apps/rDock/src/rDock_2013.1_src/data/scripts/dock_solv.prm

>  <Rbt.Receptor>
prm/pocket_docking_4.prm

>  <SCORE>
-9.64431

>  <SCORE.INTER>
-8.75944

>  <SCORE.INTER.CONST>
1

>  <SCORE.INTER.POLAR>
0

>  <SCORE.INTER.ROT>
5

>  <SCORE.INTER.SOLV>
12.6657

>  <SCORE.INTER.VDW>
-16.9948

>  <SCORE.INTER.norm>
-0.875944

>  <SCORE.INTRA>
-0.88487

>  <SCORE.INTRA.DIHEDRAL>
-0.73056

>  <SCORE.INTRA.DIHEDRAL.0>
2.22229

>  <SCORE.INTRA.POLAR>
0

>  <SCORE.INTRA.POLAR.0>
0

>  <SCORE.INTRA.REPUL>
0

>  <SCORE.INTRA.REPUL.0>
0

>  <SCORE.INTRA.SOLV>
-0.721268

>  <SCORE.INTRA.SOLV.lig_0>
-31.87

>  <SCORE.INTRA.VDW>
-0.158956

>  <SCORE.INTRA.VDW.0>
-0.575321

>  <SCORE.INTRA.norm>
-0.088487

>  <SCORE.RESTR>
0

>  <SCORE.RESTR.CAVITY>
0

>  <SCORE.RESTR.norm>
0

>  <SCORE.SYSTEM>
0

>  <SCORE.SYSTEM.CONST>
0

>  <SCORE.SYSTEM.DIHEDRAL>
0

>  <SCORE.SYSTEM.SOLV>
0

>  <SCORE.SYSTEM.norm>
0

>  <SCORE.heavy>
10

>  <SCORE.norm>
-0.964431

>  <RMSD>
5.636

$$$$
ligand
 OpenBabel11021811463D
libRbt.so/2013.1/901 2013/11/27
 10  9  0  0  0  0  0  0  0  0999 V2000
   25.6670   42.8623   18.1270 N   0  0  0  0  0  0  0  0  0  0  0  0
   24.3381   43.2701   18.5661 C   0  0  2  0  0  0  0  0  0  0  0  0
   24.2426   44.7909   18.6742 C   0  0  0  0  0  0  0  0  0  0  0  0
   23.2575   45.3068   19.2104 O   0  0  0  0  0  0  0  0  0  0  0  0
   23.9775   42.6036   19.8973 C   0  0  0  0  0  0  0  0  0  0  0  0
   24.0275   41.0812   19.8505 C   0  0  0  0  0  0  0  0  0  0  0  0
   23.5835   40.4481   21.1661 C   0  0  0  0  0  0  0  0  0  0  0  0
   24.5320   40.7994   22.3231 C   0  0  0  0  0  0  0  0  0  0  0  0
   24.0794   40.3160   23.6659 N   0  0  0  0  0  0  0  0  0  0  0  0
   25.1421   45.5273   18.2482 O   0  0  0  0  0  0  0  0  0  0  0  0
  2  1  1  1  0  0  0
  2  3  1  0  0  0  0
  2  5  1  0  0  0  0
  3  4  1  0  0  0  0
  3 10  1  0  0  0  0
  5  6  1  0  0  0  0
  6  7  1  0  0  0  0
  7  8  1  0  0  0  0
  8  9  1  0  0  0  0
M  END
>  <CHROM.1>
-169.76884653,-57.48982241,-176.59806895,-64.23879776,174.45647218,24.28238674
42.74288927,19.96643860,-1.39937539,-1.11533600,2.56854569

>  <Name>
ligand

>  <RI>
0

>  <Rbt.Current_Directory>
/home/itssahil/PROJECTS/Mol_Feturizer/New_Systems/rnas/3D0U

>  <Rbt.Executable>
rbdock ($Id: //depot/dev/client3/rdock/2013.1/src/exe/rbdock.cxx#4 $)

>  <Rbt.Library>
libRbt.so (2013.1, Build901 2013/11/27)

>  <Rbt.Parameter_File>
/export/apps/rDock/src/rDock_2013.1_src/data/scripts/dock_solv.prm

>  <Rbt.Receptor>
prm/pocket_docking_6.prm

>  <SCORE>
-7.09854

>  <SCORE.INTER>
-7.49497

>  <SCORE.INTER.CONST>
1

>  <SCORE.INTER.POLAR>
0

>  <SCORE.INTER.ROT>
5

>  <SCORE.INTER.SOLV>
14.1403

>  <SCORE.INTER.VDW>
-16.6434

>  <SCORE.INTER.norm>
-0.749497

>  <SCORE.INTRA>
0.396432

>  <SCORE.INTRA.DIHEDRAL>
-0.471062

>  <SCORE.INTRA.DIHEDRAL.0>
2.22229

>  <SCORE.INTRA.POLAR>
0

>  <SCORE.INTRA.POLAR.0>
0

>  <SCORE.INTRA.REPUL>
0

>  <SCORE.INTRA.REPUL.0>
0

>  <SCORE.INTRA.SOLV>
-0.443553

>  <SCORE.INTRA.SOLV.lig_0>
-31.87

>  <SCORE.INTRA.VDW>
0.85374

>  <SCORE.INTRA.VDW.0>
-0.575321

>  <SCORE.INTRA.norm>
0.0396432

>  <SCORE.RESTR>
0

>  <SCORE.RESTR.CAVITY>
0

>  <SCORE.RESTR.norm>
0

>  <SCORE.SYSTEM>
0

>  <SCORE.SYSTEM.CONST>
0

>  <SCORE.SYSTEM.DIHEDRAL>
0

>  <SCORE.SYSTEM.SOLV>
0

>  <SCORE.SYSTEM.norm>
0

>  <SCORE.heavy>
10

>  <SCORE.norm>
-0.709854

>  <RMSD>
5.636

$$$$
ligand
 OpenBabel11021811463D
libRbt.so/2013.1/901 2013/11/27
 10  9  0  0  0  0  0  0  0  0999 V2000
   24.7148   43.5191   19.6807 N   0  0  0  0  0  0  0  0  0  0  0  0
   25.4371   42.3370   19.2269 C   0  0  2  0  0  0  0  0  0  0  0  0
   25.4755   42.2740   17.7010 C   0  0  0  0  0  0  0  0  0  0  0  0
   26.3918   41.6706   17.1351 O   0  0  0  0  0  0  0  0  0  0  0  0
   24.8171   41.0640   19.8112 C   0  0  0  0  0  0  0  0  0  0  0  0
   24.8633   41.0062   21.3333 C   0  0  0  0  0  0  0  0  0  0  0  0
   24.1140   39.7982   21.8884 C   0  0  0  0  0  0  0  0  0  0  0  0
   24.1179   39.7746   23.4250 C   0  0  0  0  0  0  0  0  0  0  0  0
   23.3444   38.6448   24.0308 N   0  0  0  0  0  0  0  0  0  0  0  0
   24.5958   42.8040   17.0096 O   0  0  0  0  0  0  0  0  0  0  0  0
  2  1  1  6  0  0  0
  2  3  1  0  0  0  0
  2  5  1  0  0  0  0
  3  4  1  0  0  0  0
  3 10  1  0  0  0  0
  5  6  1  0  0  0  0
  6  7  1  0  0  0  0
  7  8  1  0  0  0  0
  8  9  1  0  0  0  0
M  END
>  <CHROM.1>
154.14737714,-61.63760775,174.17890346,-177.80031608,177.36776639,24.79266890
41.29427250,20.07942487,0.94699468,1.15669194,-0.49100691

>  <Name>
ligand

>  <RI>
0

>  <Rbt.Current_Directory>
/home/itssahil/PROJECTS/Mol_Feturizer/New_Systems/rnas/3D0U

>  <Rbt.Executable>
rbdock ($Id: //depot/dev/client3/rdock/2013.1/src/exe/rbdock.cxx#4 $)

>  <Rbt.Library>
libRbt.so (2013.1, Build901 2013/11/27)

>  <Rbt.Parameter_File>
/export/apps/rDock/src/rDock_2013.1_src/data/scripts/dock_solv.prm

>  <Rbt.Receptor>
prm/pocket_docking_5.prm

>  <SCORE>
-9.56311

>  <SCORE.INTER>
-8.72949

>  <SCORE.INTER.CONST>
1

>  <SCORE.INTER.POLAR>
0

>  <SCORE.INTER.ROT>
5

>  <SCORE.INTER.SOLV>
12.7212

>  <SCORE.INTER.VDW>
-16.9934

>  <SCORE.INTER.norm>
-0.872949

>  <SCORE.INTRA>
-0.83362

>  <SCORE.INTRA.DIHEDRAL>
-0.574836

>  <SCORE.INTRA.DIHEDRAL.0>
2.22229

>  <SCORE.INTRA.POLAR>
0

>  <SCORE.INTRA.POLAR.0>
0

>  <SCORE.INTRA.REPUL>
0

>  <SCORE.INTRA.REPUL.0>
0

>  <SCORE.INTRA.SOLV>
-0.706644

>  <SCORE.INTRA.SOLV.lig_0>
-31.87

>  <SCORE.INTRA.VDW>
-0.19288

>  <SCORE.INTRA.VDW.0>
-0.575321

>  <SCORE.INTRA.norm>
-0.083362

>  <SCORE.RESTR>
0

>  <SCORE.RESTR.CAVITY>
0

>  <SCORE.RESTR.norm>
0

>  <SCORE.SYSTEM>
0

>  <SCORE.SYSTEM.CONST>
0

>  <SCORE.SYSTEM.DIHEDRAL>
0

>  <SCORE.SYSTEM.SOLV>
0

>  <SCORE.SYSTEM.norm>
0

>  <SCORE.heavy>
10

>  <SCORE.norm>
-0.956311

>  <RMSD>
5.637

$$$$
ligand
 OpenBabel11021811463D
libRbt.so/2013.1/901 2013/11/27
 10  9  0  0  0  0  0  0  0  0999 V2000
   24.6068   43.4934   19.6446 N   0  0  0  0  0  0  0  0  0  0  0  0
   25.4085   42.3432   19.2453 C   0  0  2  0  0  0  0  0  0  0  0  0
   25.5052   42.2481   17.7237 C   0  0  0  0  0  0  0  0  0  0  0  0
   26.4216   41.6024   17.2067 O   0  0  0  0  0  0  0  0  0  0  0  0
   24.8382   41.0514   19.8387 C   0  0  0  0  0  0  0  0  0  0  0  0
   24.8626   41.0170   21.3620 C   0  0  0  0  0  0  0  0  0  0  0  0
   24.2103   39.7561   21.9218 C   0  0  0  0  0  0  0  0  0  0  0  0
   24.1779   39.7583   23.4583 C   0  0  0  0  0  0  0  0  0  0  0  0
   23.5382   38.5495   24.0677 N   0  0  0  0  0  0  0  0  0  0  0  0
   24.6727   42.7937   16.9874 O   0  0  0  0  0  0  0  0  0  0  0  0
  2  1  1  6  0  0  0
  2  3  1  0  0  0  0
  2  5  1  0  0  0  0
  3  4  1  0  0  0  0
  3 10  1  0  0  0  0
  5  6  1  0  0  0  0
  6  7  1  0  0  0  0
  7  8  1  0  0  0  0
  8  9  1  0  0  0  0
M  END
>  <CHROM.1>
159.28785176,-62.98749247,176.47994954,-177.28286616,179.52382859,24.83072903
41.26575239,20.10094299,1.05398300,1.11361995,-0.59844474

>  <Name>
ligand

>  <RI>
0

>  <Rbt.Current_Directory>
/home/itssahil/PROJECTS/Mol_Feturizer/New_Systems/rnas/3D0U

>  <Rbt.Executable>
rbdock ($Id: //depot/dev/client3/rdock/2013.1/src/exe/rbdock.cxx#4 $)

>  <Rbt.Library>
libRbt.so (2013.1, Build901 2013/11/27)

>  <Rbt.Parameter_File>
/export/apps/rDock/src/rDock_2013.1_src/data/scripts/dock_solv.prm

>  <Rbt.Receptor>
prm/pocket_docking_8.prm

>  <SCORE>
-9.63819

>  <SCORE.INTER>
-8.77273

>  <SCORE.INTER.CONST>
1

>  <SCORE.INTER.POLAR>
0

>  <SCORE.INTER.ROT>
5

>  <SCORE.INTER.SOLV>
12.6044

>  <SCORE.INTER.VDW>
-16.9833

>  <SCORE.INTER.norm>
-0.877273

>  <SCORE.INTRA>
-0.865454

>  <SCORE.INTRA.DIHEDRAL>
-0.64911

>  <SCORE.INTRA.DIHEDRAL.0>
2.22229

>  <SCORE.INTRA.POLAR>
0

>  <SCORE.INTRA.POLAR.0>
0

>  <SCORE.INTRA.REPUL>
0

>  <SCORE.INTRA.REPUL.0>
0

>  <SCORE.INTRA.SOLV>
-0.73444

>  <SCORE.INTRA.SOLV.lig_0>
-31.87

>  <SCORE.INTRA.VDW>
-0.173678

>  <SCORE.INTRA.VDW.0>
-0.575321

>  <SCORE.INTRA.norm>
-0.0865454

>  <SCORE.RESTR>
0

>  <SCORE.RESTR.CAVITY>
0

>  <SCORE.RESTR.norm>
0

>  <SCORE.SYSTEM>
0

>  <SCORE.SYSTEM.CONST>
0

>  <SCORE.SYSTEM.DIHEDRAL>
0

>  <SCORE.SYSTEM.SOLV>
0

>  <SCORE.SYSTEM.norm>
0

>  <SCORE.heavy>
10

>  <SCORE.norm>
-0.963819

>  <RMSD>
5.637

$$$$
ligand
 OpenBabel11021811463D
libRbt.so/2013.1/901 2013/11/27
 10  9  0  0  0  0  0  0  0  0999 V2000
   24.6265   43.5061   19.6388 N   0  0  0  0  0  0  0  0  0  0  0  0
   25.4233   42.3496   19.2480 C   0  0  2  0  0  0  0  0  0  0  0  0
   25.5341   42.2526   17.7275 C   0  0  0  0  0  0  0  0  0  0  0  0
   26.4491   41.5976   17.2199 O   0  0  0  0  0  0  0  0  0  0  0  0
   24.8375   41.0624   19.8367 C   0  0  0  0  0  0  0  0  0  0  0  0
   24.8201   41.0413   21.3603 C   0  0  0  0  0  0  0  0  0  0  0  0
   24.1560   39.7833   21.9129 C   0  0  0  0  0  0  0  0  0  0  0  0
   24.1182   39.7797   23.4492 C   0  0  0  0  0  0  0  0  0  0  0  0
   23.4868   38.5633   24.0521 N   0  0  0  0  0  0  0  0  0  0  0  0
   24.7144   42.8061   16.9827 O   0  0  0  0  0  0  0  0  0  0  0  0
  2  1  1  6  0  0  0
  2  3  1  0  0  0  0
  2  5  1  0  0  0  0
  3  4  1  0  0  0  0
  3 10  1  0  0  0  0
  5  6  1  0  0  0  0
  6  7  1  0  0  0  0
  7  8  1  0  0  0  0
  8  9  1  0  0  0  0
M  END
>  <CHROM.1>
159.42814578,-61.78072421,176.61036997,-178.94833604,-179.54243930,24.82363960
41.27852960,20.09818764,1.02280221,1.11103665,-0.57048063

>  <Name>
ligand

>  <RI>
0

>  <Rbt.Current_Directory>
/home/itssahil/PROJECTS/Mol_Feturizer/New_Systems/rnas/3D0U

>  <Rbt.Executable>
rbdock ($Id: //depot/dev/client3/rdock/2013.1/src/exe/rbdock.cxx#4 $)

>  <Rbt.Library>
libRbt.so (2013.1, Build901 2013/11/27)

>  <Rbt.Parameter_File>
/export/apps/rDock/src/rDock_2013.1_src/data/scripts/dock_solv.prm

>  <Rbt.Receptor>
prm/pocket_docking_4.prm

>  <SCORE>
-9.61742

>  <SCORE.INTER>
-8.74561

>  <SCORE.INTER.CONST>
1

>  <SCORE.INTER.POLAR>
0

>  <SCORE.INTER.ROT>
5

>  <SCORE.INTER.SOLV>
12.6161

>  <SCORE.INTER.VDW>
-16.9691

>  <SCORE.INTER.norm>
-0.874561

>  <SCORE.INTRA>
-0.871814

>  <SCORE.INTRA.DIHEDRAL>
-0.704063

>  <SCORE.INTRA.DIHEDRAL.0>
2.22229

>  <SCORE.INTRA.POLAR>
0

>  <SCORE.INTRA.POLAR.0>
0

>  <SCORE.INTRA.REPUL>
0

>  <SCORE.INTRA.REPUL.0>
0

>  <SCORE.INTRA.SOLV>
-0.720122

>  <SCORE.INTRA.SOLV.lig_0>
-31.87

>  <SCORE.INTRA.VDW>
-0.159721

>  <SCORE.INTRA.VDW.0>
-0.575321

>  <SCORE.INTRA.norm>
-0.0871814

>  <SCORE.RESTR>
0

>  <SCORE.RESTR.CAVITY>
0

>  <SCORE.RESTR.norm>
0

>  <SCORE.SYSTEM>
0

>  <SCORE.SYSTEM.CONST>
0

>  <SCORE.SYSTEM.DIHEDRAL>
0

>  <SCORE.SYSTEM.SOLV>
0

>  <SCORE.SYSTEM.norm>
0

>  <SCORE.heavy>
10

>  <SCORE.norm>
-0.961742

>  <RMSD>
5.638

$$$$
ligand
 OpenBabel11021811463D
libRbt.so/2013.1/901 2013/11/27
 10  9  0  0  0  0  0  0  0  0999 V2000
   24.5836   43.4922   19.6320 N   0  0  0  0  0  0  0  0  0  0  0  0
   25.4013   42.3462   19.2535 C   0  0  2  0  0  0  0  0  0  0  0  0
   25.5273   42.2445   17.7345 C   0  0  0  0  0  0  0  0  0  0  0  0
   26.4452   41.5847   17.2382 O   0  0  0  0  0  0  0  0  0  0  0  0
   24.8298   41.0529   19.8426 C   0  0  0  0  0  0  0  0  0  0  0  0
   24.8135   41.0317   21.3662 C   0  0  0  0  0  0  0  0  0  0  0  0
   24.1946   39.7511   21.9194 C   0  0  0  0  0  0  0  0  0  0  0  0
   24.1470   39.7515   23.4554 C   0  0  0  0  0  0  0  0  0  0  0  0
   23.5548   38.5158   24.0588 N   0  0  0  0  0  0  0  0  0  0  0  0
   24.7172   42.7986   16.9798 O   0  0  0  0  0  0  0  0  0  0  0  0
  2  1  1  6  0  0  0
  2  3  1  0  0  0  0
  2  5  1  0  0  0  0
  3  4  1  0  0  0  0
  3 10  1  0  0  0  0
  5  6  1  0  0  0  0
  6  7  1  0  0  0  0
  7  8  1  0  0  0  0
  8  9  1  0  0  0  0
M  END
>  <CHROM.1>
160.50060802,-62.43385151,178.02871106,-178.48684266,-179.72635761,24.82865311
41.26125639,20.10345278,1.05871568,1.09980418,-0.60244337

>  <Name>
ligand

>  <RI>
0

>  <Rbt.Current_Directory>
/home/itssahil/PROJECTS/Mol_Feturizer/New_Systems/rnas/3D0U

>  <Rbt.Executable>
rbdock ($Id: //depot/dev/client3/rdock/2013.1/src/exe/rbdock.cxx#4 $)

>  <Rbt.Library>
libRbt.so (2013.1, Build901 2013/11/27)

>  <Rbt.Parameter_File>
/export/apps/rDock/src/rDock_2013.1_src/data/scripts/dock_solv.prm

>  <Rbt.Receptor>
prm/pocket_docking_4.prm

>  <SCORE>
-9.65445

>  <SCORE.INTER>
-8.76904

>  <SCORE.INTER.CONST>
1

>  <SCORE.INTER.POLAR>
0

>  <SCORE.INTER.ROT>
5

>  <SCORE.INTER.SOLV>
12.552

>  <SCORE.INTER.VDW>
-16.9634

>  <SCORE.INTER.norm>
-0.876904

>  <SCORE.INTRA>
-0.885415

>  <SCORE.INTRA.DIHEDRAL>
-0.718524

>  <SCORE.INTRA.DIHEDRAL.0>
2.22229

>  <SCORE.INTRA.POLAR>
0

>  <SCORE.INTRA.POLAR.0>
0

>  <SCORE.INTRA.REPUL>
0

>  <SCORE.INTRA.REPUL.0>
0

>  <SCORE.INTRA.SOLV>
-0.735189

>  <SCORE.INTRA.SOLV.lig_0>
-31.87

>  <SCORE.INTRA.VDW>
-0.158558

>  <SCORE.INTRA.VDW.0>
-0.575321

>  <SCORE.INTRA.norm>
-0.0885415

>  <SCORE.RESTR>
0

>  <SCORE.RESTR.CAVITY>
0

>  <SCORE.RESTR.norm>
0

>  <SCORE.SYSTEM>
0

>  <SCORE.SYSTEM.CONST>
0

>  <SCORE.SYSTEM.DIHEDRAL>
0

>  <SCORE.SYSTEM.SOLV>
0

>  <SCORE.SYSTEM.norm>
0

>  <SCORE.heavy>
10

>  <SCORE.norm>
-0.965445

>  <RMSD>
5.638

$$$$
ligand
 OpenBabel11021811463D
libRbt.so/2013.1/901 2013/11/27
 10  9  0  0  0  0  0  0  0  0999 V2000
   24.6163   43.4971   19.6519 N   0  0  0  0  0  0  0  0  0  0  0  0
   25.4084   42.3429   19.2451 C   0  0  2  0  0  0  0  0  0  0  0  0
   25.4984   42.2528   17.7228 C   0  0  0  0  0  0  0  0  0  0  0  0
   26.4220   41.6227   17.1993 O   0  0  0  0  0  0  0  0  0  0  0  0
   24.8316   41.0527   19.8360 C   0  0  0  0  0  0  0  0  0  0  0  0
   24.8283   41.0279   21.3597 C   0  0  0  0  0  0  0  0  0  0  0  0
   24.2067   39.7496   21.9151 C   0  0  0  0  0  0  0  0  0  0  0  0
   24.1477   39.7582   23.4508 C   0  0  0  0  0  0  0  0  0  0  0  0
   23.5538   38.5245   24.0564 N   0  0  0  0  0  0  0  0  0  0  0  0
   24.6534   42.7869   16.9923 O   0  0  0  0  0  0  0  0  0  0  0  0
  2  1  1  6  0  0  0
  2  3  1  0  0  0  0
  2  5  1  0  0  0  0
  3  4  1  0  0  0  0
  3 10  1  0  0  0  0
  5  6  1  0  0  0  0
  6  7  1  0  0  0  0
  7  8  1  0  0  0  0
  8  9  1  0  0  0  0
M  END
>  <CHROM.1>
157.99113259,-61.47269186,178.15296471,-177.39362644,-179.66400109,24.82304608
41.26608185,20.09824567,1.04569824,1.11962193,-0.58678592

>  <Name>
ligand

>  <RI>
0

>  <Rbt.Current_Directory>
/home/itssahil/PROJECTS/Mol_Feturizer/New_Systems/rnas/3D0U

>  <Rbt.Executable>
rbdock ($Id: //depot/dev/client3/rdock/2013.1/src/exe/rbdock.cxx#4 $)

>  <Rbt.Library>
libRbt.so (2013.1, Build901 2013/11/27)

>  <Rbt.Parameter_File>
/export/apps/rDock/src/rDock_2013.1_src/data/scripts/dock_solv.prm

>  <Rbt.Receptor>
prm/pocket_docking_7.prm

>  <SCORE>
-9.66119

>  <SCORE.INTER>
-8.77331

>  <SCORE.INTER.CONST>
1

>  <SCORE.INTER.POLAR>
0

>  <SCORE.INTER.ROT>
5

>  <SCORE.INTER.SOLV>
12.6166

>  <SCORE.INTER.VDW>
-16.9877

>  <SCORE.INTER.norm>
-0.877331

>  <SCORE.INTRA>
-0.887881

>  <SCORE.INTRA.DIHEDRAL>
-0.71983

>  <SCORE.INTRA.DIHEDRAL.0>
2.22229

>  <SCORE.INTRA.POLAR>
0

>  <SCORE.INTRA.POLAR.0>
0

>  <SCORE.INTRA.REPUL>
0

>  <SCORE.INTRA.REPUL.0>
0

>  <SCORE.INTRA.SOLV>
-0.724745

>  <SCORE.INTRA.SOLV.lig_0>
-31.87

>  <SCORE.INTRA.VDW>
-0.165594

>  <SCORE.INTRA.VDW.0>
-0.575321

>  <SCORE.INTRA.norm>
-0.0887881

>  <SCORE.RESTR>
0

>  <SCORE.RESTR.CAVITY>
0

>  <SCORE.RESTR.norm>
0

>  <SCORE.SYSTEM>
0

>  <SCORE.SYSTEM.CONST>
0

>  <SCORE.SYSTEM.DIHEDRAL>
0

>  <SCORE.SYSTEM.SOLV>
0

>  <SCORE.SYSTEM.norm>
0

>  <SCORE.heavy>
10

>  <SCORE.norm>
-0.966119

>  <RMSD>
5.638

$$$$
ligand
 OpenBabel11021811463D
libRbt.so/2013.1/901 2013/11/27
 10  9  0  0  0  0  0  0  0  0999 V2000
   24.6249   43.5636   19.5959 N   0  0  0  0  0  0  0  0  0  0  0  0
   25.3658   42.3660   19.2191 C   0  0  2  0  0  0  0  0  0  0  0  0
   25.4901   42.2573   17.7004 C   0  0  0  0  0  0  0  0  0  0  0  0
   26.4257   41.6217   17.2057 O   0  0  0  0  0  0  0  0  0  0  0  0
   24.7073   41.1132   19.8048 C   0  0  0  0  0  0  0  0  0  0  0  0
   24.7042   41.0813   21.3284 C   0  0  0  0  0  0  0  0  0  0  0  0
   24.0208   39.8326   21.8785 C   0  0  0  0  0  0  0  0  0  0  0  0
   24.0294   39.8013   23.4150 C   0  0  0  0  0  0  0  0  0  0  0  0
   23.3244   38.6251   24.0161 N   0  0  0  0  0  0  0  0  0  0  0  0
   24.6616   42.7816   16.9445 O   0  0  0  0  0  0  0  0  0  0  0  0
  2  1  1  6  0  0  0
  2  3  1  0  0  0  0
  2  5  1  0  0  0  0
  3  4  1  0  0  0  0
  3 10  1  0  0  0  0
  5  6  1  0  0  0  0
  6  7  1  0  0  0  0
  7  8  1  0  0  0  0
  8  9  1  0  0  0  0
M  END
>  <CHROM.1>
154.94160047,-63.36075202,179.04481504,179.60550760,177.69046533,24.74295188
41.30830379,20.06628167,0.96520558,1.12401454,-0.51708627

>  <Name>
ligand

>  <RI>
0

>  <Rbt.Current_Directory>
/home/itssahil/PROJECTS/Mol_Feturizer/New_Systems/rnas/3D0U

>  <Rbt.Executable>
rbdock ($Id: //depot/dev/client3/rdock/2013.1/src/exe/rbdock.cxx#4 $)

>  <Rbt.Library>
libRbt.so (2013.1, Build901 2013/11/27)

>  <Rbt.Parameter_File>
/export/apps/rDock/src/rDock_2013.1_src/data/scripts/dock_solv.prm

>  <Rbt.Receptor>
prm/pocket_docking_7.prm

>  <SCORE>
-9.53236

>  <SCORE.INTER>
-8.60102

>  <SCORE.INTER.CONST>
1

>  <SCORE.INTER.POLAR>
0

>  <SCORE.INTER.ROT>
5

>  <SCORE.INTER.SOLV>
12.5296

>  <SCORE.INTER.VDW>
-16.8439

>  <SCORE.INTER.norm>
-0.860102

>  <SCORE.INTRA>
-0.931346

>  <SCORE.INTRA.DIHEDRAL>
-0.700267

>  <SCORE.INTRA.DIHEDRAL.0>
2.22229

>  <SCORE.INTRA.POLAR>
0

>  <SCORE.INTRA.POLAR.0>
0

>  <SCORE.INTRA.REPUL>
0

>  <SCORE.INTRA.REPUL.0>
0

>  <SCORE.INTRA.SOLV>
-0.753553

>  <SCORE.INTRA.SOLV.lig_0>
-31.87

>  <SCORE.INTRA.VDW>
-0.204436

>  <SCORE.INTRA.VDW.0>
-0.575321

>  <SCORE.INTRA.norm>
-0.0931346

>  <SCORE.RESTR>
0

>  <SCORE.RESTR.CAVITY>
0

>  <SCORE.RESTR.norm>
0

>  <SCORE.SYSTEM>
0

>  <SCORE.SYSTEM.CONST>
0

>  <SCORE.SYSTEM.DIHEDRAL>
0

>  <SCORE.SYSTEM.SOLV>
0

>  <SCORE.SYSTEM.norm>
0

>  <SCORE.heavy>
10

>  <SCORE.norm>
-0.953236

>  <RMSD>
5.640

$$$$
ligand
 OpenBabel11021811463D
libRbt.so/2013.1/901 2013/11/27
 10  9  0  0  0  0  0  0  0  0999 V2000
   24.5819   43.5584   19.5896 N   0  0  0  0  0  0  0  0  0  0  0  0
   25.3502   42.3761   19.2195 C   0  0  2  0  0  0  0  0  0  0  0  0
   25.4866   42.2678   17.7017 C   0  0  0  0  0  0  0  0  0  0  0  0
   24.6398   42.7905   16.9712 O   0  0  0  0  0  0  0  0  0  0  0  0
   24.7145   41.1106   19.8030 C   0  0  0  0  0  0  0  0  0  0  0  0
   24.7010   41.0816   21.3266 C   0  0  0  0  0  0  0  0  0  0  0  0
   24.0555   39.8119   21.8744 C   0  0  0  0  0  0  0  0  0  0  0  0
   24.0194   39.8012   23.4107 C   0  0  0  0  0  0  0  0  0  0  0  0
   23.3905   38.5811   24.0087 N   0  0  0  0  0  0  0  0  0  0  0  0
   26.4407   41.6770   17.1787 O   0  0  0  0  0  0  0  0  0  0  0  0
  2  1  1  6  0  0  0
  2  3  1  0  0  0  0
  2  5  1  0  0  0  0
  3  4  1  0  0  0  0
  3 10  1  0  0  0  0
  5  6  1  0  0  0  0
  6  7  1  0  0  0  0
  7  8  1  0  0  0  0
  8  9  1  0  0  0  0
M  END
>  <CHROM.1>
-25.48554783,-63.30047737,179.72112410,-178.85805884,179.73145391,24.74558339
41.31026589,20.06383950,1.00636620,1.10488853,-0.55447943

>  <Name>
ligand

>  <RI>
0

>  <Rbt.Current_Directory>
/home/itssahil/PROJECTS/Mol_Feturizer/New_Systems/rnas/3D0U

>  <Rbt.Executable>
rbdock ($Id: //depot/dev/client3/rdock/2013.1/src/exe/rbdock.cxx#4 $)

>  <Rbt.Library>
libRbt.so (2013.1, Build901 2013/11/27)

>  <Rbt.Parameter_File>
/export/apps/rDock/src/rDock_2013.1_src/data/scripts/dock_solv.prm

>  <Rbt.Receptor>
prm/blind_docking_60.prm

>  <SCORE>
-9.41261

>  <SCORE.INTER>
-8.52834

>  <SCORE.INTER.CONST>
1

>  <SCORE.INTER.POLAR>
0

>  <SCORE.INTER.ROT>
5

>  <SCORE.INTER.SOLV>
12.4775

>  <SCORE.INTER.VDW>
-16.778

>  <SCORE.INTER.norm>
-0.852834

>  <SCORE.INTRA>
-0.884272

>  <SCORE.INTRA.DIHEDRAL>
-0.659306

>  <SCORE.INTRA.DIHEDRAL.0>
2.22229

>  <SCORE.INTRA.POLAR>
0

>  <SCORE.INTRA.POLAR.0>
0

>  <SCORE.INTRA.REPUL>
0

>  <SCORE.INTRA.REPUL.0>
0

>  <SCORE.INTRA.SOLV>
-0.743881

>  <SCORE.INTRA.SOLV.lig_0>
-31.87

>  <SCORE.INTRA.VDW>
-0.182678

>  <SCORE.INTRA.VDW.0>
-0.575321

>  <SCORE.INTRA.norm>
-0.0884272

>  <SCORE.RESTR>
0

>  <SCORE.RESTR.CAVITY>
0

>  <SCORE.RESTR.norm>
0

>  <SCORE.SYSTEM>
0

>  <SCORE.SYSTEM.CONST>
0

>  <SCORE.SYSTEM.DIHEDRAL>
0

>  <SCORE.SYSTEM.SOLV>
0

>  <SCORE.SYSTEM.norm>
0

>  <SCORE.heavy>
10

>  <SCORE.norm>
-0.941261

>  <RMSD>
5.643

$$$$
ligand
 OpenBabel11021811463D
libRbt.so/2013.1/901 2013/11/27
 10  9  0  0  0  0  0  0  0  0999 V2000
   24.5260   43.4828   19.5725 N   0  0  0  0  0  0  0  0  0  0  0  0
   25.3731   42.3491   19.2226 C   0  0  2  0  0  0  0  0  0  0  0  0
   25.5250   42.2294   17.7073 C   0  0  0  0  0  0  0  0  0  0  0  0
   24.7086   42.7814   16.9637 O   0  0  0  0  0  0  0  0  0  0  0  0
   24.8193   41.0522   19.8207 C   0  0  0  0  0  0  0  0  0  0  0  0
   24.7698   41.0554   21.3438 C   0  0  0  0  0  0  0  0  0  0  0  0
   24.1625   39.7725   21.9046 C   0  0  0  0  0  0  0  0  0  0  0  0
   24.1184   39.7801   23.4407 C   0  0  0  0  0  0  0  0  0  0  0  0
   23.5371   38.5428   24.0514 N   0  0  0  0  0  0  0  0  0  0  0  0
   26.4624   41.6002   17.1990 O   0  0  0  0  0  0  0  0  0  0  0  0
  2  1  1  6  0  0  0
  2  3  1  0  0  0  0
  2  5  1  0  0  0  0
  3  4  1  0  0  0  0
  3 10  1  0  0  0  0
  5  6  1  0  0  0  0
  6  7  1  0  0  0  0
  7  8  1  0  0  0  0
  8  9  1  0  0  0  0
M  END
>  <CHROM.1>
-19.43133075,-61.99546774,177.73335305,179.85826391,-179.75272286,24.80794265
41.26902560,20.07807185,1.07879165,1.07256151,-0.63302534

>  <Name>
ligand

>  <RI>
0

>  <Rbt.Current_Directory>
/home/itssahil/PROJECTS/Mol_Feturizer/New_Systems/rnas/3D0U

>  <Rbt.Executable>
rbdock ($Id: //depot/dev/client3/rdock/2013.1/src/exe/rbdock.cxx#4 $)

>  <Rbt.Library>
libRbt.so (2013.1, Build901 2013/11/27)

>  <Rbt.Parameter_File>
/export/apps/rDock/src/rDock_2013.1_src/data/scripts/dock_solv.prm

>  <Rbt.Receptor>
prm/pocket_docking_4.prm

>  <SCORE>
-9.5298

>  <SCORE.INTER>
-8.70225

>  <SCORE.INTER.CONST>
1

>  <SCORE.INTER.POLAR>
0

>  <SCORE.INTER.ROT>
5

>  <SCORE.INTER.SOLV>
12.4341

>  <SCORE.INTER.VDW>
-16.8795

>  <SCORE.INTER.norm>
-0.870225

>  <SCORE.INTRA>
-0.827545

>  <SCORE.INTRA.DIHEDRAL>
-0.676526

>  <SCORE.INTRA.DIHEDRAL.0>
2.22229

>  <SCORE.INTRA.POLAR>
0

>  <SCORE.INTRA.POLAR.0>
0

>  <SCORE.INTRA.REPUL>
0

>  <SCORE.INTRA.REPUL.0>
0

>  <SCORE.INTRA.SOLV>
-0.715829

>  <SCORE.INTRA.SOLV.lig_0>
-31.87

>  <SCORE.INTRA.VDW>
-0.131368

>  <SCORE.INTRA.VDW.0>
-0.575321

>  <SCORE.INTRA.norm>
-0.0827545

>  <SCORE.RESTR>
0

>  <SCORE.RESTR.CAVITY>
0

>  <SCORE.RESTR.norm>
0

>  <SCORE.SYSTEM>
0

>  <SCORE.SYSTEM.CONST>
0

>  <SCORE.SYSTEM.DIHEDRAL>
0

>  <SCORE.SYSTEM.SOLV>
0

>  <SCORE.SYSTEM.norm>
0

>  <SCORE.heavy>
10

>  <SCORE.norm>
-0.95298

>  <RMSD>
5.644

$$$$
ligand
 OpenBabel11021811463D
libRbt.so/2013.1/901 2013/11/27
 10  9  0  0  0  0  0  0  0  0999 V2000
   24.5999   43.5023   19.6175 N   0  0  0  0  0  0  0  0  0  0  0  0
   25.4013   42.3483   19.2285 C   0  0  2  0  0  0  0  0  0  0  0  0
   25.5129   42.2498   17.7081 C   0  0  0  0  0  0  0  0  0  0  0  0
   24.6847   42.8228   16.9941 O   0  0  0  0  0  0  0  0  0  0  0  0
   24.8202   41.0598   19.8186 C   0  0  0  0  0  0  0  0  0  0  0  0
   24.8031   41.0402   21.3423 C   0  0  0  0  0  0  0  0  0  0  0  0
   24.1695   39.7673   21.8965 C   0  0  0  0  0  0  0  0  0  0  0  0
   24.1463   39.7576   23.4331 C   0  0  0  0  0  0  0  0  0  0  0  0
   23.5568   38.5212   24.0375 N   0  0  0  0  0  0  0  0  0  0  0  0
   26.4292   41.6173   17.1666 O   0  0  0  0  0  0  0  0  0  0  0  0
  2  1  1  6  0  0  0
  2  3  1  0  0  0  0
  2  5  1  0  0  0  0
  3  4  1  0  0  0  0
  3 10  1  0  0  0  0
  5  6  1  0  0  0  0
  6  7  1  0  0  0  0
  7  8  1  0  0  0  0
  8  9  1  0  0  0  0
M  END
>  <CHROM.1>
-20.58630860,-61.81197520,177.78365420,-179.60530133,-178.98708479,24.81919081
41.27360262,20.07959034,1.05131119,1.10799060,-0.59321213

>  <Name>
ligand

>  <RI>
0

>  <Rbt.Current_Directory>
/home/itssahil/PROJECTS/Mol_Feturizer/New_Systems/rnas/3D0U

>  <Rbt.Executable>
rbdock ($Id: //depot/dev/client3/rdock/2013.1/src/exe/rbdock.cxx#4 $)

>  <Rbt.Library>
libRbt.so (2013.1, Build901 2013/11/27)

>  <Rbt.Parameter_File>
/export/apps/rDock/src/rDock_2013.1_src/data/scripts/dock_solv.prm

>  <Rbt.Receptor>
prm/pocket_docking_7.prm

>  <SCORE>
-9.50695

>  <SCORE.INTER>
-8.67495

>  <SCORE.INTER.CONST>
1

>  <SCORE.INTER.POLAR>
0

>  <SCORE.INTER.ROT>
5

>  <SCORE.INTER.SOLV>
12.5582

>  <SCORE.INTER.VDW>
-16.9027

>  <SCORE.INTER.norm>
-0.867495

>  <SCORE.INTRA>
-0.832003

>  <SCORE.INTRA.DIHEDRAL>
-0.675494

>  <SCORE.INTRA.DIHEDRAL.0>
2.22229

>  <SCORE.INTRA.POLAR>
0

>  <SCORE.INTRA.POLAR.0>
0

>  <SCORE.INTRA.REPUL>
0

>  <SCORE.INTRA.REPUL.0>
0

>  <SCORE.INTRA.SOLV>
-0.714072

>  <SCORE.INTRA.SOLV.lig_0>
-31.87

>  <SCORE.INTRA.VDW>
-0.13722

>  <SCORE.INTRA.VDW.0>
-0.575321

>  <SCORE.INTRA.norm>
-0.0832003

>  <SCORE.RESTR>
0

>  <SCORE.RESTR.CAVITY>
0

>  <SCORE.RESTR.norm>
0

>  <SCORE.SYSTEM>
0

>  <SCORE.SYSTEM.CONST>
0

>  <SCORE.SYSTEM.DIHEDRAL>
0

>  <SCORE.SYSTEM.SOLV>
0

>  <SCORE.SYSTEM.norm>
0

>  <SCORE.heavy>
10

>  <SCORE.norm>
-0.950695

>  <RMSD>
5.644

$$$$
ligand
 OpenBabel11021811463D
libRbt.so/2013.1/901 2013/11/27
 10  9  0  0  0  0  0  0  0  0999 V2000
   24.6691   43.5597   19.6028 N   0  0  0  0  0  0  0  0  0  0  0  0
   25.3861   42.3570   19.1971 C   0  0  2  0  0  0  0  0  0  0  0  0
   25.4709   42.2604   17.6749 C   0  0  0  0  0  0  0  0  0  0  0  0
   24.6062   42.7984   16.9772 O   0  0  0  0  0  0  0  0  0  0  0  0
   24.7279   41.1067   19.7885 C   0  0  0  0  0  0  0  0  0  0  0  0
   24.7538   41.0662   21.3116 C   0  0  0  0  0  0  0  0  0  0  0  0
   24.0616   39.8253   21.8682 C   0  0  0  0  0  0  0  0  0  0  0  0
   24.0669   39.8036   23.4049 C   0  0  0  0  0  0  0  0  0  0  0  0
   23.3522   38.6364   24.0120 N   0  0  0  0  0  0  0  0  0  0  0  0
   26.4007   41.6641   17.1155 O   0  0  0  0  0  0  0  0  0  0  0  0
  2  1  1  6  0  0  0
  2  3  1  0  0  0  0
  2  5  1  0  0  0  0
  3  4  1  0  0  0  0
  3 10  1  0  0  0  0
  5  6  1  0  0  0  0
  6  7  1  0  0  0  0
  7  8  1  0  0  0  0
  8  9  1  0  0  0  0
M  END
>  <CHROM.1>
-26.74733380,-62.94145248,178.64525301,-178.88821477,177.63717286,24.75599224
41.31255936,20.05053738,0.95625187,1.14414506,-0.50450666

>  <Name>
ligand

>  <RI>
0

>  <Rbt.Current_Directory>
/home/itssahil/PROJECTS/Mol_Feturizer/New_Systems/rnas/3D0U

>  <Rbt.Executable>
rbdock ($Id: //depot/dev/client3/rdock/2013.1/src/exe/rbdock.cxx#4 $)

>  <Rbt.Library>
libRbt.so (2013.1, Build901 2013/11/27)

>  <Rbt.Parameter_File>
/export/apps/rDock/src/rDock_2013.1_src/data/scripts/dock_solv.prm

>  <Rbt.Receptor>
prm/pocket_docking_5.prm

>  <SCORE>
-9.4505

>  <SCORE.INTER>
-8.57669

>  <SCORE.INTER.CONST>
1

>  <SCORE.INTER.POLAR>
0

>  <SCORE.INTER.ROT>
5

>  <SCORE.INTER.SOLV>
12.6091

>  <SCORE.INTER.VDW>
-16.8541

>  <SCORE.INTER.norm>
-0.857669

>  <SCORE.INTRA>
-0.873805

>  <SCORE.INTRA.DIHEDRAL>
-0.640594

>  <SCORE.INTRA.DIHEDRAL.0>
2.22229

>  <SCORE.INTRA.POLAR>
0

>  <SCORE.INTRA.POLAR.0>
0

>  <SCORE.INTRA.REPUL>
0

>  <SCORE.INTRA.REPUL.0>
0

>  <SCORE.INTRA.SOLV>
-0.734208

>  <SCORE.INTRA.SOLV.lig_0>
-31.87

>  <SCORE.INTRA.VDW>
-0.186403

>  <SCORE.INTRA.VDW.0>
-0.575321

>  <SCORE.INTRA.norm>
-0.0873805

>  <SCORE.RESTR>
0

>  <SCORE.RESTR.CAVITY>
0

>  <SCORE.RESTR.norm>
0

>  <SCORE.SYSTEM>
0

>  <SCORE.SYSTEM.CONST>
0

>  <SCORE.SYSTEM.DIHEDRAL>
0

>  <SCORE.SYSTEM.SOLV>
0

>  <SCORE.SYSTEM.norm>
0

>  <SCORE.heavy>
10

>  <SCORE.norm>
-0.94505

>  <RMSD>
5.645

$$$$
ligand
 OpenBabel11021811463D
libRbt.so/2013.1/901 2013/11/27
 10  9  0  0  0  0  0  0  0  0999 V2000
   24.5810   43.5112   19.6368 N   0  0  0  0  0  0  0  0  0  0  0  0
   25.3965   42.3749   19.2257 C   0  0  2  0  0  0  0  0  0  0  0  0
   25.4862   42.2909   17.7029 C   0  0  0  0  0  0  0  0  0  0  0  0
   24.6444   42.8656   17.0065 O   0  0  0  0  0  0  0  0  0  0  0  0
   24.8476   41.0714   19.8137 C   0  0  0  0  0  0  0  0  0  0  0  0
   24.8587   41.0372   21.3372 C   0  0  0  0  0  0  0  0  0  0  0  0
   24.2272   39.7631   21.8909 C   0  0  0  0  0  0  0  0  0  0  0  0
   24.1979   39.7559   23.4275 C   0  0  0  0  0  0  0  0  0  0  0  0
   23.5901   38.5280   24.0312 N   0  0  0  0  0  0  0  0  0  0  0  0
   26.3979   41.6686   17.1422 O   0  0  0  0  0  0  0  0  0  0  0  0
  2  1  1  6  0  0  0
  2  3  1  0  0  0  0
  2  5  1  0  0  0  0
  3  4  1  0  0  0  0
  3 10  1  0  0  0  0
  5  6  1  0  0  0  0
  6  7  1  0  0  0  0
  7  8  1  0  0  0  0
  8  9  1  0  0  0  0
M  END
>  <CHROM.1>
-19.88761273,-62.00057445,176.47170236,-178.04672508,-179.92636633,24.82890063
41.29205385,20.07673975,1.07930025,1.10903605,-0.61413494

>  <Name>
ligand

>  <RI>
0

>  <Rbt.Current_Directory>
/home/itssahil/PROJECTS/Mol_Feturizer/New_Systems/rnas/3D0U

>  <Rbt.Executable>
rbdock ($Id: //depot/dev/client3/rdock/2013.1/src/exe/rbdock.cxx#4 $)

>  <Rbt.Library>
libRbt.so (2013.1, Build901 2013/11/27)

>  <Rbt.Parameter_File>
/export/apps/rDock/src/rDock_2013.1_src/data/scripts/dock_solv.prm

>  <Rbt.Receptor>
prm/pocket_docking_6.prm

>  <SCORE>
-9.52549

>  <SCORE.INTER>
-8.72072

>  <SCORE.INTER.CONST>
1

>  <SCORE.INTER.POLAR>
0

>  <SCORE.INTER.ROT>
5

>  <SCORE.INTER.SOLV>
12.569

>  <SCORE.INTER.VDW>
-16.9368

>  <SCORE.INTER.norm>
-0.872072

>  <SCORE.INTRA>
-0.804764

>  <SCORE.INTRA.DIHEDRAL>
-0.629847

>  <SCORE.INTRA.DIHEDRAL.0>
2.22229

>  <SCORE.INTRA.POLAR>
0

>  <SCORE.INTRA.POLAR.0>
0

>  <SCORE.INTRA.REPUL>
0

>  <SCORE.INTRA.REPUL.0>
0

>  <SCORE.INTRA.SOLV>
-0.709474

>  <SCORE.INTRA.SOLV.lig_0>
-31.87

>  <SCORE.INTRA.VDW>
-0.135104

>  <SCORE.INTRA.VDW.0>
-0.575321

>  <SCORE.INTRA.norm>
-0.0804764

>  <SCORE.RESTR>
0

>  <SCORE.RESTR.CAVITY>
0

>  <SCORE.RESTR.norm>
0

>  <SCORE.SYSTEM>
0

>  <SCORE.SYSTEM.CONST>
0

>  <SCORE.SYSTEM.DIHEDRAL>
0

>  <SCORE.SYSTEM.SOLV>
0

>  <SCORE.SYSTEM.norm>
0

>  <SCORE.heavy>
10

>  <SCORE.norm>
-0.952549

>  <RMSD>
5.645

$$$$
ligand
 OpenBabel11021811463D
libRbt.so/2013.1/901 2013/11/27
 10  9  0  0  0  0  0  0  0  0999 V2000
   24.6109   43.5039   19.6396 N   0  0  0  0  0  0  0  0  0  0  0  0
   25.4003   42.3489   19.2300 C   0  0  2  0  0  0  0  0  0  0  0  0
   25.4856   42.2592   17.7073 C   0  0  0  0  0  0  0  0  0  0  0  0
   24.6114   42.7852   17.0123 O   0  0  0  0  0  0  0  0  0  0  0  0
   24.8237   41.0593   19.8222 C   0  0  0  0  0  0  0  0  0  0  0  0
   24.8219   41.0353   21.3459 C   0  0  0  0  0  0  0  0  0  0  0  0
   24.2081   39.7537   21.9026 C   0  0  0  0  0  0  0  0  0  0  0  0
   24.1884   39.7452   23.4393 C   0  0  0  0  0  0  0  0  0  0  0  0
   23.6444   38.4893   24.0464 N   0  0  0  0  0  0  0  0  0  0  0  0
   26.4248   41.6807   17.1452 O   0  0  0  0  0  0  0  0  0  0  0  0
  2  1  1  6  0  0  0
  2  3  1  0  0  0  0
  2  5  1  0  0  0  0
  3  4  1  0  0  0  0
  3 10  1  0  0  0  0
  5  6  1  0  0  0  0
  6  7  1  0  0  0  0
  7  8  1  0  0  0  0
  8  9  1  0  0  0  0
M  END
>  <CHROM.1>
-24.11130131,-61.33026719,178.49996228,-179.07999153,-177.79406630,24.82798576
41.27126399,20.08431895,1.07193794,1.11812212,-0.60757282

>  <Name>
ligand

>  <RI>
0

>  <Rbt.Current_Directory>
/home/itssahil/PROJECTS/Mol_Feturizer/New_Systems/rnas/3D0U

>  <Rbt.Executable>
rbdock ($Id: //depot/dev/client3/rdock/2013.1/src/exe/rbdock.cxx#4 $)

>  <Rbt.Library>
libRbt.so (2013.1, Build901 2013/11/27)

>  <Rbt.Parameter_File>
/export/apps/rDock/src/rDock_2013.1_src/data/scripts/dock_solv.prm

>  <Rbt.Receptor>
prm/pocket_docking_8.prm

>  <SCORE>
-9.50595

>  <SCORE.INTER>
-8.65853

>  <SCORE.INTER.CONST>
1

>  <SCORE.INTER.POLAR>
0

>  <SCORE.INTER.ROT>
5

>  <SCORE.INTER.SOLV>
12.6304

>  <SCORE.INTER.VDW>
-16.9158

>  <SCORE.INTER.norm>
-0.865853

>  <SCORE.INTRA>
-0.847427

>  <SCORE.INTRA.DIHEDRAL>
-0.67414

>  <SCORE.INTRA.DIHEDRAL.0>
2.22229

>  <SCORE.INTRA.POLAR>
0

>  <SCORE.INTRA.POLAR.0>
0

>  <SCORE.INTRA.REPUL>
0

>  <SCORE.INTRA.REPUL.0>
0

>  <SCORE.INTRA.SOLV>
-0.712554

>  <SCORE.INTRA.SOLV.lig_0>
-31.87

>  <SCORE.INTRA.VDW>
-0.154079

>  <SCORE.INTRA.VDW.0>
-0.575321

>  <SCORE.INTRA.norm>
-0.0847427

>  <SCORE.RESTR>
0

>  <SCORE.RESTR.CAVITY>
0

>  <SCORE.RESTR.norm>
0

>  <SCORE.SYSTEM>
0

>  <SCORE.SYSTEM.CONST>
0

>  <SCORE.SYSTEM.DIHEDRAL>
0

>  <SCORE.SYSTEM.SOLV>
0

>  <SCORE.SYSTEM.norm>
0

>  <SCORE.heavy>
10

>  <SCORE.norm>
-0.950595

>  <RMSD>
5.646

$$$$
ligand
 OpenBabel11021811463D
libRbt.so/2013.1/901 2013/11/27
 10  9  0  0  0  0  0  0  0  0999 V2000
   24.5995   43.5216   19.6153 N   0  0  0  0  0  0  0  0  0  0  0  0
   25.3970   42.3694   19.2136 C   0  0  2  0  0  0  0  0  0  0  0  0
   25.4952   42.2782   17.6919 C   0  0  0  0  0  0  0  0  0  0  0  0
   24.6379   42.8206   16.9885 O   0  0  0  0  0  0  0  0  0  0  0  0
   24.8208   41.0781   19.8026 C   0  0  0  0  0  0  0  0  0  0  0  0
   24.8216   41.0491   21.3262 C   0  0  0  0  0  0  0  0  0  0  0  0
   24.1734   39.7834   21.8802 C   0  0  0  0  0  0  0  0  0  0  0  0
   24.1396   39.7790   23.4166 C   0  0  0  0  0  0  0  0  0  0  0  0
   23.5275   38.5535   24.0208 N   0  0  0  0  0  0  0  0  0  0  0  0
   26.4288   41.6820   17.1387 O   0  0  0  0  0  0  0  0  0  0  0  0
  2  1  1  6  0  0  0
  2  3  1  0  0  0  0
  2  5  1  0  0  0  0
  3  4  1  0  0  0  0
  3 10  1  0  0  0  0
  5  6  1  0  0  0  0
  6  7  1  0  0  0  0
  7  8  1  0  0  0  0
  8  9  1  0  0  0  0
M  END
>  <CHROM.1>
-22.78986158,-62.01352738,176.92361939,-178.30425296,-179.36361959,24.81062901
41.29661273,20.06473800,1.05075828,1.10885157,-0.59256687

>  <Name>
ligand

>  <RI>
0

>  <Rbt.Current_Directory>
/home/itssahil/PROJECTS/Mol_Feturizer/New_Systems/rnas/3D0U

>  <Rbt.Executable>
rbdock ($Id: //depot/dev/client3/rdock/2013.1/src/exe/rbdock.cxx#4 $)

>  <Rbt.Library>
libRbt.so (2013.1, Build901 2013/11/27)

>  <Rbt.Parameter_File>
/export/apps/rDock/src/rDock_2013.1_src/data/scripts/dock_solv.prm

>  <Rbt.Receptor>
prm/pocket_docking_5.prm

>  <SCORE>
-9.51835

>  <SCORE.INTER>
-8.68653

>  <SCORE.INTER.CONST>
1

>  <SCORE.INTER.POLAR>
0

>  <SCORE.INTER.ROT>
5

>  <SCORE.INTER.SOLV>
12.5751

>  <SCORE.INTER.VDW>
-16.9161

>  <SCORE.INTER.norm>
-0.868653

>  <SCORE.INTRA>
-0.831822

>  <SCORE.INTRA.DIHEDRAL>
-0.642652

>  <SCORE.INTRA.DIHEDRAL.0>
2.22229

>  <SCORE.INTRA.POLAR>
0

>  <SCORE.INTRA.POLAR.0>
0

>  <SCORE.INTRA.REPUL>
0

>  <SCORE.INTRA.REPUL.0>
0

>  <SCORE.INTRA.SOLV>
-0.712849

>  <SCORE.INTRA.SOLV.lig_0>
-31.87

>  <SCORE.INTRA.VDW>
-0.154071

>  <SCORE.INTRA.VDW.0>
-0.575321

>  <SCORE.INTRA.norm>
-0.0831822

>  <SCORE.RESTR>
0

>  <SCORE.RESTR.CAVITY>
0

>  <SCORE.RESTR.norm>
0

>  <SCORE.SYSTEM>
0

>  <SCORE.SYSTEM.CONST>
0

>  <SCORE.SYSTEM.DIHEDRAL>
0

>  <SCORE.SYSTEM.SOLV>
0

>  <SCORE.SYSTEM.norm>
0

>  <SCORE.heavy>
10

>  <SCORE.norm>
-0.951835

>  <RMSD>
5.647

$$$$
ligand
 OpenBabel11021811463D
libRbt.so/2013.1/901 2013/11/27
 10  9  0  0  0  0  0  0  0  0999 V2000
   24.6447   43.5260   19.6209 N   0  0  0  0  0  0  0  0  0  0  0  0
   25.4163   42.3587   19.2119 C   0  0  2  0  0  0  0  0  0  0  0  0
   25.5047   42.2699   17.6894 C   0  0  0  0  0  0  0  0  0  0  0  0
   26.4285   41.6414   17.1645 O   0  0  0  0  0  0  0  0  0  0  0  0
   24.8167   41.0779   19.8003 C   0  0  0  0  0  0  0  0  0  0  0  0
   24.8267   41.0437   21.3238 C   0  0  0  0  0  0  0  0  0  0  0  0
   24.1737   39.7803   21.8774 C   0  0  0  0  0  0  0  0  0  0  0  0
   24.1428   39.7742   23.4139 C   0  0  0  0  0  0  0  0  0  0  0  0
   23.5333   38.5472   24.0179 N   0  0  0  0  0  0  0  0  0  0  0  0
   24.6583   42.8036   16.9602 O   0  0  0  0  0  0  0  0  0  0  0  0
  2  1  1  6  0  0  0
  2  3  1  0  0  0  0
  2  5  1  0  0  0  0
  3  4  1  0  0  0  0
  3 10  1  0  0  0  0
  5  6  1  0  0  0  0
  6  7  1  0  0  0  0
  7  8  1  0  0  0  0
  8  9  1  0  0  0  0
M  END
>  <CHROM.1>
156.90301074,-62.09940190,177.75895031,-178.01099388,-179.02611825,24.82098249
41.28684888,20.06333955,1.02417862,1.12830299,-0.56465446

>  <Name>
ligand

>  <RI>
0

>  <Rbt.Current_Directory>
/home/itssahil/PROJECTS/Mol_Feturizer/New_Systems/rnas/3D0U

>  <Rbt.Executable>
rbdock ($Id: //depot/dev/client3/rdock/2013.1/src/exe/rbdock.cxx#4 $)

>  <Rbt.Library>
libRbt.so (2013.1, Build901 2013/11/27)

>  <Rbt.Parameter_File>
/export/apps/rDock/src/rDock_2013.1_src/data/scripts/dock_solv.prm

>  <Rbt.Receptor>
prm/pocket_docking_6.prm

>  <SCORE>
-9.6079

>  <SCORE.INTER>
-8.70658

>  <SCORE.INTER.CONST>
1

>  <SCORE.INTER.POLAR>
0

>  <SCORE.INTER.ROT>
5

>  <SCORE.INTER.SOLV>
12.6531

>  <SCORE.INTER.VDW>
-16.9554

>  <SCORE.INTER.norm>
-0.870658

>  <SCORE.INTRA>
-0.90132

>  <SCORE.INTRA.DIHEDRAL>
-0.712389

>  <SCORE.INTRA.DIHEDRAL.0>
2.22229

>  <SCORE.INTRA.POLAR>
0

>  <SCORE.INTRA.POLAR.0>
0

>  <SCORE.INTRA.REPUL>
0

>  <SCORE.INTRA.REPUL.0>
0

>  <SCORE.INTRA.SOLV>
-0.730873

>  <SCORE.INTRA.SOLV.lig_0>
-31.87

>  <SCORE.INTRA.VDW>
-0.179689

>  <SCORE.INTRA.VDW.0>
-0.575321

>  <SCORE.INTRA.norm>
-0.090132

>  <SCORE.RESTR>
0

>  <SCORE.RESTR.CAVITY>
0

>  <SCORE.RESTR.norm>
0

>  <SCORE.SYSTEM>
0

>  <SCORE.SYSTEM.CONST>
0

>  <SCORE.SYSTEM.DIHEDRAL>
0

>  <SCORE.SYSTEM.SOLV>
0

>  <SCORE.SYSTEM.norm>
0

>  <SCORE.heavy>
10

>  <SCORE.norm>
-0.96079

>  <RMSD>
5.647

$$$$
ligand
 OpenBabel11021811463D
libRbt.so/2013.1/901 2013/11/27
 10  9  0  0  0  0  0  0  0  0999 V2000
   24.5361   43.4913   19.5718 N   0  0  0  0  0  0  0  0  0  0  0  0
   25.3738   42.3550   19.2084 C   0  0  2  0  0  0  0  0  0  0  0  0
   25.5118   42.2426   17.6911 C   0  0  0  0  0  0  0  0  0  0  0  0
   26.4441   41.5945   17.2066 O   0  0  0  0  0  0  0  0  0  0  0  0
   24.8181   41.0580   19.8044 C   0  0  0  0  0  0  0  0  0  0  0  0
   24.7958   41.0473   21.3281 C   0  0  0  0  0  0  0  0  0  0  0  0
   24.1864   39.7650   21.8879 C   0  0  0  0  0  0  0  0  0  0  0  0
   24.1550   39.7656   23.4244 C   0  0  0  0  0  0  0  0  0  0  0  0
   23.5657   38.5315   24.0339 N   0  0  0  0  0  0  0  0  0  0  0  0
   24.6974   42.7763   16.9264 O   0  0  0  0  0  0  0  0  0  0  0  0
  2  1  1  6  0  0  0
  2  3  1  0  0  0  0
  2  5  1  0  0  0  0
  3  4  1  0  0  0  0
  3 10  1  0  0  0  0
  5  6  1  0  0  0  0
  6  7  1  0  0  0  0
  7  8  1  0  0  0  0
  8  9  1  0  0  0  0
M  END
>  <CHROM.1>
160.39666424,-62.61826112,177.74490063,-179.47996377,179.94945425,24.81586676
41.26678324,20.06374159,1.08220353,1.08551576,-0.63105099

>  <Name>
ligand

>  <RI>
0

>  <Rbt.Current_Directory>
/home/itssahil/PROJECTS/Mol_Feturizer/New_Systems/rnas/3D0U

>  <Rbt.Executable>
rbdock ($Id: //depot/dev/client3/rdock/2013.1/src/exe/rbdock.cxx#4 $)

>  <Rbt.Library>
libRbt.so (2013.1, Build901 2013/11/27)

>  <Rbt.Parameter_File>
/export/apps/rDock/src/rDock_2013.1_src/data/scripts/dock_solv.prm

>  <Rbt.Receptor>
prm/pocket_docking_6.prm

>  <SCORE>
-9.64116

>  <SCORE.INTER>
-8.75262

>  <SCORE.INTER.CONST>
1

>  <SCORE.INTER.POLAR>
0

>  <SCORE.INTER.ROT>
5

>  <SCORE.INTER.SOLV>
12.4495

>  <SCORE.INTER.VDW>
-16.9182

>  <SCORE.INTER.norm>
-0.875262

>  <SCORE.INTRA>
-0.888544

>  <SCORE.INTRA.DIHEDRAL>
-0.718303

>  <SCORE.INTRA.DIHEDRAL.0>
2.22229

>  <SCORE.INTRA.POLAR>
0

>  <SCORE.INTRA.POLAR.0>
0

>  <SCORE.INTRA.REPUL>
0

>  <SCORE.INTRA.REPUL.0>
0

>  <SCORE.INTRA.SOLV>
-0.736083

>  <SCORE.INTRA.SOLV.lig_0>
-31.87

>  <SCORE.INTRA.VDW>
-0.161351

>  <SCORE.INTRA.VDW.0>
-0.575321

>  <SCORE.INTRA.norm>
-0.0888544

>  <SCORE.RESTR>
0

>  <SCORE.RESTR.CAVITY>
0

>  <SCORE.RESTR.norm>
0

>  <SCORE.SYSTEM>
0

>  <SCORE.SYSTEM.CONST>
0

>  <SCORE.SYSTEM.DIHEDRAL>
0

>  <SCORE.SYSTEM.SOLV>
0

>  <SCORE.SYSTEM.norm>
0

>  <SCORE.heavy>
10

>  <SCORE.norm>
-0.964116

>  <RMSD>
5.647

$$$$
ligand
 OpenBabel11021811463D
libRbt.so/2013.1/901 2013/11/27
 10  9  0  0  0  0  0  0  0  0999 V2000
   24.6016   43.5169   19.6259 N   0  0  0  0  0  0  0  0  0  0  0  0
   25.3889   42.3641   19.2060 C   0  0  2  0  0  0  0  0  0  0  0  0
   25.4656   42.2822   17.6824 C   0  0  0  0  0  0  0  0  0  0  0  0
   24.6042   42.8376   16.9944 O   0  0  0  0  0  0  0  0  0  0  0  0
   24.8159   41.0714   19.7949 C   0  0  0  0  0  0  0  0  0  0  0  0
   24.8098   41.0455   21.3186 C   0  0  0  0  0  0  0  0  0  0  0  0
   24.1588   39.7810   21.8720 C   0  0  0  0  0  0  0  0  0  0  0  0
   24.1221   39.7777   23.4084 C   0  0  0  0  0  0  0  0  0  0  0  0
   23.5275   38.5436   24.0127 N   0  0  0  0  0  0  0  0  0  0  0  0
   26.3857   41.6807   17.1127 O   0  0  0  0  0  0  0  0  0  0  0  0
  2  1  1  6  0  0  0
  2  3  1  0  0  0  0
  2  5  1  0  0  0  0
  3  4  1  0  0  0  0
  3 10  1  0  0  0  0
  5  6  1  0  0  0  0
  6  7  1  0  0  0  0
  7  8  1  0  0  0  0
  8  9  1  0  0  0  0
M  END
>  <CHROM.1>
-22.45277631,-60.75090536,176.64735173,-178.49026986,-178.41806074,24.79401003
41.29539819,20.05804637,1.04223351,1.12231289,-0.58068508

>  <Name>
ligand

>  <RI>
0

>  <Rbt.Current_Directory>
/home/itssahil/PROJECTS/Mol_Feturizer/New_Systems/rnas/3D0U

>  <Rbt.Executable>
rbdock ($Id: //depot/dev/client3/rdock/2013.1/src/exe/rbdock.cxx#4 $)

>  <Rbt.Library>
libRbt.so (2013.1, Build901 2013/11/27)

>  <Rbt.Parameter_File>
/export/apps/rDock/src/rDock_2013.1_src/data/scripts/dock_solv.prm

>  <Rbt.Receptor>
prm/pocket_docking_7.prm

>  <SCORE>
-9.51767

>  <SCORE.INTER>
-8.70883

>  <SCORE.INTER.CONST>
1

>  <SCORE.INTER.POLAR>
0

>  <SCORE.INTER.ROT>
5

>  <SCORE.INTER.SOLV>
12.5432

>  <SCORE.INTER.VDW>
-16.9203

>  <SCORE.INTER.norm>
-0.870883

>  <SCORE.INTRA>
-0.808839

>  <SCORE.INTRA.DIHEDRAL>
-0.646083

>  <SCORE.INTRA.DIHEDRAL.0>
2.22229

>  <SCORE.INTRA.POLAR>
0

>  <SCORE.INTRA.POLAR.0>
0

>  <SCORE.INTRA.REPUL>
0

>  <SCORE.INTRA.REPUL.0>
0

>  <SCORE.INTRA.SOLV>
-0.695624

>  <SCORE.INTRA.SOLV.lig_0>
-31.87

>  <SCORE.INTRA.VDW>
-0.137986

>  <SCORE.INTRA.VDW.0>
-0.575321

>  <SCORE.INTRA.norm>
-0.0808839

>  <SCORE.RESTR>
0

>  <SCORE.RESTR.CAVITY>
0

>  <SCORE.RESTR.norm>
0

>  <SCORE.SYSTEM>
0

>  <SCORE.SYSTEM.CONST>
0

>  <SCORE.SYSTEM.DIHEDRAL>
0

>  <SCORE.SYSTEM.SOLV>
0

>  <SCORE.SYSTEM.norm>
0

>  <SCORE.heavy>
10

>  <SCORE.norm>
-0.951767

>  <RMSD>
5.647

$$$$
ligand
 OpenBabel11021811463D
libRbt.so/2013.1/901 2013/11/27
 10  9  0  0  0  0  0  0  0  0999 V2000
   24.6327   43.5526   19.6219 N   0  0  0  0  0  0  0  0  0  0  0  0
   25.3927   42.3817   19.2016 C   0  0  2  0  0  0  0  0  0  0  0  0
   25.4695   42.2999   17.6780 C   0  0  0  0  0  0  0  0  0  0  0  0
   26.3860   41.6690   17.1433 O   0  0  0  0  0  0  0  0  0  0  0  0
   24.7879   41.1024   19.7880 C   0  0  0  0  0  0  0  0  0  0  0  0
   24.8055   41.0619   21.3112 C   0  0  0  0  0  0  0  0  0  0  0  0
   24.1526   39.7977   21.8630 C   0  0  0  0  0  0  0  0  0  0  0  0
   24.1622   39.7684   23.3995 C   0  0  0  0  0  0  0  0  0  0  0  0
   23.5332   38.5503   24.0014 N   0  0  0  0  0  0  0  0  0  0  0  0
   24.6208   42.8417   16.9577 O   0  0  0  0  0  0  0  0  0  0  0  0
  2  1  1  6  0  0  0
  2  3  1  0  0  0  0
  2  5  1  0  0  0  0
  3  4  1  0  0  0  0
  3 10  1  0  0  0  0
  5  6  1  0  0  0  0
  6  7  1  0  0  0  0
  7  8  1  0  0  0  0
  8  9  1  0  0  0  0
M  END
>  <CHROM.1>
156.79147279,-61.95966573,178.00696748,-179.49449809,179.96020841,24.80041587
41.30732267,20.05185650,1.02512322,1.13903423,-0.55922734

>  <Name>
ligand

>  <RI>
0

>  <Rbt.Current_Directory>
/home/itssahil/PROJECTS/Mol_Feturizer/New_Systems/rnas/3D0U

>  <Rbt.Executable>
rbdock ($Id: //depot/dev/client3/rdock/2013.1/src/exe/rbdock.cxx#4 $)

>  <Rbt.Library>
libRbt.so (2013.1, Build901 2013/11/27)

>  <Rbt.Parameter_File>
/export/apps/rDock/src/rDock_2013.1_src/data/scripts/dock_solv.prm

>  <Rbt.Receptor>
prm/pocket_docking_5.prm

>  <SCORE>
-9.54971

>  <SCORE.INTER>
-8.63649

>  <SCORE.INTER.CONST>
1

>  <SCORE.INTER.POLAR>
0

>  <SCORE.INTER.ROT>
5

>  <SCORE.INTER.SOLV>
12.6356

>  <SCORE.INTER.VDW>
-16.9029

>  <SCORE.INTER.norm>
-0.863649

>  <SCORE.INTRA>
-0.913217

>  <SCORE.INTRA.DIHEDRAL>
-0.738427

>  <SCORE.INTRA.DIHEDRAL.0>
2.22229

>  <SCORE.INTRA.POLAR>
0

>  <SCORE.INTRA.POLAR.0>
0

>  <SCORE.INTRA.REPUL>
0

>  <SCORE.INTRA.REPUL.0>
0

>  <SCORE.INTRA.SOLV>
-0.730498

>  <SCORE.INTRA.SOLV.lig_0>
-31.87

>  <SCORE.INTRA.VDW>
-0.178755

>  <SCORE.INTRA.VDW.0>
-0.575321

>  <SCORE.INTRA.norm>
-0.0913217

>  <SCORE.RESTR>
0

>  <SCORE.RESTR.CAVITY>
0

>  <SCORE.RESTR.norm>
0

>  <SCORE.SYSTEM>
0

>  <SCORE.SYSTEM.CONST>
0

>  <SCORE.SYSTEM.DIHEDRAL>
0

>  <SCORE.SYSTEM.SOLV>
0

>  <SCORE.SYSTEM.norm>
0

>  <SCORE.heavy>
10

>  <SCORE.norm>
-0.954971

>  <RMSD>
5.648

$$$$
ligand
 OpenBabel11021811463D
libRbt.so/2013.1/901 2013/11/27
 10  9  0  0  0  0  0  0  0  0999 V2000
   25.4360   42.8195   17.3443 N   0  0  0  0  0  0  0  0  0  0  0  0
   24.5140   43.1347   18.4286 C   0  0  2  0  0  0  0  0  0  0  0  0
   24.3458   44.6456   18.5791 C   0  0  0  0  0  0  0  0  0  0  0  0
   23.3314   45.0991   19.1169 O   0  0  0  0  0  0  0  0  0  0  0  0
   24.9847   42.5035   19.7425 C   0  0  0  0  0  0  0  0  0  0  0  0
   25.1965   40.9970   19.6539 C   0  0  0  0  0  0  0  0  0  0  0  0
   25.4148   40.3629   21.0248 C   0  0  0  0  0  0  0  0  0  0  0  0
   24.1337   40.3717   21.8737 C   0  0  0  0  0  0  0  0  0  0  0  0
   24.2588   39.6766   23.1939 N   0  0  0  0  0  0  0  0  0  0  0  0
   25.2146   45.4354   18.1862 O   0  0  0  0  0  0  0  0  0  0  0  0
  2  1  1  6  0  0  0
  2  3  1  0  0  0  0
  2  5  1  0  0  0  0
  3  4  1  0  0  0  0
  3 10  1  0  0  0  0
  5  6  1  0  0  0  0
  6  7  1  0  0  0  0
  7  8  1  0  0  0  0
  8  9  1  0  0  0  0
M  END
>  <CHROM.1>
156.93026942,-55.37349059,-169.56335458,69.86401038,175.92418671,24.67754698
42.54710124,19.70993615,-1.57641465,-0.95724476,2.45412830

>  <Name>
ligand

>  <RI>
0

>  <Rbt.Current_Directory>
/home/itssahil/PROJECTS/Mol_Feturizer/New_Systems/rnas/3D0U

>  <Rbt.Executable>
rbdock ($Id: //depot/dev/client3/rdock/2013.1/src/exe/rbdock.cxx#4 $)

>  <Rbt.Library>
libRbt.so (2013.1, Build901 2013/11/27)

>  <Rbt.Parameter_File>
/export/apps/rDock/src/rDock_2013.1_src/data/scripts/dock_solv.prm

>  <Rbt.Receptor>
prm/pocket_docking_3.prm

>  <SCORE>
-7.87557

>  <SCORE.INTER>
-8.08454

>  <SCORE.INTER.CONST>
1

>  <SCORE.INTER.POLAR>
0

>  <SCORE.INTER.ROT>
5

>  <SCORE.INTER.SOLV>
15.8611

>  <SCORE.INTER.VDW>
-17.6101

>  <SCORE.INTER.norm>
-0.808454

>  <SCORE.INTRA>
0.208971

>  <SCORE.INTRA.DIHEDRAL>
0.209238

>  <SCORE.INTRA.DIHEDRAL.0>
2.22229

>  <SCORE.INTRA.POLAR>
0

>  <SCORE.INTRA.POLAR.0>
0

>  <SCORE.INTRA.REPUL>
0

>  <SCORE.INTRA.REPUL.0>
0

>  <SCORE.INTRA.SOLV>
-0.53245

>  <SCORE.INTRA.SOLV.lig_0>
-31.87

>  <SCORE.INTRA.VDW>
0.370577

>  <SCORE.INTRA.VDW.0>
-0.575321

>  <SCORE.INTRA.norm>
0.0208971

>  <SCORE.RESTR>
0

>  <SCORE.RESTR.CAVITY>
0

>  <SCORE.RESTR.norm>
0

>  <SCORE.SYSTEM>
0

>  <SCORE.SYSTEM.CONST>
0

>  <SCORE.SYSTEM.DIHEDRAL>
0

>  <SCORE.SYSTEM.SOLV>
0

>  <SCORE.SYSTEM.norm>
0

>  <SCORE.heavy>
10

>  <SCORE.norm>
-0.787557

>  <RMSD>
5.655

$$$$
ligand
 OpenBabel11021811463D
libRbt.so/2013.1/901 2013/11/27
 10  9  0  0  0  0  0  0  0  0999 V2000
   25.4312   42.8523   17.3440 N   0  0  0  0  0  0  0  0  0  0  0  0
   24.5015   43.1767   18.4190 C   0  0  2  0  0  0  0  0  0  0  0  0
   24.3675   44.6893   18.5858 C   0  0  0  0  0  0  0  0  0  0  0  0
   23.3678   45.1592   19.1370 O   0  0  0  0  0  0  0  0  0  0  0  0
   24.9378   42.5184   19.7315 C   0  0  0  0  0  0  0  0  0  0  0  0
   24.9832   40.9967   19.6651 C   0  0  0  0  0  0  0  0  0  0  0  0
   25.1532   40.3632   21.0431 C   0  0  0  0  0  0  0  0  0  0  0  0
   23.9167   40.5753   21.9306 C   0  0  0  0  0  0  0  0  0  0  0  0
   24.0142   39.9552   23.2899 N   0  0  0  0  0  0  0  0  0  0  0  0
   25.2498   45.4639   18.1929 O   0  0  0  0  0  0  0  0  0  0  0  0
  2  1  1  6  0  0  0
  2  3  1  0  0  0  0
  2  5  1  0  0  0  0
  3  4  1  0  0  0  0
  3 10  1  0  0  0  0
  5  6  1  0  0  0  0
  6  7  1  0  0  0  0
  7  8  1  0  0  0  0
  8  9  1  0  0  0  0
M  END
>  <CHROM.1>
158.26803687,-61.00868684,-168.87778305,67.47993926,179.01098354,24.58818396
42.61735047,19.72962779,-1.48755509,-0.99955857,2.50492362

>  <Name>
ligand

>  <RI>
0

>  <Rbt.Current_Directory>
/home/itssahil/PROJECTS/Mol_Feturizer/New_Systems/rnas/3D0U

>  <Rbt.Executable>
rbdock ($Id: //depot/dev/client3/rdock/2013.1/src/exe/rbdock.cxx#4 $)

>  <Rbt.Library>
libRbt.so (2013.1, Build901 2013/11/27)

>  <Rbt.Parameter_File>
/export/apps/rDock/src/rDock_2013.1_src/data/scripts/dock_solv.prm

>  <Rbt.Receptor>
prm/pocket_docking_7.prm

>  <SCORE>
-7.87359

>  <SCORE.INTER>
-7.93136

>  <SCORE.INTER.CONST>
1

>  <SCORE.INTER.POLAR>
0

>  <SCORE.INTER.ROT>
5

>  <SCORE.INTER.SOLV>
15.5466

>  <SCORE.INTER.VDW>
-17.4031

>  <SCORE.INTER.norm>
-0.793136

>  <SCORE.INTRA>
0.0577719

>  <SCORE.INTRA.DIHEDRAL>
-0.0284521

>  <SCORE.INTRA.DIHEDRAL.0>
2.22229

>  <SCORE.INTRA.POLAR>
0

>  <SCORE.INTRA.POLAR.0>
0

>  <SCORE.INTRA.REPUL>
0

>  <SCORE.INTRA.REPUL.0>
0

>  <SCORE.INTRA.SOLV>
-0.574893

>  <SCORE.INTRA.SOLV.lig_0>
-31.87

>  <SCORE.INTRA.VDW>
0.359445

>  <SCORE.INTRA.VDW.0>
-0.575321

>  <SCORE.INTRA.norm>
0.00577719

>  <SCORE.RESTR>
0

>  <SCORE.RESTR.CAVITY>
0

>  <SCORE.RESTR.norm>
0

>  <SCORE.SYSTEM>
0

>  <SCORE.SYSTEM.CONST>
0

>  <SCORE.SYSTEM.DIHEDRAL>
0

>  <SCORE.SYSTEM.SOLV>
0

>  <SCORE.SYSTEM.norm>
0

>  <SCORE.heavy>
10

>  <SCORE.norm>
-0.787359

>  <RMSD>
5.657

$$$$
ligand
 OpenBabel11021811463D
libRbt.so/2013.1/901 2013/11/27
 10  9  0  0  0  0  0  0  0  0999 V2000
   25.4332   42.8737   17.3567 N   0  0  0  0  0  0  0  0  0  0  0  0
   24.4966   43.1722   18.4331 C   0  0  2  0  0  0  0  0  0  0  0  0
   24.3117   44.6803   18.5923 C   0  0  0  0  0  0  0  0  0  0  0  0
   23.3056   45.1184   19.1577 O   0  0  0  0  0  0  0  0  0  0  0  0
   24.9594   42.5364   19.7476 C   0  0  0  0  0  0  0  0  0  0  0  0
   25.1873   41.0328   19.6509 C   0  0  0  0  0  0  0  0  0  0  0  0
   25.4388   40.3978   21.0156 C   0  0  0  0  0  0  0  0  0  0  0  0
   24.1677   40.3657   21.8787 C   0  0  0  0  0  0  0  0  0  0  0  0
   24.3277   39.6691   23.1943 N   0  0  0  0  0  0  0  0  0  0  0  0
   25.1590   45.4829   18.1790 O   0  0  0  0  0  0  0  0  0  0  0  0
  2  1  1  6  0  0  0
  2  3  1  0  0  0  0
  2  5  1  0  0  0  0
  3  4  1  0  0  0  0
  3 10  1  0  0  0  0
  5  6  1  0  0  0  0
  6  7  1  0  0  0  0
  7  8  1  0  0  0  0
  8  9  1  0  0  0  0
M  END
>  <CHROM.1>
159.07566983,-55.37030793,-171.28225424,70.91793957,176.00448640,24.67271151
42.57542609,19.71632373,-1.59773067,-0.95667201,2.44171954

>  <Name>
ligand

>  <RI>
0

>  <Rbt.Current_Directory>
/home/itssahil/PROJECTS/Mol_Feturizer/New_Systems/rnas/3D0U

>  <Rbt.Executable>
rbdock ($Id: //depot/dev/client3/rdock/2013.1/src/exe/rbdock.cxx#4 $)

>  <Rbt.Library>
libRbt.so (2013.1, Build901 2013/11/27)

>  <Rbt.Parameter_File>
/export/apps/rDock/src/rDock_2013.1_src/data/scripts/dock_solv.prm

>  <Rbt.Receptor>
prm/pocket_docking_7.prm

>  <SCORE>
-7.91411

>  <SCORE.INTER>
-8.0846

>  <SCORE.INTER.CONST>
1

>  <SCORE.INTER.POLAR>
0

>  <SCORE.INTER.ROT>
5

>  <SCORE.INTER.SOLV>
15.9112

>  <SCORE.INTER.VDW>
-17.6268

>  <SCORE.INTER.norm>
-0.80846

>  <SCORE.INTRA>
0.170489

>  <SCORE.INTRA.DIHEDRAL>
0.163221

>  <SCORE.INTRA.DIHEDRAL.0>
2.22229

>  <SCORE.INTRA.POLAR>
0

>  <SCORE.INTRA.POLAR.0>
0

>  <SCORE.INTRA.REPUL>
0

>  <SCORE.INTRA.REPUL.0>
0

>  <SCORE.INTRA.SOLV>
-0.533833

>  <SCORE.INTRA.SOLV.lig_0>
-31.87

>  <SCORE.INTRA.VDW>
0.355796

>  <SCORE.INTRA.VDW.0>
-0.575321

>  <SCORE.INTRA.norm>
0.0170489

>  <SCORE.RESTR>
0

>  <SCORE.RESTR.CAVITY>
0

>  <SCORE.RESTR.norm>
0

>  <SCORE.SYSTEM>
0

>  <SCORE.SYSTEM.CONST>
0

>  <SCORE.SYSTEM.DIHEDRAL>
0

>  <SCORE.SYSTEM.SOLV>
0

>  <SCORE.SYSTEM.norm>
0

>  <SCORE.heavy>
10

>  <SCORE.norm>
-0.791411

>  <RMSD>
5.658

$$$$
ligand
 OpenBabel11021811463D
libRbt.so/2013.1/901 2013/11/27
 10  9  0  0  0  0  0  0  0  0999 V2000
   25.3844   42.8958   17.4444 N   0  0  0  0  0  0  0  0  0  0  0  0
   24.4532   43.2455   18.5101 C   0  0  2  0  0  0  0  0  0  0  0  0
   24.3201   44.7617   18.6419 C   0  0  0  0  0  0  0  0  0  0  0  0
   25.2074   45.4960   18.1975 O   0  0  0  0  0  0  0  0  0  0  0  0
   24.8868   42.6173   19.8381 C   0  0  0  0  0  0  0  0  0  0  0  0
   24.9449   41.0949   19.8025 C   0  0  0  0  0  0  0  0  0  0  0  0
   25.1598   40.4926   21.1881 C   0  0  0  0  0  0  0  0  0  0  0  0
   23.9201   40.6497   22.0827 C   0  0  0  0  0  0  0  0  0  0  0  0
   24.0807   40.1044   23.4678 N   0  0  0  0  0  0  0  0  0  0  0  0
   23.3296   45.2801   19.1740 O   0  0  0  0  0  0  0  0  0  0  0  0
  2  1  1  6  0  0  0
  2  3  1  0  0  0  0
  2  5  1  0  0  0  0
  3  4  1  0  0  0  0
  3 10  1  0  0  0  0
  5  6  1  0  0  0  0
  6  7  1  0  0  0  0
  7  8  1  0  0  0  0
  8  9  1  0  0  0  0
M  END
>  <CHROM.1>
-21.03575642,-60.41911604,-170.84789126,70.37862444,-178.69448209,24.56465416
42.70618979,19.82889820,-1.51187907,-1.00480820,2.46431009

>  <Name>
ligand

>  <RI>
0

>  <Rbt.Current_Directory>
/home/itssahil/PROJECTS/Mol_Feturizer/New_Systems/rnas/3D0U

>  <Rbt.Executable>
rbdock ($Id: //depot/dev/client3/rdock/2013.1/src/exe/rbdock.cxx#4 $)

>  <Rbt.Library>
libRbt.so (2013.1, Build901 2013/11/27)

>  <Rbt.Parameter_File>
/export/apps/rDock/src/rDock_2013.1_src/data/scripts/dock_solv.prm

>  <Rbt.Receptor>
prm/pocket_docking_6.prm

>  <SCORE>
-7.7785

>  <SCORE.INTER>
-7.84546

>  <SCORE.INTER.CONST>
1

>  <SCORE.INTER.POLAR>
0

>  <SCORE.INTER.ROT>
5

>  <SCORE.INTER.SOLV>
15.5251

>  <SCORE.INTER.VDW>
-17.3387

>  <SCORE.INTER.norm>
-0.784546

>  <SCORE.INTRA>
0.0669592

>  <SCORE.INTRA.DIHEDRAL>
0.0768139

>  <SCORE.INTRA.DIHEDRAL.0>
2.22229

>  <SCORE.INTRA.POLAR>
0

>  <SCORE.INTRA.POLAR.0>
0

>  <SCORE.INTRA.REPUL>
0

>  <SCORE.INTRA.REPUL.0>
0

>  <SCORE.INTRA.SOLV>
-0.554947

>  <SCORE.INTRA.SOLV.lig_0>
-31.87

>  <SCORE.INTRA.VDW>
0.306026

>  <SCORE.INTRA.VDW.0>
-0.575321

>  <SCORE.INTRA.norm>
0.00669592

>  <SCORE.RESTR>
0

>  <SCORE.RESTR.CAVITY>
0

>  <SCORE.RESTR.norm>
0

>  <SCORE.SYSTEM>
0

>  <SCORE.SYSTEM.CONST>
0

>  <SCORE.SYSTEM.DIHEDRAL>
0

>  <SCORE.SYSTEM.SOLV>
0

>  <SCORE.SYSTEM.norm>
0

>  <SCORE.heavy>
10

>  <SCORE.norm>
-0.77785

>  <RMSD>
5.661

$$$$
ligand
 OpenBabel11021811463D
libRbt.so/2013.1/901 2013/11/27
 10  9  0  0  0  0  0  0  0  0999 V2000
   25.4330   42.9136   17.5997 N   0  0  0  0  0  0  0  0  0  0  0  0
   24.4418   43.3052   18.5943 C   0  0  2  0  0  0  0  0  0  0  0  0
   24.3007   44.8252   18.6541 C   0  0  0  0  0  0  0  0  0  0  0  0
   23.3122   45.3284   19.1959 O   0  0  0  0  0  0  0  0  0  0  0  0
   24.7983   42.7347   19.9704 C   0  0  0  0  0  0  0  0  0  0  0  0
   24.8978   41.2142   19.9932 C   0  0  0  0  0  0  0  0  0  0  0  0
   25.1055   40.6701   21.4038 C   0  0  0  0  0  0  0  0  0  0  0  0
   23.8799   40.9099   22.2995 C   0  0  0  0  0  0  0  0  0  0  0  0
   24.0142   40.3756   23.6917 N   0  0  0  0  0  0  0  0  0  0  0  0
   25.1667   45.5741   18.1828 O   0  0  0  0  0  0  0  0  0  0  0  0
  2  1  1  6  0  0  0
  2  3  1  0  0  0  0
  2  5  1  0  0  0  0
  3  4  1  0  0  0  0
  3 10  1  0  0  0  0
  5  6  1  0  0  0  0
  6  7  1  0  0  0  0
  7  8  1  0  0  0  0
  8  9  1  0  0  0  0
M  END
>  <CHROM.1>
163.20380848,-58.77525993,-173.86877897,66.60404605,178.97591701,24.53070289
42.82710487,19.95124224,-1.49766040,-0.99307476,2.43113699

>  <Name>
ligand

>  <RI>
0

>  <Rbt.Current_Directory>
/home/itssahil/PROJECTS/Mol_Feturizer/New_Systems/rnas/3D0U

>  <Rbt.Executable>
rbdock ($Id: //depot/dev/client3/rdock/2013.1/src/exe/rbdock.cxx#4 $)

>  <Rbt.Library>
libRbt.so (2013.1, Build901 2013/11/27)

>  <Rbt.Parameter_File>
/export/apps/rDock/src/rDock_2013.1_src/data/scripts/dock_solv.prm

>  <Rbt.Receptor>
prm/pocket_docking_4.prm

>  <SCORE>
-7.95985

>  <SCORE.INTER>
-7.94048

>  <SCORE.INTER.CONST>
1

>  <SCORE.INTER.POLAR>
0

>  <SCORE.INTER.ROT>
5

>  <SCORE.INTER.SOLV>
15.3714

>  <SCORE.INTER.VDW>
-17.3508

>  <SCORE.INTER.norm>
-0.794048

>  <SCORE.INTRA>
-0.0193718

>  <SCORE.INTRA.DIHEDRAL>
-0.424916

>  <SCORE.INTRA.DIHEDRAL.0>
2.22229

>  <SCORE.INTRA.POLAR>
0

>  <SCORE.INTRA.POLAR.0>
0

>  <SCORE.INTRA.REPUL>
0

>  <SCORE.INTRA.REPUL.0>
0

>  <SCORE.INTRA.SOLV>
-0.524991

>  <SCORE.INTRA.SOLV.lig_0>
-31.87

>  <SCORE.INTRA.VDW>
0.455582

>  <SCORE.INTRA.VDW.0>
-0.575321

>  <SCORE.INTRA.norm>
-0.00193718

>  <SCORE.RESTR>
0

>  <SCORE.RESTR.CAVITY>
0

>  <SCORE.RESTR.norm>
0

>  <SCORE.SYSTEM>
0

>  <SCORE.SYSTEM.CONST>
0

>  <SCORE.SYSTEM.DIHEDRAL>
0

>  <SCORE.SYSTEM.SOLV>
0

>  <SCORE.SYSTEM.norm>
0

>  <SCORE.heavy>
10

>  <SCORE.norm>
-0.795985

>  <RMSD>
5.669

$$$$
ligand
 OpenBabel11021811463D
libRbt.so/2013.1/901 2013/11/27
 10  9  0  0  0  0  0  0  0  0999 V2000
   25.4373   42.9223   17.4165 N   0  0  0  0  0  0  0  0  0  0  0  0
   24.4769   43.2519   18.4625 C   0  0  2  0  0  0  0  0  0  0  0  0
   24.3452   44.7652   18.6245 C   0  0  0  0  0  0  0  0  0  0  0  0
   25.2276   45.5080   18.1846 O   0  0  0  0  0  0  0  0  0  0  0  0
   24.8697   42.5923   19.7880 C   0  0  0  0  0  0  0  0  0  0  0  0
   25.0240   41.0791   19.6941 C   0  0  0  0  0  0  0  0  0  0  0  0
   25.2903   40.4403   21.0542 C   0  0  0  0  0  0  0  0  0  0  0  0
   24.0546   40.4921   21.9664 C   0  0  0  0  0  0  0  0  0  0  0  0
   24.2517   39.8722   23.3150 N   0  0  0  0  0  0  0  0  0  0  0  0
   23.3606   45.2732   19.1771 O   0  0  0  0  0  0  0  0  0  0  0  0
  2  1  1  6  0  0  0
  2  3  1  0  0  0  0
  2  5  1  0  0  0  0
  3  4  1  0  0  0  0
  3 10  1  0  0  0  0
  5  6  1  0  0  0  0
  6  7  1  0  0  0  0
  7  8  1  0  0  0  0
  8  9  1  0  0  0  0
M  END
>  <CHROM.1>
-18.73948299,-56.14925050,-174.80154051,70.02164603,179.65852400,24.62947974
42.66230941,19.76336102,-1.55157673,-0.99660063,2.46606113

>  <Name>
ligand

>  <RI>
0

>  <Rbt.Current_Directory>
/home/itssahil/PROJECTS/Mol_Feturizer/New_Systems/rnas/3D0U

>  <Rbt.Executable>
rbdock ($Id: //depot/dev/client3/rdock/2013.1/src/exe/rbdock.cxx#4 $)

>  <Rbt.Library>
libRbt.so (2013.1, Build901 2013/11/27)

>  <Rbt.Parameter_File>
/export/apps/rDock/src/rDock_2013.1_src/data/scripts/dock_solv.prm

>  <Rbt.Receptor>
prm/pocket_docking_6.prm

>  <SCORE>
-7.81271

>  <SCORE.INTER>
-7.90192

>  <SCORE.INTER.CONST>
1

>  <SCORE.INTER.POLAR>
0

>  <SCORE.INTER.ROT>
5

>  <SCORE.INTER.SOLV>
15.6306

>  <SCORE.INTER.VDW>
-17.4115

>  <SCORE.INTER.norm>
-0.790192

>  <SCORE.INTRA>
0.0892009

>  <SCORE.INTRA.DIHEDRAL>
-0.14143

>  <SCORE.INTRA.DIHEDRAL.0>
2.22229

>  <SCORE.INTRA.POLAR>
0

>  <SCORE.INTRA.POLAR.0>
0

>  <SCORE.INTRA.REPUL>
0

>  <SCORE.INTRA.REPUL.0>
0

>  <SCORE.INTRA.SOLV>
-0.495952

>  <SCORE.INTRA.SOLV.lig_0>
-31.87

>  <SCORE.INTRA.VDW>
0.407892

>  <SCORE.INTRA.VDW.0>
-0.575321

>  <SCORE.INTRA.norm>
0.00892009

>  <SCORE.RESTR>
0

>  <SCORE.RESTR.CAVITY>
0

>  <SCORE.RESTR.norm>
0

>  <SCORE.SYSTEM>
0

>  <SCORE.SYSTEM.CONST>
0

>  <SCORE.SYSTEM.DIHEDRAL>
0

>  <SCORE.SYSTEM.SOLV>
0

>  <SCORE.SYSTEM.norm>
0

>  <SCORE.heavy>
10

>  <SCORE.norm>
-0.781271

>  <RMSD>
5.670

$$$$
ligand
 OpenBabel11021811463D
libRbt.so/2013.1/901 2013/11/27
 10  9  0  0  0  0  0  0  0  0999 V2000
   25.4361   42.8905   17.5854 N   0  0  0  0  0  0  0  0  0  0  0  0
   24.4558   43.3028   18.5824 C   0  0  2  0  0  0  0  0  0  0  0  0
   24.3372   44.8251   18.6332 C   0  0  0  0  0  0  0  0  0  0  0  0
   23.3418   45.3458   19.1449 O   0  0  0  0  0  0  0  0  0  0  0  0
   24.8109   42.7359   19.9603 C   0  0  0  0  0  0  0  0  0  0  0  0
   24.8814   41.2140   19.9940 C   0  0  0  0  0  0  0  0  0  0  0  0
   25.0966   40.6769   21.4062 C   0  0  0  0  0  0  0  0  0  0  0  0
   23.8839   40.9393   22.3130 C   0  0  0  0  0  0  0  0  0  0  0  0
   24.0293   40.4206   23.7099 N   0  0  0  0  0  0  0  0  0  0  0  0
   25.2281   45.5584   18.1843 O   0  0  0  0  0  0  0  0  0  0  0  0
  2  1  1  6  0  0  0
  2  3  1  0  0  0  0
  2  5  1  0  0  0  0
  3  4  1  0  0  0  0
  3 10  1  0  0  0  0
  5  6  1  0  0  0  0
  6  7  1  0  0  0  0
  7  8  1  0  0  0  0
  8  9  1  0  0  0  0
M  END
>  <CHROM.1>
161.27184023,-59.07053084,-174.20187050,66.97386012,179.34383633,24.54636201
42.83292194,19.94379717,-1.48686580,-1.00638823,2.43330754

>  <Name>
ligand

>  <RI>
0

>  <Rbt.Current_Directory>
/home/itssahil/PROJECTS/Mol_Feturizer/New_Systems/rnas/3D0U

>  <Rbt.Executable>
rbdock ($Id: //depot/dev/client3/rdock/2013.1/src/exe/rbdock.cxx#4 $)

>  <Rbt.Library>
libRbt.so (2013.1, Build901 2013/11/27)

>  <Rbt.Parameter_File>
/export/apps/rDock/src/rDock_2013.1_src/data/scripts/dock_solv.prm

>  <Rbt.Receptor>
prm/blind_docking_60.prm

>  <SCORE>
-7.96148

>  <SCORE.INTER>
-7.90821

>  <SCORE.INTER.CONST>
1

>  <SCORE.INTER.POLAR>
0

>  <SCORE.INTER.ROT>
5

>  <SCORE.INTER.SOLV>
15.4753

>  <SCORE.INTER.VDW>
-17.3639

>  <SCORE.INTER.norm>
-0.790821

>  <SCORE.INTRA>
-0.0532786

>  <SCORE.INTRA.DIHEDRAL>
-0.42679

>  <SCORE.INTRA.DIHEDRAL.0>
2.22229

>  <SCORE.INTRA.POLAR>
0

>  <SCORE.INTRA.POLAR.0>
0

>  <SCORE.INTRA.REPUL>
0

>  <SCORE.INTRA.REPUL.0>
0

>  <SCORE.INTRA.SOLV>
-0.5286

>  <SCORE.INTRA.SOLV.lig_0>
-31.87

>  <SCORE.INTRA.VDW>
0.424416

>  <SCORE.INTRA.VDW.0>
-0.575321

>  <SCORE.INTRA.norm>
-0.00532786

>  <SCORE.RESTR>
0

>  <SCORE.RESTR.CAVITY>
0

>  <SCORE.RESTR.norm>
0

>  <SCORE.SYSTEM>
0

>  <SCORE.SYSTEM.CONST>
0

>  <SCORE.SYSTEM.DIHEDRAL>
0

>  <SCORE.SYSTEM.SOLV>
0

>  <SCORE.SYSTEM.norm>
0

>  <SCORE.heavy>
10

>  <SCORE.norm>
-0.796148

>  <RMSD>
5.678

$$$$
ligand
 OpenBabel11021811463D
libRbt.so/2013.1/901 2013/11/27
 10  9  0  0  0  0  0  0  0  0999 V2000
   25.4051   42.9099   17.3928 N   0  0  0  0  0  0  0  0  0  0  0  0
   24.4777   43.2633   18.4606 C   0  0  2  0  0  0  0  0  0  0  0  0
   24.3681   44.7800   18.6074 C   0  0  0  0  0  0  0  0  0  0  0  0
   25.2687   45.5046   18.1743 O   0  0  0  0  0  0  0  0  0  0  0  0
   24.8993   42.6151   19.7828 C   0  0  0  0  0  0  0  0  0  0  0  0
   24.9604   41.0936   19.7240 C   0  0  0  0  0  0  0  0  0  0  0  0
   25.1776   40.4706   21.1001 C   0  0  0  0  0  0  0  0  0  0  0  0
   23.9492   40.6381   22.0082 C   0  0  0  0  0  0  0  0  0  0  0  0
   24.0995   40.0404   23.3728 N   0  0  0  0  0  0  0  0  0  0  0  0
   23.3837   45.3085   19.1408 O   0  0  0  0  0  0  0  0  0  0  0  0
  2  1  1  6  0  0  0
  2  3  1  0  0  0  0
  2  5  1  0  0  0  0
  3  4  1  0  0  0  0
  3 10  1  0  0  0  0
  5  6  1  0  0  0  0
  6  7  1  0  0  0  0
  7  8  1  0  0  0  0
  8  9  1  0  0  0  0
M  END
>  <CHROM.1>
-21.18535838,-59.27211691,-171.45970486,69.15078176,179.72773377,24.59543732
42.70493206,19.77103346,-1.50359032,-1.01279721,2.48482445

>  <Name>
ligand

>  <RI>
0

>  <Rbt.Current_Directory>
/home/itssahil/PROJECTS/Mol_Feturizer/New_Systems/rnas/3D0U

>  <Rbt.Executable>
rbdock ($Id: //depot/dev/client3/rdock/2013.1/src/exe/rbdock.cxx#4 $)

>  <Rbt.Library>
libRbt.so (2013.1, Build901 2013/11/27)

>  <Rbt.Parameter_File>
/export/apps/rDock/src/rDock_2013.1_src/data/scripts/dock_solv.prm

>  <Rbt.Receptor>
prm/pocket_docking_5.prm

>  <SCORE>
-7.83124

>  <SCORE.INTER>
-7.88215

>  <SCORE.INTER.CONST>
1

>  <SCORE.INTER.POLAR>
0

>  <SCORE.INTER.ROT>
5

>  <SCORE.INTER.SOLV>
15.5503

>  <SCORE.INTER.VDW>
-17.3715

>  <SCORE.INTER.norm>
-0.788215

>  <SCORE.INTRA>
0.0509101

>  <SCORE.INTRA.DIHEDRAL>
-0.069906

>  <SCORE.INTRA.DIHEDRAL.0>
2.22229

>  <SCORE.INTRA.POLAR>
0

>  <SCORE.INTRA.POLAR.0>
0

>  <SCORE.INTRA.REPUL>
0

>  <SCORE.INTRA.REPUL.0>
0

>  <SCORE.INTRA.SOLV>
-0.539834

>  <SCORE.INTRA.SOLV.lig_0>
-31.87

>  <SCORE.INTRA.VDW>
0.35578

>  <SCORE.INTRA.VDW.0>
-0.575321

>  <SCORE.INTRA.norm>
0.00509101

>  <SCORE.RESTR>
0

>  <SCORE.RESTR.CAVITY>
0

>  <SCORE.RESTR.norm>
0

>  <SCORE.SYSTEM>
0

>  <SCORE.SYSTEM.CONST>
0

>  <SCORE.SYSTEM.DIHEDRAL>
0

>  <SCORE.SYSTEM.SOLV>
0

>  <SCORE.SYSTEM.norm>
0

>  <SCORE.heavy>
10

>  <SCORE.norm>
-0.783124

>  <RMSD>
5.678

$$$$
ligand
 OpenBabel11021811463D
libRbt.so/2013.1/901 2013/11/27
 10  9  0  0  0  0  0  0  0  0999 V2000
   25.3307   42.5288   18.0450 N   0  0  0  0  0  0  0  0  0  0  0  0
   24.2073   43.0062   18.8419 C   0  0  2  0  0  0  0  0  0  0  0  0
   24.1118   44.5301   18.7914 C   0  0  0  0  0  0  0  0  0  0  0  0
   23.1385   45.1004   19.2928 O   0  0  0  0  0  0  0  0  0  0  0  0
   24.3186   42.5131   20.2878 C   0  0  0  0  0  0  0  0  0  0  0  0
   24.0088   41.0300   20.4520 C   0  0  0  0  0  0  0  0  0  0  0  0
   23.9868   40.6034   21.9171 C   0  0  0  0  0  0  0  0  0  0  0  0
   23.6245   39.1187   22.0789 C   0  0  0  0  0  0  0  0  0  0  0  0
   23.5194   38.6563   23.4991 N   0  0  0  0  0  0  0  0  0  0  0  0
   25.0000   45.2167   18.2695 O   0  0  0  0  0  0  0  0  0  0  0  0
  2  1  1  6  0  0  0
  2  3  1  0  0  0  0
  2  5  1  0  0  0  0
  3  4  1  0  0  0  0
  3 10  1  0  0  0  0
  5  6  1  0  0  0  0
  6  7  1  0  0  0  0
  7  8  1  0  0  0  0
  8  9  1  0  0  0  0
M  END
>  <CHROM.1>
172.41708159,-73.37627878,-174.07046949,177.95228911,-177.08841675,24.12260390
42.27429757,20.13787381,-1.40617307,-0.90594837,2.62759791

>  <Name>
ligand

>  <RI>
0

>  <Rbt.Current_Directory>
/home/itssahil/PROJECTS/Mol_Feturizer/New_Systems/rnas/3D0U

>  <Rbt.Executable>
rbdock ($Id: //depot/dev/client3/rdock/2013.1/src/exe/rbdock.cxx#4 $)

>  <Rbt.Library>
libRbt.so (2013.1, Build901 2013/11/27)

>  <Rbt.Parameter_File>
/export/apps/rDock/src/rDock_2013.1_src/data/scripts/dock_solv.prm

>  <Rbt.Receptor>
prm/pocket_docking_3.prm

>  <SCORE>
-8.11512

>  <SCORE.INTER>
-7.58906

>  <SCORE.INTER.CONST>
1

>  <SCORE.INTER.POLAR>
0

>  <SCORE.INTER.ROT>
5

>  <SCORE.INTER.SOLV>
14.1055

>  <SCORE.INTER.VDW>
-16.6945

>  <SCORE.INTER.norm>
-0.758906

>  <SCORE.INTRA>
-0.526455

>  <SCORE.INTRA.DIHEDRAL>
0.142288

>  <SCORE.INTRA.DIHEDRAL.0>
2.22229

>  <SCORE.INTRA.POLAR>
0

>  <SCORE.INTRA.POLAR.0>
0

>  <SCORE.INTRA.REPUL>
0

>  <SCORE.INTRA.REPUL.0>
0

>  <SCORE.INTRA.SOLV>
-0.909477

>  <SCORE.INTRA.SOLV.lig_0>
-31.87

>  <SCORE.INTRA.VDW>
-0.14286

>  <SCORE.INTRA.VDW.0>
-0.575321

>  <SCORE.INTRA.norm>
-0.0526455

>  <SCORE.RESTR>
0.000394897

>  <SCORE.RESTR.CAVITY>
0.000394897

>  <SCORE.RESTR.norm>
3.94897e-05

>  <SCORE.SYSTEM>
0

>  <SCORE.SYSTEM.CONST>
0

>  <SCORE.SYSTEM.DIHEDRAL>
0

>  <SCORE.SYSTEM.SOLV>
0

>  <SCORE.SYSTEM.norm>
0

>  <SCORE.heavy>
10

>  <SCORE.norm>
-0.811512

>  <RMSD>
5.713

$$$$
ligand
 OpenBabel11021811463D
libRbt.so/2013.1/901 2013/11/27
 10  9  0  0  0  0  0  0  0  0999 V2000
   25.3133   42.5367   18.0125 N   0  0  0  0  0  0  0  0  0  0  0  0
   24.1894   43.0098   18.8114 C   0  0  2  0  0  0  0  0  0  0  0  0
   24.0968   44.5342   18.7730 C   0  0  0  0  0  0  0  0  0  0  0  0
   23.1053   45.1002   19.2425 O   0  0  0  0  0  0  0  0  0  0  0  0
   24.2974   42.5048   20.2535 C   0  0  0  0  0  0  0  0  0  0  0  0
   23.9998   41.0177   20.4029 C   0  0  0  0  0  0  0  0  0  0  0  0
   23.9820   40.5762   21.8636 C   0  0  0  0  0  0  0  0  0  0  0  0
   23.5986   39.0954   22.0128 C   0  0  0  0  0  0  0  0  0  0  0  0
   23.5918   38.5948   23.4238 N   0  0  0  0  0  0  0  0  0  0  0  0
   25.0048   45.2253   18.2928 O   0  0  0  0  0  0  0  0  0  0  0  0
  2  1  1  6  0  0  0
  2  3  1  0  0  0  0
  2  5  1  0  0  0  0
  3  4  1  0  0  0  0
  3 10  1  0  0  0  0
  5  6  1  0  0  0  0
  6  7  1  0  0  0  0
  7  8  1  0  0  0  0
  8  9  1  0  0  0  0
M  END
>  <CHROM.1>
170.30287996,-72.73198362,-174.41153001,176.56856363,178.78001518,24.11586483
42.26355640,20.09955739,-1.41773657,-0.89873686,2.62875918

>  <Name>
ligand

>  <RI>
0

>  <Rbt.Current_Directory>
/home/itssahil/PROJECTS/Mol_Feturizer/New_Systems/rnas/3D0U

>  <Rbt.Executable>
rbdock ($Id: //depot/dev/client3/rdock/2013.1/src/exe/rbdock.cxx#4 $)

>  <Rbt.Library>
libRbt.so (2013.1, Build901 2013/11/27)

>  <Rbt.Parameter_File>
/export/apps/rDock/src/rDock_2013.1_src/data/scripts/dock_solv.prm

>  <Rbt.Receptor>
prm/pocket_docking_3.prm

>  <SCORE>
-8.13904

>  <SCORE.INTER>
-7.5622

>  <SCORE.INTER.CONST>
1

>  <SCORE.INTER.POLAR>
0

>  <SCORE.INTER.ROT>
5

>  <SCORE.INTER.SOLV>
14.2262

>  <SCORE.INTER.VDW>
-16.7169

>  <SCORE.INTER.norm>
-0.75622

>  <SCORE.INTRA>
-0.577054

>  <SCORE.INTRA.DIHEDRAL>
0.0656204

>  <SCORE.INTRA.DIHEDRAL.0>
2.22229

>  <SCORE.INTRA.POLAR>
0

>  <SCORE.INTRA.POLAR.0>
0

>  <SCORE.INTRA.REPUL>
0

>  <SCORE.INTRA.REPUL.0>
0

>  <SCORE.INTRA.SOLV>
-0.900372

>  <SCORE.INTRA.SOLV.lig_0>
-31.87

>  <SCORE.INTRA.VDW>
-0.159678

>  <SCORE.INTRA.VDW.0>
-0.575321

>  <SCORE.INTRA.norm>
-0.0577054

>  <SCORE.RESTR>
0.000213626

>  <SCORE.RESTR.CAVITY>
0.000213626

>  <SCORE.RESTR.norm>
2.13626e-05

>  <SCORE.SYSTEM>
0

>  <SCORE.SYSTEM.CONST>
0

>  <SCORE.SYSTEM.DIHEDRAL>
0

>  <SCORE.SYSTEM.SOLV>
0

>  <SCORE.SYSTEM.norm>
0

>  <SCORE.heavy>
10

>  <SCORE.norm>
-0.813904

>  <RMSD>
5.718

$$$$
ligand
 OpenBabel11021811463D
libRbt.so/2013.1/901 2013/11/27
 10  9  0  0  0  0  0  0  0  0999 V2000
   25.1625   42.5534   17.9225 N   0  0  0  0  0  0  0  0  0  0  0  0
   24.1207   43.0765   18.7978 C   0  0  2  0  0  0  0  0  0  0  0  0
   24.1018   44.6038   18.7703 C   0  0  0  0  0  0  0  0  0  0  0  0
   23.1517   45.2143   19.2689 O   0  0  0  0  0  0  0  0  0  0  0  0
   24.3014   42.5577   20.2276 C   0  0  0  0  0  0  0  0  0  0  0  0
   23.9409   41.0863   20.3927 C   0  0  0  0  0  0  0  0  0  0  0  0
   23.9931   40.6389   21.8508 C   0  0  0  0  0  0  0  0  0  0  0  0
   23.5829   39.1671   22.0165 C   0  0  0  0  0  0  0  0  0  0  0  0
   23.5874   38.6767   23.4311 N   0  0  0  0  0  0  0  0  0  0  0  0
   25.0297   45.2531   18.2700 O   0  0  0  0  0  0  0  0  0  0  0  0
  2  1  1  6  0  0  0
  2  3  1  0  0  0  0
  2  5  1  0  0  0  0
  3  4  1  0  0  0  0
  3 10  1  0  0  0  0
  5  6  1  0  0  0  0
  6  7  1  0  0  0  0
  7  8  1  0  0  0  0
  8  9  1  0  0  0  0
M  END
>  <CHROM.1>
167.89099322,-72.73287937,-174.08936311,178.07760917,-178.81080412,24.09670369
42.32693054,20.08578140,-1.40095922,-0.97294030,2.64646618

>  <Name>
ligand

>  <RI>
0

>  <Rbt.Current_Directory>
/home/itssahil/PROJECTS/Mol_Feturizer/New_Systems/rnas/3D0U

>  <Rbt.Executable>
rbdock ($Id: //depot/dev/client3/rdock/2013.1/src/exe/rbdock.cxx#4 $)

>  <Rbt.Library>
libRbt.so (2013.1, Build901 2013/11/27)

>  <Rbt.Parameter_File>
/export/apps/rDock/src/rDock_2013.1_src/data/scripts/dock_solv.prm

>  <Rbt.Receptor>
prm/blind_docking_60.prm

>  <SCORE>
-8.3202

>  <SCORE.INTER>
-7.70893

>  <SCORE.INTER.CONST>
1

>  <SCORE.INTER.POLAR>
0

>  <SCORE.INTER.ROT>
5

>  <SCORE.INTER.SOLV>
14.3452

>  <SCORE.INTER.VDW>
-16.8544

>  <SCORE.INTER.norm>
-0.770893

>  <SCORE.INTRA>
-0.611276

>  <SCORE.INTRA.DIHEDRAL>
0.0437654

>  <SCORE.INTRA.DIHEDRAL.0>
2.22229

>  <SCORE.INTRA.POLAR>
0

>  <SCORE.INTRA.POLAR.0>
0

>  <SCORE.INTRA.REPUL>
0

>  <SCORE.INTRA.REPUL.0>
0

>  <SCORE.INTRA.SOLV>
-0.902294

>  <SCORE.INTRA.SOLV.lig_0>
-31.87

>  <SCORE.INTRA.VDW>
-0.182012

>  <SCORE.INTRA.VDW.0>
-0.575321

>  <SCORE.INTRA.norm>
-0.0611276

>  <SCORE.RESTR>
0

>  <SCORE.RESTR.CAVITY>
0

>  <SCORE.RESTR.norm>
0

>  <SCORE.SYSTEM>
0

>  <SCORE.SYSTEM.CONST>
0

>  <SCORE.SYSTEM.DIHEDRAL>
0

>  <SCORE.SYSTEM.SOLV>
0

>  <SCORE.SYSTEM.norm>
0

>  <SCORE.heavy>
10

>  <SCORE.norm>
-0.83202

>  <RMSD>
5.732

$$$$
ligand
 OpenBabel11021811463D
libRbt.so/2013.1/901 2013/11/27
 10  9  0  0  0  0  0  0  0  0999 V2000
   25.2919   42.6487   17.9492 N   0  0  0  0  0  0  0  0  0  0  0  0
   24.2095   43.1817   18.7674 C   0  0  2  0  0  0  0  0  0  0  0  0
   24.2229   44.7093   18.7613 C   0  0  0  0  0  0  0  0  0  0  0  0
   23.2547   45.3327   19.2060 O   0  0  0  0  0  0  0  0  0  0  0  0
   24.2925   42.6399   20.1978 C   0  0  0  0  0  0  0  0  0  0  0  0
   24.0073   41.1466   20.3019 C   0  0  0  0  0  0  0  0  0  0  0  0
   23.9607   40.6671   21.7500 C   0  0  0  0  0  0  0  0  0  0  0  0
   23.5951   39.1779   21.8519 C   0  0  0  0  0  0  0  0  0  0  0  0
   23.5227   38.6505   23.2513 N   0  0  0  0  0  0  0  0  0  0  0  0
   25.1943   45.3457   18.3321 O   0  0  0  0  0  0  0  0  0  0  0  0
  2  1  1  6  0  0  0
  2  3  1  0  0  0  0
  2  5  1  0  0  0  0
  3  4  1  0  0  0  0
  3 10  1  0  0  0  0
  5  6  1  0  0  0  0
  6  7  1  0  0  0  0
  7  8  1  0  0  0  0
  8  9  1  0  0  0  0
M  END
>  <CHROM.1>
167.63080597,-67.86666476,-174.29417054,176.79781361,-179.53622519,24.15564649
42.39442908,20.02857508,-1.37289366,-0.93439419,2.69616679

>  <Name>
ligand

>  <RI>
0

>  <Rbt.Current_Directory>
/home/itssahil/PROJECTS/Mol_Feturizer/New_Systems/rnas/3D0U

>  <Rbt.Executable>
rbdock ($Id: //depot/dev/client3/rdock/2013.1/src/exe/rbdock.cxx#4 $)

>  <Rbt.Library>
libRbt.so (2013.1, Build901 2013/11/27)

>  <Rbt.Parameter_File>
/export/apps/rDock/src/rDock_2013.1_src/data/scripts/dock_solv.prm

>  <Rbt.Receptor>
prm/pocket_docking_7.prm

>  <SCORE>
-8.19503

>  <SCORE.INTER>
-7.46192

>  <SCORE.INTER.CONST>
1

>  <SCORE.INTER.POLAR>
0

>  <SCORE.INTER.ROT>
5

>  <SCORE.INTER.SOLV>
14.2929

>  <SCORE.INTER.VDW>
-16.6722

>  <SCORE.INTER.norm>
-0.746192

>  <SCORE.INTRA>
-0.733118

>  <SCORE.INTRA.DIHEDRAL>
-0.329645

>  <SCORE.INTRA.DIHEDRAL.0>
2.22229

>  <SCORE.INTRA.POLAR>
0

>  <SCORE.INTRA.POLAR.0>
0

>  <SCORE.INTRA.REPUL>
0

>  <SCORE.INTRA.REPUL.0>
0

>  <SCORE.INTRA.SOLV>
-0.837494

>  <SCORE.INTRA.SOLV.lig_0>
-31.87

>  <SCORE.INTRA.VDW>
-0.149548

>  <SCORE.INTRA.VDW.0>
-0.575321

>  <SCORE.INTRA.norm>
-0.0733118

>  <SCORE.RESTR>
0

>  <SCORE.RESTR.CAVITY>
0

>  <SCORE.RESTR.norm>
0

>  <SCORE.SYSTEM>
0

>  <SCORE.SYSTEM.CONST>
0

>  <SCORE.SYSTEM.DIHEDRAL>
0

>  <SCORE.SYSTEM.SOLV>
0

>  <SCORE.SYSTEM.norm>
0

>  <SCORE.heavy>
10

>  <SCORE.norm>
-0.819503

>  <RMSD>
5.750

$$$$
ligand
 OpenBabel11021811463D
libRbt.so/2013.1/901 2013/11/27
 10  9  0  0  0  0  0  0  0  0999 V2000
   25.3165   42.6527   17.9406 N   0  0  0  0  0  0  0  0  0  0  0  0
   24.2270   43.1712   18.7586 C   0  0  2  0  0  0  0  0  0  0  0  0
   24.2102   44.6986   18.7397 C   0  0  0  0  0  0  0  0  0  0  0  0
   25.1445   45.3156   18.2196 O   0  0  0  0  0  0  0  0  0  0  0  0
   24.3261   42.6433   20.1931 C   0  0  0  0  0  0  0  0  0  0  0  0
   24.0134   41.1572   20.3192 C   0  0  0  0  0  0  0  0  0  0  0  0
   24.0114   40.6886   21.7716 C   0  0  0  0  0  0  0  0  0  0  0  0
   23.6519   39.1995   21.8955 C   0  0  0  0  0  0  0  0  0  0  0  0
   23.6202   38.6832   23.3006 N   0  0  0  0  0  0  0  0  0  0  0  0
   23.2686   45.3411   19.2229 O   0  0  0  0  0  0  0  0  0  0  0  0
  2  1  1  6  0  0  0
  2  3  1  0  0  0  0
  2  5  1  0  0  0  0
  3  4  1  0  0  0  0
  3 10  1  0  0  0  0
  5  6  1  0  0  0  0
  6  7  1  0  0  0  0
  7  8  1  0  0  0  0
  8  9  1  0  0  0  0
M  END
>  <CHROM.1>
-8.69055598,-70.29039292,-175.40882270,178.19222736,-179.42877532,24.17888491
42.39939712,20.02685785,-1.39133805,-0.94111362,2.66828399

>  <Name>
ligand

>  <RI>
0

>  <Rbt.Current_Directory>
/home/itssahil/PROJECTS/Mol_Feturizer/New_Systems/rnas/3D0U

>  <Rbt.Executable>
rbdock ($Id: //depot/dev/client3/rdock/2013.1/src/exe/rbdock.cxx#4 $)

>  <Rbt.Library>
libRbt.so (2013.1, Build901 2013/11/27)

>  <Rbt.Parameter_File>
/export/apps/rDock/src/rDock_2013.1_src/data/scripts/dock_solv.prm

>  <Rbt.Receptor>
prm/blind_docking_60.prm

>  <SCORE>
-8.16881

>  <SCORE.INTER>
-7.52291

>  <SCORE.INTER.CONST>
1

>  <SCORE.INTER.POLAR>
0

>  <SCORE.INTER.ROT>
5

>  <SCORE.INTER.SOLV>
14.2553

>  <SCORE.INTER.VDW>
-16.7004

>  <SCORE.INTER.norm>
-0.752291

>  <SCORE.INTRA>
-0.645897

>  <SCORE.INTRA.DIHEDRAL>
-0.198423

>  <SCORE.INTRA.DIHEDRAL.0>
2.22229

>  <SCORE.INTRA.POLAR>
0

>  <SCORE.INTRA.POLAR.0>
0

>  <SCORE.INTRA.REPUL>
0

>  <SCORE.INTRA.REPUL.0>
0

>  <SCORE.INTRA.SOLV>
-0.852176

>  <SCORE.INTRA.SOLV.lig_0>
-31.87

>  <SCORE.INTRA.VDW>
-0.120598

>  <SCORE.INTRA.VDW.0>
-0.575321

>  <SCORE.INTRA.norm>
-0.0645897

>  <SCORE.RESTR>
0

>  <SCORE.RESTR.CAVITY>
0

>  <SCORE.RESTR.norm>
0

>  <SCORE.SYSTEM>
0

>  <SCORE.SYSTEM.CONST>
0

>  <SCORE.SYSTEM.DIHEDRAL>
0

>  <SCORE.SYSTEM.SOLV>
0

>  <SCORE.SYSTEM.norm>
0

>  <SCORE.heavy>
10

>  <SCORE.norm>
-0.816881

>  <RMSD>
5.754

$$$$
ligand
 OpenBabel11021811463D
libRbt.so/2013.1/901 2013/11/27
 10  9  0  0  0  0  0  0  0  0999 V2000
   25.3223   42.6865   17.9230 N   0  0  0  0  0  0  0  0  0  0  0  0
   24.2296   43.1967   18.7419 C   0  0  2  0  0  0  0  0  0  0  0  0
   24.2041   44.7241   18.7266 C   0  0  0  0  0  0  0  0  0  0  0  0
   25.1333   45.3476   18.2052 O   0  0  0  0  0  0  0  0  0  0  0  0
   24.3313   42.6660   20.1752 C   0  0  0  0  0  0  0  0  0  0  0  0
   24.0127   41.1810   20.2998 C   0  0  0  0  0  0  0  0  0  0  0  0
   24.0052   40.7118   21.7520 C   0  0  0  0  0  0  0  0  0  0  0  0
   23.6510   39.2213   21.8736 C   0  0  0  0  0  0  0  0  0  0  0  0
   23.6343   38.6994   23.2768 N   0  0  0  0  0  0  0  0  0  0  0  0
   23.2604   45.3601   19.2142 O   0  0  0  0  0  0  0  0  0  0  0  0
  2  1  1  6  0  0  0
  2  3  1  0  0  0  0
  2  5  1  0  0  0  0
  3  4  1  0  0  0  0
  3 10  1  0  0  0  0
  5  6  1  0  0  0  0
  6  7  1  0  0  0  0
  7  8  1  0  0  0  0
  8  9  1  0  0  0  0
M  END
>  <CHROM.1>
-8.49941518,-70.89891290,-175.06123551,178.65950940,179.70513194,24.17810698
42.42376310,20.00964125,-1.39432376,-0.93841418,2.66710692

>  <Name>
ligand

>  <RI>
0

>  <Rbt.Current_Directory>
/home/itssahil/PROJECTS/Mol_Feturizer/New_Systems/rnas/3D0U

>  <Rbt.Executable>
rbdock ($Id: //depot/dev/client3/rdock/2013.1/src/exe/rbdock.cxx#4 $)

>  <Rbt.Library>
libRbt.so (2013.1, Build901 2013/11/27)

>  <Rbt.Parameter_File>
/export/apps/rDock/src/rDock_2013.1_src/data/scripts/dock_solv.prm

>  <Rbt.Receptor>
prm/pocket_docking_8.prm

>  <SCORE>
-8.20922

>  <SCORE.INTER>
-7.584

>  <SCORE.INTER.CONST>
1

>  <SCORE.INTER.POLAR>
0

>  <SCORE.INTER.ROT>
5

>  <SCORE.INTER.SOLV>
14.2982

>  <SCORE.INTER.VDW>
-16.7554

>  <SCORE.INTER.norm>
-0.7584

>  <SCORE.INTRA>
-0.625217

>  <SCORE.INTRA.DIHEDRAL>
-0.142388

>  <SCORE.INTRA.DIHEDRAL.0>
2.22229

>  <SCORE.INTRA.POLAR>
0

>  <SCORE.INTRA.POLAR.0>
0

>  <SCORE.INTRA.REPUL>
0

>  <SCORE.INTRA.REPUL.0>
0

>  <SCORE.INTRA.SOLV>
-0.861657

>  <SCORE.INTRA.SOLV.lig_0>
-31.87

>  <SCORE.INTRA.VDW>
-0.123195

>  <SCORE.INTRA.VDW.0>
-0.575321

>  <SCORE.INTRA.norm>
-0.0625217

>  <SCORE.RESTR>
0

>  <SCORE.RESTR.CAVITY>
0

>  <SCORE.RESTR.norm>
0

>  <SCORE.SYSTEM>
0

>  <SCORE.SYSTEM.CONST>
0

>  <SCORE.SYSTEM.DIHEDRAL>
0

>  <SCORE.SYSTEM.SOLV>
0

>  <SCORE.SYSTEM.norm>
0

>  <SCORE.heavy>
10

>  <SCORE.norm>
-0.820922

>  <RMSD>
5.761

$$$$
ligand
 OpenBabel11021811463D
libRbt.so/2013.1/901 2013/11/27
 10  9  0  0  0  0  0  0  0  0999 V2000
   24.4182   40.8187   23.2972 N   0  0  0  0  0  0  0  0  0  0  0  0
   24.1033   39.3985   23.2013 C   0  0  2  0  0  0  0  0  0  0  0  0
   23.4862   39.0675   21.8435 C   0  0  0  0  0  0  0  0  0  0  0  0
   23.2063   39.9784   21.0588 O   0  0  0  0  0  0  0  0  0  0  0  0
   23.1759   38.9696   24.3424 C   0  0  0  0  0  0  0  0  0  0  0  0
   22.8980   37.4715   24.3723 C   0  0  0  0  0  0  0  0  0  0  0  0
   21.8599   37.0976   25.4265 C   0  0  0  0  0  0  0  0  0  0  0  0
   21.2609   35.7047   25.1759 C   0  0  0  0  0  0  0  0  0  0  0  0
   20.1346   35.3389   26.0921 N   0  0  0  0  0  0  0  0  0  0  0  0
   23.2710   37.8980   21.4989 O   0  0  0  0  0  0  0  0  0  0  0  0
  2  1  1  6  0  0  0
  2  3  1  0  0  0  0
  2  5  1  0  0  0  0
  3  4  1  0  0  0  0
  3 10  1  0  0  0  0
  5  6  1  0  0  0  0
  6  7  1  0  0  0  0
  7  8  1  0  0  0  0
  8  9  1  0  0  0  0
M  END
>  <CHROM.1>
-6.71675208,-175.17642002,-174.03130900,162.18987517,-173.92154267,22.77484905
38.17421699,23.59340941,-0.58773682,0.97551903,1.50476801

>  <Name>
ligand

>  <RI>
0

>  <Rbt.Current_Directory>
/home/itssahil/PROJECTS/Mol_Feturizer/New_Systems/rnas/3D0U

>  <Rbt.Executable>
rbdock ($Id: //depot/dev/client3/rdock/2013.1/src/exe/rbdock.cxx#4 $)

>  <Rbt.Library>
libRbt.so (2013.1, Build901 2013/11/27)

>  <Rbt.Parameter_File>
/export/apps/rDock/src/rDock_2013.1_src/data/scripts/dock_solv.prm

>  <Rbt.Receptor>
prm/blind_docking_60.prm

>  <SCORE>
-5.40764

>  <SCORE.INTER>
-5.23585

>  <SCORE.INTER.CONST>
1

>  <SCORE.INTER.POLAR>
0

>  <SCORE.INTER.ROT>
5

>  <SCORE.INTER.SOLV>
14.9516

>  <SCORE.INTER.VDW>
-15.4078

>  <SCORE.INTER.norm>
-0.523585

>  <SCORE.INTRA>
-0.171788

>  <SCORE.INTRA.DIHEDRAL>
0.874539

>  <SCORE.INTRA.DIHEDRAL.0>
2.22229

>  <SCORE.INTRA.POLAR>
0

>  <SCORE.INTRA.POLAR.0>
0

>  <SCORE.INTRA.REPUL>
0

>  <SCORE.INTRA.REPUL.0>
0

>  <SCORE.INTRA.SOLV>
-1.58475

>  <SCORE.INTRA.SOLV.lig_0>
-31.87

>  <SCORE.INTRA.VDW>
0.183319

>  <SCORE.INTRA.VDW.0>
-0.575321

>  <SCORE.INTRA.norm>
-0.0171788

>  <SCORE.RESTR>
0

>  <SCORE.RESTR.CAVITY>
0

>  <SCORE.RESTR.norm>
0

>  <SCORE.SYSTEM>
0

>  <SCORE.SYSTEM.CONST>
0

>  <SCORE.SYSTEM.DIHEDRAL>
0

>  <SCORE.SYSTEM.SOLV>
0

>  <SCORE.SYSTEM.norm>
0

>  <SCORE.heavy>
10

>  <SCORE.norm>
-0.540764

>  <RMSD>
6.582

$$$$
ligand
 OpenBabel11021811463D
libRbt.so/2013.1/901 2013/11/27
 10  9  0  0  0  0  0  0  0  0999 V2000
   34.6004   40.0581   20.8081 N   0  0  0  0  0  0  0  0  0  0  0  0
   33.2849   40.0125   20.1816 C   0  0  2  0  0  0  0  0  0  0  0  0
   32.7008   38.6022   20.2426 C   0  0  0  0  0  0  0  0  0  0  0  0
   31.6567   38.3975   20.8685 O   0  0  0  0  0  0  0  0  0  0  0  0
   33.3541   40.5136   18.7358 C   0  0  0  0  0  0  0  0  0  0  0  0
   33.6598   42.0020   18.6200 C   0  0  0  0  0  0  0  0  0  0  0  0
   33.5727   42.4992   17.1798 C   0  0  0  0  0  0  0  0  0  0  0  0
   34.0143   43.9654   17.0493 C   0  0  0  0  0  0  0  0  0  0  0  0
   33.1674   44.9390   17.8086 N   0  0  0  0  0  0  0  0  0  0  0  0
   33.2431   37.6521   19.6630 O   0  0  0  0  0  0  0  0  0  0  0  0
  2  1  1  6  0  0  0
  2  3  1  0  0  0  0
  2  5  1  0  0  0  0
  3  4  1  0  0  0  0
  3 10  1  0  0  0  0
  5  6  1  0  0  0  0
  6  7  1  0  0  0  0
  7  8  1  0  0  0  0
  8  9  1  0  0  0  0
M  END
>  <CHROM.1>
117.41805952,-68.00795363,-173.80626438,-174.42848218,-62.48139342,33.30999502
40.82271415,19.12411456,-1.75739252,-0.80077906,-0.62440249

>  <Name>
ligand

>  <RI>
0

>  <Rbt.Current_Directory>
/home/itssahil/PROJECTS/Mol_Feturizer/New_Systems/rnas/3D0U

>  <Rbt.Executable>
rbdock ($Id: //depot/dev/client3/rdock/2013.1/src/exe/rbdock.cxx#4 $)

>  <Rbt.Library>
libRbt.so (2013.1, Build901 2013/11/27)

>  <Rbt.Parameter_File>
/export/apps/rDock/src/rDock_2013.1_src/data/scripts/dock_solv.prm

>  <Rbt.Receptor>
prm/blind_docking_100.prm

>  <SCORE>
-4.00354

>  <SCORE.INTER>
-3.71461

>  <SCORE.INTER.CONST>
1

>  <SCORE.INTER.POLAR>
0

>  <SCORE.INTER.ROT>
5

>  <SCORE.INTER.SOLV>
10.8207

>  <SCORE.INTER.VDW>
-13.0166

>  <SCORE.INTER.norm>
-0.371461

>  <SCORE.INTRA>
-0.288931

>  <SCORE.INTRA.DIHEDRAL>
-0.162014

>  <SCORE.INTRA.DIHEDRAL.0>
2.22229

>  <SCORE.INTRA.POLAR>
0

>  <SCORE.INTRA.POLAR.0>
0

>  <SCORE.INTRA.REPUL>
0

>  <SCORE.INTRA.REPUL.0>
0

>  <SCORE.INTRA.SOLV>
-0.0341941

>  <SCORE.INTRA.SOLV.lig_0>
-31.87

>  <SCORE.INTRA.VDW>
-0.190826

>  <SCORE.INTRA.VDW.0>
-0.575321

>  <SCORE.INTRA.norm>
-0.0288931

>  <SCORE.RESTR>
0

>  <SCORE.RESTR.CAVITY>
0

>  <SCORE.RESTR.norm>
0

>  <SCORE.SYSTEM>
0

>  <SCORE.SYSTEM.CONST>
0

>  <SCORE.SYSTEM.DIHEDRAL>
0

>  <SCORE.SYSTEM.SOLV>
0

>  <SCORE.SYSTEM.norm>
0

>  <SCORE.heavy>
10

>  <SCORE.norm>
-0.400354

>  <RMSD>
9.430

$$$$
ligand
 OpenBabel11021811463D
libRbt.so/2013.1/901 2013/11/27
 10  9  0  0  0  0  0  0  0  0999 V2000
   33.7572   36.8142   18.7734 N   0  0  0  0  0  0  0  0  0  0  0  0
   33.6212   38.0919   19.4619 C   0  0  2  0  0  0  0  0  0  0  0  0
   32.4967   38.0377   20.4945 C   0  0  0  0  0  0  0  0  0  0  0  0
   32.0256   36.9475   20.8314 O   0  0  0  0  0  0  0  0  0  0  0  0
   33.3891   39.2270   18.4599 C   0  0  0  0  0  0  0  0  0  0  0  0
   33.5698   40.6163   19.0593 C   0  0  0  0  0  0  0  0  0  0  0  0
   33.3611   41.7218   18.0281 C   0  0  0  0  0  0  0  0  0  0  0  0
   33.4825   43.1211   18.6518 C   0  0  0  0  0  0  0  0  0  0  0  0
   33.3403   44.2495   17.6780 N   0  0  0  0  0  0  0  0  0  0  0  0
   32.0505   39.0665   21.0193 O   0  0  0  0  0  0  0  0  0  0  0  0
  2  1  1  6  0  0  0
  2  3  1  0  0  0  0
  2  5  1  0  0  0  0
  3  4  1  0  0  0  0
  3 10  1  0  0  0  0
  5  6  1  0  0  0  0
  6  7  1  0  0  0  0
  7  8  1  0  0  0  0
  8  9  1  0  0  0  0
M  END
>  <CHROM.1>
13.98106566,-166.13657267,178.76318865,177.44865400,177.73121960,33.08441863
39.77646719,19.27362065,-1.77729928,0.97276342,-0.17064379

>  <Name>
ligand

>  <RI>
0

>  <Rbt.Current_Directory>
/home/itssahil/PROJECTS/Mol_Feturizer/New_Systems/rnas/3D0U

>  <Rbt.Executable>
rbdock ($Id: //depot/dev/client3/rdock/2013.1/src/exe/rbdock.cxx#4 $)

>  <Rbt.Library>
libRbt.so (2013.1, Build901 2013/11/27)

>  <Rbt.Parameter_File>
/export/apps/rDock/src/rDock_2013.1_src/data/scripts/dock_solv.prm

>  <Rbt.Receptor>
prm/blind_docking_100.prm

>  <SCORE>
-6.09605

>  <SCORE.INTER>
-5.60344

>  <SCORE.INTER.CONST>
1

>  <SCORE.INTER.POLAR>
0

>  <SCORE.INTER.ROT>
5

>  <SCORE.INTER.SOLV>
6.77281

>  <SCORE.INTER.VDW>
-12.9266

>  <SCORE.INTER.norm>
-0.560344

>  <SCORE.INTRA>
-0.492609

>  <SCORE.INTRA.DIHEDRAL>
-0.00218571

>  <SCORE.INTRA.DIHEDRAL.0>
2.22229

>  <SCORE.INTRA.POLAR>
0

>  <SCORE.INTRA.POLAR.0>
0

>  <SCORE.INTRA.REPUL>
0

>  <SCORE.INTRA.REPUL.0>
0

>  <SCORE.INTRA.SOLV>
-1.57913

>  <SCORE.INTRA.SOLV.lig_0>
-31.87

>  <SCORE.INTRA.VDW>
0.298051

>  <SCORE.INTRA.VDW.0>
-0.575321

>  <SCORE.INTRA.norm>
-0.0492609

>  <SCORE.RESTR>
0

>  <SCORE.RESTR.CAVITY>
0

>  <SCORE.RESTR.norm>
0

>  <SCORE.SYSTEM>
0

>  <SCORE.SYSTEM.CONST>
0

>  <SCORE.SYSTEM.DIHEDRAL>
0

>  <SCORE.SYSTEM.SOLV>
0

>  <SCORE.SYSTEM.norm>
0

>  <SCORE.heavy>
10

>  <SCORE.norm>
-0.609605

>  <RMSD>
9.441

$$$$
ligand
 OpenBabel11021811463D
libRbt.so/2013.1/901 2013/11/27
 10  9  0  0  0  0  0  0  0  0999 V2000
   35.1976   39.3895   19.6366 N   0  0  0  0  0  0  0  0  0  0  0  0
   34.0528   39.8202   20.4298 C   0  0  2  0  0  0  0  0  0  0  0  0
   32.8604   38.8896   20.2158 C   0  0  0  0  0  0  0  0  0  0  0  0
   31.9403   38.8728   21.0386 O   0  0  0  0  0  0  0  0  0  0  0  0
   33.6805   41.2698   20.1036 C   0  0  0  0  0  0  0  0  0  0  0  0
   33.4568   41.5224   18.6175 C   0  0  0  0  0  0  0  0  0  0  0  0
   33.1662   42.9905   18.3186 C   0  0  0  0  0  0  0  0  0  0  0  0
   33.0244   43.2540   16.8112 C   0  0  0  0  0  0  0  0  0  0  0  0
   32.8662   44.6971   16.4452 N   0  0  0  0  0  0  0  0  0  0  0  0
   32.7833   38.1553   19.2219 O   0  0  0  0  0  0  0  0  0  0  0  0
  2  1  1  6  0  0  0
  2  3  1  0  0  0  0
  2  5  1  0  0  0  0
  3  4  1  0  0  0  0
  3 10  1  0  0  0  0
  5  6  1  0  0  0  0
  6  7  1  0  0  0  0
  7  8  1  0  0  0  0
  8  9  1  0  0  0  0
M  END
>  <CHROM.1>
161.02090742,53.62027322,-176.74053804,176.59746356,-174.54784199,33.27729952
40.85560408,19.08765997,-1.55753990,-0.11780076,-0.57138818

>  <Name>
ligand

>  <RI>
0

>  <Rbt.Current_Directory>
/home/itssahil/PROJECTS/Mol_Feturizer/New_Systems/rnas/3D0U

>  <Rbt.Executable>
rbdock ($Id: //depot/dev/client3/rdock/2013.1/src/exe/rbdock.cxx#4 $)

>  <Rbt.Library>
libRbt.so (2013.1, Build901 2013/11/27)

>  <Rbt.Parameter_File>
/export/apps/rDock/src/rDock_2013.1_src/data/scripts/dock_solv.prm

>  <Rbt.Receptor>
prm/blind_docking_100.prm

>  <SCORE>
-6.54153

>  <SCORE.INTER>
-5.96715

>  <SCORE.INTER.CONST>
1

>  <SCORE.INTER.POLAR>
0

>  <SCORE.INTER.ROT>
5

>  <SCORE.INTER.SOLV>
9.71849

>  <SCORE.INTER.VDW>
-14.1509

>  <SCORE.INTER.norm>
-0.596715

>  <SCORE.INTRA>
-0.574377

>  <SCORE.INTRA.DIHEDRAL>
-0.396

>  <SCORE.INTRA.DIHEDRAL.0>
2.22229

>  <SCORE.INTRA.POLAR>
0

>  <SCORE.INTRA.POLAR.0>
0

>  <SCORE.INTRA.REPUL>
0

>  <SCORE.INTRA.REPUL.0>
0

>  <SCORE.INTRA.SOLV>
-0.627287

>  <SCORE.INTRA.SOLV.lig_0>
-31.87

>  <SCORE.INTRA.VDW>
-0.0627334

>  <SCORE.INTRA.VDW.0>
-0.575321

>  <SCORE.INTRA.norm>
-0.0574377

>  <SCORE.RESTR>
0

>  <SCORE.RESTR.CAVITY>
0

>  <SCORE.RESTR.norm>
0

>  <SCORE.SYSTEM>
0

>  <SCORE.SYSTEM.CONST>
0

>  <SCORE.SYSTEM.DIHEDRAL>
0

>  <SCORE.SYSTEM.SOLV>
0

>  <SCORE.SYSTEM.norm>
0

>  <SCORE.heavy>
10

>  <SCORE.norm>
-0.654153

>  <RMSD>
9.458

$$$$
ligand
 OpenBabel11021811463D
libRbt.so/2013.1/901 2013/11/27
 10  9  0  0  0  0  0  0  0  0999 V2000
   33.4360   36.9327   18.3017 N   0  0  0  0  0  0  0  0  0  0  0  0
   33.6391   37.9654   19.3103 C   0  0  2  0  0  0  0  0  0  0  0  0
   32.5778   37.8741   20.4053 C   0  0  0  0  0  0  0  0  0  0  0  0
   32.0145   38.8991   20.8003 O   0  0  0  0  0  0  0  0  0  0  0  0
   33.6453   39.3567   18.6696 C   0  0  0  0  0  0  0  0  0  0  0  0
   34.1934   40.4464   19.5830 C   0  0  0  0  0  0  0  0  0  0  0  0
   34.4195   41.7613   18.8421 C   0  0  0  0  0  0  0  0  0  0  0  0
   33.0960   42.4252   18.4306 C   0  0  0  0  0  0  0  0  0  0  0  0
   33.2536   43.6880   17.6418 N   0  0  0  0  0  0  0  0  0  0  0  0
   32.2529   36.7875   20.9020 O   0  0  0  0  0  0  0  0  0  0  0  0
  2  1  1  6  0  0  0
  2  3  1  0  0  0  0
  2  5  1  0  0  0  0
  3  4  1  0  0  0  0
  3 10  1  0  0  0  0
  5  6  1  0  0  0  0
  6  7  1  0  0  0  0
  7  8  1  0  0  0  0
  8  9  1  0  0  0  0
M  END
>  <CHROM.1>
-134.54560032,-165.48159001,169.78092824,69.31692698,-177.23369912,33.22839004
39.60054864,19.31662255,-1.84171122,0.95378636,-0.10885916

>  <Name>
ligand

>  <RI>
0

>  <Rbt.Current_Directory>
/home/itssahil/PROJECTS/Mol_Feturizer/New_Systems/rnas/3D0U

>  <Rbt.Executable>
rbdock ($Id: //depot/dev/client3/rdock/2013.1/src/exe/rbdock.cxx#4 $)

>  <Rbt.Library>
libRbt.so (2013.1, Build901 2013/11/27)

>  <Rbt.Parameter_File>
/export/apps/rDock/src/rDock_2013.1_src/data/scripts/dock_solv.prm

>  <Rbt.Receptor>
prm/blind_docking_100.prm

>  <SCORE>
-4.69345

>  <SCORE.INTER>
-5.63915

>  <SCORE.INTER.CONST>
1

>  <SCORE.INTER.POLAR>
0

>  <SCORE.INTER.ROT>
5

>  <SCORE.INTER.SOLV>
6.7669

>  <SCORE.INTER.VDW>
-12.9484

>  <SCORE.INTER.norm>
-0.563915

>  <SCORE.INTRA>
0.945698

>  <SCORE.INTRA.DIHEDRAL>
0.867009

>  <SCORE.INTRA.DIHEDRAL.0>
2.22229

>  <SCORE.INTRA.POLAR>
0

>  <SCORE.INTRA.POLAR.0>
0

>  <SCORE.INTRA.REPUL>
0

>  <SCORE.INTRA.REPUL.0>
0

>  <SCORE.INTRA.SOLV>
-1.39701

>  <SCORE.INTRA.SOLV.lig_0>
-31.87

>  <SCORE.INTRA.VDW>
1.2107

>  <SCORE.INTRA.VDW.0>
-0.575321

>  <SCORE.INTRA.norm>
0.0945698

>  <SCORE.RESTR>
0

>  <SCORE.RESTR.CAVITY>
0

>  <SCORE.RESTR.norm>
0

>  <SCORE.SYSTEM>
0

>  <SCORE.SYSTEM.CONST>
0

>  <SCORE.SYSTEM.DIHEDRAL>
0

>  <SCORE.SYSTEM.SOLV>
0

>  <SCORE.SYSTEM.norm>
0

>  <SCORE.heavy>
10

>  <SCORE.norm>
-0.469345

>  <RMSD>
9.596

$$$$
ligand
 OpenBabel11021811463D
libRbt.so/2013.1/901 2013/11/27
 10  9  0  0  0  0  0  0  0  0999 V2000
   35.1349   39.5839   19.9039 N   0  0  0  0  0  0  0  0  0  0  0  0
   33.7148   39.9093   19.8534 C   0  0  2  0  0  0  0  0  0  0  0  0
   32.8617   38.6661   20.0994 C   0  0  0  0  0  0  0  0  0  0  0  0
   33.1173   37.6183   19.4988 O   0  0  0  0  0  0  0  0  0  0  0  0
   33.3547   40.5636   18.5161 C   0  0  0  0  0  0  0  0  0  0  0  0
   33.8528   41.9978   18.3851 C   0  0  0  0  0  0  0  0  0  0  0  0
   33.3922   42.6527   17.0859 C   0  0  0  0  0  0  0  0  0  0  0  0
   33.9062   44.0951   16.9545 C   0  0  0  0  0  0  0  0  0  0  0  0
   33.3138   45.0574   17.9367 N   0  0  0  0  0  0  0  0  0  0  0  0
   31.9207   38.6764   20.9041 O   0  0  0  0  0  0  0  0  0  0  0  0
  2  1  1  6  0  0  0
  2  3  1  0  0  0  0
  2  5  1  0  0  0  0
  3  4  1  0  0  0  0
  3 10  1  0  0  0  0
  5  6  1  0  0  0  0
  6  7  1  0  0  0  0
  7  8  1  0  0  0  0
  8  9  1  0  0  0  0
M  END
>  <CHROM.1>
-47.13379481,-73.22363833,-175.88534224,-179.57407523,-67.81512855,33.43713881
40.84378554,18.92614517,-1.66957491,0.32052371,-0.42274656

>  <Name>
ligand

>  <RI>
0

>  <Rbt.Current_Directory>
/home/itssahil/PROJECTS/Mol_Feturizer/New_Systems/rnas/3D0U

>  <Rbt.Executable>
rbdock ($Id: //depot/dev/client3/rdock/2013.1/src/exe/rbdock.cxx#4 $)

>  <Rbt.Library>
libRbt.so (2013.1, Build901 2013/11/27)

>  <Rbt.Parameter_File>
/export/apps/rDock/src/rDock_2013.1_src/data/scripts/dock_solv.prm

>  <Rbt.Receptor>
prm/blind_docking_60.prm

>  <SCORE>
-3.93118

>  <SCORE.INTER>
-3.69985

>  <SCORE.INTER.CONST>
1

>  <SCORE.INTER.POLAR>
0

>  <SCORE.INTER.ROT>
5

>  <SCORE.INTER.SOLV>
8.95514

>  <SCORE.INTER.VDW>
-12.3849

>  <SCORE.INTER.norm>
-0.369985

>  <SCORE.INTRA>
-0.231323

>  <SCORE.INTRA.DIHEDRAL>
0.262408

>  <SCORE.INTRA.DIHEDRAL.0>
2.22229

>  <SCORE.INTRA.POLAR>
0

>  <SCORE.INTRA.POLAR.0>
0

>  <SCORE.INTRA.REPUL>
0

>  <SCORE.INTRA.REPUL.0>
0

>  <SCORE.INTRA.SOLV>
-0.125305

>  <SCORE.INTRA.SOLV.lig_0>
-31.87

>  <SCORE.INTRA.VDW>
-0.299874

>  <SCORE.INTRA.VDW.0>
-0.575321

>  <SCORE.INTRA.norm>
-0.0231323

>  <SCORE.RESTR>
0

>  <SCORE.RESTR.CAVITY>
0

>  <SCORE.RESTR.norm>
0

>  <SCORE.SYSTEM>
0

>  <SCORE.SYSTEM.CONST>
0

>  <SCORE.SYSTEM.DIHEDRAL>
0

>  <SCORE.SYSTEM.SOLV>
0

>  <SCORE.SYSTEM.norm>
0

>  <SCORE.heavy>
10

>  <SCORE.norm>
-0.393118

>  <RMSD>
9.641

$$$$
ligand
 OpenBabel11021811463D
libRbt.so/2013.1/901 2013/11/27
 10  9  0  0  0  0  0  0  0  0999 V2000
   32.1372   38.6393   20.7728 N   0  0  0  0  0  0  0  0  0  0  0  0
   32.9693   38.7279   19.5791 C   0  0  2  0  0  0  0  0  0  0  0  0
   33.3511   37.3368   19.0763 C   0  0  0  0  0  0  0  0  0  0  0  0
   33.3206   36.3754   19.8501 O   0  0  0  0  0  0  0  0  0  0  0  0
   34.2178   39.5734   19.8488 C   0  0  0  0  0  0  0  0  0  0  0  0
   33.9203   41.0550   20.0455 C   0  0  0  0  0  0  0  0  0  0  0  0
   33.4958   41.7361   18.7474 C   0  0  0  0  0  0  0  0  0  0  0  0
   33.2862   43.2473   18.9321 C   0  0  0  0  0  0  0  0  0  0  0  0
   33.0291   43.9983   17.6626 N   0  0  0  0  0  0  0  0  0  0  0  0
   33.6789   37.1424   17.8983 O   0  0  0  0  0  0  0  0  0  0  0  0
  2  1  1  1  0  0  0
  2  3  1  0  0  0  0
  2  5  1  0  0  0  0
  3  4  1  0  0  0  0
  3 10  1  0  0  0  0
  5  6  1  0  0  0  0
  6  7  1  0  0  0  0
  7  8  1  0  0  0  0
  8  9  1  0  0  0  0
M  END
>  <CHROM.1>
-21.97428954,-69.51047780,-70.60932272,-176.26385820,173.02846899,33.34778412
39.74068489,19.23098984,1.59306277,-1.36664082,3.02453812

>  <Name>
ligand

>  <RI>
0

>  <Rbt.Current_Directory>
/home/itssahil/PROJECTS/Mol_Feturizer/New_Systems/rnas/3D0U

>  <Rbt.Executable>
rbdock ($Id: //depot/dev/client3/rdock/2013.1/src/exe/rbdock.cxx#4 $)

>  <Rbt.Library>
libRbt.so (2013.1, Build901 2013/11/27)

>  <Rbt.Parameter_File>
/export/apps/rDock/src/rDock_2013.1_src/data/scripts/dock_solv.prm

>  <Rbt.Receptor>
prm/blind_docking_100.prm

>  <SCORE>
-4.46474

>  <SCORE.INTER>
-4.33415

>  <SCORE.INTER.CONST>
1

>  <SCORE.INTER.POLAR>
0

>  <SCORE.INTER.ROT>
5

>  <SCORE.INTER.SOLV>
11.2484

>  <SCORE.INTER.VDW>
-13.5722

>  <SCORE.INTER.norm>
-0.433415

>  <SCORE.INTRA>
-0.130585

>  <SCORE.INTRA.DIHEDRAL>
0.352999

>  <SCORE.INTRA.DIHEDRAL.0>
2.22229

>  <SCORE.INTRA.POLAR>
0

>  <SCORE.INTRA.POLAR.0>
0

>  <SCORE.INTRA.REPUL>
0

>  <SCORE.INTRA.REPUL.0>
0

>  <SCORE.INTRA.SOLV>
-0.417819

>  <SCORE.INTRA.SOLV.lig_0>
-31.87

>  <SCORE.INTRA.VDW>
-0.0981752

>  <SCORE.INTRA.VDW.0>
-0.575321

>  <SCORE.INTRA.norm>
-0.0130585

>  <SCORE.RESTR>
0

>  <SCORE.RESTR.CAVITY>
0

>  <SCORE.RESTR.norm>
0

>  <SCORE.SYSTEM>
0

>  <SCORE.SYSTEM.CONST>
0

>  <SCORE.SYSTEM.DIHEDRAL>
0

>  <SCORE.SYSTEM.SOLV>
0

>  <SCORE.SYSTEM.norm>
0

>  <SCORE.heavy>
10

>  <SCORE.norm>
-0.446474

>  <RMSD>
9.708

$$$$
ligand
 OpenBabel11021811463D
libRbt.so/2013.1/901 2013/11/27
 10  9  0  0  0  0  0  0  0  0999 V2000
   16.9195   39.8743   14.7399 N   0  0  0  0  0  0  0  0  0  0  0  0
   18.2725   40.1414   15.2121 C   0  0  2  0  0  0  0  0  0  0  0  0
   18.9987   38.8405   15.5500 C   0  0  0  0  0  0  0  0  0  0  0  0
   20.2251   38.7731   15.4269 O   0  0  0  0  0  0  0  0  0  0  0  0
   18.2503   41.0845   16.4189 C   0  0  0  0  0  0  0  0  0  0  0  0
   17.1611   40.7533   17.4319 C   0  0  0  0  0  0  0  0  0  0  0  0
   15.7976   41.2948   17.0116 C   0  0  0  0  0  0  0  0  0  0  0  0
   14.7239   41.0448   18.0824 C   0  0  0  0  0  0  0  0  0  0  0  0
   14.4296   39.5998   18.3412 N   0  0  0  0  0  0  0  0  0  0  0  0
   18.3865   37.8466   15.9625 O   0  0  0  0  0  0  0  0  0  0  0  0
  2  1  1  1  0  0  0
  2  3  1  0  0  0  0
  2  5  1  0  0  0  0
  3  4  1  0  0  0  0
  3 10  1  0  0  0  0
  5  6  1  0  0  0  0
  6  7  1  0  0  0  0
  7  8  1  0  0  0  0
  8  9  1  0  0  0  0
M  END
>  <CHROM.1>
150.06252875,42.68636233,-80.70273332,-175.96604803,-64.00258890,17.34170142
39.89415406,16.41850084,-0.30468977,0.54953191,-0.08503374

>  <Name>
ligand

>  <RI>
0

>  <Rbt.Current_Directory>
/home/itssahil/PROJECTS/Mol_Feturizer/New_Systems/rnas/3D0U

>  <Rbt.Executable>
rbdock ($Id: //depot/dev/client3/rdock/2013.1/src/exe/rbdock.cxx#4 $)

>  <Rbt.Library>
libRbt.so (2013.1, Build901 2013/11/27)

>  <Rbt.Parameter_File>
/export/apps/rDock/src/rDock_2013.1_src/data/scripts/dock_solv.prm

>  <Rbt.Receptor>
prm/blind_docking_100.prm

>  <SCORE>
-0.873989

>  <SCORE.INTER>
-3.0905

>  <SCORE.INTER.CONST>
1

>  <SCORE.INTER.POLAR>
0

>  <SCORE.INTER.ROT>
5

>  <SCORE.INTER.SOLV>
9.06746

>  <SCORE.INTER.VDW>
-12.0162

>  <SCORE.INTER.norm>
-0.30905

>  <SCORE.INTRA>
2.21651

>  <SCORE.INTRA.DIHEDRAL>
2.12052

>  <SCORE.INTRA.DIHEDRAL.0>
2.22229

>  <SCORE.INTRA.POLAR>
0

>  <SCORE.INTRA.POLAR.0>
0

>  <SCORE.INTRA.REPUL>
0

>  <SCORE.INTRA.REPUL.0>
0

>  <SCORE.INTRA.SOLV>
1.6856

>  <SCORE.INTRA.SOLV.lig_0>
-31.87

>  <SCORE.INTRA.VDW>
0.313453

>  <SCORE.INTRA.VDW.0>
-0.575321

>  <SCORE.INTRA.norm>
0.221651

>  <SCORE.RESTR>
0

>  <SCORE.RESTR.CAVITY>
0

>  <SCORE.RESTR.norm>
0

>  <SCORE.SYSTEM>
0

>  <SCORE.SYSTEM.CONST>
0

>  <SCORE.SYSTEM.DIHEDRAL>
0

>  <SCORE.SYSTEM.SOLV>
0

>  <SCORE.SYSTEM.norm>
0

>  <SCORE.heavy>
10

>  <SCORE.norm>
-0.0873989

>  <RMSD>
9.760

$$$$
ligand
 OpenBabel11021811463D
libRbt.so/2013.1/901 2013/11/27
 10  9  0  0  0  0  0  0  0  0999 V2000
   35.3337   39.3493   19.2887 N   0  0  0  0  0  0  0  0  0  0  0  0
   34.1724   39.5723   20.1412 C   0  0  2  0  0  0  0  0  0  0  0  0
   32.9758   38.7553   19.6569 C   0  0  0  0  0  0  0  0  0  0  0  0
   32.9448   38.3438   18.4934 O   0  0  0  0  0  0  0  0  0  0  0  0
   33.8257   41.0628   20.2077 C   0  0  0  0  0  0  0  0  0  0  0  0
   33.5676   41.6906   18.8433 C   0  0  0  0  0  0  0  0  0  0  0  0
   33.1571   43.1565   18.9504 C   0  0  0  0  0  0  0  0  0  0  0  0
   33.0121   43.8160   17.5699 C   0  0  0  0  0  0  0  0  0  0  0  0
   34.2785   43.8743   16.7733 N   0  0  0  0  0  0  0  0  0  0  0  0
   32.0337   38.4789   20.4111 O   0  0  0  0  0  0  0  0  0  0  0  0
  2  1  1  6  0  0  0
  2  3  1  0  0  0  0
  2  5  1  0  0  0  0
  3  4  1  0  0  0  0
  3 10  1  0  0  0  0
  5  6  1  0  0  0  0
  6  7  1  0  0  0  0
  7  8  1  0  0  0  0
  8  9  1  0  0  0  0
M  END
>  <CHROM.1>
-20.52117977,56.92968709,177.12837380,175.24287160,-63.01121394,33.50401932
40.78087724,19.02877047,-1.65404011,0.20885243,-0.37746024

>  <Name>
ligand

>  <RI>
0

>  <Rbt.Current_Directory>
/home/itssahil/PROJECTS/Mol_Feturizer/New_Systems/rnas/3D0U

>  <Rbt.Executable>
rbdock ($Id: //depot/dev/client3/rdock/2013.1/src/exe/rbdock.cxx#4 $)

>  <Rbt.Library>
libRbt.so (2013.1, Build901 2013/11/27)

>  <Rbt.Parameter_File>
/export/apps/rDock/src/rDock_2013.1_src/data/scripts/dock_solv.prm

>  <Rbt.Receptor>
prm/blind_docking_60.prm

>  <SCORE>
-6.27793

>  <SCORE.INTER>
-6.09363

>  <SCORE.INTER.CONST>
1

>  <SCORE.INTER.POLAR>
0

>  <SCORE.INTER.ROT>
5

>  <SCORE.INTER.SOLV>
7.40662

>  <SCORE.INTER.VDW>
-13.4646

>  <SCORE.INTER.norm>
-0.609363

>  <SCORE.INTRA>
-0.184303

>  <SCORE.INTRA.DIHEDRAL>
-0.510883

>  <SCORE.INTRA.DIHEDRAL.0>
2.22229

>  <SCORE.INTRA.POLAR>
0

>  <SCORE.INTRA.POLAR.0>
0

>  <SCORE.INTRA.REPUL>
0

>  <SCORE.INTRA.REPUL.0>
0

>  <SCORE.INTRA.SOLV>
0.187526

>  <SCORE.INTRA.SOLV.lig_0>
-31.87

>  <SCORE.INTRA.VDW>
-0.022625

>  <SCORE.INTRA.VDW.0>
-0.575321

>  <SCORE.INTRA.norm>
-0.0184303

>  <SCORE.RESTR>
0

>  <SCORE.RESTR.CAVITY>
0

>  <SCORE.RESTR.norm>
0

>  <SCORE.SYSTEM>
0

>  <SCORE.SYSTEM.CONST>
0

>  <SCORE.SYSTEM.DIHEDRAL>
0

>  <SCORE.SYSTEM.SOLV>
0

>  <SCORE.SYSTEM.norm>
0

>  <SCORE.heavy>
10

>  <SCORE.norm>
-0.627793

>  <RMSD>
9.763

$$$$
ligand
 OpenBabel11021811463D
libRbt.so/2013.1/901 2013/11/27
 10  9  0  0  0  0  0  0  0  0999 V2000
   16.6506   39.7416   15.0294 N   0  0  0  0  0  0  0  0  0  0  0  0
   18.0189   40.1040   15.3779 C   0  0  2  0  0  0  0  0  0  0  0  0
   18.9051   38.8629   15.4688 C   0  0  0  0  0  0  0  0  0  0  0  0
   20.1159   38.9565   15.2474 O   0  0  0  0  0  0  0  0  0  0  0  0
   18.0539   40.8978   16.6875 C   0  0  0  0  0  0  0  0  0  0  0  0
   17.3284   42.2356   16.6093 C   0  0  0  0  0  0  0  0  0  0  0  0
   15.8115   42.0735   16.6537 C   0  0  0  0  0  0  0  0  0  0  0  0
   15.0852   43.4246   16.5599 C   0  0  0  0  0  0  0  0  0  0  0  0
   13.5941   43.3365   16.6619 N   0  0  0  0  0  0  0  0  0  0  0  0
   18.4402   37.7574   15.7764 O   0  0  0  0  0  0  0  0  0  0  0  0
  2  1  1  1  0  0  0
  2  3  1  0  0  0  0
  2  5  1  0  0  0  0
  3  4  1  0  0  0  0
  3 10  1  0  0  0  0
  5  6  1  0  0  0  0
  6  7  1  0  0  0  0
  7  8  1  0  0  0  0
  8  9  1  0  0  0  0
M  END
>  <CHROM.1>
152.53422780,-63.46004723,76.06468238,-179.40636829,-177.31351522,17.22885507
40.70354431,16.00560324,0.81311768,0.08776164,-2.79907170

>  <Name>
ligand

>  <RI>
0

>  <Rbt.Current_Directory>
/home/itssahil/PROJECTS/Mol_Feturizer/New_Systems/rnas/3D0U

>  <Rbt.Executable>
rbdock ($Id: //depot/dev/client3/rdock/2013.1/src/exe/rbdock.cxx#4 $)

>  <Rbt.Library>
libRbt.so (2013.1, Build901 2013/11/27)

>  <Rbt.Parameter_File>
/export/apps/rDock/src/rDock_2013.1_src/data/scripts/dock_solv.prm

>  <Rbt.Receptor>
prm/blind_docking_100.prm

>  <SCORE>
-4.42869

>  <SCORE.INTER>
-4.90596

>  <SCORE.INTER.CONST>
1

>  <SCORE.INTER.POLAR>
0

>  <SCORE.INTER.ROT>
5

>  <SCORE.INTER.SOLV>
7.824

>  <SCORE.INTER.VDW>
-12.812

>  <SCORE.INTER.norm>
-0.490596

>  <SCORE.INTRA>
0.477268

>  <SCORE.INTRA.DIHEDRAL>
0.326304

>  <SCORE.INTRA.DIHEDRAL.0>
2.22229

>  <SCORE.INTRA.POLAR>
0

>  <SCORE.INTRA.POLAR.0>
0

>  <SCORE.INTRA.REPUL>
0

>  <SCORE.INTRA.REPUL.0>
0

>  <SCORE.INTRA.SOLV>
0.605666

>  <SCORE.INTRA.SOLV.lig_0>
-31.87

>  <SCORE.INTRA.VDW>
0.0112834

>  <SCORE.INTRA.VDW.0>
-0.575321

>  <SCORE.INTRA.norm>
0.0477268

>  <SCORE.RESTR>
0

>  <SCORE.RESTR.CAVITY>
0

>  <SCORE.RESTR.norm>
0

>  <SCORE.SYSTEM>
0

>  <SCORE.SYSTEM.CONST>
0

>  <SCORE.SYSTEM.DIHEDRAL>
0

>  <SCORE.SYSTEM.SOLV>
0

>  <SCORE.SYSTEM.norm>
0

>  <SCORE.heavy>
10

>  <SCORE.norm>
-0.442869

>  <RMSD>
9.776

$$$$
ligand
 OpenBabel11021811463D
libRbt.so/2013.1/901 2013/11/27
 10  9  0  0  0  0  0  0  0  0999 V2000
   35.1566   39.5438   19.8925 N   0  0  0  0  0  0  0  0  0  0  0  0
   33.7346   39.8644   19.8764 C   0  0  2  0  0  0  0  0  0  0  0  0
   32.8919   38.6189   20.1452 C   0  0  0  0  0  0  0  0  0  0  0  0
   31.9267   38.6853   20.9119 O   0  0  0  0  0  0  0  0  0  0  0  0
   33.3396   40.5154   18.5473 C   0  0  0  0  0  0  0  0  0  0  0  0
   33.8365   41.9483   18.3985 C   0  0  0  0  0  0  0  0  0  0  0  0
   33.3275   42.6062   17.1190 C   0  0  0  0  0  0  0  0  0  0  0  0
   33.8056   44.0610   16.9901 C   0  0  0  0  0  0  0  0  0  0  0  0
   35.2879   44.2173   16.8485 N   0  0  0  0  0  0  0  0  0  0  0  0
   33.1438   37.5373   19.5979 O   0  0  0  0  0  0  0  0  0  0  0  0
  2  1  1  6  0  0  0
  2  3  1  0  0  0  0
  2  5  1  0  0  0  0
  3  4  1  0  0  0  0
  3 10  1  0  0  0  0
  5  6  1  0  0  0  0
  6  7  1  0  0  0  0
  7  8  1  0  0  0  0
  8  9  1  0  0  0  0
M  END
>  <CHROM.1>
136.73766468,-72.89224766,-175.15690921,178.70828335,64.64419895,33.62371596
40.72240803,18.84641268,-1.78157324,-0.01795550,-0.54326850

>  <Name>
ligand

>  <RI>
0

>  <Rbt.Current_Directory>
/home/itssahil/PROJECTS/Mol_Feturizer/New_Systems/rnas/3D0U

>  <Rbt.Executable>
rbdock ($Id: //depot/dev/client3/rdock/2013.1/src/exe/rbdock.cxx#4 $)

>  <Rbt.Library>
libRbt.so (2013.1, Build901 2013/11/27)

>  <Rbt.Parameter_File>
/export/apps/rDock/src/rDock_2013.1_src/data/scripts/dock_solv.prm

>  <Rbt.Receptor>
prm/blind_docking_100.prm

>  <SCORE>
-4.37329

>  <SCORE.INTER>
-4.0588

>  <SCORE.INTER.CONST>
1

>  <SCORE.INTER.POLAR>
0

>  <SCORE.INTER.ROT>
5

>  <SCORE.INTER.SOLV>
7.60826

>  <SCORE.INTER.VDW>
-12.1753

>  <SCORE.INTER.norm>
-0.40588

>  <SCORE.INTRA>
-0.314486

>  <SCORE.INTRA.DIHEDRAL>
0.0757871

>  <SCORE.INTRA.DIHEDRAL.0>
2.22229

>  <SCORE.INTRA.POLAR>
0

>  <SCORE.INTRA.POLAR.0>
0

>  <SCORE.INTRA.REPUL>
0

>  <SCORE.INTRA.REPUL.0>
0

>  <SCORE.INTRA.SOLV>
-0.0954768

>  <SCORE.INTRA.SOLV.lig_0>
-31.87

>  <SCORE.INTRA.VDW>
-0.304642

>  <SCORE.INTRA.VDW.0>
-0.575321

>  <SCORE.INTRA.norm>
-0.0314486

>  <SCORE.RESTR>
0

>  <SCORE.RESTR.CAVITY>
0

>  <SCORE.RESTR.norm>
0

>  <SCORE.SYSTEM>
0

>  <SCORE.SYSTEM.CONST>
0

>  <SCORE.SYSTEM.DIHEDRAL>
0

>  <SCORE.SYSTEM.SOLV>
0

>  <SCORE.SYSTEM.norm>
0

>  <SCORE.heavy>
10

>  <SCORE.norm>
-0.437329

>  <RMSD>
9.826

$$$$
ligand
 OpenBabel11021811463D
libRbt.so/2013.1/901 2013/11/27
 10  9  0  0  0  0  0  0  0  0999 V2000
   17.0458   38.4921   14.0063 N   0  0  0  0  0  0  0  0  0  0  0  0
   17.4720   39.5648   14.8967 C   0  0  2  0  0  0  0  0  0  0  0  0
   18.8446   39.2630   15.4957 C   0  0  0  0  0  0  0  0  0  0  0  0
   18.9947   38.2720   16.2163 O   0  0  0  0  0  0  0  0  0  0  0  0
   16.4345   39.8004   15.9987 C   0  0  0  0  0  0  0  0  0  0  0  0
   16.8343   40.8858   16.9908 C   0  0  0  0  0  0  0  0  0  0  0  0
   16.9479   42.2575   16.3315 C   0  0  0  0  0  0  0  0  0  0  0  0
   15.5863   42.7757   15.8424 C   0  0  0  0  0  0  0  0  0  0  0  0
   14.5805   42.9998   16.9285 N   0  0  0  0  0  0  0  0  0  0  0  0
   19.8241   39.9839   15.2636 O   0  0  0  0  0  0  0  0  0  0  0  0
  2  1  1  1  0  0  0
  2  3  1  0  0  0  0
  2  5  1  0  0  0  0
  3  4  1  0  0  0  0
  3 10  1  0  0  0  0
  5  6  1  0  0  0  0
  6  7  1  0  0  0  0
  7  8  1  0  0  0  0
  8  9  1  0  0  0  0
M  END
>  <CHROM.1>
-62.38471336,178.42915330,63.80239170,66.57210973,62.90586500,17.29284088
40.41587147,15.80628970,0.84321258,0.22558935,-2.62960872

>  <Name>
ligand

>  <RI>
0

>  <Rbt.Current_Directory>
/home/itssahil/PROJECTS/Mol_Feturizer/New_Systems/rnas/3D0U

>  <Rbt.Executable>
rbdock ($Id: //depot/dev/client3/rdock/2013.1/src/exe/rbdock.cxx#4 $)

>  <Rbt.Library>
libRbt.so (2013.1, Build901 2013/11/27)

>  <Rbt.Parameter_File>
/export/apps/rDock/src/rDock_2013.1_src/data/scripts/dock_solv.prm

>  <Rbt.Receptor>
prm/blind_docking_80.prm

>  <SCORE>
-2.61794

>  <SCORE.INTER>
-3.03345

>  <SCORE.INTER.CONST>
1

>  <SCORE.INTER.POLAR>
0

>  <SCORE.INTER.ROT>
5

>  <SCORE.INTER.SOLV>
9.11901

>  <SCORE.INTER.VDW>
-11.9953

>  <SCORE.INTER.norm>
-0.303345

>  <SCORE.INTRA>
0.41551

>  <SCORE.INTRA.DIHEDRAL>
-0.466296

>  <SCORE.INTRA.DIHEDRAL.0>
2.22229

>  <SCORE.INTRA.POLAR>
0

>  <SCORE.INTRA.POLAR.0>
0

>  <SCORE.INTRA.REPUL>
0

>  <SCORE.INTRA.REPUL.0>
0

>  <SCORE.INTRA.SOLV>
0.0212557

>  <SCORE.INTRA.SOLV.lig_0>
-31.87

>  <SCORE.INTRA.VDW>
0.63803

>  <SCORE.INTRA.VDW.0>
-0.575321

>  <SCORE.INTRA.norm>
0.041551

>  <SCORE.RESTR>
0

>  <SCORE.RESTR.CAVITY>
0

>  <SCORE.RESTR.norm>
0

>  <SCORE.SYSTEM>
0

>  <SCORE.SYSTEM.CONST>
0

>  <SCORE.SYSTEM.DIHEDRAL>
0

>  <SCORE.SYSTEM.SOLV>
0

>  <SCORE.SYSTEM.norm>
0

>  <SCORE.heavy>
10

>  <SCORE.norm>
-0.261794

>  <RMSD>
9.847

$$$$
ligand
 OpenBabel11021811463D
libRbt.so/2013.1/901 2013/11/27
 10  9  0  0  0  0  0  0  0  0999 V2000
   34.5369   38.4563   18.8415 N   0  0  0  0  0  0  0  0  0  0  0  0
   33.8830   39.2114   19.9033 C   0  0  2  0  0  0  0  0  0  0  0  0
   32.7447   38.4041   20.5249 C   0  0  0  0  0  0  0  0  0  0  0  0
   31.9320   38.9619   21.2680 O   0  0  0  0  0  0  0  0  0  0  0  0
   33.3752   40.5580   19.3786 C   0  0  0  0  0  0  0  0  0  0  0  0
   34.4762   41.4463   18.8120 C   0  0  0  0  0  0  0  0  0  0  0  0
   33.9372   42.7797   18.3018 C   0  0  0  0  0  0  0  0  0  0  0  0
   35.0458   43.6550   17.6963 C   0  0  0  0  0  0  0  0  0  0  0  0
   34.5723   44.9647   17.1465 N   0  0  0  0  0  0  0  0  0  0  0  0
   32.6046   37.1967   20.2894 O   0  0  0  0  0  0  0  0  0  0  0  0
  2  1  1  6  0  0  0
  2  3  1  0  0  0  0
  2  5  1  0  0  0  0
  3  4  1  0  0  0  0
  3 10  1  0  0  0  0
  5  6  1  0  0  0  0
  6  7  1  0  0  0  0
  7  8  1  0  0  0  0
  8  9  1  0  0  0  0
M  END
>  <CHROM.1>
-167.17874459,-59.50326618,-179.86050109,-178.41821290,178.55107663,33.68280570
40.53414629,19.23665121,-1.93627299,0.69400071,-0.20711829

>  <Name>
ligand

>  <RI>
0

>  <Rbt.Current_Directory>
/home/itssahil/PROJECTS/Mol_Feturizer/New_Systems/rnas/3D0U

>  <Rbt.Executable>
rbdock ($Id: //depot/dev/client3/rdock/2013.1/src/exe/rbdock.cxx#4 $)

>  <Rbt.Library>
libRbt.so (2013.1, Build901 2013/11/27)

>  <Rbt.Parameter_File>
/export/apps/rDock/src/rDock_2013.1_src/data/scripts/dock_solv.prm

>  <Rbt.Receptor>
prm/blind_docking_60.prm

>  <SCORE>
-5.37487

>  <SCORE.INTER>
-4.90227

>  <SCORE.INTER.CONST>
1

>  <SCORE.INTER.POLAR>
0

>  <SCORE.INTER.ROT>
5

>  <SCORE.INTER.SOLV>
3.38361

>  <SCORE.INTER.VDW>
-11.3294

>  <SCORE.INTER.norm>
-0.490227

>  <SCORE.INTRA>
-0.472601

>  <SCORE.INTRA.DIHEDRAL>
-0.708385

>  <SCORE.INTRA.DIHEDRAL.0>
2.22229

>  <SCORE.INTRA.POLAR>
0

>  <SCORE.INTRA.POLAR.0>
0

>  <SCORE.INTRA.REPUL>
0

>  <SCORE.INTRA.REPUL.0>
0

>  <SCORE.INTRA.SOLV>
-0.705237

>  <SCORE.INTRA.SOLV.lig_0>
-31.87

>  <SCORE.INTRA.VDW>
0.23421

>  <SCORE.INTRA.VDW.0>
-0.575321

>  <SCORE.INTRA.norm>
-0.0472601

>  <SCORE.RESTR>
0

>  <SCORE.RESTR.CAVITY>
0

>  <SCORE.RESTR.norm>
0

>  <SCORE.SYSTEM>
0

>  <SCORE.SYSTEM.CONST>
0

>  <SCORE.SYSTEM.DIHEDRAL>
0

>  <SCORE.SYSTEM.SOLV>
0

>  <SCORE.SYSTEM.norm>
0

>  <SCORE.heavy>
10

>  <SCORE.norm>
-0.537487

>  <RMSD>
9.855

$$$$
ligand
 OpenBabel11021811463D
libRbt.so/2013.1/901 2013/11/27
 10  9  0  0  0  0  0  0  0  0999 V2000
   34.5023   38.5337   18.6933 N   0  0  0  0  0  0  0  0  0  0  0  0
   33.8924   39.2607   19.8000 C   0  0  2  0  0  0  0  0  0  0  0  0
   32.7721   38.4417   20.4386 C   0  0  0  0  0  0  0  0  0  0  0  0
   32.6796   37.2350   20.1954 O   0  0  0  0  0  0  0  0  0  0  0  0
   33.3748   40.6250   19.3339 C   0  0  0  0  0  0  0  0  0  0  0  0
   34.4642   41.5322   18.7749 C   0  0  0  0  0  0  0  0  0  0  0  0
   33.9118   42.8733   18.3004 C   0  0  0  0  0  0  0  0  0  0  0  0
   35.0083   43.7680   17.7012 C   0  0  0  0  0  0  0  0  0  0  0  0
   34.5206   45.0854   17.1831 N   0  0  0  0  0  0  0  0  0  0  0  0
   31.9552   38.9569   21.2132 O   0  0  0  0  0  0  0  0  0  0  0  0
  2  1  1  6  0  0  0
  2  3  1  0  0  0  0
  2  5  1  0  0  0  0
  3  4  1  0  0  0  0
  3 10  1  0  0  0  0
  5  6  1  0  0  0  0
  6  7  1  0  0  0  0
  7  8  1  0  0  0  0
  8  9  1  0  0  0  0
M  END
>  <CHROM.1>
15.06943395,-60.44705293,179.11110414,-178.38089734,178.42690807,33.68110177
40.60105272,19.18407331,-1.92915913,0.72044687,-0.18510036

>  <Name>
ligand

>  <RI>
0

>  <Rbt.Current_Directory>
/home/itssahil/PROJECTS/Mol_Feturizer/New_Systems/rnas/3D0U

>  <Rbt.Executable>
rbdock ($Id: //depot/dev/client3/rdock/2013.1/src/exe/rbdock.cxx#4 $)

>  <Rbt.Library>
libRbt.so (2013.1, Build901 2013/11/27)

>  <Rbt.Parameter_File>
/export/apps/rDock/src/rDock_2013.1_src/data/scripts/dock_solv.prm

>  <Rbt.Receptor>
prm/blind_docking_100.prm

>  <SCORE>
-5.52874

>  <SCORE.INTER>
-5.0071

>  <SCORE.INTER.CONST>
1

>  <SCORE.INTER.POLAR>
0

>  <SCORE.INTER.ROT>
5

>  <SCORE.INTER.SOLV>
3.27739

>  <SCORE.INTER.VDW>
-11.3639

>  <SCORE.INTER.norm>
-0.50071

>  <SCORE.INTRA>
-0.521637

>  <SCORE.INTRA.DIHEDRAL>
-0.740796

>  <SCORE.INTRA.DIHEDRAL.0>
2.22229

>  <SCORE.INTRA.POLAR>
0

>  <SCORE.INTRA.POLAR.0>
0

>  <SCORE.INTRA.REPUL>
0

>  <SCORE.INTRA.REPUL.0>
0

>  <SCORE.INTRA.SOLV>
-0.704095

>  <SCORE.INTRA.SOLV.lig_0>
-31.87

>  <SCORE.INTRA.VDW>
0.200809

>  <SCORE.INTRA.VDW.0>
-0.575321

>  <SCORE.INTRA.norm>
-0.0521637

>  <SCORE.RESTR>
0

>  <SCORE.RESTR.CAVITY>
0

>  <SCORE.RESTR.norm>
0

>  <SCORE.SYSTEM>
0

>  <SCORE.SYSTEM.CONST>
0

>  <SCORE.SYSTEM.DIHEDRAL>
0

>  <SCORE.SYSTEM.SOLV>
0

>  <SCORE.SYSTEM.norm>
0

>  <SCORE.heavy>
10

>  <SCORE.norm>
-0.552874

>  <RMSD>
9.867

$$$$
ligand
 OpenBabel11021811463D
libRbt.so/2013.1/901 2013/11/27
 10  9  0  0  0  0  0  0  0  0999 V2000
   34.5364   38.5769   18.7486 N   0  0  0  0  0  0  0  0  0  0  0  0
   33.8723   39.3026   19.8245 C   0  0  2  0  0  0  0  0  0  0  0  0
   32.7638   38.4571   20.4491 C   0  0  0  0  0  0  0  0  0  0  0  0
   32.6978   37.2502   20.1980 O   0  0  0  0  0  0  0  0  0  0  0  0
   33.3212   40.6393   19.3187 C   0  0  0  0  0  0  0  0  0  0  0  0
   34.4007   41.6013   18.8376 C   0  0  0  0  0  0  0  0  0  0  0  0
   33.8219   42.9375   18.3812 C   0  0  0  0  0  0  0  0  0  0  0  0
   34.9081   43.8812   17.8416 C   0  0  0  0  0  0  0  0  0  0  0  0
   35.5785   43.4055   16.5902 N   0  0  0  0  0  0  0  0  0  0  0  0
   31.9303   38.9509   21.2200 O   0  0  0  0  0  0  0  0  0  0  0  0
  2  1  1  6  0  0  0
  2  3  1  0  0  0  0
  2  5  1  0  0  0  0
  3  4  1  0  0  0  0
  3 10  1  0  0  0  0
  5  6  1  0  0  0  0
  6  7  1  0  0  0  0
  7  8  1  0  0  0  0
  8  9  1  0  0  0  0
M  END
>  <CHROM.1>
13.12047152,-63.42014153,-178.24617441,-177.57950545,65.23562887,33.75559005
40.47075210,19.16163328,-2.07372555,0.77642465,-0.13452809

>  <Name>
ligand

>  <RI>
0

>  <Rbt.Current_Directory>
/home/itssahil/PROJECTS/Mol_Feturizer/New_Systems/rnas/3D0U

>  <Rbt.Executable>
rbdock ($Id: //depot/dev/client3/rdock/2013.1/src/exe/rbdock.cxx#4 $)

>  <Rbt.Library>
libRbt.so (2013.1, Build901 2013/11/27)

>  <Rbt.Parameter_File>
/export/apps/rDock/src/rDock_2013.1_src/data/scripts/dock_solv.prm

>  <Rbt.Receptor>
prm/blind_docking_100.prm

>  <SCORE>
-5.23296

>  <SCORE.INTER>
-5.1607

>  <SCORE.INTER.CONST>
1

>  <SCORE.INTER.POLAR>
0

>  <SCORE.INTER.ROT>
5

>  <SCORE.INTER.SOLV>
3.41174

>  <SCORE.INTER.VDW>
-11.511

>  <SCORE.INTER.norm>
-0.51607

>  <SCORE.INTRA>
-0.0722615

>  <SCORE.INTRA.DIHEDRAL>
-0.570652

>  <SCORE.INTRA.DIHEDRAL.0>
2.22229

>  <SCORE.INTRA.POLAR>
0

>  <SCORE.INTRA.POLAR.0>
0

>  <SCORE.INTRA.REPUL>
0

>  <SCORE.INTRA.REPUL.0>
0

>  <SCORE.INTRA.SOLV>
0.0749564

>  <SCORE.INTRA.SOLV.lig_0>
-31.87

>  <SCORE.INTRA.VDW>
0.175586

>  <SCORE.INTRA.VDW.0>
-0.575321

>  <SCORE.INTRA.norm>
-0.00722615

>  <SCORE.RESTR>
0

>  <SCORE.RESTR.CAVITY>
0

>  <SCORE.RESTR.norm>
0

>  <SCORE.SYSTEM>
0

>  <SCORE.SYSTEM.CONST>
0

>  <SCORE.SYSTEM.DIHEDRAL>
0

>  <SCORE.SYSTEM.SOLV>
0

>  <SCORE.SYSTEM.norm>
0

>  <SCORE.heavy>
10

>  <SCORE.norm>
-0.523296

>  <RMSD>
9.949

$$$$
ligand
 OpenBabel11021811463D
libRbt.so/2013.1/901 2013/11/27
 10  9  0  0  0  0  0  0  0  0999 V2000
   34.5022   38.1048   18.7437 N   0  0  0  0  0  0  0  0  0  0  0  0
   34.6158   39.4943   19.1699 C   0  0  2  0  0  0  0  0  0  0  0  0
   34.1412   39.6625   20.6122 C   0  0  0  0  0  0  0  0  0  0  0  0
   33.0931   39.1235   20.9797 O   0  0  0  0  0  0  0  0  0  0  0  0
   33.8373   40.4169   18.2271 C   0  0  0  0  0  0  0  0  0  0  0  0
   33.9501   41.8932   18.5877 C   0  0  0  0  0  0  0  0  0  0  0  0
   33.2540   42.7914   17.5691 C   0  0  0  0  0  0  0  0  0  0  0  0
   33.3910   44.2800   17.9255 C   0  0  0  0  0  0  0  0  0  0  0  0
   32.8682   45.2189   16.8830 N   0  0  0  0  0  0  0  0  0  0  0  0
   34.7932   40.3187   21.4351 O   0  0  0  0  0  0  0  0  0  0  0  0
  2  1  1  6  0  0  0
  2  3  1  0  0  0  0
  2  5  1  0  0  0  0
  3  4  1  0  0  0  0
  3 10  1  0  0  0  0
  5  6  1  0  0  0  0
  6  7  1  0  0  0  0
  7  8  1  0  0  0  0
  8  9  1  0  0  0  0
M  END
>  <CHROM.1>
-45.08802534,-178.10794133,175.58298246,-179.05625995,173.20686895,33.83766279
41.12353764,19.05101413,-0.28391089,1.39473150,-1.79387133

>  <Name>
ligand

>  <RI>
0

>  <Rbt.Current_Directory>
/home/itssahil/PROJECTS/Mol_Feturizer/New_Systems/rnas/3D0U

>  <Rbt.Executable>
rbdock ($Id: //depot/dev/client3/rdock/2013.1/src/exe/rbdock.cxx#4 $)

>  <Rbt.Library>
libRbt.so (2013.1, Build901 2013/11/27)

>  <Rbt.Parameter_File>
/export/apps/rDock/src/rDock_2013.1_src/data/scripts/dock_solv.prm

>  <Rbt.Receptor>
prm/blind_docking_60.prm

>  <SCORE>
-6.50017

>  <SCORE.INTER>
-5.27105

>  <SCORE.INTER.CONST>
1

>  <SCORE.INTER.POLAR>
0

>  <SCORE.INTER.ROT>
5

>  <SCORE.INTER.SOLV>
5.54843

>  <SCORE.INTER.VDW>
-12.2968

>  <SCORE.INTER.norm>
-0.527105

>  <SCORE.INTRA>
-1.22912

>  <SCORE.INTRA.DIHEDRAL>
-0.455469

>  <SCORE.INTRA.DIHEDRAL.0>
2.22229

>  <SCORE.INTRA.POLAR>
0

>  <SCORE.INTRA.POLAR.0>
0

>  <SCORE.INTRA.REPUL>
0

>  <SCORE.INTRA.REPUL.0>
0

>  <SCORE.INTRA.SOLV>
-1.59895

>  <SCORE.INTRA.SOLV.lig_0>
-31.87

>  <SCORE.INTRA.VDW>
-0.201916

>  <SCORE.INTRA.VDW.0>
-0.575321

>  <SCORE.INTRA.norm>
-0.122912

>  <SCORE.RESTR>
0

>  <SCORE.RESTR.CAVITY>
0

>  <SCORE.RESTR.norm>
0

>  <SCORE.SYSTEM>
0

>  <SCORE.SYSTEM.CONST>
0

>  <SCORE.SYSTEM.DIHEDRAL>
0

>  <SCORE.SYSTEM.SOLV>
0

>  <SCORE.SYSTEM.norm>
0

>  <SCORE.heavy>
10

>  <SCORE.norm>
-0.650017

>  <RMSD>
10.058

$$$$
ligand
 OpenBabel11021811463D
libRbt.so/2013.1/901 2013/11/27
 10  9  0  0  0  0  0  0  0  0999 V2000
   16.9235   37.7868   16.1740 N   0  0  0  0  0  0  0  0  0  0  0  0
   17.5327   38.6198   15.1444 C   0  0  2  0  0  0  0  0  0  0  0  0
   18.8546   39.2101   15.6323 C   0  0  0  0  0  0  0  0  0  0  0  0
   18.8507   40.0905   16.4976 O   0  0  0  0  0  0  0  0  0  0  0  0
   16.5704   39.7261   14.7012 C   0  0  0  0  0  0  0  0  0  0  0  0
   16.1939   40.6910   15.8190 C   0  0  0  0  0  0  0  0  0  0  0  0
   15.3390   41.8512   15.3170 C   0  0  0  0  0  0  0  0  0  0  0  0
   15.0620   42.8825   16.4222 C   0  0  0  0  0  0  0  0  0  0  0  0
   14.3377   42.3368   17.6135 N   0  0  0  0  0  0  0  0  0  0  0  0
   19.9415   38.8151   15.1901 O   0  0  0  0  0  0  0  0  0  0  0  0
  2  1  1  1  0  0  0
  2  3  1  0  0  0  0
  2  5  1  0  0  0  0
  3  4  1  0  0  0  0
  3 10  1  0  0  0  0
  5  6  1  0  0  0  0
  6  7  1  0  0  0  0
  7  8  1  0  0  0  0
  8  9  1  0  0  0  0
M  END
>  <CHROM.1>
-70.84381802,62.06163873,174.76457919,-175.17135979,-59.88742018,16.99793434
40.20557582,15.85879677,0.74550541,0.03427916,-2.82112626

>  <Name>
ligand

>  <RI>
0

>  <Rbt.Current_Directory>
/home/itssahil/PROJECTS/Mol_Feturizer/New_Systems/rnas/3D0U

>  <Rbt.Executable>
rbdock ($Id: //depot/dev/client3/rdock/2013.1/src/exe/rbdock.cxx#4 $)

>  <Rbt.Library>
libRbt.so (2013.1, Build901 2013/11/27)

>  <Rbt.Parameter_File>
/export/apps/rDock/src/rDock_2013.1_src/data/scripts/dock_solv.prm

>  <Rbt.Receptor>
prm/blind_docking_100.prm

>  <SCORE>
-2.21249

>  <SCORE.INTER>
-2.61998

>  <SCORE.INTER.CONST>
1

>  <SCORE.INTER.POLAR>
0

>  <SCORE.INTER.ROT>
5

>  <SCORE.INTER.SOLV>
5.7222

>  <SCORE.INTER.VDW>
-10.5874

>  <SCORE.INTER.norm>
-0.261998

>  <SCORE.INTRA>
0.407498

>  <SCORE.INTRA.DIHEDRAL>
-0.538392

>  <SCORE.INTRA.DIHEDRAL.0>
2.22229

>  <SCORE.INTRA.POLAR>
0

>  <SCORE.INTRA.POLAR.0>
0

>  <SCORE.INTRA.REPUL>
0

>  <SCORE.INTRA.REPUL.0>
0

>  <SCORE.INTRA.SOLV>
0.0850738

>  <SCORE.INTRA.SOLV.lig_0>
-31.87

>  <SCORE.INTRA.VDW>
0.634157

>  <SCORE.INTRA.VDW.0>
-0.575321

>  <SCORE.INTRA.norm>
0.0407498

>  <SCORE.RESTR>
0

>  <SCORE.RESTR.CAVITY>
0

>  <SCORE.RESTR.norm>
0

>  <SCORE.SYSTEM>
0

>  <SCORE.SYSTEM.CONST>
0

>  <SCORE.SYSTEM.DIHEDRAL>
0

>  <SCORE.SYSTEM.SOLV>
0

>  <SCORE.SYSTEM.norm>
0

>  <SCORE.heavy>
10

>  <SCORE.norm>
-0.221249

>  <RMSD>
10.085

$$$$
ligand
 OpenBabel11021811463D
libRbt.so/2013.1/901 2013/11/27
 10  9  0  0  0  0  0  0  0  0999 V2000
   34.1099   38.0837   18.5779 N   0  0  0  0  0  0  0  0  0  0  0  0
   33.7923   38.8796   19.7572 C   0  0  2  0  0  0  0  0  0  0  0  0
   32.6103   38.2803   20.5171 C   0  0  0  0  0  0  0  0  0  0  0  0
   31.8332   39.0217   21.1258 O   0  0  0  0  0  0  0  0  0  0  0  0
   33.5124   40.3352   19.3708 C   0  0  0  0  0  0  0  0  0  0  0  0
   34.7121   41.0439   18.7538 C   0  0  0  0  0  0  0  0  0  0  0  0
   34.3832   42.4722   18.3285 C   0  0  0  0  0  0  0  0  0  0  0  0
   35.6057   43.1934   17.7393 C   0  0  0  0  0  0  0  0  0  0  0  0
   36.1457   42.5775   16.4861 N   0  0  0  0  0  0  0  0  0  0  0  0
   32.3995   37.0603   20.5271 O   0  0  0  0  0  0  0  0  0  0  0  0
  2  1  1  6  0  0  0
  2  3  1  0  0  0  0
  2  5  1  0  0  0  0
  3  4  1  0  0  0  0
  3 10  1  0  0  0  0
  5  6  1  0  0  0  0
  6  7  1  0  0  0  0
  7  8  1  0  0  0  0
  8  9  1  0  0  0  0
M  END
>  <CHROM.1>
-147.87580876,-63.14641116,177.65751943,178.57545585,62.85367781,33.87934843
40.07189025,19.14201963,-2.33704705,0.82256740,0.04124736

>  <Name>
ligand

>  <RI>
0

>  <Rbt.Current_Directory>
/home/itssahil/PROJECTS/Mol_Feturizer/New_Systems/rnas/3D0U

>  <Rbt.Executable>
rbdock ($Id: //depot/dev/client3/rdock/2013.1/src/exe/rbdock.cxx#4 $)

>  <Rbt.Library>
libRbt.so (2013.1, Build901 2013/11/27)

>  <Rbt.Parameter_File>
/export/apps/rDock/src/rDock_2013.1_src/data/scripts/dock_solv.prm

>  <Rbt.Receptor>
prm/blind_docking_100.prm

>  <SCORE>
-5.239

>  <SCORE.INTER>
-5.50444

>  <SCORE.INTER.CONST>
1

>  <SCORE.INTER.POLAR>
0

>  <SCORE.INTER.ROT>
5

>  <SCORE.INTER.SOLV>
4.29635

>  <SCORE.INTER.VDW>
-12.0351

>  <SCORE.INTER.norm>
-0.550444

>  <SCORE.INTRA>
0.265442

>  <SCORE.INTRA.DIHEDRAL>
-0.606856

>  <SCORE.INTRA.DIHEDRAL.0>
2.22229

>  <SCORE.INTRA.POLAR>
0

>  <SCORE.INTRA.POLAR.0>
0

>  <SCORE.INTRA.REPUL>
0

>  <SCORE.INTRA.REPUL.0>
0

>  <SCORE.INTRA.SOLV>
0.097651

>  <SCORE.INTRA.SOLV.lig_0>
-31.87

>  <SCORE.INTRA.VDW>
0.520044

>  <SCORE.INTRA.VDW.0>
-0.575321

>  <SCORE.INTRA.norm>
0.0265442

>  <SCORE.RESTR>
0

>  <SCORE.RESTR.CAVITY>
0

>  <SCORE.RESTR.norm>
0

>  <SCORE.SYSTEM>
0

>  <SCORE.SYSTEM.CONST>
0

>  <SCORE.SYSTEM.DIHEDRAL>
0

>  <SCORE.SYSTEM.SOLV>
0

>  <SCORE.SYSTEM.norm>
0

>  <SCORE.heavy>
10

>  <SCORE.norm>
-0.5239

>  <RMSD>
10.120

$$$$
ligand
 OpenBabel11021811463D
libRbt.so/2013.1/901 2013/11/27
 10  9  0  0  0  0  0  0  0  0999 V2000
   16.2986   38.8185   15.3122 N   0  0  0  0  0  0  0  0  0  0  0  0
   17.3581   39.7783   15.0272 C   0  0  2  0  0  0  0  0  0  0  0  0
   18.7243   39.2115   15.4091 C   0  0  0  0  0  0  0  0  0  0  0  0
   18.7966   38.1244   15.9897 O   0  0  0  0  0  0  0  0  0  0  0  0
   17.0965   41.1055   15.7459 C   0  0  0  0  0  0  0  0  0  0  0  0
   15.8030   41.7872   15.3164 C   0  0  0  0  0  0  0  0  0  0  0  0
   15.6013   43.1319   16.0091 C   0  0  0  0  0  0  0  0  0  0  0  0
   15.3350   42.9700   17.5140 C   0  0  0  0  0  0  0  0  0  0  0  0
   14.0587   42.2613   17.8462 N   0  0  0  0  0  0  0  0  0  0  0  0
   19.7725   39.8112   15.1362 O   0  0  0  0  0  0  0  0  0  0  0  0
  2  1  1  1  0  0  0
  2  3  1  0  0  0  0
  2  5  1  0  0  0  0
  3  4  1  0  0  0  0
  3 10  1  0  0  0  0
  5  6  1  0  0  0  0
  6  7  1  0  0  0  0
  7  8  1  0  0  0  0
  8  9  1  0  0  0  0
M  END
>  <CHROM.1>
-5.97469144,-61.47405884,-177.69011632,-68.26119544,-64.80862161,16.92239023
40.67944237,15.93404579,0.73851932,-0.37574771,-3.12358087

>  <Name>
ligand

>  <RI>
0

>  <Rbt.Current_Directory>
/home/itssahil/PROJECTS/Mol_Feturizer/New_Systems/rnas/3D0U

>  <Rbt.Executable>
rbdock ($Id: //depot/dev/client3/rdock/2013.1/src/exe/rbdock.cxx#4 $)

>  <Rbt.Library>
libRbt.so (2013.1, Build901 2013/11/27)

>  <Rbt.Parameter_File>
/export/apps/rDock/src/rDock_2013.1_src/data/scripts/dock_solv.prm

>  <Rbt.Receptor>
prm/blind_docking_100.prm

>  <SCORE>
-4.03609

>  <SCORE.INTER>
-4.63635

>  <SCORE.INTER.CONST>
1

>  <SCORE.INTER.POLAR>
0

>  <SCORE.INTER.ROT>
5

>  <SCORE.INTER.SOLV>
4.10288

>  <SCORE.INTER.VDW>
-11.3919

>  <SCORE.INTER.norm>
-0.463635

>  <SCORE.INTRA>
0.600264

>  <SCORE.INTRA.DIHEDRAL>
-0.331482

>  <SCORE.INTRA.DIHEDRAL.0>
2.22229

>  <SCORE.INTRA.POLAR>
0

>  <SCORE.INTRA.POLAR.0>
0

>  <SCORE.INTRA.REPUL>
0

>  <SCORE.INTRA.REPUL.0>
0

>  <SCORE.INTRA.SOLV>
0.601157

>  <SCORE.INTRA.SOLV.lig_0>
-31.87

>  <SCORE.INTRA.VDW>
0.465427

>  <SCORE.INTRA.VDW.0>
-0.575321

>  <SCORE.INTRA.norm>
0.0600264

>  <SCORE.RESTR>
0

>  <SCORE.RESTR.CAVITY>
0

>  <SCORE.RESTR.norm>
0

>  <SCORE.SYSTEM>
0

>  <SCORE.SYSTEM.CONST>
0

>  <SCORE.SYSTEM.DIHEDRAL>
0

>  <SCORE.SYSTEM.SOLV>
0

>  <SCORE.SYSTEM.norm>
0

>  <SCORE.heavy>
10

>  <SCORE.norm>
-0.403609

>  <RMSD>
10.126

$$$$
ligand
 OpenBabel11021811463D
libRbt.so/2013.1/901 2013/11/27
 10  9  0  0  0  0  0  0  0  0999 V2000
   33.1180   38.8758   20.2500 N   0  0  0  0  0  0  0  0  0  0  0  0
   33.4023   38.8918   18.8202 C   0  0  2  0  0  0  0  0  0  0  0  0
   33.6159   37.4747   18.2910 C   0  0  0  0  0  0  0  0  0  0  0  0
   34.1772   36.6338   18.9994 O   0  0  0  0  0  0  0  0  0  0  0  0
   34.6151   39.7771   18.5175 C   0  0  0  0  0  0  0  0  0  0  0  0
   34.3815   41.2537   18.8132 C   0  0  0  0  0  0  0  0  0  0  0  0
   33.2707   41.8466   17.9510 C   0  0  0  0  0  0  0  0  0  0  0  0
   33.0739   43.3473   18.2176 C   0  0  0  0  0  0  0  0  0  0  0  0
   34.2117   44.2118   17.7706 N   0  0  0  0  0  0  0  0  0  0  0  0
   33.2241   37.1388   17.1656 O   0  0  0  0  0  0  0  0  0  0  0  0
  2  1  1  1  0  0  0
  2  3  1  0  0  0  0
  2  5  1  0  0  0  0
  3  4  1  0  0  0  0
  3 10  1  0  0  0  0
  5  6  1  0  0  0  0
  6  7  1  0  0  0  0
  7  8  1  0  0  0  0
  8  9  1  0  0  0  0
M  END
>  <CHROM.1>
-35.65560623,-65.78449636,-62.50448130,-177.94752196,68.03914798,33.71233726
39.90199125,18.46862000,-1.74075399,-1.49592876,-0.23985482

>  <Name>
ligand

>  <RI>
0

>  <Rbt.Current_Directory>
/home/itssahil/PROJECTS/Mol_Feturizer/New_Systems/rnas/3D0U

>  <Rbt.Executable>
rbdock ($Id: //depot/dev/client3/rdock/2013.1/src/exe/rbdock.cxx#4 $)

>  <Rbt.Library>
libRbt.so (2013.1, Build901 2013/11/27)

>  <Rbt.Parameter_File>
/export/apps/rDock/src/rDock_2013.1_src/data/scripts/dock_solv.prm

>  <Rbt.Receptor>
prm/blind_docking_100.prm

>  <SCORE>
-2.94931

>  <SCORE.INTER>
-3.09513

>  <SCORE.INTER.CONST>
1

>  <SCORE.INTER.POLAR>
0

>  <SCORE.INTER.ROT>
5

>  <SCORE.INTER.SOLV>
7.09932

>  <SCORE.INTER.VDW>
-11.3632

>  <SCORE.INTER.norm>
-0.309513

>  <SCORE.INTRA>
0.145826

>  <SCORE.INTRA.DIHEDRAL>
-0.288733

>  <SCORE.INTRA.DIHEDRAL.0>
2.22229

>  <SCORE.INTRA.POLAR>
0

>  <SCORE.INTRA.POLAR.0>
0

>  <SCORE.INTRA.REPUL>
0

>  <SCORE.INTRA.REPUL.0>
0

>  <SCORE.INTRA.SOLV>
0.526849

>  <SCORE.INTRA.SOLV.lig_0>
-31.87

>  <SCORE.INTRA.VDW>
0.0267681

>  <SCORE.INTRA.VDW.0>
-0.575321

>  <SCORE.INTRA.norm>
0.0145826

>  <SCORE.RESTR>
0

>  <SCORE.RESTR.CAVITY>
0

>  <SCORE.RESTR.norm>
0

>  <SCORE.SYSTEM>
0

>  <SCORE.SYSTEM.CONST>
0

>  <SCORE.SYSTEM.DIHEDRAL>
0

>  <SCORE.SYSTEM.SOLV>
0

>  <SCORE.SYSTEM.norm>
0

>  <SCORE.heavy>
10

>  <SCORE.norm>
-0.294931

>  <RMSD>
10.237

$$$$
ligand
 OpenBabel11021811463D
libRbt.so/2013.1/901 2013/11/27
 10  9  0  0  0  0  0  0  0  0999 V2000
   14.6738   36.9604   16.5231 N   0  0  0  0  0  0  0  0  0  0  0  0
   15.5980   36.2358   15.6595 C   0  0  2  0  0  0  0  0  0  0  0  0
   16.5011   35.3151   16.4784 C   0  0  0  0  0  0  0  0  0  0  0  0
   16.9958   34.3143   15.9516 O   0  0  0  0  0  0  0  0  0  0  0  0
   16.4289   37.2078   14.8162 C   0  0  0  0  0  0  0  0  0  0  0  0
   17.2842   38.1577   15.6459 C   0  0  0  0  0  0  0  0  0  0  0  0
   18.1374   39.0762   14.7756 C   0  0  0  0  0  0  0  0  0  0  0  0
   19.0587   39.9737   15.6166 C   0  0  0  0  0  0  0  0  0  0  0  0
   18.3408   40.9242   16.5236 N   0  0  0  0  0  0  0  0  0  0  0  0
   16.7654   35.5557   17.6638 O   0  0  0  0  0  0  0  0  0  0  0  0
  2  1  1  1  0  0  0
  2  3  1  0  0  0  0
  2  5  1  0  0  0  0
  3  4  1  0  0  0  0
  3 10  1  0  0  0  0
  5  6  1  0  0  0  0
  6  7  1  0  0  0  0
  7  8  1  0  0  0  0
  8  9  1  0  0  0  0
M  END
>  <CHROM.1>
154.64144187,60.76811270,177.86692620,-176.61353773,-62.70397979,16.99247946
37.34101172,15.98367590,2.00352381,0.03516240,2.97965628

>  <Name>
ligand

>  <RI>
0

>  <Rbt.Current_Directory>
/home/itssahil/PROJECTS/Mol_Feturizer/New_Systems/rnas/3D0U

>  <Rbt.Executable>
rbdock ($Id: //depot/dev/client3/rdock/2013.1/src/exe/rbdock.cxx#4 $)

>  <Rbt.Library>
libRbt.so (2013.1, Build901 2013/11/27)

>  <Rbt.Parameter_File>
/export/apps/rDock/src/rDock_2013.1_src/data/scripts/dock_solv.prm

>  <Rbt.Receptor>
prm/blind_docking_80.prm

>  <SCORE>
-3.711

>  <SCORE.INTER>
-3.33979

>  <SCORE.INTER.CONST>
1

>  <SCORE.INTER.POLAR>
0

>  <SCORE.INTER.ROT>
5

>  <SCORE.INTER.SOLV>
10.689

>  <SCORE.INTER.VDW>
-12.7229

>  <SCORE.INTER.norm>
-0.333979

>  <SCORE.INTRA>
-0.371215

>  <SCORE.INTRA.DIHEDRAL>
-0.680079

>  <SCORE.INTRA.DIHEDRAL.0>
2.22229

>  <SCORE.INTRA.POLAR>
0

>  <SCORE.INTRA.POLAR.0>
0

>  <SCORE.INTRA.REPUL>
0

>  <SCORE.INTRA.REPUL.0>
0

>  <SCORE.INTRA.SOLV>
0.0907738

>  <SCORE.INTRA.SOLV.lig_0>
-31.87

>  <SCORE.INTRA.VDW>
-0.0765618

>  <SCORE.INTRA.VDW.0>
-0.575321

>  <SCORE.INTRA.norm>
-0.0371215

>  <SCORE.RESTR>
0

>  <SCORE.RESTR.CAVITY>
0

>  <SCORE.RESTR.norm>
0

>  <SCORE.SYSTEM>
0

>  <SCORE.SYSTEM.CONST>
0

>  <SCORE.SYSTEM.DIHEDRAL>
0

>  <SCORE.SYSTEM.SOLV>
0

>  <SCORE.SYSTEM.norm>
0

>  <SCORE.heavy>
10

>  <SCORE.norm>
-0.3711

>  <RMSD>
10.282

$$$$
ligand
 OpenBabel11021811463D
libRbt.so/2013.1/901 2013/11/27
 10  9  0  0  0  0  0  0  0  0999 V2000
   15.2967   37.6144   14.8743 N   0  0  0  0  0  0  0  0  0  0  0  0
   16.5353   36.8583   15.0135 C   0  0  2  0  0  0  0  0  0  0  0  0
   16.3115   35.5927   15.8392 C   0  0  0  0  0  0  0  0  0  0  0  0
   15.2095   35.3839   16.3549 O   0  0  0  0  0  0  0  0  0  0  0  0
   17.6352   37.7269   15.6316 C   0  0  0  0  0  0  0  0  0  0  0  0
   18.0331   38.9155   14.7649 C   0  0  0  0  0  0  0  0  0  0  0  0
   19.0377   39.8283   15.4625 C   0  0  0  0  0  0  0  0  0  0  0  0
   18.4015   40.5986   16.6302 C   0  0  0  0  0  0  0  0  0  0  0  0
   17.2596   41.4852   16.2406 N   0  0  0  0  0  0  0  0  0  0  0  0
   17.2094   34.7546   15.9944 O   0  0  0  0  0  0  0  0  0  0  0  0
  2  1  1  1  0  0  0
  2  3  1  0  0  0  0
  2  5  1  0  0  0  0
  3  4  1  0  0  0  0
  3 10  1  0  0  0  0
  5  6  1  0  0  0  0
  6  7  1  0  0  0  0
  7  8  1  0  0  0  0
  8  9  1  0  0  0  0
M  END
>  <CHROM.1>
-4.68439497,-63.75224408,174.84937843,-70.17724308,-59.97442149,17.08362678
37.83677951,15.69695826,1.95161027,0.00753092,-3.12802578

>  <Name>
ligand

>  <RI>
0

>  <Rbt.Current_Directory>
/home/itssahil/PROJECTS/Mol_Feturizer/New_Systems/rnas/3D0U

>  <Rbt.Executable>
rbdock ($Id: //depot/dev/client3/rdock/2013.1/src/exe/rbdock.cxx#4 $)

>  <Rbt.Library>
libRbt.so (2013.1, Build901 2013/11/27)

>  <Rbt.Parameter_File>
/export/apps/rDock/src/rDock_2013.1_src/data/scripts/dock_solv.prm

>  <Rbt.Receptor>
prm/blind_docking_60.prm

>  <SCORE>
-3.80481

>  <SCORE.INTER>
-4.4878

>  <SCORE.INTER.CONST>
1

>  <SCORE.INTER.POLAR>
0

>  <SCORE.INTER.ROT>
5

>  <SCORE.INTER.SOLV>
10.0242

>  <SCORE.INTER.VDW>
-13.2666

>  <SCORE.INTER.norm>
-0.44878

>  <SCORE.INTRA>
0.682995

>  <SCORE.INTRA.DIHEDRAL>
-0.138614

>  <SCORE.INTRA.DIHEDRAL.0>
2.22229

>  <SCORE.INTRA.POLAR>
0

>  <SCORE.INTRA.POLAR.0>
0

>  <SCORE.INTRA.REPUL>
0

>  <SCORE.INTRA.REPUL.0>
0

>  <SCORE.INTRA.SOLV>
0.719793

>  <SCORE.INTRA.SOLV.lig_0>
-31.87

>  <SCORE.INTRA.VDW>
0.392405

>  <SCORE.INTRA.VDW.0>
-0.575321

>  <SCORE.INTRA.norm>
0.0682995

>  <SCORE.RESTR>
0

>  <SCORE.RESTR.CAVITY>
0

>  <SCORE.RESTR.norm>
0

>  <SCORE.SYSTEM>
0

>  <SCORE.SYSTEM.CONST>
0

>  <SCORE.SYSTEM.DIHEDRAL>
0

>  <SCORE.SYSTEM.SOLV>
0

>  <SCORE.SYSTEM.norm>
0

>  <SCORE.heavy>
10

>  <SCORE.norm>
-0.380481

>  <RMSD>
10.283

$$$$
ligand
 OpenBabel11021811463D
libRbt.so/2013.1/901 2013/11/27
 10  9  0  0  0  0  0  0  0  0999 V2000
   16.2170   38.8513   15.2739 N   0  0  0  0  0  0  0  0  0  0  0  0
   17.3365   39.7473   15.0112 C   0  0  2  0  0  0  0  0  0  0  0  0
   18.6671   39.0605   15.3139 C   0  0  0  0  0  0  0  0  0  0  0  0
   18.6778   37.8891   15.7034 O   0  0  0  0  0  0  0  0  0  0  0  0
   17.1951   41.0435   15.8151 C   0  0  0  0  0  0  0  0  0  0  0  0
   15.9216   41.8196   15.5018 C   0  0  0  0  0  0  0  0  0  0  0  0
   15.8207   43.1127   16.3061 C   0  0  0  0  0  0  0  0  0  0  0  0
   14.5223   43.8779   16.0053 C   0  0  0  0  0  0  0  0  0  0  0  0
   13.2763   43.1984   16.4824 N   0  0  0  0  0  0  0  0  0  0  0  0
   19.7468   39.6474   15.1633 O   0  0  0  0  0  0  0  0  0  0  0  0
  2  1  1  1  0  0  0
  2  3  1  0  0  0  0
  2  5  1  0  0  0  0
  3  4  1  0  0  0  0
  3 10  1  0  0  0  0
  5  6  1  0  0  0  0
  6  7  1  0  0  0  0
  7  8  1  0  0  0  0
  8  9  1  0  0  0  0
M  END
>  <CHROM.1>
1.11654968,-59.60119262,-179.27873269,-178.93691104,67.93074134,16.77601863
40.80011892,15.66082930,0.81742551,-0.08358272,-3.03476091

>  <Name>
ligand

>  <RI>
0

>  <Rbt.Current_Directory>
/home/itssahil/PROJECTS/Mol_Feturizer/New_Systems/rnas/3D0U

>  <Rbt.Executable>
rbdock ($Id: //depot/dev/client3/rdock/2013.1/src/exe/rbdock.cxx#4 $)

>  <Rbt.Library>
libRbt.so (2013.1, Build901 2013/11/27)

>  <Rbt.Parameter_File>
/export/apps/rDock/src/rDock_2013.1_src/data/scripts/dock_solv.prm

>  <Rbt.Receptor>
prm/blind_docking_100.prm

>  <SCORE>
-4.30823

>  <SCORE.INTER>
-4.18101

>  <SCORE.INTER.CONST>
1

>  <SCORE.INTER.POLAR>
0

>  <SCORE.INTER.ROT>
5

>  <SCORE.INTER.SOLV>
7.06775

>  <SCORE.INTER.VDW>
-12.0766

>  <SCORE.INTER.norm>
-0.418101

>  <SCORE.INTRA>
-0.12722

>  <SCORE.INTRA.DIHEDRAL>
-0.503854

>  <SCORE.INTRA.DIHEDRAL.0>
2.22229

>  <SCORE.INTRA.POLAR>
0

>  <SCORE.INTRA.POLAR.0>
0

>  <SCORE.INTRA.REPUL>
0

>  <SCORE.INTRA.REPUL.0>
0

>  <SCORE.INTRA.SOLV>
0.0849332

>  <SCORE.INTRA.SOLV.lig_0>
-31.87

>  <SCORE.INTRA.VDW>
0.0822408

>  <SCORE.INTRA.VDW.0>
-0.575321

>  <SCORE.INTRA.norm>
-0.012722

>  <SCORE.RESTR>
0

>  <SCORE.RESTR.CAVITY>
0

>  <SCORE.RESTR.norm>
0

>  <SCORE.SYSTEM>
0

>  <SCORE.SYSTEM.CONST>
0

>  <SCORE.SYSTEM.DIHEDRAL>
0

>  <SCORE.SYSTEM.SOLV>
0

>  <SCORE.SYSTEM.norm>
0

>  <SCORE.heavy>
10

>  <SCORE.norm>
-0.430823

>  <RMSD>
10.308

$$$$
ligand
 OpenBabel11021811463D
libRbt.so/2013.1/901 2013/11/27
 10  9  0  0  0  0  0  0  0  0999 V2000
   15.4942   35.4966   14.7331 N   0  0  0  0  0  0  0  0  0  0  0  0
   16.5502   36.1210   15.5206 C   0  0  2  0  0  0  0  0  0  0  0  0
   16.1151   36.2955   16.9746 C   0  0  0  0  0  0  0  0  0  0  0  0
   15.3525   37.2170   17.2800 O   0  0  0  0  0  0  0  0  0  0  0  0
   16.9628   37.4631   14.9086 C   0  0  0  0  0  0  0  0  0  0  0  0
   18.1174   38.1376   15.6395 C   0  0  0  0  0  0  0  0  0  0  0  0
   18.4849   39.4836   15.0212 C   0  0  0  0  0  0  0  0  0  0  0  0
   17.3621   40.5196   15.1881 C   0  0  0  0  0  0  0  0  0  0  0  0
   17.0556   40.8797   16.6087 N   0  0  0  0  0  0  0  0  0  0  0  0
   16.4982   35.5214   17.8616 O   0  0  0  0  0  0  0  0  0  0  0  0
  2  1  1  6  0  0  0
  2  3  1  0  0  0  0
  2  5  1  0  0  0  0
  3  4  1  0  0  0  0
  3 10  1  0  0  0  0
  5  6  1  0  0  0  0
  6  7  1  0  0  0  0
  7  8  1  0  0  0  0
  8  9  1  0  0  0  0
M  END
>  <CHROM.1>
-77.80049206,-176.87951514,-178.88604889,66.31273163,63.45937377,16.78654716
37.70741903,16.00727965,-2.54452931,1.12602770,0.70655587

>  <Name>
ligand

>  <RI>
0

>  <Rbt.Current_Directory>
/home/itssahil/PROJECTS/Mol_Feturizer/New_Systems/rnas/3D0U

>  <Rbt.Executable>
rbdock ($Id: //depot/dev/client3/rdock/2013.1/src/exe/rbdock.cxx#4 $)

>  <Rbt.Library>
libRbt.so (2013.1, Build901 2013/11/27)

>  <Rbt.Parameter_File>
/export/apps/rDock/src/rDock_2013.1_src/data/scripts/dock_solv.prm

>  <Rbt.Receptor>
prm/blind_docking_80.prm

>  <SCORE>
-2.99532

>  <SCORE.INTER>
-3.11759

>  <SCORE.INTER.CONST>
1

>  <SCORE.INTER.POLAR>
0

>  <SCORE.INTER.ROT>
5

>  <SCORE.INTER.SOLV>
10.2155

>  <SCORE.INTER.VDW>
-12.4169

>  <SCORE.INTER.norm>
-0.311759

>  <SCORE.INTRA>
0.122264

>  <SCORE.INTRA.DIHEDRAL>
-0.521918

>  <SCORE.INTRA.DIHEDRAL.0>
2.22229

>  <SCORE.INTRA.POLAR>
0

>  <SCORE.INTRA.POLAR.0>
0

>  <SCORE.INTRA.REPUL>
0

>  <SCORE.INTRA.REPUL.0>
0

>  <SCORE.INTRA.SOLV>
-0.23264

>  <SCORE.INTRA.SOLV.lig_0>
-31.87

>  <SCORE.INTRA.VDW>
0.499543

>  <SCORE.INTRA.VDW.0>
-0.575321

>  <SCORE.INTRA.norm>
0.0122264

>  <SCORE.RESTR>
0

>  <SCORE.RESTR.CAVITY>
0

>  <SCORE.RESTR.norm>
0

>  <SCORE.SYSTEM>
0

>  <SCORE.SYSTEM.CONST>
0

>  <SCORE.SYSTEM.DIHEDRAL>
0

>  <SCORE.SYSTEM.SOLV>
0

>  <SCORE.SYSTEM.norm>
0

>  <SCORE.heavy>
10

>  <SCORE.norm>
-0.299532

>  <RMSD>
10.335

$$$$
ligand
 OpenBabel11021811463D
libRbt.so/2013.1/901 2013/11/27
 10  9  0  0  0  0  0  0  0  0999 V2000
   16.1360   39.9310   15.7803 N   0  0  0  0  0  0  0  0  0  0  0  0
   17.1098   40.9902   15.5458 C   0  0  2  0  0  0  0  0  0  0  0  0
   18.4746   40.6126   16.1191 C   0  0  0  0  0  0  0  0  0  0  0  0
   19.2901   40.0101   15.4149 O   0  0  0  0  0  0  0  0  0  0  0  0
   16.6195   42.3181   16.1310 C   0  0  0  0  0  0  0  0  0  0  0  0
   15.2720   42.7674   15.5789 C   0  0  0  0  0  0  0  0  0  0  0  0
   14.7599   44.0316   16.2634 C   0  0  0  0  0  0  0  0  0  0  0  0
   13.3649   44.4341   15.7598 C   0  0  0  0  0  0  0  0  0  0  0  0
   12.8100   45.6728   16.3918 N   0  0  0  0  0  0  0  0  0  0  0  0
   18.7943   40.9105   17.2775 O   0  0  0  0  0  0  0  0  0  0  0  0
  2  1  1  1  0  0  0
  2  3  1  0  0  0  0
  2  5  1  0  0  0  0
  3  4  1  0  0  0  0
  3 10  1  0  0  0  0
  5  6  1  0  0  0  0
  6  7  1  0  0  0  0
  7  8  1  0  0  0  0
  8  9  1  0  0  0  0
M  END
>  <CHROM.1>
90.08478650,-57.52152134,175.34871610,-176.71887477,-179.77048128,16.30367184
42.15053475,16.03727726,0.63570128,0.36593015,-2.68435135

>  <Name>
ligand

>  <RI>
0

>  <Rbt.Current_Directory>
/home/itssahil/PROJECTS/Mol_Feturizer/New_Systems/rnas/3D0U

>  <Rbt.Executable>
rbdock ($Id: //depot/dev/client3/rdock/2013.1/src/exe/rbdock.cxx#4 $)

>  <Rbt.Library>
libRbt.so (2013.1, Build901 2013/11/27)

>  <Rbt.Parameter_File>
/export/apps/rDock/src/rDock_2013.1_src/data/scripts/dock_solv.prm

>  <Rbt.Receptor>
prm/blind_docking_80.prm

>  <SCORE>
-4.12432

>  <SCORE.INTER>
-3.7033

>  <SCORE.INTER.CONST>
1

>  <SCORE.INTER.POLAR>
0

>  <SCORE.INTER.ROT>
5

>  <SCORE.INTER.SOLV>
9.06604

>  <SCORE.INTER.VDW>
-12.4242

>  <SCORE.INTER.norm>
-0.37033

>  <SCORE.INTRA>
-0.421016

>  <SCORE.INTRA.DIHEDRAL>
-0.558334

>  <SCORE.INTRA.DIHEDRAL.0>
2.22229

>  <SCORE.INTRA.POLAR>
0

>  <SCORE.INTRA.POLAR.0>
0

>  <SCORE.INTRA.REPUL>
0

>  <SCORE.INTRA.REPUL.0>
0

>  <SCORE.INTRA.SOLV>
-0.683083

>  <SCORE.INTRA.SOLV.lig_0>
-31.87

>  <SCORE.INTRA.VDW>
0.199693

>  <SCORE.INTRA.VDW.0>
-0.575321

>  <SCORE.INTRA.norm>
-0.0421016

>  <SCORE.RESTR>
0

>  <SCORE.RESTR.CAVITY>
0

>  <SCORE.RESTR.norm>
0

>  <SCORE.SYSTEM>
0

>  <SCORE.SYSTEM.CONST>
0

>  <SCORE.SYSTEM.DIHEDRAL>
0

>  <SCORE.SYSTEM.SOLV>
0

>  <SCORE.SYSTEM.norm>
0

>  <SCORE.heavy>
10

>  <SCORE.norm>
-0.412432

>  <RMSD>
10.445

$$$$
ligand
 OpenBabel11021811463D
libRbt.so/2013.1/901 2013/11/27
 10  9  0  0  0  0  0  0  0  0999 V2000
   17.0895   40.9120   16.1872 N   0  0  0  0  0  0  0  0  0  0  0  0
   17.6220   39.5749   15.9554 C   0  0  2  0  0  0  0  0  0  0  0  0
   19.1327   39.6209   15.7325 C   0  0  0  0  0  0  0  0  0  0  0  0
   19.7183   38.6265   15.2943 O   0  0  0  0  0  0  0  0  0  0  0  0
   16.9150   38.9062   14.7725 C   0  0  0  0  0  0  0  0  0  0  0  0
   17.0543   37.3888   14.7572 C   0  0  0  0  0  0  0  0  0  0  0  0
   16.3267   36.7302   15.9259 C   0  0  0  0  0  0  0  0  0  0  0  0
   16.4434   35.1983   15.8870 C   0  0  0  0  0  0  0  0  0  0  0  0
   15.6472   34.4879   16.9374 N   0  0  0  0  0  0  0  0  0  0  0  0
   19.7901   40.6434   15.9673 O   0  0  0  0  0  0  0  0  0  0  0  0
  2  1  1  6  0  0  0
  2  3  1  0  0  0  0
  2  5  1  0  0  0  0
  3  4  1  0  0  0  0
  3 10  1  0  0  0  0
  5  6  1  0  0  0  0
  6  7  1  0  0  0  0
  7  8  1  0  0  0  0
  8  9  1  0  0  0  0
M  END
>  <CHROM.1>
-167.43770713,-160.23807175,66.78163348,178.67707409,-174.74720948,17.61262276
38.21898700,15.73696679,1.04702960,0.10573527,-0.02484064

>  <Name>
ligand

>  <RI>
0

>  <Rbt.Current_Directory>
/home/itssahil/PROJECTS/Mol_Feturizer/New_Systems/rnas/3D0U

>  <Rbt.Executable>
rbdock ($Id: //depot/dev/client3/rdock/2013.1/src/exe/rbdock.cxx#4 $)

>  <Rbt.Library>
libRbt.so (2013.1, Build901 2013/11/27)

>  <Rbt.Parameter_File>
/export/apps/rDock/src/rDock_2013.1_src/data/scripts/dock_solv.prm

>  <Rbt.Receptor>
prm/blind_docking_100.prm

>  <SCORE>
-3.86694

>  <SCORE.INTER>
-4.10183

>  <SCORE.INTER.CONST>
1

>  <SCORE.INTER.POLAR>
0

>  <SCORE.INTER.ROT>
5

>  <SCORE.INTER.SOLV>
7.99235

>  <SCORE.INTER.VDW>
-12.332

>  <SCORE.INTER.norm>
-0.410183

>  <SCORE.INTRA>
0.23489

>  <SCORE.INTRA.DIHEDRAL>
0.965797

>  <SCORE.INTRA.DIHEDRAL.0>
2.22229

>  <SCORE.INTRA.POLAR>
0

>  <SCORE.INTRA.POLAR.0>
0

>  <SCORE.INTRA.REPUL>
0

>  <SCORE.INTRA.REPUL.0>
0

>  <SCORE.INTRA.SOLV>
-1.21895

>  <SCORE.INTRA.SOLV.lig_0>
-31.87

>  <SCORE.INTRA.VDW>
0.361464

>  <SCORE.INTRA.VDW.0>
-0.575321

>  <SCORE.INTRA.norm>
0.023489

>  <SCORE.RESTR>
0

>  <SCORE.RESTR.CAVITY>
0

>  <SCORE.RESTR.norm>
0

>  <SCORE.SYSTEM>
0

>  <SCORE.SYSTEM.CONST>
0

>  <SCORE.SYSTEM.DIHEDRAL>
0

>  <SCORE.SYSTEM.SOLV>
0

>  <SCORE.SYSTEM.norm>
0

>  <SCORE.heavy>
10

>  <SCORE.norm>
-0.386694

>  <RMSD>
10.462

$$$$
ligand
 OpenBabel11021811463D
libRbt.so/2013.1/901 2013/11/27
 10  9  0  0  0  0  0  0  0  0999 V2000
   19.8499   39.7001   15.1717 N   0  0  0  0  0  0  0  0  0  0  0  0
   18.4032   39.5433   15.2601 C   0  0  2  0  0  0  0  0  0  0  0  0
   17.8126   40.5052   16.2895 C   0  0  0  0  0  0  0  0  0  0  0  0
   18.2215   40.4837   17.4541 O   0  0  0  0  0  0  0  0  0  0  0  0
   18.0331   38.0942   15.5906 C   0  0  0  0  0  0  0  0  0  0  0  0
   16.5307   37.8496   15.6627 C   0  0  0  0  0  0  0  0  0  0  0  0
   16.1975   36.4076   16.0351 C   0  0  0  0  0  0  0  0  0  0  0  0
   14.6836   36.1851   16.1778 C   0  0  0  0  0  0  0  0  0  0  0  0
   14.0445   36.9571   17.2901 N   0  0  0  0  0  0  0  0  0  0  0  0
   16.9370   41.3245   15.9813 O   0  0  0  0  0  0  0  0  0  0  0  0
  2  1  1  1  0  0  0
  2  3  1  0  0  0  0
  2  5  1  0  0  0  0
  3  4  1  0  0  0  0
  3 10  1  0  0  0  0
  5  6  1  0  0  0  0
  6  7  1  0  0  0  0
  7  8  1  0  0  0  0
  8  9  1  0  0  0  0
M  END
>  <CHROM.1>
-56.56145508,-178.49699680,-178.26096290,177.03268126,-64.12899032,17.06550517
38.73491978,16.11188527,-0.72565721,-0.43012523,-2.82720239

>  <Name>
ligand

>  <RI>
0

>  <Rbt.Current_Directory>
/home/itssahil/PROJECTS/Mol_Feturizer/New_Systems/rnas/3D0U

>  <Rbt.Executable>
rbdock ($Id: //depot/dev/client3/rdock/2013.1/src/exe/rbdock.cxx#4 $)

>  <Rbt.Library>
libRbt.so (2013.1, Build901 2013/11/27)

>  <Rbt.Parameter_File>
/export/apps/rDock/src/rDock_2013.1_src/data/scripts/dock_solv.prm

>  <Rbt.Receptor>
prm/blind_docking_80.prm

>  <SCORE>
-1.82413

>  <SCORE.INTER>
-0.989258

>  <SCORE.INTER.CONST>
1

>  <SCORE.INTER.POLAR>
0

>  <SCORE.INTER.ROT>
5

>  <SCORE.INTER.SOLV>
13.4946

>  <SCORE.INTER.VDW>
-12.091

>  <SCORE.INTER.norm>
-0.0989258

>  <SCORE.INTRA>
-0.834874

>  <SCORE.INTRA.DIHEDRAL>
-0.621014

>  <SCORE.INTRA.DIHEDRAL.0>
2.22229

>  <SCORE.INTRA.POLAR>
0

>  <SCORE.INTRA.POLAR.0>
0

>  <SCORE.INTRA.REPUL>
0

>  <SCORE.INTRA.REPUL.0>
0

>  <SCORE.INTRA.SOLV>
-0.761693

>  <SCORE.INTRA.SOLV.lig_0>
-31.87

>  <SCORE.INTRA.VDW>
-0.143521

>  <SCORE.INTRA.VDW.0>
-0.575321

>  <SCORE.INTRA.norm>
-0.0834874

>  <SCORE.RESTR>
0

>  <SCORE.RESTR.CAVITY>
0

>  <SCORE.RESTR.norm>
0

>  <SCORE.SYSTEM>
0

>  <SCORE.SYSTEM.CONST>
0

>  <SCORE.SYSTEM.DIHEDRAL>
0

>  <SCORE.SYSTEM.SOLV>
0

>  <SCORE.SYSTEM.norm>
0

>  <SCORE.heavy>
10

>  <SCORE.norm>
-0.182413

>  <RMSD>
10.478

$$$$
ligand
 OpenBabel11021811463D
libRbt.so/2013.1/901 2013/11/27
 10  9  0  0  0  0  0  0  0  0999 V2000
   32.5797   44.2858   18.8030 N   0  0  0  0  0  0  0  0  0  0  0  0
   33.4871   43.1690   18.5693 C   0  0  2  0  0  0  0  0  0  0  0  0
   33.3146   42.6127   17.1570 C   0  0  0  0  0  0  0  0  0  0  0  0
   32.2897   42.8687   16.5182 O   0  0  0  0  0  0  0  0  0  0  0  0
   33.2797   42.0721   19.6181 C   0  0  0  0  0  0  0  0  0  0  0  0
   34.3045   40.9472   19.5351 C   0  0  0  0  0  0  0  0  0  0  0  0
   34.0914   39.8909   20.6158 C   0  0  0  0  0  0  0  0  0  0  0  0
   32.8198   39.0637   20.3695 C   0  0  0  0  0  0  0  0  0  0  0  0
   32.5959   37.9603   21.3564 N   0  0  0  0  0  0  0  0  0  0  0  0
   34.1898   41.9177   16.6244 O   0  0  0  0  0  0  0  0  0  0  0  0
  2  1  1  1  0  0  0
  2  3  1  0  0  0  0
  2  5  1  0  0  0  0
  3  4  1  0  0  0  0
  3 10  1  0  0  0  0
  5  6  1  0  0  0  0
  6  7  1  0  0  0  0
  7  8  1  0  0  0  0
  8  9  1  0  0  0  0
M  END
>  <CHROM.1>
-18.28182823,-173.20382326,178.50050579,70.09941421,176.82057404,33.29222639
41.47620488,18.87839204,1.66119388,1.39319182,-0.78221357

>  <Name>
ligand

>  <RI>
0

>  <Rbt.Current_Directory>
/home/itssahil/PROJECTS/Mol_Feturizer/New_Systems/rnas/3D0U

>  <Rbt.Executable>
rbdock ($Id: //depot/dev/client3/rdock/2013.1/src/exe/rbdock.cxx#4 $)

>  <Rbt.Library>
libRbt.so (2013.1, Build901 2013/11/27)

>  <Rbt.Parameter_File>
/export/apps/rDock/src/rDock_2013.1_src/data/scripts/dock_solv.prm

>  <Rbt.Receptor>
prm/blind_docking_100.prm

>  <SCORE>
-5.01133

>  <SCORE.INTER>
-4.60987

>  <SCORE.INTER.CONST>
1

>  <SCORE.INTER.POLAR>
0

>  <SCORE.INTER.ROT>
5

>  <SCORE.INTER.SOLV>
15.5833

>  <SCORE.INTER.VDW>
-15.201

>  <SCORE.INTER.norm>
-0.460987

>  <SCORE.INTRA>
-0.401464

>  <SCORE.INTRA.DIHEDRAL>
-0.0830146

>  <SCORE.INTRA.DIHEDRAL.0>
2.22229

>  <SCORE.INTRA.POLAR>
0

>  <SCORE.INTRA.POLAR.0>
0

>  <SCORE.INTRA.REPUL>
0

>  <SCORE.INTRA.REPUL.0>
0

>  <SCORE.INTRA.SOLV>
-1.42377

>  <SCORE.INTRA.SOLV.lig_0>
-31.87

>  <SCORE.INTRA.VDW>
0.351926

>  <SCORE.INTRA.VDW.0>
-0.575321

>  <SCORE.INTRA.norm>
-0.0401464

>  <SCORE.RESTR>
0

>  <SCORE.RESTR.CAVITY>
0

>  <SCORE.RESTR.norm>
0

>  <SCORE.SYSTEM>
0

>  <SCORE.SYSTEM.CONST>
0

>  <SCORE.SYSTEM.DIHEDRAL>
0

>  <SCORE.SYSTEM.SOLV>
0

>  <SCORE.SYSTEM.norm>
0

>  <SCORE.heavy>
10

>  <SCORE.norm>
-0.501133

>  <RMSD>
10.525

$$$$
ligand
 OpenBabel11021811463D
libRbt.so/2013.1/901 2013/11/27
 10  9  0  0  0  0  0  0  0  0999 V2000
   34.1953   43.7119   17.6114 N   0  0  0  0  0  0  0  0  0  0  0  0
   33.4329   42.5484   18.0474 C   0  0  2  0  0  0  0  0  0  0  0  0
   32.7000   42.8363   19.3565 C   0  0  0  0  0  0  0  0  0  0  0  0
   31.6580   43.4981   19.3431 O   0  0  0  0  0  0  0  0  0  0  0  0
   34.3430   41.3244   18.1882 C   0  0  0  0  0  0  0  0  0  0  0  0
   33.5831   40.0200   18.3964 C   0  0  0  0  0  0  0  0  0  0  0  0
   34.5146   38.8130   18.4617 C   0  0  0  0  0  0  0  0  0  0  0  0
   33.7385   37.4935   18.5976 C   0  0  0  0  0  0  0  0  0  0  0  0
   34.5939   36.2648   18.5762 N   0  0  0  0  0  0  0  0  0  0  0  0
   33.1183   42.4070   20.4398 O   0  0  0  0  0  0  0  0  0  0  0  0
  2  1  1  1  0  0  0
  2  3  1  0  0  0  0
  2  5  1  0  0  0  0
  3  4  1  0  0  0  0
  3 10  1  0  0  0  0
  5  6  1  0  0  0  0
  6  7  1  0  0  0  0
  7  8  1  0  0  0  0
  8  9  1  0  0  0  0
M  END
>  <CHROM.1>
78.11773196,-169.64632384,177.09588216,-176.99947613,176.17424531,33.56777025
40.90998698,18.73058795,-1.92576087,-0.85065104,2.94343091

>  <Name>
ligand

>  <RI>
0

>  <Rbt.Current_Directory>
/home/itssahil/PROJECTS/Mol_Feturizer/New_Systems/rnas/3D0U

>  <Rbt.Executable>
rbdock ($Id: //depot/dev/client3/rdock/2013.1/src/exe/rbdock.cxx#4 $)

>  <Rbt.Library>
libRbt.so (2013.1, Build901 2013/11/27)

>  <Rbt.Parameter_File>
/export/apps/rDock/src/rDock_2013.1_src/data/scripts/dock_solv.prm

>  <Rbt.Receptor>
prm/blind_docking_100.prm

>  <SCORE>
-5.76964

>  <SCORE.INTER>
-5.15051

>  <SCORE.INTER.CONST>
1

>  <SCORE.INTER.POLAR>
0

>  <SCORE.INTER.ROT>
5

>  <SCORE.INTER.SOLV>
4.567

>  <SCORE.INTER.VDW>
-11.8893

>  <SCORE.INTER.norm>
-0.515051

>  <SCORE.INTRA>
-0.619128

>  <SCORE.INTRA.DIHEDRAL>
-0.193739

>  <SCORE.INTRA.DIHEDRAL.0>
2.22229

>  <SCORE.INTRA.POLAR>
0

>  <SCORE.INTRA.POLAR.0>
0

>  <SCORE.INTRA.REPUL>
0

>  <SCORE.INTRA.REPUL.0>
0

>  <SCORE.INTRA.SOLV>
-1.61645

>  <SCORE.INTRA.SOLV.lig_0>
-31.87

>  <SCORE.INTRA.VDW>
0.285965

>  <SCORE.INTRA.VDW.0>
-0.575321

>  <SCORE.INTRA.norm>
-0.0619128

>  <SCORE.RESTR>
0

>  <SCORE.RESTR.CAVITY>
0

>  <SCORE.RESTR.norm>
0

>  <SCORE.SYSTEM>
0

>  <SCORE.SYSTEM.CONST>
0

>  <SCORE.SYSTEM.DIHEDRAL>
0

>  <SCORE.SYSTEM.SOLV>
0

>  <SCORE.SYSTEM.norm>
0

>  <SCORE.heavy>
10

>  <SCORE.norm>
-0.576964

>  <RMSD>
10.600

$$$$
ligand
 OpenBabel11021811463D
libRbt.so/2013.1/901 2013/11/27
 10  9  0  0  0  0  0  0  0  0999 V2000
   34.7234   42.0660   17.8734 N   0  0  0  0  0  0  0  0  0  0  0  0
   33.5232   41.8871   18.6814 C   0  0  2  0  0  0  0  0  0  0  0  0
   32.9002   43.2356   19.0380 C   0  0  0  0  0  0  0  0  0  0  0  0
   33.5682   44.2679   18.9280 O   0  0  0  0  0  0  0  0  0  0  0  0
   33.8342   41.0775   19.9439 C   0  0  0  0  0  0  0  0  0  0  0  0
   34.3234   39.6631   19.6565 C   0  0  0  0  0  0  0  0  0  0  0  0
   33.2521   38.8061   18.9880 C   0  0  0  0  0  0  0  0  0  0  0  0
   33.7824   37.4147   18.6078 C   0  0  0  0  0  0  0  0  0  0  0  0
   34.8757   37.4248   17.5850 N   0  0  0  0  0  0  0  0  0  0  0  0
   31.7271   43.3241   19.4240 O   0  0  0  0  0  0  0  0  0  0  0  0
  2  1  1  1  0  0  0
  2  3  1  0  0  0  0
  2  5  1  0  0  0  0
  3  4  1  0  0  0  0
  3 10  1  0  0  0  0
  5  6  1  0  0  0  0
  6  7  1  0  0  0  0
  7  8  1  0  0  0  0
  8  9  1  0  0  0  0
M  END
>  <CHROM.1>
-17.16208594,-62.40932420,-65.01948268,175.84172414,-63.79439399,33.63425630
40.95747172,18.88040273,-1.83078423,-0.62687057,3.09262645

>  <Name>
ligand

>  <RI>
0

>  <Rbt.Current_Directory>
/home/itssahil/PROJECTS/Mol_Feturizer/New_Systems/rnas/3D0U

>  <Rbt.Executable>
rbdock ($Id: //depot/dev/client3/rdock/2013.1/src/exe/rbdock.cxx#4 $)

>  <Rbt.Library>
libRbt.so (2013.1, Build901 2013/11/27)

>  <Rbt.Parameter_File>
/export/apps/rDock/src/rDock_2013.1_src/data/scripts/dock_solv.prm

>  <Rbt.Receptor>
prm/blind_docking_100.prm

>  <SCORE>
-5.98544

>  <SCORE.INTER>
-6.17375

>  <SCORE.INTER.CONST>
1

>  <SCORE.INTER.POLAR>
0

>  <SCORE.INTER.ROT>
5

>  <SCORE.INTER.SOLV>
4.88284

>  <SCORE.INTER.VDW>
-12.6768

>  <SCORE.INTER.norm>
-0.617375

>  <SCORE.INTRA>
0.188304

>  <SCORE.INTRA.DIHEDRAL>
-0.460759

>  <SCORE.INTRA.DIHEDRAL.0>
2.22229

>  <SCORE.INTRA.POLAR>
0

>  <SCORE.INTRA.POLAR.0>
0

>  <SCORE.INTRA.REPUL>
0

>  <SCORE.INTRA.REPUL.0>
0

>  <SCORE.INTRA.SOLV>
0.639633

>  <SCORE.INTRA.SOLV.lig_0>
-31.87

>  <SCORE.INTRA.VDW>
0.0988666

>  <SCORE.INTRA.VDW.0>
-0.575321

>  <SCORE.INTRA.norm>
0.0188304

>  <SCORE.RESTR>
0

>  <SCORE.RESTR.CAVITY>
0

>  <SCORE.RESTR.norm>
0

>  <SCORE.SYSTEM>
0

>  <SCORE.SYSTEM.CONST>
0

>  <SCORE.SYSTEM.DIHEDRAL>
0

>  <SCORE.SYSTEM.SOLV>
0

>  <SCORE.SYSTEM.norm>
0

>  <SCORE.heavy>
10

>  <SCORE.norm>
-0.598544

>  <RMSD>
10.638

$$$$
ligand
 OpenBabel11021811463D
libRbt.so/2013.1/901 2013/11/27
 10  9  0  0  0  0  0  0  0  0999 V2000
   32.9952   39.2647   20.6533 N   0  0  0  0  0  0  0  0  0  0  0  0
   33.4222   40.1193   19.5521 C   0  0  2  0  0  0  0  0  0  0  0  0
   34.8640   39.8122   19.1513 C   0  0  0  0  0  0  0  0  0  0  0  0
   35.7561   39.8377   20.0041 O   0  0  0  0  0  0  0  0  0  0  0  0
   33.2594   41.5979   19.9174 C   0  0  0  0  0  0  0  0  0  0  0  0
   33.2997   42.5316   18.7137 C   0  0  0  0  0  0  0  0  0  0  0  0
   34.6797   42.5766   18.0637 C   0  0  0  0  0  0  0  0  0  0  0  0
   34.7311   43.5672   16.8899 C   0  0  0  0  0  0  0  0  0  0  0  0
   36.0538   43.6345   16.1915 N   0  0  0  0  0  0  0  0  0  0  0  0
   35.1631   39.5207   17.9858 O   0  0  0  0  0  0  0  0  0  0  0  0
  2  1  1  1  0  0  0
  2  3  1  0  0  0  0
  2  5  1  0  0  0  0
  3  4  1  0  0  0  0
  3 10  1  0  0  0  0
  5  6  1  0  0  0  0
  6  7  1  0  0  0  0
  7  8  1  0  0  0  0
  8  9  1  0  0  0  0
M  END
>  <CHROM.1>
-54.11555570,-163.51333593,-67.78833384,-177.43080543,-178.75295539,34.45222052
41.23090547,18.70800503,1.85845369,-0.58323744,2.61096650

>  <Name>
ligand

>  <RI>
0

>  <Rbt.Current_Directory>
/home/itssahil/PROJECTS/Mol_Feturizer/New_Systems/rnas/3D0U

>  <Rbt.Executable>
rbdock ($Id: //depot/dev/client3/rdock/2013.1/src/exe/rbdock.cxx#4 $)

>  <Rbt.Library>
libRbt.so (2013.1, Build901 2013/11/27)

>  <Rbt.Parameter_File>
/export/apps/rDock/src/rDock_2013.1_src/data/scripts/dock_solv.prm

>  <Rbt.Receptor>
prm/blind_docking_100.prm

>  <SCORE>
-4.38139

>  <SCORE.INTER>
-3.99128

>  <SCORE.INTER.CONST>
1

>  <SCORE.INTER.POLAR>
0

>  <SCORE.INTER.ROT>
5

>  <SCORE.INTER.SOLV>
7.00393

>  <SCORE.INTER.VDW>
-11.9288

>  <SCORE.INTER.norm>
-0.399128

>  <SCORE.INTRA>
-0.390108

>  <SCORE.INTRA.DIHEDRAL>
0.537653

>  <SCORE.INTRA.DIHEDRAL.0>
2.22229

>  <SCORE.INTRA.POLAR>
0

>  <SCORE.INTRA.POLAR.0>
0

>  <SCORE.INTRA.REPUL>
0

>  <SCORE.INTRA.REPUL.0>
0

>  <SCORE.INTRA.SOLV>
-1.4412

>  <SCORE.INTRA.SOLV.lig_0>
-31.87

>  <SCORE.INTRA.VDW>
0.0616651

>  <SCORE.INTRA.VDW.0>
-0.575321

>  <SCORE.INTRA.norm>
-0.0390108

>  <SCORE.RESTR>
0

>  <SCORE.RESTR.CAVITY>
0

>  <SCORE.RESTR.norm>
0

>  <SCORE.SYSTEM>
0

>  <SCORE.SYSTEM.CONST>
0

>  <SCORE.SYSTEM.DIHEDRAL>
0

>  <SCORE.SYSTEM.SOLV>
0

>  <SCORE.SYSTEM.norm>
0

>  <SCORE.heavy>
10

>  <SCORE.norm>
-0.438139

>  <RMSD>
10.641

$$$$
ligand
 OpenBabel11021811463D
libRbt.so/2013.1/901 2013/11/27
 10  9  0  0  0  0  0  0  0  0999 V2000
   34.7044   42.0539   17.8836 N   0  0  0  0  0  0  0  0  0  0  0  0
   33.5312   41.8929   18.7339 C   0  0  2  0  0  0  0  0  0  0  0  0
   32.9111   43.2481   19.0695 C   0  0  0  0  0  0  0  0  0  0  0  0
   33.5887   44.2748   18.9668 O   0  0  0  0  0  0  0  0  0  0  0  0
   33.8866   41.1233   20.0097 C   0  0  0  0  0  0  0  0  0  0  0  0
   34.3916   39.7094   19.7485 C   0  0  0  0  0  0  0  0  0  0  0  0
   33.3069   38.8069   19.1671 C   0  0  0  0  0  0  0  0  0  0  0  0
   33.8513   37.4187   18.7953 C   0  0  0  0  0  0  0  0  0  0  0  0
   34.8873   37.4269   17.7144 N   0  0  0  0  0  0  0  0  0  0  0  0
   31.7310   43.3476   19.4307 O   0  0  0  0  0  0  0  0  0  0  0  0
  2  1  1  6  0  0  0
  2  3  1  0  0  0  0
  2  5  1  0  0  0  0
  3  4  1  0  0  0  0
  3 10  1  0  0  0  0
  5  6  1  0  0  0  0
  6  7  1  0  0  0  0
  7  8  1  0  0  0  0
  8  9  1  0  0  0  0
M  END
>  <CHROM.1>
-20.51540660,-61.71224441,-66.62385856,175.17816127,-63.57856611,33.66224244
40.97112620,18.95905359,-1.84246520,-0.64419004,3.05851232

>  <Name>
ligand

>  <RI>
0

>  <Rbt.Current_Directory>
/home/itssahil/PROJECTS/Mol_Feturizer/New_Systems/rnas/3D0U

>  <Rbt.Executable>
rbdock ($Id: //depot/dev/client3/rdock/2013.1/src/exe/rbdock.cxx#4 $)

>  <Rbt.Library>
libRbt.so (2013.1, Build901 2013/11/27)

>  <Rbt.Parameter_File>
/export/apps/rDock/src/rDock_2013.1_src/data/scripts/dock_solv.prm

>  <Rbt.Receptor>
prm/blind_docking_100.prm

>  <SCORE>
-6.01098

>  <SCORE.INTER>
-6.18044

>  <SCORE.INTER.CONST>
1

>  <SCORE.INTER.POLAR>
0

>  <SCORE.INTER.ROT>
5

>  <SCORE.INTER.SOLV>
5.03348

>  <SCORE.INTER.VDW>
-12.7314

>  <SCORE.INTER.norm>
-0.618044

>  <SCORE.INTRA>
0.16946

>  <SCORE.INTRA.DIHEDRAL>
-0.374713

>  <SCORE.INTRA.DIHEDRAL.0>
2.22229

>  <SCORE.INTRA.POLAR>
0

>  <SCORE.INTRA.POLAR.0>
0

>  <SCORE.INTRA.REPUL>
0

>  <SCORE.INTRA.REPUL.0>
0

>  <SCORE.INTRA.SOLV>
0.639736

>  <SCORE.INTRA.SOLV.lig_0>
-31.87

>  <SCORE.INTRA.VDW>
0.0369486

>  <SCORE.INTRA.VDW.0>
-0.575321

>  <SCORE.INTRA.norm>
0.016946

>  <SCORE.RESTR>
0

>  <SCORE.RESTR.CAVITY>
0

>  <SCORE.RESTR.norm>
0

>  <SCORE.SYSTEM>
0

>  <SCORE.SYSTEM.CONST>
0

>  <SCORE.SYSTEM.DIHEDRAL>
0

>  <SCORE.SYSTEM.SOLV>
0

>  <SCORE.SYSTEM.norm>
0

>  <SCORE.heavy>
10

>  <SCORE.norm>
-0.601098

>  <RMSD>
10.654

$$$$
ligand
 OpenBabel11021811463D
libRbt.so/2013.1/901 2013/11/27
 10  9  0  0  0  0  0  0  0  0999 V2000
   34.0819   43.7862   17.5645 N   0  0  0  0  0  0  0  0  0  0  0  0
   33.4040   42.5863   18.0397 C   0  0  2  0  0  0  0  0  0  0  0  0
   32.7045   42.8472   19.3726 C   0  0  0  0  0  0  0  0  0  0  0  0
   31.6705   43.5210   19.4008 O   0  0  0  0  0  0  0  0  0  0  0  0
   34.3871   41.4177   18.1578 C   0  0  0  0  0  0  0  0  0  0  0  0
   33.7128   40.0783   18.4288 C   0  0  0  0  0  0  0  0  0  0  0  0
   34.7091   38.9223   18.4423 C   0  0  0  0  0  0  0  0  0  0  0  0
   34.0108   37.5623   18.5987 C   0  0  0  0  0  0  0  0  0  0  0  0
   34.9333   36.3834   18.5684 N   0  0  0  0  0  0  0  0  0  0  0  0
   33.1421   42.3841   20.4341 O   0  0  0  0  0  0  0  0  0  0  0  0
  2  1  1  1  0  0  0
  2  3  1  0  0  0  0
  2  5  1  0  0  0  0
  3  4  1  0  0  0  0
  3 10  1  0  0  0  0
  5  6  1  0  0  0  0
  6  7  1  0  0  0  0
  7  8  1  0  0  0  0
  8  9  1  0  0  0  0
M  END
>  <CHROM.1>
73.55874612,-170.57174281,175.94335769,-175.22942994,177.86762818,33.65568808
40.96632464,18.73008492,-2.02576865,-0.87938701,2.85666239

>  <Name>
ligand

>  <RI>
0

>  <Rbt.Current_Directory>
/home/itssahil/PROJECTS/Mol_Feturizer/New_Systems/rnas/3D0U

>  <Rbt.Executable>
rbdock ($Id: //depot/dev/client3/rdock/2013.1/src/exe/rbdock.cxx#4 $)

>  <Rbt.Library>
libRbt.so (2013.1, Build901 2013/11/27)

>  <Rbt.Parameter_File>
/export/apps/rDock/src/rDock_2013.1_src/data/scripts/dock_solv.prm

>  <Rbt.Receptor>
prm/blind_docking_100.prm

>  <SCORE>
-5.76629

>  <SCORE.INTER>
-5.2447

>  <SCORE.INTER.CONST>
1

>  <SCORE.INTER.POLAR>
0

>  <SCORE.INTER.ROT>
5

>  <SCORE.INTER.SOLV>
4.51118

>  <SCORE.INTER.VDW>
-11.9335

>  <SCORE.INTER.norm>
-0.52447

>  <SCORE.INTRA>
-0.521592

>  <SCORE.INTRA.DIHEDRAL>
-0.214509

>  <SCORE.INTRA.DIHEDRAL.0>
2.22229

>  <SCORE.INTRA.POLAR>
0

>  <SCORE.INTRA.POLAR.0>
0

>  <SCORE.INTRA.REPUL>
0

>  <SCORE.INTRA.REPUL.0>
0

>  <SCORE.INTRA.SOLV>
-1.61668

>  <SCORE.INTRA.SOLV.lig_0>
-31.87

>  <SCORE.INTRA.VDW>
0.394001

>  <SCORE.INTRA.VDW.0>
-0.575321

>  <SCORE.INTRA.norm>
-0.0521592

>  <SCORE.RESTR>
0

>  <SCORE.RESTR.CAVITY>
0

>  <SCORE.RESTR.norm>
0

>  <SCORE.SYSTEM>
0

>  <SCORE.SYSTEM.CONST>
0

>  <SCORE.SYSTEM.DIHEDRAL>
0

>  <SCORE.SYSTEM.SOLV>
0

>  <SCORE.SYSTEM.norm>
0

>  <SCORE.heavy>
10

>  <SCORE.norm>
-0.576629

>  <RMSD>
10.662

$$$$
ligand
 OpenBabel11021811463D
libRbt.so/2013.1/901 2013/11/27
 10  9  0  0  0  0  0  0  0  0999 V2000
   34.6713   41.1210   18.1761 N   0  0  0  0  0  0  0  0  0  0  0  0
   33.3344   41.0549   18.7534 C   0  0  2  0  0  0  0  0  0  0  0  0
   32.8904   42.4265   19.2589 C   0  0  0  0  0  0  0  0  0  0  0  0
   32.4449   43.2585   18.4632 O   0  0  0  0  0  0  0  0  0  0  0  0
   33.2783   40.0141   19.8759 C   0  0  0  0  0  0  0  0  0  0  0  0
   33.1414   38.5819   19.3734 C   0  0  0  0  0  0  0  0  0  0  0  0
   34.3594   38.1322   18.5716 C   0  0  0  0  0  0  0  0  0  0  0  0
   34.1789   36.7196   17.9939 C   0  0  0  0  0  0  0  0  0  0  0  0
   35.3752   36.1883   17.2670 N   0  0  0  0  0  0  0  0  0  0  0  0
   32.9517   42.7242   20.4591 O   0  0  0  0  0  0  0  0  0  0  0  0
  2  1  1  1  0  0  0
  2  3  1  0  0  0  0
  2  5  1  0  0  0  0
  3  4  1  0  0  0  0
  3 10  1  0  0  0  0
  5  6  1  0  0  0  0
  6  7  1  0  0  0  0
  7  8  1  0  0  0  0
  8  9  1  0  0  0  0
M  END
>  <CHROM.1>
80.62416291,-80.09272675,64.47647043,-176.44586684,-176.41528750,33.64862021
40.06380714,18.83170213,-2.14323043,-1.02355828,2.87364681

>  <Name>
ligand

>  <RI>
0

>  <Rbt.Current_Directory>
/home/itssahil/PROJECTS/Mol_Feturizer/New_Systems/rnas/3D0U

>  <Rbt.Executable>
rbdock ($Id: //depot/dev/client3/rdock/2013.1/src/exe/rbdock.cxx#4 $)

>  <Rbt.Library>
libRbt.so (2013.1, Build901 2013/11/27)

>  <Rbt.Parameter_File>
/export/apps/rDock/src/rDock_2013.1_src/data/scripts/dock_solv.prm

>  <Rbt.Receptor>
prm/blind_docking_100.prm

>  <SCORE>
-4.08089

>  <SCORE.INTER>
-5.25039

>  <SCORE.INTER.CONST>
1

>  <SCORE.INTER.POLAR>
0

>  <SCORE.INTER.ROT>
5

>  <SCORE.INTER.SOLV>
3.84435

>  <SCORE.INTER.VDW>
-11.715

>  <SCORE.INTER.norm>
-0.525039

>  <SCORE.INTRA>
1.1695

>  <SCORE.INTRA.DIHEDRAL>
0.959505

>  <SCORE.INTRA.DIHEDRAL.0>
2.22229

>  <SCORE.INTRA.POLAR>
0

>  <SCORE.INTRA.POLAR.0>
0

>  <SCORE.INTRA.REPUL>
0

>  <SCORE.INTRA.REPUL.0>
0

>  <SCORE.INTRA.SOLV>
0.323187

>  <SCORE.INTRA.SOLV.lig_0>
-31.87

>  <SCORE.INTRA.VDW>
0.528157

>  <SCORE.INTRA.VDW.0>
-0.575321

>  <SCORE.INTRA.norm>
0.11695

>  <SCORE.RESTR>
0

>  <SCORE.RESTR.CAVITY>
0

>  <SCORE.RESTR.norm>
0

>  <SCORE.SYSTEM>
0

>  <SCORE.SYSTEM.CONST>
0

>  <SCORE.SYSTEM.DIHEDRAL>
0

>  <SCORE.SYSTEM.SOLV>
0

>  <SCORE.SYSTEM.norm>
0

>  <SCORE.heavy>
10

>  <SCORE.norm>
-0.408089

>  <RMSD>
10.683

$$$$
ligand
 OpenBabel11021811463D
libRbt.so/2013.1/901 2013/11/27
 10  9  0  0  0  0  0  0  0  0999 V2000
   15.5091   40.0782   15.6155 N   0  0  0  0  0  0  0  0  0  0  0  0
   16.7981   39.6803   16.1680 C   0  0  2  0  0  0  0  0  0  0  0  0
   17.5798   40.8976   16.6591 C   0  0  0  0  0  0  0  0  0  0  0  0
   18.4123   40.7685   17.5614 O   0  0  0  0  0  0  0  0  0  0  0  0
   17.6096   38.8887   15.1380 C   0  0  0  0  0  0  0  0  0  0  0  0
   16.9369   37.5950   14.6952 C   0  0  0  0  0  0  0  0  0  0  0  0
   16.7447   36.6187   15.8523 C   0  0  0  0  0  0  0  0  0  0  0  0
   16.0294   35.3331   15.4079 C   0  0  0  0  0  0  0  0  0  0  0  0
   15.6600   34.4095   16.5269 N   0  0  0  0  0  0  0  0  0  0  0  0
   17.4104   42.0186   16.1617 O   0  0  0  0  0  0  0  0  0  0  0  0
  2  1  1  6  0  0  0
  2  3  1  0  0  0  0
  2  5  1  0  0  0  0
  3  4  1  0  0  0  0
  3 10  1  0  0  0  0
  5  6  1  0  0  0  0
  6  7  1  0  0  0  0
  7  8  1  0  0  0  0
  8  9  1  0  0  0  0
M  END
>  <CHROM.1>
153.35632877,-61.35805768,-62.06104788,178.34815230,-172.79751118,16.88889235
38.66658382,15.99218158,1.16088388,-0.92926496,-0.21010078

>  <Name>
ligand

>  <RI>
0

>  <Rbt.Current_Directory>
/home/itssahil/PROJECTS/Mol_Feturizer/New_Systems/rnas/3D0U

>  <Rbt.Executable>
rbdock ($Id: //depot/dev/client3/rdock/2013.1/src/exe/rbdock.cxx#4 $)

>  <Rbt.Library>
libRbt.so (2013.1, Build901 2013/11/27)

>  <Rbt.Parameter_File>
/export/apps/rDock/src/rDock_2013.1_src/data/scripts/dock_solv.prm

>  <Rbt.Receptor>
prm/blind_docking_80.prm

>  <SCORE>
-2.81865

>  <SCORE.INTER>
-2.5359

>  <SCORE.INTER.CONST>
1

>  <SCORE.INTER.POLAR>
0

>  <SCORE.INTER.ROT>
5

>  <SCORE.INTER.SOLV>
6.43995

>  <SCORE.INTER.VDW>
-10.7706

>  <SCORE.INTER.norm>
-0.25359

>  <SCORE.INTRA>
-0.282754

>  <SCORE.INTRA.DIHEDRAL>
-0.543136

>  <SCORE.INTRA.DIHEDRAL.0>
2.22229

>  <SCORE.INTRA.POLAR>
0

>  <SCORE.INTRA.POLAR.0>
0

>  <SCORE.INTRA.REPUL>
0

>  <SCORE.INTRA.REPUL.0>
0

>  <SCORE.INTRA.SOLV>
-0.173797

>  <SCORE.INTRA.SOLV.lig_0>
-31.87

>  <SCORE.INTRA.VDW>
0.075713

>  <SCORE.INTRA.VDW.0>
-0.575321

>  <SCORE.INTRA.norm>
-0.0282754

>  <SCORE.RESTR>
0

>  <SCORE.RESTR.CAVITY>
0

>  <SCORE.RESTR.norm>
0

>  <SCORE.SYSTEM>
0

>  <SCORE.SYSTEM.CONST>
0

>  <SCORE.SYSTEM.DIHEDRAL>
0

>  <SCORE.SYSTEM.SOLV>
0

>  <SCORE.SYSTEM.norm>
0

>  <SCORE.heavy>
10

>  <SCORE.norm>
-0.281865

>  <RMSD>
10.689

$$$$
ligand
 OpenBabel11021811463D
libRbt.so/2013.1/901 2013/11/27
 10  9  0  0  0  0  0  0  0  0999 V2000
   34.5116   41.9364   17.6339 N   0  0  0  0  0  0  0  0  0  0  0  0
   33.4776   41.7532   18.6451 C   0  0  2  0  0  0  0  0  0  0  0  0
   32.8913   43.0968   19.0748 C   0  0  0  0  0  0  0  0  0  0  0  0
   33.5795   44.1188   18.9980 O   0  0  0  0  0  0  0  0  0  0  0  0
   34.0273   40.9857   19.8513 C   0  0  0  0  0  0  0  0  0  0  0  0
   34.5432   39.5941   19.5053 C   0  0  0  0  0  0  0  0  0  0  0  0
   33.4418   38.6885   18.9617 C   0  0  0  0  0  0  0  0  0  0  0  0
   33.9781   37.3038   18.5656 C   0  0  0  0  0  0  0  0  0  0  0  0
   34.9433   37.3158   17.4211 N   0  0  0  0  0  0  0  0  0  0  0  0
   31.7282   43.1924   19.4881 O   0  0  0  0  0  0  0  0  0  0  0  0
  2  1  1  6  0  0  0
  2  3  1  0  0  0  0
  2  5  1  0  0  0  0
  3  4  1  0  0  0  0
  3 10  1  0  0  0  0
  5  6  1  0  0  0  0
  6  7  1  0  0  0  0
  7  8  1  0  0  0  0
  8  9  1  0  0  0  0
M  END
>  <CHROM.1>
-27.39914094,-60.28129010,-62.34622545,177.87411680,-65.25932538,33.69571231
40.83910658,18.82431588,-1.89763187,-0.72791596,3.05156496

>  <Name>
ligand

>  <RI>
0

>  <Rbt.Current_Directory>
/home/itssahil/PROJECTS/Mol_Feturizer/New_Systems/rnas/3D0U

>  <Rbt.Executable>
rbdock ($Id: //depot/dev/client3/rdock/2013.1/src/exe/rbdock.cxx#4 $)

>  <Rbt.Library>
libRbt.so (2013.1, Build901 2013/11/27)

>  <Rbt.Parameter_File>
/export/apps/rDock/src/rDock_2013.1_src/data/scripts/dock_solv.prm

>  <Rbt.Receptor>
prm/blind_docking_100.prm

>  <SCORE>
-5.8732

>  <SCORE.INTER>
-6.02118

>  <SCORE.INTER.CONST>
1

>  <SCORE.INTER.POLAR>
0

>  <SCORE.INTER.ROT>
5

>  <SCORE.INTER.SOLV>
5.00712

>  <SCORE.INTER.VDW>
-12.6165

>  <SCORE.INTER.norm>
-0.602118

>  <SCORE.INTRA>
0.147983

>  <SCORE.INTRA.DIHEDRAL>
-0.567195

>  <SCORE.INTRA.DIHEDRAL.0>
2.22229

>  <SCORE.INTRA.POLAR>
0

>  <SCORE.INTRA.POLAR.0>
0

>  <SCORE.INTRA.REPUL>
0

>  <SCORE.INTRA.REPUL.0>
0

>  <SCORE.INTRA.SOLV>
0.678568

>  <SCORE.INTRA.SOLV.lig_0>
-31.87

>  <SCORE.INTRA.VDW>
0.0922969

>  <SCORE.INTRA.VDW.0>
-0.575321

>  <SCORE.INTRA.norm>
0.0147983

>  <SCORE.RESTR>
0

>  <SCORE.RESTR.CAVITY>
0

>  <SCORE.RESTR.norm>
0

>  <SCORE.SYSTEM>
0

>  <SCORE.SYSTEM.CONST>
0

>  <SCORE.SYSTEM.DIHEDRAL>
0

>  <SCORE.SYSTEM.SOLV>
0

>  <SCORE.SYSTEM.norm>
0

>  <SCORE.heavy>
10

>  <SCORE.norm>
-0.58732

>  <RMSD>
10.697

$$$$
ligand
 OpenBabel11021811463D
libRbt.so/2013.1/901 2013/11/27
 10  9  0  0  0  0  0  0  0  0999 V2000
   34.9436   42.8800   16.9148 N   0  0  0  0  0  0  0  0  0  0  0  0
   33.9187   42.4728   17.8681 C   0  0  2  0  0  0  0  0  0  0  0  0
   33.5724   43.6178   18.8183 C   0  0  0  0  0  0  0  0  0  0  0  0
   32.5703   43.5383   19.5348 O   0  0  0  0  0  0  0  0  0  0  0  0
   34.3640   41.2315   18.6473 C   0  0  0  0  0  0  0  0  0  0  0  0
   33.2840   40.6649   19.5610 C   0  0  0  0  0  0  0  0  0  0  0  0
   33.5947   39.2390   20.0073 C   0  0  0  0  0  0  0  0  0  0  0  0
   32.4444   38.6273   20.8224 C   0  0  0  0  0  0  0  0  0  0  0  0
   32.6408   37.1897   21.1917 N   0  0  0  0  0  0  0  0  0  0  0  0
   34.2847   44.6271   18.9014 O   0  0  0  0  0  0  0  0  0  0  0  0
  2  1  1  6  0  0  0
  2  3  1  0  0  0  0
  2  5  1  0  0  0  0
  3  4  1  0  0  0  0
  3 10  1  0  0  0  0
  5  6  1  0  0  0  0
  6  7  1  0  0  0  0
  7  8  1  0  0  0  0
  8  9  1  0  0  0  0
M  END
>  <CHROM.1>
167.34013637,-174.08625608,163.58041450,-174.80921564,175.12934388,33.55522759
41.44483153,19.24205921,-1.24495892,-0.89639518,2.98872195

>  <Name>
ligand

>  <RI>
0

>  <Rbt.Current_Directory>
/home/itssahil/PROJECTS/Mol_Feturizer/New_Systems/rnas/3D0U

>  <Rbt.Executable>
rbdock ($Id: //depot/dev/client3/rdock/2013.1/src/exe/rbdock.cxx#4 $)

>  <Rbt.Library>
libRbt.so (2013.1, Build901 2013/11/27)

>  <Rbt.Parameter_File>
/export/apps/rDock/src/rDock_2013.1_src/data/scripts/dock_solv.prm

>  <Rbt.Receptor>
prm/blind_docking_100.prm

>  <SCORE>
-4.34348

>  <SCORE.INTER>
-3.95005

>  <SCORE.INTER.CONST>
1

>  <SCORE.INTER.POLAR>
0

>  <SCORE.INTER.ROT>
5

>  <SCORE.INTER.SOLV>
10.0753

>  <SCORE.INTER.VDW>
-12.9251

>  <SCORE.INTER.norm>
-0.395005

>  <SCORE.INTRA>
-0.393426

>  <SCORE.INTRA.DIHEDRAL>
0.626711

>  <SCORE.INTRA.DIHEDRAL.0>
2.22229

>  <SCORE.INTRA.POLAR>
0

>  <SCORE.INTRA.POLAR.0>
0

>  <SCORE.INTRA.REPUL>
0

>  <SCORE.INTRA.REPUL.0>
0

>  <SCORE.INTRA.SOLV>
-1.59761

>  <SCORE.INTRA.SOLV.lig_0>
-31.87

>  <SCORE.INTRA.VDW>
0.0920253

>  <SCORE.INTRA.VDW.0>
-0.575321

>  <SCORE.INTRA.norm>
-0.0393426

>  <SCORE.RESTR>
0

>  <SCORE.RESTR.CAVITY>
0

>  <SCORE.RESTR.norm>
0

>  <SCORE.SYSTEM>
0

>  <SCORE.SYSTEM.CONST>
0

>  <SCORE.SYSTEM.DIHEDRAL>
0

>  <SCORE.SYSTEM.SOLV>
0

>  <SCORE.SYSTEM.norm>
0

>  <SCORE.heavy>
10

>  <SCORE.norm>
-0.434348

>  <RMSD>
10.757

$$$$
ligand
 OpenBabel11021811463D
libRbt.so/2013.1/901 2013/11/27
 10  9  0  0  0  0  0  0  0  0999 V2000
   16.4635   42.6802   16.5200 N   0  0  0  0  0  0  0  0  0  0  0  0
   16.5741   41.6305   15.5144 C   0  0  2  0  0  0  0  0  0  0  0  0
   15.2122   40.9969   15.2358 C   0  0  0  0  0  0  0  0  0  0  0  0
   15.1190   40.0803   14.4141 O   0  0  0  0  0  0  0  0  0  0  0  0
   17.5924   40.5705   15.9455 C   0  0  0  0  0  0  0  0  0  0  0  0
   18.0096   39.6321   14.8196 C   0  0  0  0  0  0  0  0  0  0  0  0
   18.1081   38.1815   15.2835 C   0  0  0  0  0  0  0  0  0  0  0  0
   16.7257   37.5721   15.5651 C   0  0  0  0  0  0  0  0  0  0  0  0
   16.7592   36.1616   16.0663 N   0  0  0  0  0  0  0  0  0  0  0  0
   14.1916   41.3708   15.8285 O   0  0  0  0  0  0  0  0  0  0  0  0
  2  1  1  1  0  0  0
  2  3  1  0  0  0  0
  2  5  1  0  0  0  0
  3  4  1  0  0  0  0
  3 10  1  0  0  0  0
  5  6  1  0  0  0  0
  6  7  1  0  0  0  0
  7  8  1  0  0  0  0
  8  9  1  0  0  0  0
M  END
>  <CHROM.1>
-179.50935532,-166.12510118,-138.44170127,71.01324248,-178.14687952,16.44194874
39.88293723,15.51201732,-1.93214269,0.08183838,-3.07325229

>  <Name>
ligand

>  <RI>
0

>  <Rbt.Current_Directory>
/home/itssahil/PROJECTS/Mol_Feturizer/New_Systems/rnas/3D0U

>  <Rbt.Executable>
rbdock ($Id: //depot/dev/client3/rdock/2013.1/src/exe/rbdock.cxx#4 $)

>  <Rbt.Library>
libRbt.so (2013.1, Build901 2013/11/27)

>  <Rbt.Parameter_File>
/export/apps/rDock/src/rDock_2013.1_src/data/scripts/dock_solv.prm

>  <Rbt.Receptor>
prm/blind_docking_80.prm

>  <SCORE>
-0.28363

>  <SCORE.INTER>
-2.42907

>  <SCORE.INTER.CONST>
1

>  <SCORE.INTER.POLAR>
0

>  <SCORE.INTER.ROT>
5

>  <SCORE.INTER.SOLV>
11.2576

>  <SCORE.INTER.VDW>
-12.3052

>  <SCORE.INTER.norm>
-0.242907

>  <SCORE.INTRA>
2.14544

>  <SCORE.INTRA.DIHEDRAL>
5.27328

>  <SCORE.INTRA.DIHEDRAL.0>
2.22229

>  <SCORE.INTRA.POLAR>
0

>  <SCORE.INTRA.POLAR.0>
0

>  <SCORE.INTRA.REPUL>
0

>  <SCORE.INTRA.REPUL.0>
0

>  <SCORE.INTRA.SOLV>
-1.37335

>  <SCORE.INTRA.SOLV.lig_0>
-31.87

>  <SCORE.INTRA.VDW>
0.19548

>  <SCORE.INTRA.VDW.0>
-0.575321

>  <SCORE.INTRA.norm>
0.214544

>  <SCORE.RESTR>
0

>  <SCORE.RESTR.CAVITY>
0

>  <SCORE.RESTR.norm>
0

>  <SCORE.SYSTEM>
0

>  <SCORE.SYSTEM.CONST>
0

>  <SCORE.SYSTEM.DIHEDRAL>
0

>  <SCORE.SYSTEM.SOLV>
0

>  <SCORE.SYSTEM.norm>
0

>  <SCORE.heavy>
10

>  <SCORE.norm>
-0.028363

>  <RMSD>
10.759

$$$$
ligand
 OpenBabel11021811463D
libRbt.so/2013.1/901 2013/11/27
 10  9  0  0  0  0  0  0  0  0999 V2000
   33.5120   36.9671   19.4736 N   0  0  0  0  0  0  0  0  0  0  0  0
   33.8146   38.1830   18.7285 C   0  0  2  0  0  0  0  0  0  0  0  0
   35.2741   38.1970   18.2776 C   0  0  0  0  0  0  0  0  0  0  0  0
   36.1548   37.7851   19.0383 O   0  0  0  0  0  0  0  0  0  0  0  0
   33.4878   39.4261   19.5617 C   0  0  0  0  0  0  0  0  0  0  0  0
   33.5222   40.7228   18.7619 C   0  0  0  0  0  0  0  0  0  0  0  0
   33.2511   41.9461   19.6331 C   0  0  0  0  0  0  0  0  0  0  0  0
   33.0240   43.2125   18.7926 C   0  0  0  0  0  0  0  0  0  0  0  0
   34.1316   43.5302   17.8366 N   0  0  0  0  0  0  0  0  0  0  0  0
   35.5998   38.6002   17.1532 O   0  0  0  0  0  0  0  0  0  0  0  0
  2  1  1  1  0  0  0
  2  3  1  0  0  0  0
  2  5  1  0  0  0  0
  3  4  1  0  0  0  0
  3 10  1  0  0  0  0
  5  6  1  0  0  0  0
  6  7  1  0  0  0  0
  7  8  1  0  0  0  0
  8  9  1  0  0  0  0
M  END
>  <CHROM.1>
-39.85692549,-168.86618249,-177.56414514,-169.23615793,-55.21660606,34.21175245
39.84604726,18.71449098,1.22070041,-0.64241157,2.92052473

>  <Name>
ligand

>  <RI>
0

>  <Rbt.Current_Directory>
/home/itssahil/PROJECTS/Mol_Feturizer/New_Systems/rnas/3D0U

>  <Rbt.Executable>
rbdock ($Id: //depot/dev/client3/rdock/2013.1/src/exe/rbdock.cxx#4 $)

>  <Rbt.Library>
libRbt.so (2013.1, Build901 2013/11/27)

>  <Rbt.Parameter_File>
/export/apps/rDock/src/rDock_2013.1_src/data/scripts/dock_solv.prm

>  <Rbt.Receptor>
prm/blind_docking_100.prm

>  <SCORE>
-4.96487

>  <SCORE.INTER>
-4.56184

>  <SCORE.INTER.CONST>
1

>  <SCORE.INTER.POLAR>
0

>  <SCORE.INTER.ROT>
5

>  <SCORE.INTER.SOLV>
6.88657

>  <SCORE.INTER.VDW>
-12.2701

>  <SCORE.INTER.norm>
-0.456184

>  <SCORE.INTRA>
-0.40303

>  <SCORE.INTRA.DIHEDRAL>
0.326299

>  <SCORE.INTRA.DIHEDRAL.0>
2.22229

>  <SCORE.INTRA.POLAR>
0

>  <SCORE.INTRA.POLAR.0>
0

>  <SCORE.INTRA.REPUL>
0

>  <SCORE.INTRA.REPUL.0>
0

>  <SCORE.INTRA.SOLV>
-0.682736

>  <SCORE.INTRA.SOLV.lig_0>
-31.87

>  <SCORE.INTRA.VDW>
-0.224811

>  <SCORE.INTRA.VDW.0>
-0.575321

>  <SCORE.INTRA.norm>
-0.040303

>  <SCORE.RESTR>
0

>  <SCORE.RESTR.CAVITY>
0

>  <SCORE.RESTR.norm>
0

>  <SCORE.SYSTEM>
0

>  <SCORE.SYSTEM.CONST>
0

>  <SCORE.SYSTEM.DIHEDRAL>
0

>  <SCORE.SYSTEM.SOLV>
0

>  <SCORE.SYSTEM.norm>
0

>  <SCORE.heavy>
10

>  <SCORE.norm>
-0.496487

>  <RMSD>
10.792

$$$$
ligand
 OpenBabel11021811463D
libRbt.so/2013.1/901 2013/11/27
 10  9  0  0  0  0  0  0  0  0999 V2000
   35.2047   42.8645   17.0830 N   0  0  0  0  0  0  0  0  0  0  0  0
   34.0860   42.4582   17.9249 C   0  0  2  0  0  0  0  0  0  0  0  0
   33.6115   43.6185   18.7981 C   0  0  0  0  0  0  0  0  0  0  0  0
   32.5548   43.5192   19.4285 O   0  0  0  0  0  0  0  0  0  0  0  0
   34.4639   41.2470   18.7831 C   0  0  0  0  0  0  0  0  0  0  0  0
   33.2925   40.6631   19.5635 C   0  0  0  0  0  0  0  0  0  0  0  0
   33.6331   39.3160   20.1946 C   0  0  0  0  0  0  0  0  0  0  0  0
   32.3994   38.6436   20.8172 C   0  0  0  0  0  0  0  0  0  0  0  0
   32.6394   37.2567   21.3278 N   0  0  0  0  0  0  0  0  0  0  0  0
   34.2719   44.6604   18.9039 O   0  0  0  0  0  0  0  0  0  0  0  0
  2  1  1  1  0  0  0
  2  3  1  0  0  0  0
  2  5  1  0  0  0  0
  3  4  1  0  0  0  0
  3 10  1  0  0  0  0
  5  6  1  0  0  0  0
  6  7  1  0  0  0  0
  7  8  1  0  0  0  0
  8  9  1  0  0  0  0
M  END
>  <CHROM.1>
169.40240711,-173.00141586,169.21037290,-172.28442804,174.01872977,33.60667072
41.46089589,19.29585334,-1.26034395,-0.79016461,2.94058579

>  <Name>
ligand

>  <RI>
0

>  <Rbt.Current_Directory>
/home/itssahil/PROJECTS/Mol_Feturizer/New_Systems/rnas/3D0U

>  <Rbt.Executable>
rbdock ($Id: //depot/dev/client3/rdock/2013.1/src/exe/rbdock.cxx#4 $)

>  <Rbt.Library>
libRbt.so (2013.1, Build901 2013/11/27)

>  <Rbt.Parameter_File>
/export/apps/rDock/src/rDock_2013.1_src/data/scripts/dock_solv.prm

>  <Rbt.Receptor>
prm/blind_docking_100.prm

>  <SCORE>
-4.32574

>  <SCORE.INTER>
-3.7682

>  <SCORE.INTER.CONST>
1

>  <SCORE.INTER.POLAR>
0

>  <SCORE.INTER.ROT>
5

>  <SCORE.INTER.SOLV>
9.9977

>  <SCORE.INTER.VDW>
-12.778

>  <SCORE.INTER.norm>
-0.37682

>  <SCORE.INTRA>
-0.557536

>  <SCORE.INTRA.DIHEDRAL>
0.273775

>  <SCORE.INTRA.DIHEDRAL.0>
2.22229

>  <SCORE.INTRA.POLAR>
0

>  <SCORE.INTRA.POLAR.0>
0

>  <SCORE.INTRA.REPUL>
0

>  <SCORE.INTRA.REPUL.0>
0

>  <SCORE.INTRA.SOLV>
-1.59569

>  <SCORE.INTRA.SOLV.lig_0>
-31.87

>  <SCORE.INTRA.VDW>
0.103421

>  <SCORE.INTRA.VDW.0>
-0.575321

>  <SCORE.INTRA.norm>
-0.0557536

>  <SCORE.RESTR>
0

>  <SCORE.RESTR.CAVITY>
0

>  <SCORE.RESTR.norm>
0

>  <SCORE.SYSTEM>
0

>  <SCORE.SYSTEM.CONST>
0

>  <SCORE.SYSTEM.DIHEDRAL>
0

>  <SCORE.SYSTEM.SOLV>
0

>  <SCORE.SYSTEM.norm>
0

>  <SCORE.heavy>
10

>  <SCORE.norm>
-0.432574

>  <RMSD>
10.798

$$$$
ligand
 OpenBabel11021811463D
libRbt.so/2013.1/901 2013/11/27
 10  9  0  0  0  0  0  0  0  0999 V2000
   34.5351   39.1316   18.1868 N   0  0  0  0  0  0  0  0  0  0  0  0
   34.6864   40.2791   19.0730 C   0  0  2  0  0  0  0  0  0  0  0  0
   34.2152   39.9420   20.4865 C   0  0  0  0  0  0  0  0  0  0  0  0
   33.2208   39.2285   20.6475 O   0  0  0  0  0  0  0  0  0  0  0  0
   33.9347   41.4943   18.5213 C   0  0  0  0  0  0  0  0  0  0  0  0
   34.3988   41.9204   17.1337 C   0  0  0  0  0  0  0  0  0  0  0  0
   35.8314   42.4464   17.1402 C   0  0  0  0  0  0  0  0  0  0  0  0
   35.9481   43.7895   17.8779 C   0  0  0  0  0  0  0  0  0  0  0  0
   35.1328   44.8966   17.2852 N   0  0  0  0  0  0  0  0  0  0  0  0
   34.8181   40.3566   21.4853 O   0  0  0  0  0  0  0  0  0  0  0  0
  2  1  1  6  0  0  0
  2  3  1  0  0  0  0
  2  5  1  0  0  0  0
  3  4  1  0  0  0  0
  3 10  1  0  0  0  0
  5  6  1  0  0  0  0
  6  7  1  0  0  0  0
  7  8  1  0  0  0  0
  8  9  1  0  0  0  0
M  END
>  <CHROM.1>
-38.26938079,-58.80868456,-66.35241663,-68.72429364,-60.66480131,34.66027305
41.33253511,18.82146608,2.59577729,1.27141866,1.49040169

>  <Name>
ligand

>  <RI>
0

>  <Rbt.Current_Directory>
/home/itssahil/PROJECTS/Mol_Feturizer/New_Systems/rnas/3D0U

>  <Rbt.Executable>
rbdock ($Id: //depot/dev/client3/rdock/2013.1/src/exe/rbdock.cxx#4 $)

>  <Rbt.Library>
libRbt.so (2013.1, Build901 2013/11/27)

>  <Rbt.Parameter_File>
/export/apps/rDock/src/rDock_2013.1_src/data/scripts/dock_solv.prm

>  <Rbt.Receptor>
prm/blind_docking_100.prm

>  <SCORE>
-3.50535

>  <SCORE.INTER>
-4.4651

>  <SCORE.INTER.CONST>
1

>  <SCORE.INTER.POLAR>
0

>  <SCORE.INTER.ROT>
5

>  <SCORE.INTER.SOLV>
4.65344

>  <SCORE.INTER.VDW>
-11.4612

>  <SCORE.INTER.norm>
-0.44651

>  <SCORE.INTRA>
0.959742

>  <SCORE.INTRA.DIHEDRAL>
-0.230823

>  <SCORE.INTRA.DIHEDRAL.0>
2.22229

>  <SCORE.INTRA.POLAR>
0

>  <SCORE.INTRA.POLAR.0>
0

>  <SCORE.INTRA.REPUL>
0

>  <SCORE.INTRA.REPUL.0>
0

>  <SCORE.INTRA.SOLV>
1.24228

>  <SCORE.INTRA.SOLV.lig_0>
-31.87

>  <SCORE.INTRA.VDW>
0.454015

>  <SCORE.INTRA.VDW.0>
-0.575321

>  <SCORE.INTRA.norm>
0.0959742

>  <SCORE.RESTR>
0

>  <SCORE.RESTR.CAVITY>
0

>  <SCORE.RESTR.norm>
0

>  <SCORE.SYSTEM>
0

>  <SCORE.SYSTEM.CONST>
0

>  <SCORE.SYSTEM.DIHEDRAL>
0

>  <SCORE.SYSTEM.SOLV>
0

>  <SCORE.SYSTEM.norm>
0

>  <SCORE.heavy>
10

>  <SCORE.norm>
-0.350535

>  <RMSD>
10.807

$$$$
ligand
 OpenBabel11021811463D
libRbt.so/2013.1/901 2013/11/27
 10  9  0  0  0  0  0  0  0  0999 V2000
   16.9432   41.0436   15.5899 N   0  0  0  0  0  0  0  0  0  0  0  0
   17.1657   39.6042   15.6510 C   0  0  2  0  0  0  0  0  0  0  0  0
   18.6592   39.2829   15.6458 C   0  0  0  0  0  0  0  0  0  0  0  0
   19.0848   38.3356   16.3132 O   0  0  0  0  0  0  0  0  0  0  0  0
   16.4498   38.8946   14.4976 C   0  0  0  0  0  0  0  0  0  0  0  0
   16.6224   37.3805   14.5120 C   0  0  0  0  0  0  0  0  0  0  0  0
   15.9796   36.7376   15.7377 C   0  0  0  0  0  0  0  0  0  0  0  0
   16.1746   35.2133   15.7572 C   0  0  0  0  0  0  0  0  0  0  0  0
   15.5069   34.5164   16.9019 N   0  0  0  0  0  0  0  0  0  0  0  0
   19.4605   39.9437   14.9720 O   0  0  0  0  0  0  0  0  0  0  0  0
  2  1  1  6  0  0  0
  2  3  1  0  0  0  0
  2  5  1  0  0  0  0
  3  4  1  0  0  0  0
  3 10  1  0  0  0  0
  5  6  1  0  0  0  0
  6  7  1  0  0  0  0
  7  8  1  0  0  0  0
  8  9  1  0  0  0  0
M  END
>  <CHROM.1>
143.97565875,-179.10488659,64.57447157,-179.16608776,-177.11104340,17.24226988
38.09679189,15.55809490,1.07699066,-0.24059296,-0.28356533

>  <Name>
ligand

>  <RI>
0

>  <Rbt.Current_Directory>
/home/itssahil/PROJECTS/Mol_Feturizer/New_Systems/rnas/3D0U

>  <Rbt.Executable>
rbdock ($Id: //depot/dev/client3/rdock/2013.1/src/exe/rbdock.cxx#4 $)

>  <Rbt.Library>
libRbt.so (2013.1, Build901 2013/11/27)

>  <Rbt.Parameter_File>
/export/apps/rDock/src/rDock_2013.1_src/data/scripts/dock_solv.prm

>  <Rbt.Receptor>
prm/blind_docking_80.prm

>  <SCORE>
-3.30256

>  <SCORE.INTER>
-2.24866

>  <SCORE.INTER.CONST>
1

>  <SCORE.INTER.POLAR>
0

>  <SCORE.INTER.ROT>
5

>  <SCORE.INTER.SOLV>
7.38448

>  <SCORE.INTER.VDW>
-10.8939

>  <SCORE.INTER.norm>
-0.224866

>  <SCORE.INTRA>
-1.0539

>  <SCORE.INTRA.DIHEDRAL>
-0.650804

>  <SCORE.INTRA.DIHEDRAL.0>
2.22229

>  <SCORE.INTRA.POLAR>
0

>  <SCORE.INTRA.POLAR.0>
0

>  <SCORE.INTRA.REPUL>
0

>  <SCORE.INTRA.REPUL.0>
0

>  <SCORE.INTRA.SOLV>
-1.37092

>  <SCORE.INTRA.SOLV.lig_0>
-31.87

>  <SCORE.INTRA.VDW>
-0.0430385

>  <SCORE.INTRA.VDW.0>
-0.575321

>  <SCORE.INTRA.norm>
-0.10539

>  <SCORE.RESTR>
0

>  <SCORE.RESTR.CAVITY>
0

>  <SCORE.RESTR.norm>
0

>  <SCORE.SYSTEM>
0

>  <SCORE.SYSTEM.CONST>
0

>  <SCORE.SYSTEM.DIHEDRAL>
0

>  <SCORE.SYSTEM.SOLV>
0

>  <SCORE.SYSTEM.norm>
0

>  <SCORE.heavy>
10

>  <SCORE.norm>
-0.330256

>  <RMSD>
10.810

$$$$
ligand
 OpenBabel11021811463D
libRbt.so/2013.1/901 2013/11/27
 10  9  0  0  0  0  0  0  0  0999 V2000
   34.5242   38.0344   18.7175 N   0  0  0  0  0  0  0  0  0  0  0  0
   34.9421   39.3568   19.1667 C   0  0  2  0  0  0  0  0  0  0  0  0
   34.2371   39.7389   20.4669 C   0  0  0  0  0  0  0  0  0  0  0  0
   33.0543   39.4288   20.6371 O   0  0  0  0  0  0  0  0  0  0  0  0
   34.6886   40.4051   18.0789 C   0  0  0  0  0  0  0  0  0  0  0  0
   35.2448   41.7827   18.4180 C   0  0  0  0  0  0  0  0  0  0  0  0
   34.9194   42.8172   17.3443 C   0  0  0  0  0  0  0  0  0  0  0  0
   35.4577   44.2106   17.7054 C   0  0  0  0  0  0  0  0  0  0  0  0
   35.1211   45.2822   16.7154 N   0  0  0  0  0  0  0  0  0  0  0  0
   34.8295   40.3438   21.3702 O   0  0  0  0  0  0  0  0  0  0  0  0
  2  1  1  6  0  0  0
  2  3  1  0  0  0  0
  2  5  1  0  0  0  0
  3  4  1  0  0  0  0
  3 10  1  0  0  0  0
  5  6  1  0  0  0  0
  6  7  1  0  0  0  0
  7  8  1  0  0  0  0
  8  9  1  0  0  0  0
M  END
>  <CHROM.1>
-38.19729273,-173.49374899,-177.35585093,178.82449035,-177.63224659,34.68552705
41.13760127,18.89715158,-2.55179081,1.36044308,0.44981639

>  <Name>
ligand

>  <RI>
0

>  <Rbt.Current_Directory>
/home/itssahil/PROJECTS/Mol_Feturizer/New_Systems/rnas/3D0U

>  <Rbt.Executable>
rbdock ($Id: //depot/dev/client3/rdock/2013.1/src/exe/rbdock.cxx#4 $)

>  <Rbt.Library>
libRbt.so (2013.1, Build901 2013/11/27)

>  <Rbt.Parameter_File>
/export/apps/rDock/src/rDock_2013.1_src/data/scripts/dock_solv.prm

>  <Rbt.Receptor>
prm/blind_docking_100.prm

>  <SCORE>
-5.27948

>  <SCORE.INTER>
-3.95325

>  <SCORE.INTER.CONST>
1

>  <SCORE.INTER.POLAR>
0

>  <SCORE.INTER.ROT>
5

>  <SCORE.INTER.SOLV>
3.70096

>  <SCORE.INTER.VDW>
-10.8025

>  <SCORE.INTER.norm>
-0.395325

>  <SCORE.INTRA>
-1.32623

>  <SCORE.INTRA.DIHEDRAL>
-0.505638

>  <SCORE.INTRA.DIHEDRAL.0>
2.22229

>  <SCORE.INTRA.POLAR>
0

>  <SCORE.INTRA.POLAR.0>
0

>  <SCORE.INTRA.REPUL>
0

>  <SCORE.INTRA.REPUL.0>
0

>  <SCORE.INTRA.SOLV>
-1.59525

>  <SCORE.INTRA.SOLV.lig_0>
-31.87

>  <SCORE.INTRA.VDW>
-0.275782

>  <SCORE.INTRA.VDW.0>
-0.575321

>  <SCORE.INTRA.norm>
-0.132623

>  <SCORE.RESTR>
0

>  <SCORE.RESTR.CAVITY>
0

>  <SCORE.RESTR.norm>
0

>  <SCORE.SYSTEM>
0

>  <SCORE.SYSTEM.CONST>
0

>  <SCORE.SYSTEM.DIHEDRAL>
0

>  <SCORE.SYSTEM.SOLV>
0

>  <SCORE.SYSTEM.norm>
0

>  <SCORE.heavy>
10

>  <SCORE.norm>
-0.527948

>  <RMSD>
10.859

$$$$
ligand
 OpenBabel11021811463D
libRbt.so/2013.1/901 2013/11/27
 10  9  0  0  0  0  0  0  0  0999 V2000
   35.4281   43.0879   16.9241 N   0  0  0  0  0  0  0  0  0  0  0  0
   34.3280   42.1579   17.1481 C   0  0  2  0  0  0  0  0  0  0  0  0
   32.9953   42.8999   17.2320 C   0  0  0  0  0  0  0  0  0  0  0  0
   32.6595   43.4394   18.2903 O   0  0  0  0  0  0  0  0  0  0  0  0
   34.5700   41.3243   18.4102 C   0  0  0  0  0  0  0  0  0  0  0  0
   33.4964   40.2725   18.6616 C   0  0  0  0  0  0  0  0  0  0  0  0
   33.6903   39.5565   19.9953 C   0  0  0  0  0  0  0  0  0  0  0  0
   32.5635   38.5503   20.2778 C   0  0  0  0  0  0  0  0  0  0  0  0
   32.6741   37.8479   21.5954 N   0  0  0  0  0  0  0  0  0  0  0  0
   32.2421   42.9890   16.2534 O   0  0  0  0  0  0  0  0  0  0  0  0
  2  1  1  1  0  0  0
  2  3  1  0  0  0  0
  2  5  1  0  0  0  0
  3  4  1  0  0  0  0
  3 10  1  0  0  0  0
  5  6  1  0  0  0  0
  6  7  1  0  0  0  0
  7  8  1  0  0  0  0
  8  9  1  0  0  0  0
M  END
>  <CHROM.1>
-81.56372614,-176.64880506,-174.25576865,176.95735769,-178.06681851,33.43676324
41.23786896,18.47216817,-1.46113759,-0.10142804,2.46632233

>  <Name>
ligand

>  <RI>
0

>  <Rbt.Current_Directory>
/home/itssahil/PROJECTS/Mol_Feturizer/New_Systems/rnas/3D0U

>  <Rbt.Executable>
rbdock ($Id: //depot/dev/client3/rdock/2013.1/src/exe/rbdock.cxx#4 $)

>  <Rbt.Library>
libRbt.so (2013.1, Build901 2013/11/27)

>  <Rbt.Parameter_File>
/export/apps/rDock/src/rDock_2013.1_src/data/scripts/dock_solv.prm

>  <Rbt.Receptor>
prm/blind_docking_60.prm

>  <SCORE>
-4.91366

>  <SCORE.INTER>
-3.92927

>  <SCORE.INTER.CONST>
1

>  <SCORE.INTER.POLAR>
0

>  <SCORE.INTER.ROT>
5

>  <SCORE.INTER.SOLV>
10.977

>  <SCORE.INTER.VDW>
-13.2118

>  <SCORE.INTER.norm>
-0.392927

>  <SCORE.INTRA>
-0.984392

>  <SCORE.INTRA.DIHEDRAL>
-0.545036

>  <SCORE.INTRA.DIHEDRAL.0>
2.22229

>  <SCORE.INTRA.POLAR>
0

>  <SCORE.INTRA.POLAR.0>
0

>  <SCORE.INTRA.REPUL>
0

>  <SCORE.INTRA.REPUL.0>
0

>  <SCORE.INTRA.SOLV>
-1.61675

>  <SCORE.INTRA.SOLV.lig_0>
-31.87

>  <SCORE.INTRA.VDW>
0.0964997

>  <SCORE.INTRA.VDW.0>
-0.575321

>  <SCORE.INTRA.norm>
-0.0984392

>  <SCORE.RESTR>
0

>  <SCORE.RESTR.CAVITY>
0

>  <SCORE.RESTR.norm>
0

>  <SCORE.SYSTEM>
0

>  <SCORE.SYSTEM.CONST>
0

>  <SCORE.SYSTEM.DIHEDRAL>
0

>  <SCORE.SYSTEM.SOLV>
0

>  <SCORE.SYSTEM.norm>
0

>  <SCORE.heavy>
10

>  <SCORE.norm>
-0.491366

>  <RMSD>
10.869

$$$$
ligand
 OpenBabel11021811463D
libRbt.so/2013.1/901 2013/11/27
 10  9  0  0  0  0  0  0  0  0999 V2000
   15.3071   39.9145   15.9955 N   0  0  0  0  0  0  0  0  0  0  0  0
   16.7568   39.7721   15.9393 C   0  0  2  0  0  0  0  0  0  0  0  0
   17.4393   41.1389   15.9429 C   0  0  0  0  0  0  0  0  0  0  0  0
   18.5371   41.2746   16.4909 O   0  0  0  0  0  0  0  0  0  0  0  0
   17.1752   38.9554   14.7129 C   0  0  0  0  0  0  0  0  0  0  0  0
   16.6192   37.5365   14.7063 C   0  0  0  0  0  0  0  0  0  0  0  0
   17.1954   36.6852   15.8342 C   0  0  0  0  0  0  0  0  0  0  0  0
   16.5459   35.2937   15.8946 C   0  0  0  0  0  0  0  0  0  0  0  0
   15.0940   35.3013   16.2602 N   0  0  0  0  0  0  0  0  0  0  0  0
   16.9235   42.1207   15.3926 O   0  0  0  0  0  0  0  0  0  0  0  0
  2  1  1  6  0  0  0
  2  3  1  0  0  0  0
  2  5  1  0  0  0  0
  3  4  1  0  0  0  0
  3 10  1  0  0  0  0
  5  6  1  0  0  0  0
  6  7  1  0  0  0  0
  7  8  1  0  0  0  0
  8  9  1  0  0  0  0
M  END
>  <CHROM.1>
146.91124806,-61.13383134,-66.17325266,175.25713213,-65.94980820,16.77724465
38.84029682,15.71828330,1.34992967,-0.00498289,0.00398814

>  <Name>
ligand

>  <RI>
0

>  <Rbt.Current_Directory>
/home/itssahil/PROJECTS/Mol_Feturizer/New_Systems/rnas/3D0U

>  <Rbt.Executable>
rbdock ($Id: //depot/dev/client3/rdock/2013.1/src/exe/rbdock.cxx#4 $)

>  <Rbt.Library>
libRbt.so (2013.1, Build901 2013/11/27)

>  <Rbt.Parameter_File>
/export/apps/rDock/src/rDock_2013.1_src/data/scripts/dock_solv.prm

>  <Rbt.Receptor>
prm/blind_docking_80.prm

>  <SCORE>
-3.14812

>  <SCORE.INTER>
-3.20727

>  <SCORE.INTER.CONST>
1

>  <SCORE.INTER.POLAR>
0

>  <SCORE.INTER.ROT>
5

>  <SCORE.INTER.SOLV>
5.15201

>  <SCORE.INTER.VDW>
-10.7889

>  <SCORE.INTER.norm>
-0.320727

>  <SCORE.INTRA>
0.0591574

>  <SCORE.INTRA.DIHEDRAL>
-0.383273

>  <SCORE.INTRA.DIHEDRAL.0>
2.22229

>  <SCORE.INTRA.POLAR>
0

>  <SCORE.INTRA.POLAR.0>
0

>  <SCORE.INTRA.REPUL>
0

>  <SCORE.INTRA.REPUL.0>
0

>  <SCORE.INTRA.SOLV>
0.606679

>  <SCORE.INTRA.SOLV.lig_0>
-31.87

>  <SCORE.INTRA.VDW>
-0.0525456

>  <SCORE.INTRA.VDW.0>
-0.575321

>  <SCORE.INTRA.norm>
0.00591574

>  <SCORE.RESTR>
0

>  <SCORE.RESTR.CAVITY>
0

>  <SCORE.RESTR.norm>
0

>  <SCORE.SYSTEM>
0

>  <SCORE.SYSTEM.CONST>
0

>  <SCORE.SYSTEM.DIHEDRAL>
0

>  <SCORE.SYSTEM.SOLV>
0

>  <SCORE.SYSTEM.norm>
0

>  <SCORE.heavy>
10

>  <SCORE.norm>
-0.314812

>  <RMSD>
10.882

$$$$
ligand
 OpenBabel11021811463D
libRbt.so/2013.1/901 2013/11/27
 10  9  0  0  0  0  0  0  0  0999 V2000
   35.6036   43.0000   17.1901 N   0  0  0  0  0  0  0  0  0  0  0  0
   34.4677   42.1249   17.4528 C   0  0  2  0  0  0  0  0  0  0  0  0
   33.1643   42.9207   17.4930 C   0  0  0  0  0  0  0  0  0  0  0  0
   32.3278   42.7730   16.5972 O   0  0  0  0  0  0  0  0  0  0  0  0
   34.6726   41.3453   18.7553 C   0  0  0  0  0  0  0  0  0  0  0  0
   33.6148   40.2756   18.9987 C   0  0  0  0  0  0  0  0  0  0  0  0
   33.6783   39.7125   20.4156 C   0  0  0  0  0  0  0  0  0  0  0  0
   32.6773   38.5652   20.6246 C   0  0  0  0  0  0  0  0  0  0  0  0
   33.0009   37.3135   19.8695 N   0  0  0  0  0  0  0  0  0  0  0  0
   32.9146   43.7066   18.4165 O   0  0  0  0  0  0  0  0  0  0  0  0
  2  1  1  1  0  0  0
  2  3  1  0  0  0  0
  2  5  1  0  0  0  0
  3  4  1  0  0  0  0
  3 10  1  0  0  0  0
  5  6  1  0  0  0  0
  6  7  1  0  0  0  0
  7  8  1  0  0  0  0
  8  9  1  0  0  0  0
M  END
>  <CHROM.1>
111.09567705,-172.27491155,-168.56958500,-175.91303891,68.72229902,33.58457800
41.20002922,18.57489532,-1.46361478,-0.00525521,2.59766011

>  <Name>
ligand

>  <RI>
0

>  <Rbt.Current_Directory>
/home/itssahil/PROJECTS/Mol_Feturizer/New_Systems/rnas/3D0U

>  <Rbt.Executable>
rbdock ($Id: //depot/dev/client3/rdock/2013.1/src/exe/rbdock.cxx#4 $)

>  <Rbt.Library>
libRbt.so (2013.1, Build901 2013/11/27)

>  <Rbt.Parameter_File>
/export/apps/rDock/src/rDock_2013.1_src/data/scripts/dock_solv.prm

>  <Rbt.Receptor>
prm/blind_docking_100.prm

>  <SCORE>
-5.06216

>  <SCORE.INTER>
-4.60668

>  <SCORE.INTER.CONST>
1

>  <SCORE.INTER.POLAR>
0

>  <SCORE.INTER.ROT>
5

>  <SCORE.INTER.SOLV>
8.38809

>  <SCORE.INTER.VDW>
-12.8005

>  <SCORE.INTER.norm>
-0.460668

>  <SCORE.INTRA>
-0.455476

>  <SCORE.INTRA.DIHEDRAL>
0.375891

>  <SCORE.INTRA.DIHEDRAL.0>
2.22229

>  <SCORE.INTRA.POLAR>
0

>  <SCORE.INTRA.POLAR.0>
0

>  <SCORE.INTRA.REPUL>
0

>  <SCORE.INTRA.REPUL.0>
0

>  <SCORE.INTRA.SOLV>
-0.831107

>  <SCORE.INTRA.SOLV.lig_0>
-31.87

>  <SCORE.INTRA.VDW>
-0.227869

>  <SCORE.INTRA.VDW.0>
-0.575321

>  <SCORE.INTRA.norm>
-0.0455476

>  <SCORE.RESTR>
0

>  <SCORE.RESTR.CAVITY>
0

>  <SCORE.RESTR.norm>
0

>  <SCORE.SYSTEM>
0

>  <SCORE.SYSTEM.CONST>
0

>  <SCORE.SYSTEM.DIHEDRAL>
0

>  <SCORE.SYSTEM.SOLV>
0

>  <SCORE.SYSTEM.norm>
0

>  <SCORE.heavy>
10

>  <SCORE.norm>
-0.506216

>  <RMSD>
10.909

$$$$
ligand
 OpenBabel11021811463D
libRbt.so/2013.1/901 2013/11/27
 10  9  0  0  0  0  0  0  0  0999 V2000
   32.7922   39.4652   20.7606 N   0  0  0  0  0  0  0  0  0  0  0  0
   33.8833   40.3081   20.2872 C   0  0  2  0  0  0  0  0  0  0  0  0
   33.3506   41.4726   19.4542 C   0  0  0  0  0  0  0  0  0  0  0  0
   33.0975   42.5510   19.9991 O   0  0  0  0  0  0  0  0  0  0  0  0
   34.8989   39.4847   19.4892 C   0  0  0  0  0  0  0  0  0  0  0  0
   34.2651   38.6105   18.4138 C   0  0  0  0  0  0  0  0  0  0  0  0
   35.2779   37.6760   17.7581 C   0  0  0  0  0  0  0  0  0  0  0  0
   34.6067   36.6841   16.7951 C   0  0  0  0  0  0  0  0  0  0  0  0
   35.5533   35.7530   16.1033 N   0  0  0  0  0  0  0  0  0  0  0  0
   33.1782   41.3682   18.2326 O   0  0  0  0  0  0  0  0  0  0  0  0
  2  1  1  6  0  0  0
  2  3  1  0  0  0  0
  2  5  1  0  0  0  0
  3  4  1  0  0  0  0
  3 10  1  0  0  0  0
  5  6  1  0  0  0  0
  6  7  1  0  0  0  0
  7  8  1  0  0  0  0
  8  9  1  0  0  0  0
M  END
>  <CHROM.1>
92.19929753,49.56315742,-172.80347235,173.27043975,179.08579794,34.07576186
39.37371244,18.71873195,-3.08079360,1.24731342,-1.08429212

>  <Name>
ligand

>  <RI>
0

>  <Rbt.Current_Directory>
/home/itssahil/PROJECTS/Mol_Feturizer/New_Systems/rnas/3D0U

>  <Rbt.Executable>
rbdock ($Id: //depot/dev/client3/rdock/2013.1/src/exe/rbdock.cxx#4 $)

>  <Rbt.Library>
libRbt.so (2013.1, Build901 2013/11/27)

>  <Rbt.Parameter_File>
/export/apps/rDock/src/rDock_2013.1_src/data/scripts/dock_solv.prm

>  <Rbt.Receptor>
prm/blind_docking_100.prm

>  <SCORE>
-3.83123

>  <SCORE.INTER>
-4.0241

>  <SCORE.INTER.CONST>
1

>  <SCORE.INTER.POLAR>
0

>  <SCORE.INTER.ROT>
5

>  <SCORE.INTER.SOLV>
7.46934

>  <SCORE.INTER.VDW>
-12.1058

>  <SCORE.INTER.norm>
-0.40241

>  <SCORE.INTRA>
0.190972

>  <SCORE.INTRA.DIHEDRAL>
0.132179

>  <SCORE.INTRA.DIHEDRAL.0>
2.22229

>  <SCORE.INTRA.POLAR>
0

>  <SCORE.INTRA.POLAR.0>
0

>  <SCORE.INTRA.REPUL>
0

>  <SCORE.INTRA.REPUL.0>
0

>  <SCORE.INTRA.SOLV>
-0.585799

>  <SCORE.INTRA.SOLV.lig_0>
-31.87

>  <SCORE.INTRA.VDW>
0.417782

>  <SCORE.INTRA.VDW.0>
-0.575321

>  <SCORE.INTRA.norm>
0.0190972

>  <SCORE.RESTR>
0.00189362

>  <SCORE.RESTR.CAVITY>
0.00189362

>  <SCORE.RESTR.norm>
0.000189362

>  <SCORE.SYSTEM>
0

>  <SCORE.SYSTEM.CONST>
0

>  <SCORE.SYSTEM.DIHEDRAL>
0

>  <SCORE.SYSTEM.SOLV>
0

>  <SCORE.SYSTEM.norm>
0

>  <SCORE.heavy>
10

>  <SCORE.norm>
-0.383123

>  <RMSD>
10.980

$$$$
ligand
 OpenBabel11021811463D
libRbt.so/2013.1/901 2013/11/27
 10  9  0  0  0  0  0  0  0  0999 V2000
   34.5998   39.0974   18.2946 N   0  0  0  0  0  0  0  0  0  0  0  0
   34.6505   40.2600   19.1726 C   0  0  2  0  0  0  0  0  0  0  0  0
   34.1698   39.9031   20.5781 C   0  0  0  0  0  0  0  0  0  0  0  0
   33.1482   39.2254   20.7230 O   0  0  0  0  0  0  0  0  0  0  0  0
   33.8303   41.4157   18.5914 C   0  0  0  0  0  0  0  0  0  0  0  0
   34.4105   41.9883   17.3038 C   0  0  0  0  0  0  0  0  0  0  0  0
   35.7539   42.6756   17.5312 C   0  0  0  0  0  0  0  0  0  0  0  0
   36.3530   43.2157   16.2231 C   0  0  0  0  0  0  0  0  0  0  0  0
   37.6504   43.9444   16.3885 N   0  0  0  0  0  0  0  0  0  0  0  0
   34.7913   40.2656   21.5856 O   0  0  0  0  0  0  0  0  0  0  0  0
  2  1  1  6  0  0  0
  2  3  1  0  0  0  0
  2  5  1  0  0  0  0
  3  4  1  0  0  0  0
  3 10  1  0  0  0  0
  5  6  1  0  0  0  0
  6  7  1  0  0  0  0
  7  8  1  0  0  0  0
  8  9  1  0  0  0  0
M  END
>  <CHROM.1>
-45.02573528,-66.77380443,-66.40309670,178.36867658,177.95131014,34.92142601
41.18360928,18.67836871,2.22167677,0.78062486,1.82077866

>  <Name>
ligand

>  <RI>
0

>  <Rbt.Current_Directory>
/home/itssahil/PROJECTS/Mol_Feturizer/New_Systems/rnas/3D0U

>  <Rbt.Executable>
rbdock ($Id: //depot/dev/client3/rdock/2013.1/src/exe/rbdock.cxx#4 $)

>  <Rbt.Library>
libRbt.so (2013.1, Build901 2013/11/27)

>  <Rbt.Parameter_File>
/export/apps/rDock/src/rDock_2013.1_src/data/scripts/dock_solv.prm

>  <Rbt.Receptor>
prm/blind_docking_100.prm

>  <SCORE>
-4.31841

>  <SCORE.INTER>
-3.89988

>  <SCORE.INTER.CONST>
1

>  <SCORE.INTER.POLAR>
0

>  <SCORE.INTER.ROT>
5

>  <SCORE.INTER.SOLV>
6.77404

>  <SCORE.INTER.VDW>
-11.7913

>  <SCORE.INTER.norm>
-0.389988

>  <SCORE.INTRA>
-0.41853

>  <SCORE.INTRA.DIHEDRAL>
-0.334476

>  <SCORE.INTRA.DIHEDRAL.0>
2.22229

>  <SCORE.INTRA.POLAR>
0

>  <SCORE.INTRA.POLAR.0>
0

>  <SCORE.INTRA.REPUL>
0

>  <SCORE.INTRA.REPUL.0>
0

>  <SCORE.INTRA.SOLV>
-0.329102

>  <SCORE.INTRA.SOLV.lig_0>
-31.87

>  <SCORE.INTRA.VDW>
-0.0867414

>  <SCORE.INTRA.VDW.0>
-0.575321

>  <SCORE.INTRA.norm>
-0.041853

>  <SCORE.RESTR>
0

>  <SCORE.RESTR.CAVITY>
0

>  <SCORE.RESTR.norm>
0

>  <SCORE.SYSTEM>
0

>  <SCORE.SYSTEM.CONST>
0

>  <SCORE.SYSTEM.DIHEDRAL>
0

>  <SCORE.SYSTEM.SOLV>
0

>  <SCORE.SYSTEM.norm>
0

>  <SCORE.heavy>
10

>  <SCORE.norm>
-0.431841

>  <RMSD>
11.081

$$$$
ligand
 OpenBabel11021811463D
libRbt.so/2013.1/901 2013/11/27
 10  9  0  0  0  0  0  0  0  0999 V2000
   34.5616   41.5106   18.9150 N   0  0  0  0  0  0  0  0  0  0  0  0
   34.0205   40.1671   19.0802 C   0  0  2  0  0  0  0  0  0  0  0  0
   33.9184   39.7986   20.5593 C   0  0  0  0  0  0  0  0  0  0  0  0
   34.7814   40.1911   21.3499 O   0  0  0  0  0  0  0  0  0  0  0  0
   34.8677   39.1430   18.3189 C   0  0  0  0  0  0  0  0  0  0  0  0
   34.2660   37.7429   18.3054 C   0  0  0  0  0  0  0  0  0  0  0  0
   35.1717   36.7317   17.6082 C   0  0  0  0  0  0  0  0  0  0  0  0
   34.5431   35.3300   17.5646 C   0  0  0  0  0  0  0  0  0  0  0  0
   33.2980   35.2331   16.7388 N   0  0  0  0  0  0  0  0  0  0  0  0
   32.9762   39.1231   20.9938 O   0  0  0  0  0  0  0  0  0  0  0  0
  2  1  1  1  0  0  0
  2  3  1  0  0  0  0
  2  5  1  0  0  0  0
  3  4  1  0  0  0  0
  3 10  1  0  0  0  0
  5  6  1  0  0  0  0
  6  7  1  0  0  0  0
  7  8  1  0  0  0  0
  8  9  1  0  0  0  0
M  END
>  <CHROM.1>
-35.85832956,-172.92405263,-176.75693867,-178.47553643,65.18638838,34.23660596
38.49907568,18.98197186,-1.57178999,-1.12433230,-2.55704442

>  <Name>
ligand

>  <RI>
0

>  <Rbt.Current_Directory>
/home/itssahil/PROJECTS/Mol_Feturizer/New_Systems/rnas/3D0U

>  <Rbt.Executable>
rbdock ($Id: //depot/dev/client3/rdock/2013.1/src/exe/rbdock.cxx#4 $)

>  <Rbt.Library>
libRbt.so (2013.1, Build901 2013/11/27)

>  <Rbt.Parameter_File>
/export/apps/rDock/src/rDock_2013.1_src/data/scripts/dock_solv.prm

>  <Rbt.Receptor>
prm/blind_docking_100.prm

>  <SCORE>
-3.49761

>  <SCORE.INTER>
-2.69606

>  <SCORE.INTER.CONST>
1

>  <SCORE.INTER.POLAR>
0

>  <SCORE.INTER.ROT>
5

>  <SCORE.INTER.SOLV>
7.34325

>  <SCORE.INTER.VDW>
-11.1785

>  <SCORE.INTER.norm>
-0.269606

>  <SCORE.INTRA>
-0.801545

>  <SCORE.INTRA.DIHEDRAL>
-0.376238

>  <SCORE.INTRA.DIHEDRAL.0>
2.22229

>  <SCORE.INTRA.POLAR>
0

>  <SCORE.INTRA.POLAR.0>
0

>  <SCORE.INTRA.REPUL>
0

>  <SCORE.INTRA.REPUL.0>
0

>  <SCORE.INTRA.SOLV>
-0.769992

>  <SCORE.INTRA.SOLV.lig_0>
-31.87

>  <SCORE.INTRA.VDW>
-0.22843

>  <SCORE.INTRA.VDW.0>
-0.575321

>  <SCORE.INTRA.norm>
-0.0801545

>  <SCORE.RESTR>
0

>  <SCORE.RESTR.CAVITY>
0

>  <SCORE.RESTR.norm>
0

>  <SCORE.SYSTEM>
0

>  <SCORE.SYSTEM.CONST>
0

>  <SCORE.SYSTEM.DIHEDRAL>
0

>  <SCORE.SYSTEM.SOLV>
0

>  <SCORE.SYSTEM.norm>
0

>  <SCORE.heavy>
10

>  <SCORE.norm>
-0.349761

>  <RMSD>
11.155

$$$$
ligand
 OpenBabel11021811463D
libRbt.so/2013.1/901 2013/11/27
 10  9  0  0  0  0  0  0  0  0999 V2000
   34.6581   40.6291   17.8947 N   0  0  0  0  0  0  0  0  0  0  0  0
   33.7715   40.1323   18.9398 C   0  0  2  0  0  0  0  0  0  0  0  0
   33.9556   40.9247   20.2329 C   0  0  0  0  0  0  0  0  0  0  0  0
   34.6846   40.4815   21.1251 O   0  0  0  0  0  0  0  0  0  0  0  0
   33.9980   38.6363   19.1784 C   0  0  0  0  0  0  0  0  0  0  0  0
   33.6725   37.7694   17.9681 C   0  0  0  0  0  0  0  0  0  0  0  0
   33.9802   36.2951   18.2141 C   0  0  0  0  0  0  0  0  0  0  0  0
   33.6622   35.4278   16.9859 C   0  0  0  0  0  0  0  0  0  0  0  0
   34.0405   33.9863   17.1287 N   0  0  0  0  0  0  0  0  0  0  0  0
   33.4000   42.0174   20.4063 O   0  0  0  0  0  0  0  0  0  0  0  0
  2  1  1  6  0  0  0
  2  3  1  0  0  0  0
  2  5  1  0  0  0  0
  3  4  1  0  0  0  0
  3 10  1  0  0  0  0
  5  6  1  0  0  0  0
  6  7  1  0  0  0  0
  7  8  1  0  0  0  0
  8  9  1  0  0  0  0
M  END
>  <CHROM.1>
-97.37442354,-63.10700616,176.90264537,-179.47550052,175.57362209,33.98578390
38.66007846,18.84119458,1.25309976,-1.50793213,0.12083461

>  <Name>
ligand

>  <RI>
0

>  <Rbt.Current_Directory>
/home/itssahil/PROJECTS/Mol_Feturizer/New_Systems/rnas/3D0U

>  <Rbt.Executable>
rbdock ($Id: //depot/dev/client3/rdock/2013.1/src/exe/rbdock.cxx#4 $)

>  <Rbt.Library>
libRbt.so (2013.1, Build901 2013/11/27)

>  <Rbt.Parameter_File>
/export/apps/rDock/src/rDock_2013.1_src/data/scripts/dock_solv.prm

>  <Rbt.Receptor>
prm/blind_docking_60.prm

>  <SCORE>
-4.75247

>  <SCORE.INTER>
-4.44306

>  <SCORE.INTER.CONST>
1

>  <SCORE.INTER.POLAR>
0

>  <SCORE.INTER.ROT>
5

>  <SCORE.INTER.SOLV>
5.25058

>  <SCORE.INTER.VDW>
-11.6456

>  <SCORE.INTER.norm>
-0.444306

>  <SCORE.INTRA>
-0.309408

>  <SCORE.INTRA.DIHEDRAL>
-0.614441

>  <SCORE.INTRA.DIHEDRAL.0>
2.22229

>  <SCORE.INTRA.POLAR>
0

>  <SCORE.INTRA.POLAR.0>
0

>  <SCORE.INTRA.REPUL>
0

>  <SCORE.INTRA.REPUL.0>
0

>  <SCORE.INTRA.SOLV>
-0.751066

>  <SCORE.INTRA.SOLV.lig_0>
-31.87

>  <SCORE.INTRA.VDW>
0.373346

>  <SCORE.INTRA.VDW.0>
-0.575321

>  <SCORE.INTRA.norm>
-0.0309408

>  <SCORE.RESTR>
0

>  <SCORE.RESTR.CAVITY>
0

>  <SCORE.RESTR.norm>
0

>  <SCORE.SYSTEM>
0

>  <SCORE.SYSTEM.CONST>
0

>  <SCORE.SYSTEM.DIHEDRAL>
0

>  <SCORE.SYSTEM.SOLV>
0

>  <SCORE.SYSTEM.norm>
0

>  <SCORE.heavy>
10

>  <SCORE.norm>
-0.475247

>  <RMSD>
11.183

$$$$
ligand
 OpenBabel11021811463D
libRbt.so/2013.1/901 2013/11/27
 10  9  0  0  0  0  0  0  0  0999 V2000
   33.2651   40.1406   20.4034 N   0  0  0  0  0  0  0  0  0  0  0  0
   34.4993   40.3308   19.6514 C   0  0  2  0  0  0  0  0  0  0  0  0
   34.3008   41.3435   18.5249 C   0  0  0  0  0  0  0  0  0  0  0  0
   35.2179   42.1129   18.2234 O   0  0  0  0  0  0  0  0  0  0  0  0
   35.0120   38.9959   19.1023 C   0  0  0  0  0  0  0  0  0  0  0  0
   34.0112   38.2821   18.2017 C   0  0  0  0  0  0  0  0  0  0  0  0
   34.5732   36.9840   17.6288 C   0  0  0  0  0  0  0  0  0  0  0  0
   33.5654   36.2770   16.7088 C   0  0  0  0  0  0  0  0  0  0  0  0
   34.0750   35.0163   16.0822 N   0  0  0  0  0  0  0  0  0  0  0  0
   33.2399   41.4043   17.8896 O   0  0  0  0  0  0  0  0  0  0  0  0
  2  1  1  6  0  0  0
  2  3  1  0  0  0  0
  2  5  1  0  0  0  0
  3  4  1  0  0  0  0
  3 10  1  0  0  0  0
  5  6  1  0  0  0  0
  6  7  1  0  0  0  0
  7  8  1  0  0  0  0
  8  9  1  0  0  0  0
M  END
>  <CHROM.1>
144.37883090,57.98916459,177.76702702,-179.34884538,178.23661008,34.17351402
39.12273395,18.22235431,1.18478379,1.46788555,0.75926440

>  <Name>
ligand

>  <RI>
0

>  <Rbt.Current_Directory>
/home/itssahil/PROJECTS/Mol_Feturizer/New_Systems/rnas/3D0U

>  <Rbt.Executable>
rbdock ($Id: //depot/dev/client3/rdock/2013.1/src/exe/rbdock.cxx#4 $)

>  <Rbt.Library>
libRbt.so (2013.1, Build901 2013/11/27)

>  <Rbt.Parameter_File>
/export/apps/rDock/src/rDock_2013.1_src/data/scripts/dock_solv.prm

>  <Rbt.Receptor>
prm/blind_docking_60.prm

>  <SCORE>
-3.79142

>  <SCORE.INTER>
-2.95767

>  <SCORE.INTER.CONST>
1

>  <SCORE.INTER.POLAR>
0

>  <SCORE.INTER.ROT>
5

>  <SCORE.INTER.SOLV>
7.88474

>  <SCORE.INTER.VDW>
-11.5334

>  <SCORE.INTER.norm>
-0.295767

>  <SCORE.INTRA>
-0.833748

>  <SCORE.INTRA.DIHEDRAL>
-0.720386

>  <SCORE.INTRA.DIHEDRAL.0>
2.22229

>  <SCORE.INTRA.POLAR>
0

>  <SCORE.INTRA.POLAR.0>
0

>  <SCORE.INTRA.REPUL>
0

>  <SCORE.INTRA.REPUL.0>
0

>  <SCORE.INTRA.SOLV>
-0.713028

>  <SCORE.INTRA.SOLV.lig_0>
-31.87

>  <SCORE.INTRA.VDW>
-0.117041

>  <SCORE.INTRA.VDW.0>
-0.575321

>  <SCORE.INTRA.norm>
-0.0833748

>  <SCORE.RESTR>
0

>  <SCORE.RESTR.CAVITY>
0

>  <SCORE.RESTR.norm>
0

>  <SCORE.SYSTEM>
0

>  <SCORE.SYSTEM.CONST>
0

>  <SCORE.SYSTEM.DIHEDRAL>
0

>  <SCORE.SYSTEM.SOLV>
0

>  <SCORE.SYSTEM.norm>
0

>  <SCORE.heavy>
10

>  <SCORE.norm>
-0.379142

>  <RMSD>
11.361

$$$$
ligand
 OpenBabel11021811463D
libRbt.so/2013.1/901 2013/11/27
 10  9  0  0  0  0  0  0  0  0999 V2000
   34.5847   34.7641   18.0816 N   0  0  0  0  0  0  0  0  0  0  0  0
   33.9047   36.0489   17.9720 C   0  0  2  0  0  0  0  0  0  0  0  0
   33.5353   36.3481   16.5202 C   0  0  0  0  0  0  0  0  0  0  0  0
   34.4241   36.5935   15.6994 O   0  0  0  0  0  0  0  0  0  0  0  0
   34.7661   37.1712   18.5593 C   0  0  0  0  0  0  0  0  0  0  0  0
   34.0114   38.4804   18.7554 C   0  0  0  0  0  0  0  0  0  0  0  0
   34.8673   39.5439   19.4376 C   0  0  0  0  0  0  0  0  0  0  0  0
   34.0722   40.8281   19.7212 C   0  0  0  0  0  0  0  0  0  0  0  0
   33.5868   41.5410   18.4973 N   0  0  0  0  0  0  0  0  0  0  0  0
   32.3581   36.3362   16.1369 O   0  0  0  0  0  0  0  0  0  0  0  0
  2  1  1  6  0  0  0
  2  3  1  0  0  0  0
  2  5  1  0  0  0  0
  3  4  1  0  0  0  0
  3 10  1  0  0  0  0
  5  6  1  0  0  0  0
  6  7  1  0  0  0  0
  7  8  1  0  0  0  0
  8  9  1  0  0  0  0
M  END
>  <CHROM.1>
-69.20423975,-167.52721744,175.70464007,-176.01797531,-63.93102256,34.00126291
37.76157845,17.90151958,-1.68349230,-1.03120400,0.36614687

>  <Name>
ligand

>  <RI>
0

>  <Rbt.Current_Directory>
/home/itssahil/PROJECTS/Mol_Feturizer/New_Systems/rnas/3D0U

>  <Rbt.Executable>
rbdock ($Id: //depot/dev/client3/rdock/2013.1/src/exe/rbdock.cxx#4 $)

>  <Rbt.Library>
libRbt.so (2013.1, Build901 2013/11/27)

>  <Rbt.Parameter_File>
/export/apps/rDock/src/rDock_2013.1_src/data/scripts/dock_solv.prm

>  <Rbt.Receptor>
prm/blind_docking_100.prm

>  <SCORE>
-4.78863

>  <SCORE.INTER>
-4.24177

>  <SCORE.INTER.CONST>
1

>  <SCORE.INTER.POLAR>
0

>  <SCORE.INTER.ROT>
5

>  <SCORE.INTER.SOLV>
4.43014

>  <SCORE.INTER.VDW>
-11.2379

>  <SCORE.INTER.norm>
-0.424177

>  <SCORE.INTRA>
-0.546863

>  <SCORE.INTRA.DIHEDRAL>
0.0174437

>  <SCORE.INTRA.DIHEDRAL.0>
2.22229

>  <SCORE.INTRA.POLAR>
0

>  <SCORE.INTRA.POLAR.0>
0

>  <SCORE.INTRA.REPUL>
0

>  <SCORE.INTRA.REPUL.0>
0

>  <SCORE.INTRA.SOLV>
-0.789333

>  <SCORE.INTRA.SOLV.lig_0>
-31.87

>  <SCORE.INTRA.VDW>
-0.160918

>  <SCORE.INTRA.VDW.0>
-0.575321

>  <SCORE.INTRA.norm>
-0.0546863

>  <SCORE.RESTR>
0

>  <SCORE.RESTR.CAVITY>
0

>  <SCORE.RESTR.norm>
0

>  <SCORE.SYSTEM>
0

>  <SCORE.SYSTEM.CONST>
0

>  <SCORE.SYSTEM.DIHEDRAL>
0

>  <SCORE.SYSTEM.SOLV>
0

>  <SCORE.SYSTEM.norm>
0

>  <SCORE.heavy>
10

>  <SCORE.norm>
-0.478863

>  <RMSD>
11.530

$$$$
ligand
 OpenBabel11021811463D
libRbt.so/2013.1/901 2013/11/27
 10  9  0  0  0  0  0  0  0  0999 V2000
   33.8307   35.3320   18.3304 N   0  0  0  0  0  0  0  0  0  0  0  0
   33.8374   36.3608   17.2976 C   0  0  2  0  0  0  0  0  0  0  0  0
   34.2920   35.7850   15.9576 C   0  0  0  0  0  0  0  0  0  0  0  0
   33.4789   35.6574   15.0375 O   0  0  0  0  0  0  0  0  0  0  0  0
   34.7203   37.5416   17.7130 C   0  0  0  0  0  0  0  0  0  0  0  0
   34.1389   38.3656   18.8555 C   0  0  0  0  0  0  0  0  0  0  0  0
   35.0659   39.5019   19.2780 C   0  0  0  0  0  0  0  0  0  0  0  0
   34.4339   40.3869   20.3638 C   0  0  0  0  0  0  0  0  0  0  0  0
   33.1865   41.0971   19.9379 N   0  0  0  0  0  0  0  0  0  0  0  0
   35.4688   35.4535   15.7620 O   0  0  0  0  0  0  0  0  0  0  0  0
  2  1  1  1  0  0  0
  2  3  1  0  0  0  0
  2  5  1  0  0  0  0
  3  4  1  0  0  0  0
  3 10  1  0  0  0  0
  5  6  1  0  0  0  0
  6  7  1  0  0  0  0
  7  8  1  0  0  0  0
  8  9  1  0  0  0  0
M  END
>  <CHROM.1>
109.81114794,-69.98642218,177.91040608,176.10072088,-62.69208989,34.25417994
37.52595130,17.81541565,-1.45437815,-1.28901177,0.80514878

>  <Name>
ligand

>  <RI>
0

>  <Rbt.Current_Directory>
/home/itssahil/PROJECTS/Mol_Feturizer/New_Systems/rnas/3D0U

>  <Rbt.Executable>
rbdock ($Id: //depot/dev/client3/rdock/2013.1/src/exe/rbdock.cxx#4 $)

>  <Rbt.Library>
libRbt.so (2013.1, Build901 2013/11/27)

>  <Rbt.Parameter_File>
/export/apps/rDock/src/rDock_2013.1_src/data/scripts/dock_solv.prm

>  <Rbt.Receptor>
prm/blind_docking_100.prm

>  <SCORE>
-2.79767

>  <SCORE.INTER>
-2.55552

>  <SCORE.INTER.CONST>
1

>  <SCORE.INTER.POLAR>
0

>  <SCORE.INTER.ROT>
5

>  <SCORE.INTER.SOLV>
7.80164

>  <SCORE.INTER.VDW>
-11.2376

>  <SCORE.INTER.norm>
-0.255552

>  <SCORE.INTRA>
-0.242149

>  <SCORE.INTRA.DIHEDRAL>
-0.213884

>  <SCORE.INTRA.DIHEDRAL.0>
2.22229

>  <SCORE.INTRA.POLAR>
0

>  <SCORE.INTRA.POLAR.0>
0

>  <SCORE.INTRA.REPUL>
0

>  <SCORE.INTRA.REPUL.0>
0

>  <SCORE.INTRA.SOLV>
0.019802

>  <SCORE.INTRA.SOLV.lig_0>
-31.87

>  <SCORE.INTRA.VDW>
-0.145107

>  <SCORE.INTRA.VDW.0>
-0.575321

>  <SCORE.INTRA.norm>
-0.0242149

>  <SCORE.RESTR>
0

>  <SCORE.RESTR.CAVITY>
0

>  <SCORE.RESTR.norm>
0

>  <SCORE.SYSTEM>
0

>  <SCORE.SYSTEM.CONST>
0

>  <SCORE.SYSTEM.DIHEDRAL>
0

>  <SCORE.SYSTEM.SOLV>
0

>  <SCORE.SYSTEM.norm>
0

>  <SCORE.heavy>
10

>  <SCORE.norm>
-0.279767

>  <RMSD>
11.927

$$$$
ligand
 OpenBabel11021811463D
libRbt.so/2013.1/901 2013/11/27
 10  9  0  0  0  0  0  0  0  0999 V2000
   18.1909   39.1332   14.9778 N   0  0  0  0  0  0  0  0  0  0  0  0
   17.5083   37.8754   14.7005 C   0  0  2  0  0  0  0  0  0  0  0  0
   16.2739   38.1054   13.8303 C   0  0  0  0  0  0  0  0  0  0  0  0
   16.0125   37.3176   12.9166 O   0  0  0  0  0  0  0  0  0  0  0  0
   17.1336   37.1620   16.0032 C   0  0  0  0  0  0  0  0  0  0  0  0
   16.4581   35.8132   15.7875 C   0  0  0  0  0  0  0  0  0  0  0  0
   16.1107   35.1241   17.1041 C   0  0  0  0  0  0  0  0  0  0  0  0
   14.9948   35.8602   17.8623 C   0  0  0  0  0  0  0  0  0  0  0  0
   13.6658   35.8521   17.1728 N   0  0  0  0  0  0  0  0  0  0  0  0
   15.5125   39.0614   14.0278 O   0  0  0  0  0  0  0  0  0  0  0  0
  2  1  1  1  0  0  0
  2  3  1  0  0  0  0
  2  5  1  0  0  0  0
  3  4  1  0  0  0  0
  3 10  1  0  0  0  0
  5  6  1  0  0  0  0
  6  7  1  0  0  0  0
  7  8  1  0  0  0  0
  8  9  1  0  0  0  0
M  END
>  <CHROM.1>
139.16192500,-177.98571979,179.44348708,68.56267259,65.62594611,16.16363630
37.14070759,15.41140048,-1.17677423,0.26535855,2.17176955

>  <Name>
ligand

>  <RI>
0

>  <Rbt.Current_Directory>
/home/itssahil/PROJECTS/Mol_Feturizer/New_Systems/rnas/3D0U

>  <Rbt.Executable>
rbdock ($Id: //depot/dev/client3/rdock/2013.1/src/exe/rbdock.cxx#4 $)

>  <Rbt.Library>
libRbt.so (2013.1, Build901 2013/11/27)

>  <Rbt.Parameter_File>
/export/apps/rDock/src/rDock_2013.1_src/data/scripts/dock_solv.prm

>  <Rbt.Receptor>
prm/blind_docking_80.prm

>  <SCORE>
-2.44546

>  <SCORE.INTER>
-2.35008

>  <SCORE.INTER.CONST>
1

>  <SCORE.INTER.POLAR>
0

>  <SCORE.INTER.ROT>
5

>  <SCORE.INTER.SOLV>
9.95833

>  <SCORE.INTER.VDW>
-11.8195

>  <SCORE.INTER.norm>
-0.235008

>  <SCORE.INTRA>
-0.0953755

>  <SCORE.INTRA.DIHEDRAL>
-0.33529

>  <SCORE.INTRA.DIHEDRAL.0>
2.22229

>  <SCORE.INTRA.POLAR>
0

>  <SCORE.INTRA.POLAR.0>
0

>  <SCORE.INTRA.REPUL>
0

>  <SCORE.INTRA.REPUL.0>
0

>  <SCORE.INTRA.SOLV>
-0.303286

>  <SCORE.INTRA.SOLV.lig_0>
-31.87

>  <SCORE.INTRA.VDW>
0.223912

>  <SCORE.INTRA.VDW.0>
-0.575321

>  <SCORE.INTRA.norm>
-0.00953755

>  <SCORE.RESTR>
0

>  <SCORE.RESTR.CAVITY>
0

>  <SCORE.RESTR.norm>
0

>  <SCORE.SYSTEM>
0

>  <SCORE.SYSTEM.CONST>
0

>  <SCORE.SYSTEM.DIHEDRAL>
0

>  <SCORE.SYSTEM.SOLV>
0

>  <SCORE.SYSTEM.norm>
0

>  <SCORE.heavy>
10

>  <SCORE.norm>
-0.244546

>  <RMSD>
11.996

$$$$
ligand
 OpenBabel11021811463D
libRbt.so/2013.1/901 2013/11/27
 10  9  0  0  0  0  0  0  0  0999 V2000
   16.3374   33.9898   16.2476 N   0  0  0  0  0  0  0  0  0  0  0  0
   15.2973   34.9375   15.8667 C   0  0  2  0  0  0  0  0  0  0  0  0
   14.1147   34.2182   15.2202 C   0  0  0  0  0  0  0  0  0  0  0  0
   13.0688   34.0630   15.8573 O   0  0  0  0  0  0  0  0  0  0  0  0
   15.8590   36.0142   14.9331 C   0  0  0  0  0  0  0  0  0  0  0  0
   16.9290   36.8851   15.5805 C   0  0  0  0  0  0  0  0  0  0  0  0
   17.5279   37.8890   14.5994 C   0  0  0  0  0  0  0  0  0  0  0  0
   18.5629   38.8043   15.2725 C   0  0  0  0  0  0  0  0  0  0  0  0
   17.9874   39.7721   16.2592 N   0  0  0  0  0  0  0  0  0  0  0  0
   14.1717   33.7958   14.0579 O   0  0  0  0  0  0  0  0  0  0  0  0
  2  1  1  6  0  0  0
  2  3  1  0  0  0  0
  2  5  1  0  0  0  0
  3  4  1  0  0  0  0
  3 10  1  0  0  0  0
  5  6  1  0  0  0  0
  6  7  1  0  0  0  0
  7  8  1  0  0  0  0
  8  9  1  0  0  0  0
M  END
>  <CHROM.1>
105.06236255,-63.49563577,176.45154764,177.55555666,-68.83064498,15.95079095
36.01157725,15.37613164,-2.63884131,-0.76428663,-0.84513035

>  <Name>
ligand

>  <RI>
0

>  <Rbt.Current_Directory>
/home/itssahil/PROJECTS/Mol_Feturizer/New_Systems/rnas/3D0U

>  <Rbt.Executable>
rbdock ($Id: //depot/dev/client3/rdock/2013.1/src/exe/rbdock.cxx#4 $)

>  <Rbt.Library>
libRbt.so (2013.1, Build901 2013/11/27)

>  <Rbt.Parameter_File>
/export/apps/rDock/src/rDock_2013.1_src/data/scripts/dock_solv.prm

>  <Rbt.Receptor>
prm/blind_docking_100.prm

>  <SCORE>
-2.16315

>  <SCORE.INTER>
-1.95012

>  <SCORE.INTER.CONST>
1

>  <SCORE.INTER.POLAR>
0

>  <SCORE.INTER.ROT>
5

>  <SCORE.INTER.SOLV>
11.0246

>  <SCORE.INTER.VDW>
-11.9083

>  <SCORE.INTER.norm>
-0.195012

>  <SCORE.INTRA>
-0.213026

>  <SCORE.INTRA.DIHEDRAL>
-0.299831

>  <SCORE.INTRA.DIHEDRAL.0>
2.22229

>  <SCORE.INTRA.POLAR>
0

>  <SCORE.INTRA.POLAR.0>
0

>  <SCORE.INTRA.REPUL>
0

>  <SCORE.INTRA.REPUL.0>
0

>  <SCORE.INTRA.SOLV>
0.017153

>  <SCORE.INTRA.SOLV.lig_0>
-31.87

>  <SCORE.INTRA.VDW>
-0.0716866

>  <SCORE.INTRA.VDW.0>
-0.575321

>  <SCORE.INTRA.norm>
-0.0213026

>  <SCORE.RESTR>
0

>  <SCORE.RESTR.CAVITY>
0

>  <SCORE.RESTR.norm>
0

>  <SCORE.SYSTEM>
0

>  <SCORE.SYSTEM.CONST>
0

>  <SCORE.SYSTEM.DIHEDRAL>
0

>  <SCORE.SYSTEM.SOLV>
0

>  <SCORE.SYSTEM.norm>
0

>  <SCORE.heavy>
10

>  <SCORE.norm>
-0.216315

>  <RMSD>
11.998

$$$$
ligand
 OpenBabel11021811463D
libRbt.so/2013.1/901 2013/11/27
 10  9  0  0  0  0  0  0  0  0999 V2000
   12.7297   43.9033   17.6023 N   0  0  0  0  0  0  0  0  0  0  0  0
   13.6692   44.7453   16.8718 C   0  0  2  0  0  0  0  0  0  0  0  0
   12.9294   45.7763   16.0211 C   0  0  0  0  0  0  0  0  0  0  0  0
   12.1376   45.3997   15.1521 O   0  0  0  0  0  0  0  0  0  0  0  0
   14.6040   43.8932   16.0079 C   0  0  0  0  0  0  0  0  0  0  0  0
   15.5221   42.9844   16.8162 C   0  0  0  0  0  0  0  0  0  0  0  0
   16.4243   42.1350   15.9254 C   0  0  0  0  0  0  0  0  0  0  0  0
   17.3541   41.2275   16.7462 C   0  0  0  0  0  0  0  0  0  0  0  0
   18.1635   40.2676   15.9307 N   0  0  0  0  0  0  0  0  0  0  0  0
   13.0924   46.9918   16.1912 O   0  0  0  0  0  0  0  0  0  0  0  0
  2  1  1  6  0  0  0
  2  3  1  0  0  0  0
  2  5  1  0  0  0  0
  3  4  1  0  0  0  0
  3 10  1  0  0  0  0
  5  6  1  0  0  0  0
  6  7  1  0  0  0  0
  7  8  1  0  0  0  0
  8  9  1  0  0  0  0
M  END
>  <CHROM.1>
-59.29870451,-64.86524296,179.13044426,179.62492884,173.97801049,14.63701271
43.76532023,16.30853894,2.59691545,0.60442561,-0.78832233

>  <Name>
ligand

>  <RI>
0

>  <Rbt.Current_Directory>
/home/itssahil/PROJECTS/Mol_Feturizer/New_Systems/rnas/3D0U

>  <Rbt.Executable>
rbdock ($Id: //depot/dev/client3/rdock/2013.1/src/exe/rbdock.cxx#4 $)

>  <Rbt.Library>
libRbt.so (2013.1, Build901 2013/11/27)

>  <Rbt.Parameter_File>
/export/apps/rDock/src/rDock_2013.1_src/data/scripts/dock_solv.prm

>  <Rbt.Receptor>
prm/blind_docking_80.prm

>  <SCORE>
-4.40906

>  <SCORE.INTER>
-3.56397

>  <SCORE.INTER.CONST>
1

>  <SCORE.INTER.POLAR>
0

>  <SCORE.INTER.ROT>
5

>  <SCORE.INTER.SOLV>
7.8778

>  <SCORE.INTER.VDW>
-11.9353

>  <SCORE.INTER.norm>
-0.356397

>  <SCORE.INTRA>
-0.845088

>  <SCORE.INTRA.DIHEDRAL>
-0.503585

>  <SCORE.INTRA.DIHEDRAL.0>
2.22229

>  <SCORE.INTRA.POLAR>
0

>  <SCORE.INTRA.POLAR.0>
0

>  <SCORE.INTRA.REPUL>
0

>  <SCORE.INTRA.REPUL.0>
0

>  <SCORE.INTRA.SOLV>
-0.774115

>  <SCORE.INTRA.SOLV.lig_0>
-31.87

>  <SCORE.INTRA.VDW>
-0.206238

>  <SCORE.INTRA.VDW.0>
-0.575321

>  <SCORE.INTRA.norm>
-0.0845088

>  <SCORE.RESTR>
0

>  <SCORE.RESTR.CAVITY>
0

>  <SCORE.RESTR.norm>
0

>  <SCORE.SYSTEM>
0

>  <SCORE.SYSTEM.CONST>
0

>  <SCORE.SYSTEM.DIHEDRAL>
0

>  <SCORE.SYSTEM.SOLV>
0

>  <SCORE.SYSTEM.norm>
0

>  <SCORE.heavy>
10

>  <SCORE.norm>
-0.440906

>  <RMSD>
12.069

$$$$
ligand
 OpenBabel11021811463D
libRbt.so/2013.1/901 2013/11/27
 10  9  0  0  0  0  0  0  0  0999 V2000
   12.9114   44.0008   17.7298 N   0  0  0  0  0  0  0  0  0  0  0  0
   13.7840   44.8148   16.8925 C   0  0  2  0  0  0  0  0  0  0  0  0
   12.9864   45.8917   16.1591 C   0  0  0  0  0  0  0  0  0  0  0  0
   13.0357   47.0625   16.5475 O   0  0  0  0  0  0  0  0  0  0  0  0
   14.5587   43.9391   15.9029 C   0  0  0  0  0  0  0  0  0  0  0  0
   15.5796   43.0237   16.5679 C   0  0  0  0  0  0  0  0  0  0  0  0
   16.3614   42.1960   15.5517 C   0  0  0  0  0  0  0  0  0  0  0  0
   17.4251   41.3138   16.2242 C   0  0  0  0  0  0  0  0  0  0  0  0
   16.8724   40.2401   17.1093 N   0  0  0  0  0  0  0  0  0  0  0  0
   12.2968   45.6225   15.1667 O   0  0  0  0  0  0  0  0  0  0  0  0
  2  1  1  6  0  0  0
  2  3  1  0  0  0  0
  2  5  1  0  0  0  0
  3  4  1  0  0  0  0
  3 10  1  0  0  0  0
  5  6  1  0  0  0  0
  6  7  1  0  0  0  0
  7  8  1  0  0  0  0
  8  9  1  0  0  0  0
M  END
>  <CHROM.1>
103.95871389,-67.56946544,-178.31791482,177.86814029,65.55206014,14.55598328
43.84486346,16.36969485,2.60928789,0.72283853,-0.88948632

>  <Name>
ligand

>  <RI>
0

>  <Rbt.Current_Directory>
/home/itssahil/PROJECTS/Mol_Feturizer/New_Systems/rnas/3D0U

>  <Rbt.Executable>
rbdock ($Id: //depot/dev/client3/rdock/2013.1/src/exe/rbdock.cxx#4 $)

>  <Rbt.Library>
libRbt.so (2013.1, Build901 2013/11/27)

>  <Rbt.Parameter_File>
/export/apps/rDock/src/rDock_2013.1_src/data/scripts/dock_solv.prm

>  <Rbt.Receptor>
prm/blind_docking_80.prm

>  <SCORE>
-4.0939

>  <SCORE.INTER>
-3.83106

>  <SCORE.INTER.CONST>
1

>  <SCORE.INTER.POLAR>
0

>  <SCORE.INTER.ROT>
5

>  <SCORE.INTER.SOLV>
7.63139

>  <SCORE.INTER.VDW>
-12.0312

>  <SCORE.INTER.norm>
-0.383106

>  <SCORE.INTRA>
-0.262837

>  <SCORE.INTRA.DIHEDRAL>
-0.336038

>  <SCORE.INTRA.DIHEDRAL.0>
2.22229

>  <SCORE.INTRA.POLAR>
0

>  <SCORE.INTRA.POLAR.0>
0

>  <SCORE.INTRA.REPUL>
0

>  <SCORE.INTRA.REPUL.0>
0

>  <SCORE.INTRA.SOLV>
-0.0395135

>  <SCORE.INTRA.SOLV.lig_0>
-31.87

>  <SCORE.INTRA.VDW>
-0.0750613

>  <SCORE.INTRA.VDW.0>
-0.575321

>  <SCORE.INTRA.norm>
-0.0262837

>  <SCORE.RESTR>
0

>  <SCORE.RESTR.CAVITY>
0

>  <SCORE.RESTR.norm>
0

>  <SCORE.SYSTEM>
0

>  <SCORE.SYSTEM.CONST>
0

>  <SCORE.SYSTEM.DIHEDRAL>
0

>  <SCORE.SYSTEM.SOLV>
0

>  <SCORE.SYSTEM.norm>
0

>  <SCORE.heavy>
10

>  <SCORE.norm>
-0.40939

>  <RMSD>
12.105

$$$$
ligand
 OpenBabel11021811463D
libRbt.so/2013.1/901 2013/11/27
 10  9  0  0  0  0  0  0  0  0999 V2000
   15.4625   38.0602   15.4909 N   0  0  0  0  0  0  0  0  0  0  0  0
   16.7549   37.5287   15.9061 C   0  0  2  0  0  0  0  0  0  0  0  0
   17.8915   38.1897   15.1283 C   0  0  0  0  0  0  0  0  0  0  0  0
   17.7225   38.5080   13.9476 O   0  0  0  0  0  0  0  0  0  0  0  0
   16.7939   36.0062   15.7429 C   0  0  0  0  0  0  0  0  0  0  0  0
   15.8562   35.2670   16.6898 C   0  0  0  0  0  0  0  0  0  0  0  0
   14.3926   35.4103   16.2817 C   0  0  0  0  0  0  0  0  0  0  0  0
   13.4617   34.5739   17.1738 C   0  0  0  0  0  0  0  0  0  0  0  0
   13.6605   33.0940   17.0636 N   0  0  0  0  0  0  0  0  0  0  0  0
   18.9836   38.4313   15.6593 O   0  0  0  0  0  0  0  0  0  0  0  0
  2  1  1  6  0  0  0
  2  3  1  0  0  0  0
  2  5  1  0  0  0  0
  3  4  1  0  0  0  0
  3 10  1  0  0  0  0
  5  6  1  0  0  0  0
  6  7  1  0  0  0  0
  7  8  1  0  0  0  0
  8  9  1  0  0  0  0
M  END
>  <CHROM.1>
-34.89892510,-67.08574704,73.51486745,175.51850063,-65.05508951,16.13116474
36.53073097,15.88856690,0.84429846,-0.06015047,-0.48656103

>  <Name>
ligand

>  <RI>
0

>  <Rbt.Current_Directory>
/home/itssahil/PROJECTS/Mol_Feturizer/New_Systems/rnas/3D0U

>  <Rbt.Executable>
rbdock ($Id: //depot/dev/client3/rdock/2013.1/src/exe/rbdock.cxx#4 $)

>  <Rbt.Library>
libRbt.so (2013.1, Build901 2013/11/27)

>  <Rbt.Parameter_File>
/export/apps/rDock/src/rDock_2013.1_src/data/scripts/dock_solv.prm

>  <Rbt.Receptor>
prm/blind_docking_80.prm

>  <SCORE>
-1.14125

>  <SCORE.INTER>
-2.06822

>  <SCORE.INTER.CONST>
1

>  <SCORE.INTER.POLAR>
0

>  <SCORE.INTER.ROT>
5

>  <SCORE.INTER.SOLV>
5.58603

>  <SCORE.INTER.VDW>
-10.1742

>  <SCORE.INTER.norm>
-0.206822

>  <SCORE.INTRA>
0.92697

>  <SCORE.INTRA.DIHEDRAL>
0.409041

>  <SCORE.INTRA.DIHEDRAL.0>
2.22229

>  <SCORE.INTRA.POLAR>
0

>  <SCORE.INTRA.POLAR.0>
0

>  <SCORE.INTRA.REPUL>
0

>  <SCORE.INTRA.REPUL.0>
0

>  <SCORE.INTRA.SOLV>
1.37996

>  <SCORE.INTRA.SOLV.lig_0>
-31.87

>  <SCORE.INTRA.VDW>
0.0324681

>  <SCORE.INTRA.VDW.0>
-0.575321

>  <SCORE.INTRA.norm>
0.092697

>  <SCORE.RESTR>
0

>  <SCORE.RESTR.CAVITY>
0

>  <SCORE.RESTR.norm>
0

>  <SCORE.SYSTEM>
0

>  <SCORE.SYSTEM.CONST>
0

>  <SCORE.SYSTEM.DIHEDRAL>
0

>  <SCORE.SYSTEM.SOLV>
0

>  <SCORE.SYSTEM.norm>
0

>  <SCORE.heavy>
10

>  <SCORE.norm>
-0.114125

>  <RMSD>
12.143

$$$$
ligand
 OpenBabel11021811463D
libRbt.so/2013.1/901 2013/11/27
 10  9  0  0  0  0  0  0  0  0999 V2000
   35.7088   43.0048   15.7008 N   0  0  0  0  0  0  0  0  0  0  0  0
   35.3716   42.8868   17.1142 C   0  0  2  0  0  0  0  0  0  0  0  0
   36.4225   43.5738   17.9845 C   0  0  0  0  0  0  0  0  0  0  0  0
   36.1981   44.6971   18.4449 O   0  0  0  0  0  0  0  0  0  0  0  0
   35.2079   41.4168   17.5126 C   0  0  0  0  0  0  0  0  0  0  0  0
   34.7649   41.2222   18.9576 C   0  0  0  0  0  0  0  0  0  0  0  0
   34.7706   39.7531   19.3706 C   0  0  0  0  0  0  0  0  0  0  0  0
   33.6574   38.9549   18.6739 C   0  0  0  0  0  0  0  0  0  0  0  0
   33.6376   37.4955   19.0076 N   0  0  0  0  0  0  0  0  0  0  0  0
   37.4976   43.0233   18.2560 O   0  0  0  0  0  0  0  0  0  0  0  0
  2  1  1  6  0  0  0
  2  3  1  0  0  0  0
  2  5  1  0  0  0  0
  3  4  1  0  0  0  0
  3 10  1  0  0  0  0
  5  6  1  0  0  0  0
  6  7  1  0  0  0  0
  7  8  1  0  0  0  0
  8  9  1  0  0  0  0
M  END
>  <CHROM.1>
100.85920564,-176.21684373,-173.23928078,-69.91998767,178.23762404,35.35046610
41.62900311,18.11816146,0.63873068,-1.01692283,-1.10638553

>  <Name>
ligand

>  <RI>
0

>  <Rbt.Current_Directory>
/home/itssahil/PROJECTS/Mol_Feturizer/New_Systems/rnas/3D0U

>  <Rbt.Executable>
rbdock ($Id: //depot/dev/client3/rdock/2013.1/src/exe/rbdock.cxx#4 $)

>  <Rbt.Library>
libRbt.so (2013.1, Build901 2013/11/27)

>  <Rbt.Parameter_File>
/export/apps/rDock/src/rDock_2013.1_src/data/scripts/dock_solv.prm

>  <Rbt.Receptor>
prm/blind_docking_100.prm

>  <SCORE>
-3.86632

>  <SCORE.INTER>
-3.58087

>  <SCORE.INTER.CONST>
1

>  <SCORE.INTER.POLAR>
0

>  <SCORE.INTER.ROT>
5

>  <SCORE.INTER.SOLV>
5.38085

>  <SCORE.INTER.VDW>
-11.1142

>  <SCORE.INTER.norm>
-0.358087

>  <SCORE.INTRA>
-0.285456

>  <SCORE.INTRA.DIHEDRAL>
-0.0627714

>  <SCORE.INTRA.DIHEDRAL.0>
2.22229

>  <SCORE.INTRA.POLAR>
0

>  <SCORE.INTRA.POLAR.0>
0

>  <SCORE.INTRA.REPUL>
0

>  <SCORE.INTRA.REPUL.0>
0

>  <SCORE.INTRA.SOLV>
-1.43596

>  <SCORE.INTRA.SOLV.lig_0>
-31.87

>  <SCORE.INTRA.VDW>
0.463908

>  <SCORE.INTRA.VDW.0>
-0.575321

>  <SCORE.INTRA.norm>
-0.0285456

>  <SCORE.RESTR>
0

>  <SCORE.RESTR.CAVITY>
0

>  <SCORE.RESTR.norm>
0

>  <SCORE.SYSTEM>
0

>  <SCORE.SYSTEM.CONST>
0

>  <SCORE.SYSTEM.DIHEDRAL>
0

>  <SCORE.SYSTEM.SOLV>
0

>  <SCORE.SYSTEM.norm>
0

>  <SCORE.heavy>
10

>  <SCORE.norm>
-0.386632

>  <RMSD>
12.472

$$$$
ligand
 OpenBabel11021811463D
libRbt.so/2013.1/901 2013/11/27
 10  9  0  0  0  0  0  0  0  0999 V2000
   14.9007   40.2369   16.6572 N   0  0  0  0  0  0  0  0  0  0  0  0
   15.3883   39.1159   15.8628 C   0  0  2  0  0  0  0  0  0  0  0  0
   14.6456   39.0280   14.5307 C   0  0  0  0  0  0  0  0  0  0  0  0
   15.2435   38.6492   13.5193 O   0  0  0  0  0  0  0  0  0  0  0  0
   15.2675   37.8037   16.6437 C   0  0  0  0  0  0  0  0  0  0  0  0
   15.8673   36.6050   15.9187 C   0  0  0  0  0  0  0  0  0  0  0  0
   15.6235   35.2969   16.6658 C   0  0  0  0  0  0  0  0  0  0  0  0
   16.1506   34.0818   15.8862 C   0  0  0  0  0  0  0  0  0  0  0  0
   15.8249   32.7580   16.5051 N   0  0  0  0  0  0  0  0  0  0  0  0
   13.4446   39.3147   14.4397 O   0  0  0  0  0  0  0  0  0  0  0  0
  2  1  1  1  0  0  0
  2  3  1  0  0  0  0
  2  5  1  0  0  0  0
  3  4  1  0  0  0  0
  3 10  1  0  0  0  0
  5  6  1  0  0  0  0
  6  7  1  0  0  0  0
  7  8  1  0  0  0  0
  8  9  1  0  0  0  0
M  END
>  <CHROM.1>
145.36684175,-175.14414104,-175.02383211,176.31363141,-174.43086246,15.21805406
37.29867992,15.63034756,-2.53865758,1.29204355,-2.42129172

>  <Name>
ligand

>  <RI>
0

>  <Rbt.Current_Directory>
/home/itssahil/PROJECTS/Mol_Feturizer/New_Systems/rnas/3D0U

>  <Rbt.Executable>
rbdock ($Id: //depot/dev/client3/rdock/2013.1/src/exe/rbdock.cxx#4 $)

>  <Rbt.Library>
libRbt.so (2013.1, Build901 2013/11/27)

>  <Rbt.Parameter_File>
/export/apps/rDock/src/rDock_2013.1_src/data/scripts/dock_solv.prm

>  <Rbt.Receptor>
prm/blind_docking_100.prm

>  <SCORE>
-2.19956

>  <SCORE.INTER>
-0.944163

>  <SCORE.INTER.CONST>
1

>  <SCORE.INTER.POLAR>
0

>  <SCORE.INTER.ROT>
5

>  <SCORE.INTER.SOLV>
4.9413

>  <SCORE.INTER.VDW>
-9.20988

>  <SCORE.INTER.norm>
-0.0944163

>  <SCORE.INTRA>
-1.2554

>  <SCORE.INTRA.DIHEDRAL>
-0.413486

>  <SCORE.INTRA.DIHEDRAL.0>
2.22229

>  <SCORE.INTRA.POLAR>
0

>  <SCORE.INTRA.POLAR.0>
0

>  <SCORE.INTRA.REPUL>
0

>  <SCORE.INTRA.REPUL.0>
0

>  <SCORE.INTRA.SOLV>
-1.60689

>  <SCORE.INTRA.SOLV.lig_0>
-31.87

>  <SCORE.INTRA.VDW>
-0.245215

>  <SCORE.INTRA.VDW.0>
-0.575321

>  <SCORE.INTRA.norm>
-0.12554

>  <SCORE.RESTR>
0

>  <SCORE.RESTR.CAVITY>
0

>  <SCORE.RESTR.norm>
0

>  <SCORE.SYSTEM>
0

>  <SCORE.SYSTEM.CONST>
0

>  <SCORE.SYSTEM.DIHEDRAL>
0

>  <SCORE.SYSTEM.SOLV>
0

>  <SCORE.SYSTEM.norm>
0

>  <SCORE.heavy>
10

>  <SCORE.norm>
-0.219956

>  <RMSD>
12.500

$$$$
ligand
 OpenBabel11021811463D
libRbt.so/2013.1/901 2013/11/27
 10  9  0  0  0  0  0  0  0  0999 V2000
   35.6021   44.4874   16.5692 N   0  0  0  0  0  0  0  0  0  0  0  0
   35.8195   43.5303   17.6471 C   0  0  2  0  0  0  0  0  0  0  0  0
   37.2680   43.0452   17.6614 C   0  0  0  0  0  0  0  0  0  0  0  0
   37.8782   42.9049   16.5974 O   0  0  0  0  0  0  0  0  0  0  0  0
   34.8491   42.3508   17.5301 C   0  0  0  0  0  0  0  0  0  0  0  0
   34.8492   41.4376   18.7500 C   0  0  0  0  0  0  0  0  0  0  0  0
   33.8954   40.2574   18.5880 C   0  0  0  0  0  0  0  0  0  0  0  0
   33.8463   39.3796   19.8486 C   0  0  0  0  0  0  0  0  0  0  0  0
   32.9776   38.1663   19.7270 N   0  0  0  0  0  0  0  0  0  0  0  0
   37.8577   42.8009   18.7222 O   0  0  0  0  0  0  0  0  0  0  0  0
  2  1  1  6  0  0  0
  2  3  1  0  0  0  0
  2  5  1  0  0  0  0
  3  4  1  0  0  0  0
  3 10  1  0  0  0  0
  5  6  1  0  0  0  0
  6  7  1  0  0  0  0
  7  8  1  0  0  0  0
  8  9  1  0  0  0  0
M  END
>  <CHROM.1>
-34.75578889,-169.85079451,-178.74127113,-177.10745375,-177.14968780,35.52342541
41.83523574,18.16088110,0.93531751,-0.15780384,-0.59453811

>  <Name>
ligand

>  <RI>
0

>  <Rbt.Current_Directory>
/home/itssahil/PROJECTS/Mol_Feturizer/New_Systems/rnas/3D0U

>  <Rbt.Executable>
rbdock ($Id: //depot/dev/client3/rdock/2013.1/src/exe/rbdock.cxx#4 $)

>  <Rbt.Library>
libRbt.so (2013.1, Build901 2013/11/27)

>  <Rbt.Parameter_File>
/export/apps/rDock/src/rDock_2013.1_src/data/scripts/dock_solv.prm

>  <Rbt.Receptor>
prm/blind_docking_100.prm

>  <SCORE>
-5.34043

>  <SCORE.INTER>
-4.13594

>  <SCORE.INTER.CONST>
1

>  <SCORE.INTER.POLAR>
0

>  <SCORE.INTER.ROT>
5

>  <SCORE.INTER.SOLV>
6.32554

>  <SCORE.INTER.VDW>
-11.7991

>  <SCORE.INTER.norm>
-0.413594

>  <SCORE.INTRA>
-1.20449

>  <SCORE.INTRA.DIHEDRAL>
-0.259722

>  <SCORE.INTRA.DIHEDRAL.0>
2.22229

>  <SCORE.INTRA.POLAR>
0

>  <SCORE.INTRA.POLAR.0>
0

>  <SCORE.INTRA.REPUL>
0

>  <SCORE.INTRA.REPUL.0>
0

>  <SCORE.INTRA.SOLV>
-1.58946

>  <SCORE.INTRA.SOLV.lig_0>
-31.87

>  <SCORE.INTRA.VDW>
-0.279896

>  <SCORE.INTRA.VDW.0>
-0.575321

>  <SCORE.INTRA.norm>
-0.120449

>  <SCORE.RESTR>
0

>  <SCORE.RESTR.CAVITY>
0

>  <SCORE.RESTR.norm>
0

>  <SCORE.SYSTEM>
0

>  <SCORE.SYSTEM.CONST>
0

>  <SCORE.SYSTEM.DIHEDRAL>
0

>  <SCORE.SYSTEM.SOLV>
0

>  <SCORE.SYSTEM.norm>
0

>  <SCORE.heavy>
10

>  <SCORE.norm>
-0.534043

>  <RMSD>
12.622

$$$$
ligand
 OpenBabel11021811463D
libRbt.so/2013.1/901 2013/11/27
 10  9  0  0  0  0  0  0  0  0999 V2000
    8.2667   33.5947    6.2593 N   0  0  0  0  0  0  0  0  0  0  0  0
    7.4989   32.7039    7.1208 C   0  0  2  0  0  0  0  0  0  0  0  0
    8.4165   31.9517    8.0831 C   0  0  0  0  0  0  0  0  0  0  0  0
    9.5333   32.4066    8.3471 O   0  0  0  0  0  0  0  0  0  0  0  0
    6.6637   31.7279    6.2864 C   0  0  0  0  0  0  0  0  0  0  0  0
    5.5775   32.4063    5.4604 C   0  0  0  0  0  0  0  0  0  0  0  0
    6.1462   33.1371    4.2473 C   0  0  0  0  0  0  0  0  0  0  0  0
    5.0440   33.7982    3.4047 C   0  0  0  0  0  0  0  0  0  0  0  0
    5.5327   34.4670    2.1575 N   0  0  0  0  0  0  0  0  0  0  0  0
    8.0613   30.8956    8.6228 O   0  0  0  0  0  0  0  0  0  0  0  0
  2  1  1  6  0  0  0
  2  3  1  0  0  0  0
  2  5  1  0  0  0  0
  3  4  1  0  0  0  0
  3 10  1  0  0  0  0
  5  6  1  0  0  0  0
  6  7  1  0  0  0  0
  7  8  1  0  0  0  0
  8  9  1  0  0  0  0
M  END
>  <CHROM.1>
21.86720277,-65.24057631,74.49571615,178.99503237,-176.75221261,7.10010789
32.68980997,6.03116889,-0.94912362,-0.53020525,-0.84892381

>  <Name>
ligand

>  <RI>
0

>  <Rbt.Current_Directory>
/home/itssahil/PROJECTS/Mol_Feturizer/New_Systems/rnas/3D0U

>  <Rbt.Executable>
rbdock ($Id: //depot/dev/client3/rdock/2013.1/src/exe/rbdock.cxx#4 $)

>  <Rbt.Library>
libRbt.so (2013.1, Build901 2013/11/27)

>  <Rbt.Parameter_File>
/export/apps/rDock/src/rDock_2013.1_src/data/scripts/dock_solv.prm

>  <Rbt.Receptor>
prm/blind_docking_40.prm

>  <SCORE>
-0.43772

>  <SCORE.INTER>
-1.35158

>  <SCORE.INTER.CONST>
1

>  <SCORE.INTER.POLAR>
0

>  <SCORE.INTER.ROT>
5

>  <SCORE.INTER.SOLV>
3.7912

>  <SCORE.INTER.VDW>
-9.09812

>  <SCORE.INTER.norm>
-0.135158

>  <SCORE.INTRA>
0.913859

>  <SCORE.INTRA.DIHEDRAL>
0.22888

>  <SCORE.INTRA.DIHEDRAL.0>
2.22229

>  <SCORE.INTRA.POLAR>
0

>  <SCORE.INTRA.POLAR.0>
0

>  <SCORE.INTRA.REPUL>
0

>  <SCORE.INTRA.REPUL.0>
0

>  <SCORE.INTRA.SOLV>
0.590834

>  <SCORE.INTRA.SOLV.lig_0>
-31.87

>  <SCORE.INTRA.VDW>
0.504002

>  <SCORE.INTRA.VDW.0>
-0.575321

>  <SCORE.INTRA.norm>
0.0913859

>  <SCORE.RESTR>
0

>  <SCORE.RESTR.CAVITY>
0

>  <SCORE.RESTR.norm>
0

>  <SCORE.SYSTEM>
0

>  <SCORE.SYSTEM.CONST>
0

>  <SCORE.SYSTEM.DIHEDRAL>
0

>  <SCORE.SYSTEM.SOLV>
0

>  <SCORE.SYSTEM.norm>
0

>  <SCORE.heavy>
10

>  <SCORE.norm>
-0.043772

>  <RMSD>
24.866

$$$$
ligand
 OpenBabel11021811463D
libRbt.so/2013.1/901 2013/11/27
 10  9  0  0  0  0  0  0  0  0999 V2000
    8.2186   34.0896    5.9839 N   0  0  0  0  0  0  0  0  0  0  0  0
    7.5502   33.2429    6.9644 C   0  0  2  0  0  0  0  0  0  0  0  0
    8.4805   32.1329    7.4505 C   0  0  0  0  0  0  0  0  0  0  0  0
    9.5714   31.9617    6.8986 O   0  0  0  0  0  0  0  0  0  0  0  0
    6.2575   32.6588    6.3865 C   0  0  0  0  0  0  0  0  0  0  0  0
    6.4685   31.8589    5.1066 C   0  0  0  0  0  0  0  0  0  0  0  0
    5.2076   31.1146    4.6764 C   0  0  0  0  0  0  0  0  0  0  0  0
    5.3268   30.5572    3.2492 C   0  0  0  0  0  0  0  0  0  0  0  0
    5.3626   31.6006    2.1760 N   0  0  0  0  0  0  0  0  0  0  0  0
    8.1739   31.4026    8.4020 O   0  0  0  0  0  0  0  0  0  0  0  0
  2  1  1  6  0  0  0
  2  3  1  0  0  0  0
  2  5  1  0  0  0  0
  3  4  1  0  0  0  0
  3 10  1  0  0  0  0
  5  6  1  0  0  0  0
  6  7  1  0  0  0  0
  7  8  1  0  0  0  0
  8  9  1  0  0  0  0
M  END
>  <CHROM.1>
-8.18697175,57.10051451,171.15368739,167.93820925,-68.22737529,7.08873041
32.04169495,5.75016691,-0.35623855,-0.88298470,-0.71518156

>  <Name>
ligand

>  <RI>
0

>  <Rbt.Current_Directory>
/home/itssahil/PROJECTS/Mol_Feturizer/New_Systems/rnas/3D0U

>  <Rbt.Executable>
rbdock ($Id: //depot/dev/client3/rdock/2013.1/src/exe/rbdock.cxx#4 $)

>  <Rbt.Library>
libRbt.so (2013.1, Build901 2013/11/27)

>  <Rbt.Parameter_File>
/export/apps/rDock/src/rDock_2013.1_src/data/scripts/dock_solv.prm

>  <Rbt.Receptor>
prm/blind_docking_40.prm

>  <SCORE>
-1.88255

>  <SCORE.INTER>
-2.21965

>  <SCORE.INTER.CONST>
1

>  <SCORE.INTER.POLAR>
0

>  <SCORE.INTER.ROT>
5

>  <SCORE.INTER.SOLV>
6.93777

>  <SCORE.INTER.VDW>
-10.7257

>  <SCORE.INTER.norm>
-0.221965

>  <SCORE.INTRA>
0.337102

>  <SCORE.INTRA.DIHEDRAL>
0.472678

>  <SCORE.INTRA.DIHEDRAL.0>
2.22229

>  <SCORE.INTRA.POLAR>
0

>  <SCORE.INTRA.POLAR.0>
0

>  <SCORE.INTRA.REPUL>
0

>  <SCORE.INTRA.REPUL.0>
0

>  <SCORE.INTRA.SOLV>
0.14374

>  <SCORE.INTRA.SOLV.lig_0>
-31.87

>  <SCORE.INTRA.VDW>
0.0288932

>  <SCORE.INTRA.VDW.0>
-0.575321

>  <SCORE.INTRA.norm>
0.0337102

>  <SCORE.RESTR>
0

>  <SCORE.RESTR.CAVITY>
0

>  <SCORE.RESTR.norm>
0

>  <SCORE.SYSTEM>
0

>  <SCORE.SYSTEM.CONST>
0

>  <SCORE.SYSTEM.DIHEDRAL>
0

>  <SCORE.SYSTEM.SOLV>
0

>  <SCORE.SYSTEM.norm>
0

>  <SCORE.heavy>
10

>  <SCORE.norm>
-0.188255

>  <RMSD>
25.346

$$$$
ligand
 OpenBabel11021811463D
libRbt.so/2013.1/901 2013/11/27
 10  9  0  0  0  0  0  0  0  0999 V2000
    7.4841   35.2408    5.0075 N   0  0  0  0  0  0  0  0  0  0  0  0
    6.3210   34.6207    5.6304 C   0  0  2  0  0  0  0  0  0  0  0  0
    6.2621   34.9475    7.1215 C   0  0  0  0  0  0  0  0  0  0  0  0
    6.9622   34.3134    7.9163 O   0  0  0  0  0  0  0  0  0  0  0  0
    6.3258   33.1060    5.4025 C   0  0  0  0  0  0  0  0  0  0  0  0
    5.0565   32.4129    5.8829 C   0  0  0  0  0  0  0  0  0  0  0  0
    5.1140   30.9007    5.6853 C   0  0  0  0  0  0  0  0  0  0  0  0
    4.9595   30.5070    4.2078 C   0  0  0  0  0  0  0  0  0  0  0  0
    6.0262   31.0466    3.3064 N   0  0  0  0  0  0  0  0  0  0  0  0
    5.5354   35.8501    7.5575 O   0  0  0  0  0  0  0  0  0  0  0  0
  2  1  1  1  0  0  0
  2  3  1  0  0  0  0
  2  5  1  0  0  0  0
  3  4  1  0  0  0  0
  3 10  1  0  0  0  0
  5  6  1  0  0  0  0
  6  7  1  0  0  0  0
  7  8  1  0  0  0  0
  8  9  1  0  0  0  0
M  END
>  <CHROM.1>
-80.33511051,-173.15635515,-178.02107664,-73.44326379,61.09914257,6.00536710
33.31149022,5.80893348,-1.19677017,-0.98675286,-2.26589967

>  <Name>
ligand

>  <RI>
0

>  <Rbt.Current_Directory>
/home/itssahil/PROJECTS/Mol_Feturizer/New_Systems/rnas/3D0U

>  <Rbt.Executable>
rbdock ($Id: //depot/dev/client3/rdock/2013.1/src/exe/rbdock.cxx#4 $)

>  <Rbt.Library>
libRbt.so (2013.1, Build901 2013/11/27)

>  <Rbt.Parameter_File>
/export/apps/rDock/src/rDock_2013.1_src/data/scripts/dock_solv.prm

>  <Rbt.Receptor>
prm/blind_docking_40.prm

>  <SCORE>
-1.16732

>  <SCORE.INTER>
-2.20495

>  <SCORE.INTER.CONST>
1

>  <SCORE.INTER.POLAR>
0

>  <SCORE.INTER.ROT>
5

>  <SCORE.INTER.SOLV>
8.6412

>  <SCORE.INTER.VDW>
-11.2837

>  <SCORE.INTER.norm>
-0.220495

>  <SCORE.INTRA>
1.03762

>  <SCORE.INTRA.DIHEDRAL>
0.147651

>  <SCORE.INTRA.DIHEDRAL.0>
2.22229

>  <SCORE.INTRA.POLAR>
0

>  <SCORE.INTRA.POLAR.0>
0

>  <SCORE.INTRA.REPUL>
0

>  <SCORE.INTRA.REPUL.0>
0

>  <SCORE.INTRA.SOLV>
0.708034

>  <SCORE.INTRA.SOLV.lig_0>
-31.87

>  <SCORE.INTRA.VDW>
0.60978

>  <SCORE.INTRA.VDW.0>
-0.575321

>  <SCORE.INTRA.norm>
0.103762

>  <SCORE.RESTR>
0

>  <SCORE.RESTR.CAVITY>
0

>  <SCORE.RESTR.norm>
0

>  <SCORE.SYSTEM>
0

>  <SCORE.SYSTEM.CONST>
0

>  <SCORE.SYSTEM.DIHEDRAL>
0

>  <SCORE.SYSTEM.SOLV>
0

>  <SCORE.SYSTEM.norm>
0

>  <SCORE.heavy>
10

>  <SCORE.norm>
-0.116732

>  <RMSD>
25.740

$$$$
ligand
 OpenBabel11021811463D
libRbt.so/2013.1/901 2013/11/27
 10  9  0  0  0  0  0  0  0  0999 V2000
    7.8958   34.0143    2.1121 N   0  0  0  0  0  0  0  0  0  0  0  0
    9.1019   33.3508    2.5919 C   0  0  2  0  0  0  0  0  0  0  0  0
    9.3634   33.6893    4.0585 C   0  0  0  0  0  0  0  0  0  0  0  0
    9.4161   34.8699    4.4153 O   0  0  0  0  0  0  0  0  0  0  0  0
   10.3075   33.7201    1.7222 C   0  0  0  0  0  0  0  0  0  0  0  0
   10.1927   33.2340    0.2825 C   0  0  0  0  0  0  0  0  0  0  0  0
   11.4509   33.5298   -0.5290 C   0  0  0  0  0  0  0  0  0  0  0  0
   11.3930   32.9017   -1.9304 C   0  0  0  0  0  0  0  0  0  0  0  0
   10.2633   33.3895   -2.7834 N   0  0  0  0  0  0  0  0  0  0  0  0
    9.5105   32.8030    4.9104 O   0  0  0  0  0  0  0  0  0  0  0  0
  2  1  1  6  0  0  0
  2  3  1  0  0  0  0
  2  5  1  0  0  0  0
  3  4  1  0  0  0  0
  3 10  1  0  0  0  0
  5  6  1  0  0  0  0
  6  7  1  0  0  0  0
  7  8  1  0  0  0  0
  8  9  1  0  0  0  0
M  END
>  <CHROM.1>
-53.52025623,-64.41159749,-175.88632949,173.64747569,60.81566079,9.89095485
33.55763211,1.52970320,1.84965189,-0.28403039,1.56367975

>  <Name>
ligand

>  <RI>
0

>  <Rbt.Current_Directory>
/home/itssahil/PROJECTS/Mol_Feturizer/New_Systems/rnas/3D0U

>  <Rbt.Executable>
rbdock ($Id: //depot/dev/client3/rdock/2013.1/src/exe/rbdock.cxx#4 $)

>  <Rbt.Library>
libRbt.so (2013.1, Build901 2013/11/27)

>  <Rbt.Parameter_File>
/export/apps/rDock/src/rDock_2013.1_src/data/scripts/dock_solv.prm

>  <Rbt.Receptor>
prm/blind_docking_40.prm

>  <SCORE>
0.581608

>  <SCORE.INTER>
0.931152

>  <SCORE.INTER.CONST>
1

>  <SCORE.INTER.POLAR>
0

>  <SCORE.INTER.ROT>
5

>  <SCORE.INTER.SOLV>
8.24552

>  <SCORE.INTER.VDW>
-9.06107

>  <SCORE.INTER.norm>
0.0931152

>  <SCORE.INTRA>
-0.349544

>  <SCORE.INTRA.DIHEDRAL>
-0.410514

>  <SCORE.INTRA.DIHEDRAL.0>
2.22229

>  <SCORE.INTRA.POLAR>
0

>  <SCORE.INTRA.POLAR.0>
0

>  <SCORE.INTRA.REPUL>
0

>  <SCORE.INTRA.REPUL.0>
0

>  <SCORE.INTRA.SOLV>
0.0565043

>  <SCORE.INTRA.SOLV.lig_0>
-31.87

>  <SCORE.INTRA.VDW>
-0.172539

>  <SCORE.INTRA.VDW.0>
-0.575321

>  <SCORE.INTRA.norm>
-0.0349544

>  <SCORE.RESTR>
0

>  <SCORE.RESTR.CAVITY>
0

>  <SCORE.RESTR.norm>
0

>  <SCORE.SYSTEM>
0

>  <SCORE.SYSTEM.CONST>
0

>  <SCORE.SYSTEM.DIHEDRAL>
0

>  <SCORE.SYSTEM.SOLV>
0

>  <SCORE.SYSTEM.norm>
0

>  <SCORE.heavy>
10

>  <SCORE.norm>
0.0581608

>  <RMSD>
25.959

$$$$
ligand
 OpenBabel11021811463D
libRbt.so/2013.1/901 2013/11/27
 10  9  0  0  0  0  0  0  0  0999 V2000
    7.1781   33.9139    5.8048 N   0  0  0  0  0  0  0  0  0  0  0  0
    6.8568   32.6178    6.3897 C   0  0  2  0  0  0  0  0  0  0  0  0
    7.9417   32.1789    7.3716 C   0  0  0  0  0  0  0  0  0  0  0  0
    7.6380   31.8938    8.5337 O   0  0  0  0  0  0  0  0  0  0  0  0
    6.6503   31.5647    5.2967 C   0  0  0  0  0  0  0  0  0  0  0  0
    5.5743   31.9391    4.2846 C   0  0  0  0  0  0  0  0  0  0  0  0
    5.4744   30.9268    3.1469 C   0  0  0  0  0  0  0  0  0  0  0  0
    4.4767   31.3721    2.0661 C   0  0  0  0  0  0  0  0  0  0  0  0
    4.8259   32.6628    1.3924 N   0  0  0  0  0  0  0  0  0  0  0  0
    9.1271   32.0858    7.0265 O   0  0  0  0  0  0  0  0  0  0  0  0
  2  1  1  6  0  0  0
  2  3  1  0  0  0  0
  2  5  1  0  0  0  0
  3  4  1  0  0  0  0
  3 10  1  0  0  0  0
  5  6  1  0  0  0  0
  6  7  1  0  0  0  0
  7  8  1  0  0  0  0
  8  9  1  0  0  0  0
M  END
>  <CHROM.1>
124.56969252,-56.63896208,175.24169693,-174.93931676,61.15629063,6.60349934
32.10724397,5.16478906,-0.30742466,-1.00291702,-0.44608623

>  <Name>
ligand

>  <RI>
0

>  <Rbt.Current_Directory>
/home/itssahil/PROJECTS/Mol_Feturizer/New_Systems/rnas/3D0U

>  <Rbt.Executable>
rbdock ($Id: //depot/dev/client3/rdock/2013.1/src/exe/rbdock.cxx#4 $)

>  <Rbt.Library>
libRbt.so (2013.1, Build901 2013/11/27)

>  <Rbt.Parameter_File>
/export/apps/rDock/src/rDock_2013.1_src/data/scripts/dock_solv.prm

>  <Rbt.Receptor>
prm/blind_docking_40.prm

>  <SCORE>
-2.30121

>  <SCORE.INTER>
-2.05683

>  <SCORE.INTER.CONST>
1

>  <SCORE.INTER.POLAR>
0

>  <SCORE.INTER.ROT>
5

>  <SCORE.INTER.SOLV>
5.08077

>  <SCORE.INTER.VDW>
-9.99814

>  <SCORE.INTER.norm>
-0.205683

>  <SCORE.INTRA>
-0.244385

>  <SCORE.INTRA.DIHEDRAL>
-0.505607

>  <SCORE.INTRA.DIHEDRAL.0>
2.22229

>  <SCORE.INTRA.POLAR>
0

>  <SCORE.INTRA.POLAR.0>
0

>  <SCORE.INTRA.REPUL>
0

>  <SCORE.INTRA.REPUL.0>
0

>  <SCORE.INTRA.SOLV>
0.232274

>  <SCORE.INTRA.SOLV.lig_0>
-31.87

>  <SCORE.INTRA.VDW>
-0.107718

>  <SCORE.INTRA.VDW.0>
-0.575321

>  <SCORE.INTRA.norm>
-0.0244385

>  <SCORE.RESTR>
0

>  <SCORE.RESTR.CAVITY>
0

>  <SCORE.RESTR.norm>
0

>  <SCORE.SYSTEM>
0

>  <SCORE.SYSTEM.CONST>
0

>  <SCORE.SYSTEM.DIHEDRAL>
0

>  <SCORE.SYSTEM.SOLV>
0

>  <SCORE.SYSTEM.norm>
0

>  <SCORE.heavy>
10

>  <SCORE.norm>
-0.230121

>  <RMSD>
25.996

$$$$
ligand
 OpenBabel11021811463D
libRbt.so/2013.1/901 2013/11/27
 10  9  0  0  0  0  0  0  0  0999 V2000
    6.3006   32.1360    3.8025 N   0  0  0  0  0  0  0  0  0  0  0  0
    5.8534   31.6331    5.0956 C   0  0  2  0  0  0  0  0  0  0  0  0
    5.0562   30.3403    4.9316 C   0  0  0  0  0  0  0  0  0  0  0  0
    4.5806   29.7830    5.9252 O   0  0  0  0  0  0  0  0  0  0  0  0
    5.0308   32.6925    5.8355 C   0  0  0  0  0  0  0  0  0  0  0  0
    5.8095   33.9666    6.1397 C   0  0  0  0  0  0  0  0  0  0  0  0
    6.9483   33.7257    7.1267 C   0  0  0  0  0  0  0  0  0  0  0  0
    7.6863   35.0259    7.4827 C   0  0  0  0  0  0  0  0  0  0  0  0
    8.3881   35.6768    6.3314 N   0  0  0  0  0  0  0  0  0  0  0  0
    4.8590   29.8392    3.8168 O   0  0  0  0  0  0  0  0  0  0  0  0
  2  1  1  6  0  0  0
  2  3  1  0  0  0  0
  2  5  1  0  0  0  0
  3  4  1  0  0  0  0
  3 10  1  0  0  0  0
  5  6  1  0  0  0  0
  6  7  1  0  0  0  0
  7  8  1  0  0  0  0
  8  9  1  0  0  0  0
M  END
>  <CHROM.1>
-178.90326284,-61.41052082,-65.70532783,-177.19649908,-63.87134615,6.02932246
32.44349359,5.64137025,-2.44620044,0.93894530,1.18849004

>  <Name>
ligand

>  <RI>
0

>  <Rbt.Current_Directory>
/home/itssahil/PROJECTS/Mol_Feturizer/New_Systems/rnas/3D0U

>  <Rbt.Executable>
rbdock ($Id: //depot/dev/client3/rdock/2013.1/src/exe/rbdock.cxx#4 $)

>  <Rbt.Library>
libRbt.so (2013.1, Build901 2013/11/27)

>  <Rbt.Parameter_File>
/export/apps/rDock/src/rDock_2013.1_src/data/scripts/dock_solv.prm

>  <Rbt.Receptor>
prm/blind_docking_40.prm

>  <SCORE>
-2.91449

>  <SCORE.INTER>
-3.22768

>  <SCORE.INTER.CONST>
1

>  <SCORE.INTER.POLAR>
0

>  <SCORE.INTER.ROT>
5

>  <SCORE.INTER.SOLV>
5.78289

>  <SCORE.INTER.VDW>
-11.0127

>  <SCORE.INTER.norm>
-0.322768

>  <SCORE.INTRA>
0.313188

>  <SCORE.INTRA.DIHEDRAL>
-0.509604

>  <SCORE.INTRA.DIHEDRAL.0>
2.22229

>  <SCORE.INTRA.POLAR>
0

>  <SCORE.INTRA.POLAR.0>
0

>  <SCORE.INTRA.REPUL>
0

>  <SCORE.INTRA.REPUL.0>
0

>  <SCORE.INTRA.SOLV>
0.602837

>  <SCORE.INTRA.SOLV.lig_0>
-31.87

>  <SCORE.INTRA.VDW>
0.266571

>  <SCORE.INTRA.VDW.0>
-0.575321

>  <SCORE.INTRA.norm>
0.0313188

>  <SCORE.RESTR>
0

>  <SCORE.RESTR.CAVITY>
0

>  <SCORE.RESTR.norm>
0

>  <SCORE.SYSTEM>
0

>  <SCORE.SYSTEM.CONST>
0

>  <SCORE.SYSTEM.DIHEDRAL>
0

>  <SCORE.SYSTEM.SOLV>
0

>  <SCORE.SYSTEM.norm>
0

>  <SCORE.heavy>
10

>  <SCORE.norm>
-0.291449

>  <RMSD>
26.007

$$$$
ligand
 OpenBabel11021811463D
libRbt.so/2013.1/901 2013/11/27
 10  9  0  0  0  0  0  0  0  0999 V2000
    6.4279   31.7767    3.6427 N   0  0  0  0  0  0  0  0  0  0  0  0
    6.0457   31.3188    4.9729 C   0  0  2  0  0  0  0  0  0  0  0  0
    4.9506   30.2569    4.8900 C   0  0  0  0  0  0  0  0  0  0  0  0
    4.6348   29.6216    5.9003 O   0  0  0  0  0  0  0  0  0  0  0  0
    5.6005   32.4963    5.8456 C   0  0  0  0  0  0  0  0  0  0  0  0
    6.7167   33.4895    6.1454 C   0  0  0  0  0  0  0  0  0  0  0  0
    6.2280   34.6750    6.9729 C   0  0  0  0  0  0  0  0  0  0  0  0
    7.3699   35.6418    7.3239 C   0  0  0  0  0  0  0  0  0  0  0  0
    8.0088   36.3034    6.1424 N   0  0  0  0  0  0  0  0  0  0  0  0
    4.3545   30.0241    3.8301 O   0  0  0  0  0  0  0  0  0  0  0  0
  2  1  1  6  0  0  0
  2  3  1  0  0  0  0
  2  5  1  0  0  0  0
  3  4  1  0  0  0  0
  3 10  1  0  0  0  0
  5  6  1  0  0  0  0
  6  7  1  0  0  0  0
  7  8  1  0  0  0  0
  8  9  1  0  0  0  0
M  END
>  <CHROM.1>
169.89985249,-65.21838945,177.90121335,177.52074063,63.48497079,6.00575487
32.52521306,5.56109882,-2.36227445,0.98290388,1.06276057

>  <Name>
ligand

>  <RI>
0

>  <Rbt.Current_Directory>
/home/itssahil/PROJECTS/Mol_Feturizer/New_Systems/rnas/3D0U

>  <Rbt.Executable>
rbdock ($Id: //depot/dev/client3/rdock/2013.1/src/exe/rbdock.cxx#4 $)

>  <Rbt.Library>
libRbt.so (2013.1, Build901 2013/11/27)

>  <Rbt.Parameter_File>
/export/apps/rDock/src/rDock_2013.1_src/data/scripts/dock_solv.prm

>  <Rbt.Receptor>
prm/blind_docking_40.prm

>  <SCORE>
-2.54018

>  <SCORE.INTER>
-2.22514

>  <SCORE.INTER.CONST>
1

>  <SCORE.INTER.POLAR>
0

>  <SCORE.INTER.ROT>
5

>  <SCORE.INTER.SOLV>
6.79364

>  <SCORE.INTER.VDW>
-10.6813

>  <SCORE.INTER.norm>
-0.222514

>  <SCORE.INTRA>
-0.315048

>  <SCORE.INTRA.DIHEDRAL>
-0.555421

>  <SCORE.INTRA.DIHEDRAL.0>
2.22229

>  <SCORE.INTRA.POLAR>
0

>  <SCORE.INTRA.POLAR.0>
0

>  <SCORE.INTRA.REPUL>
0

>  <SCORE.INTRA.REPUL.0>
0

>  <SCORE.INTRA.SOLV>
0.0601662

>  <SCORE.INTRA.SOLV.lig_0>
-31.87

>  <SCORE.INTRA.VDW>
-0.0674202

>  <SCORE.INTRA.VDW.0>
-0.575321

>  <SCORE.INTRA.norm>
-0.0315048

>  <SCORE.RESTR>
0

>  <SCORE.RESTR.CAVITY>
0

>  <SCORE.RESTR.norm>
0

>  <SCORE.SYSTEM>
0

>  <SCORE.SYSTEM.CONST>
0

>  <SCORE.SYSTEM.DIHEDRAL>
0

>  <SCORE.SYSTEM.SOLV>
0

>  <SCORE.SYSTEM.norm>
0

>  <SCORE.heavy>
10

>  <SCORE.norm>
-0.254018

>  <RMSD>
26.049

$$$$
ligand
 OpenBabel11021811463D
libRbt.so/2013.1/901 2013/11/27
 10  9  0  0  0  0  0  0  0  0999 V2000
    6.2137   31.8646    3.5905 N   0  0  0  0  0  0  0  0  0  0  0  0
    6.1229   31.1869    4.8780 C   0  0  2  0  0  0  0  0  0  0  0  0
    4.9152   30.2522    4.9179 C   0  0  0  0  0  0  0  0  0  0  0  0
    4.2963   30.0053    3.8788 O   0  0  0  0  0  0  0  0  0  0  0  0
    6.0664   32.2023    6.0235 C   0  0  0  0  0  0  0  0  0  0  0  0
    7.3843   32.9304    6.2586 C   0  0  0  0  0  0  0  0  0  0  0  0
    7.2690   33.9977    7.3433 C   0  0  0  0  0  0  0  0  0  0  0  0
    6.4461   35.2081    6.8748 C   0  0  0  0  0  0  0  0  0  0  0  0
    6.4738   36.3773    7.8096 N   0  0  0  0  0  0  0  0  0  0  0  0
    4.5454   29.7181    5.9719 O   0  0  0  0  0  0  0  0  0  0  0  0
  2  1  1  6  0  0  0
  2  3  1  0  0  0  0
  2  5  1  0  0  0  0
  3  4  1  0  0  0  0
  3 10  1  0  0  0  0
  5  6  1  0  0  0  0
  6  7  1  0  0  0  0
  7  8  1  0  0  0  0
  8  9  1  0  0  0  0
M  END
>  <CHROM.1>
10.78646673,-70.80918996,176.24614206,-71.27598912,-170.93891609,5.94386169
32.34235927,5.74973432,-2.21010489,1.00606515,1.05377417

>  <Name>
ligand

>  <RI>
0

>  <Rbt.Current_Directory>
/home/itssahil/PROJECTS/Mol_Feturizer/New_Systems/rnas/3D0U

>  <Rbt.Executable>
rbdock ($Id: //depot/dev/client3/rdock/2013.1/src/exe/rbdock.cxx#4 $)

>  <Rbt.Library>
libRbt.so (2013.1, Build901 2013/11/27)

>  <Rbt.Parameter_File>
/export/apps/rDock/src/rDock_2013.1_src/data/scripts/dock_solv.prm

>  <Rbt.Receptor>
prm/blind_docking_40.prm

>  <SCORE>
-1.13622

>  <SCORE.INTER>
-1.54845

>  <SCORE.INTER.CONST>
1

>  <SCORE.INTER.POLAR>
0

>  <SCORE.INTER.ROT>
5

>  <SCORE.INTER.SOLV>
10.2786

>  <SCORE.INTER.VDW>
-11.3918

>  <SCORE.INTER.norm>
-0.154845

>  <SCORE.INTRA>
0.412229

>  <SCORE.INTRA.DIHEDRAL>
0.592125

>  <SCORE.INTRA.DIHEDRAL.0>
2.22229

>  <SCORE.INTRA.POLAR>
0

>  <SCORE.INTRA.POLAR.0>
0

>  <SCORE.INTRA.REPUL>
0

>  <SCORE.INTRA.REPUL.0>
0

>  <SCORE.INTRA.SOLV>
-0.67883

>  <SCORE.INTRA.SOLV.lig_0>
-31.87

>  <SCORE.INTRA.VDW>
0.455581

>  <SCORE.INTRA.VDW.0>
-0.575321

>  <SCORE.INTRA.norm>
0.0412229

>  <SCORE.RESTR>
0

>  <SCORE.RESTR.CAVITY>
0

>  <SCORE.RESTR.norm>
0

>  <SCORE.SYSTEM>
0

>  <SCORE.SYSTEM.CONST>
0

>  <SCORE.SYSTEM.DIHEDRAL>
0

>  <SCORE.SYSTEM.SOLV>
0

>  <SCORE.SYSTEM.norm>
0

>  <SCORE.heavy>
10

>  <SCORE.norm>
-0.113622

>  <RMSD>
26.056

$$$$
ligand
 OpenBabel11021811463D
libRbt.so/2013.1/901 2013/11/27
 10  9  0  0  0  0  0  0  0  0999 V2000
    9.4868   34.2281    4.5946 N   0  0  0  0  0  0  0  0  0  0  0  0
    9.1266   34.1210    3.1861 C   0  0  2  0  0  0  0  0  0  0  0  0
    7.9351   33.1835    2.9979 C   0  0  0  0  0  0  0  0  0  0  0  0
    7.0028   33.5173    2.2608 O   0  0  0  0  0  0  0  0  0  0  0  0
   10.3249   33.6561    2.3529 C   0  0  0  0  0  0  0  0  0  0  0  0
   10.0672   33.6738    0.8510 C   0  0  0  0  0  0  0  0  0  0  0  0
   11.3109   33.3050    0.0472 C   0  0  0  0  0  0  0  0  0  0  0  0
   11.0480   33.3355   -1.4666 C   0  0  0  0  0  0  0  0  0  0  0  0
   12.2334   32.9819   -2.3101 N   0  0  0  0  0  0  0  0  0  0  0  0
    7.8853   32.0805    3.5581 O   0  0  0  0  0  0  0  0  0  0  0  0
  2  1  1  1  0  0  0
  2  3  1  0  0  0  0
  2  5  1  0  0  0  0
  3  4  1  0  0  0  0
  3 10  1  0  0  0  0
  5  6  1  0  0  0  0
  6  7  1  0  0  0  0
  7  8  1  0  0  0  0
  8  9  1  0  0  0  0
M  END
>  <CHROM.1>
134.31467194,-173.42927842,175.76906824,-179.54376418,179.99669574,9.60837090
33.38930613,1.61258237,-2.20483115,-0.29237252,-1.80667313

>  <Name>
ligand

>  <RI>
0

>  <Rbt.Current_Directory>
/home/itssahil/PROJECTS/Mol_Feturizer/New_Systems/rnas/3D0U

>  <Rbt.Executable>
rbdock ($Id: //depot/dev/client3/rdock/2013.1/src/exe/rbdock.cxx#4 $)

>  <Rbt.Library>
libRbt.so (2013.1, Build901 2013/11/27)

>  <Rbt.Parameter_File>
/export/apps/rDock/src/rDock_2013.1_src/data/scripts/dock_solv.prm

>  <Rbt.Receptor>
prm/blind_docking_40.prm

>  <SCORE>
-1.43054

>  <SCORE.INTER>
-0.0669857

>  <SCORE.INTER.CONST>
1

>  <SCORE.INTER.POLAR>
0

>  <SCORE.INTER.ROT>
5

>  <SCORE.INTER.SOLV>
5.27111

>  <SCORE.INTER.VDW>
-8.73503

>  <SCORE.INTER.norm>
-0.00669857

>  <SCORE.INTRA>
-1.36355

>  <SCORE.INTRA.DIHEDRAL>
-0.530728

>  <SCORE.INTRA.DIHEDRAL.0>
2.22229

>  <SCORE.INTRA.POLAR>
0

>  <SCORE.INTRA.POLAR.0>
0

>  <SCORE.INTRA.REPUL>
0

>  <SCORE.INTRA.REPUL.0>
0

>  <SCORE.INTRA.SOLV>
-1.61286

>  <SCORE.INTRA.SOLV.lig_0>
-31.87

>  <SCORE.INTRA.VDW>
-0.291759

>  <SCORE.INTRA.VDW.0>
-0.575321

>  <SCORE.INTRA.norm>
-0.136355

>  <SCORE.RESTR>
0

>  <SCORE.RESTR.CAVITY>
0

>  <SCORE.RESTR.norm>
0

>  <SCORE.SYSTEM>
0

>  <SCORE.SYSTEM.CONST>
0

>  <SCORE.SYSTEM.DIHEDRAL>
0

>  <SCORE.SYSTEM.SOLV>
0

>  <SCORE.SYSTEM.norm>
0

>  <SCORE.heavy>
10

>  <SCORE.norm>
-0.143054

>  <RMSD>
26.059

$$$$
ligand
 OpenBabel11021811463D
libRbt.so/2013.1/901 2013/11/27
 10  9  0  0  0  0  0  0  0  0999 V2000
    6.2413   31.8621    3.5711 N   0  0  0  0  0  0  0  0  0  0  0  0
    5.9667   31.4323    4.9367 C   0  0  2  0  0  0  0  0  0  0  0  0
    4.9033   30.3357    4.9597 C   0  0  0  0  0  0  0  0  0  0  0  0
    4.3617   29.9847    3.9073 O   0  0  0  0  0  0  0  0  0  0  0  0
    5.5451   32.6210    5.8059 C   0  0  0  0  0  0  0  0  0  0  0  0
    6.6417   33.6635    5.9871 C   0  0  0  0  0  0  0  0  0  0  0  0
    6.1680   34.8647    6.8005 C   0  0  0  0  0  0  0  0  0  0  0  0
    7.2845   35.9018    6.9994 C   0  0  0  0  0  0  0  0  0  0  0  0
    6.8543   37.1498    7.7058 N   0  0  0  0  0  0  0  0  0  0  0  0
    4.5773   29.7730    6.0132 O   0  0  0  0  0  0  0  0  0  0  0  0
  2  1  1  6  0  0  0
  2  3  1  0  0  0  0
  2  5  1  0  0  0  0
  3  4  1  0  0  0  0
  3 10  1  0  0  0  0
  5  6  1  0  0  0  0
  6  7  1  0  0  0  0
  7  8  1  0  0  0  0
  8  9  1  0  0  0  0
M  END
>  <CHROM.1>
-3.45062150,-64.58356417,177.23100648,179.07074127,175.80747203,5.82826795
32.72192455,5.66423002,-2.17821820,1.01697989,0.93991309

>  <Name>
ligand

>  <RI>
0

>  <Rbt.Current_Directory>
/home/itssahil/PROJECTS/Mol_Feturizer/New_Systems/rnas/3D0U

>  <Rbt.Executable>
rbdock ($Id: //depot/dev/client3/rdock/2013.1/src/exe/rbdock.cxx#4 $)

>  <Rbt.Library>
libRbt.so (2013.1, Build901 2013/11/27)

>  <Rbt.Parameter_File>
/export/apps/rDock/src/rDock_2013.1_src/data/scripts/dock_solv.prm

>  <Rbt.Receptor>
prm/blind_docking_40.prm

>  <SCORE>
-2.40448

>  <SCORE.INTER>
-1.73152

>  <SCORE.INTER.CONST>
1

>  <SCORE.INTER.POLAR>
0

>  <SCORE.INTER.ROT>
5

>  <SCORE.INTER.SOLV>
8.58718

>  <SCORE.INTER.VDW>
-10.9501

>  <SCORE.INTER.norm>
-0.173152

>  <SCORE.INTRA>
-0.672962

>  <SCORE.INTRA.DIHEDRAL>
-0.544694

>  <SCORE.INTRA.DIHEDRAL.0>
2.22229

>  <SCORE.INTRA.POLAR>
0

>  <SCORE.INTRA.POLAR.0>
0

>  <SCORE.INTRA.REPUL>
0

>  <SCORE.INTRA.REPUL.0>
0

>  <SCORE.INTRA.SOLV>
-0.742191

>  <SCORE.INTRA.SOLV.lig_0>
-31.87

>  <SCORE.INTRA.VDW>
-0.02952

>  <SCORE.INTRA.VDW.0>
-0.575321

>  <SCORE.INTRA.norm>
-0.0672962

>  <SCORE.RESTR>
0

>  <SCORE.RESTR.CAVITY>
0

>  <SCORE.RESTR.norm>
0

>  <SCORE.SYSTEM>
0

>  <SCORE.SYSTEM.CONST>
0

>  <SCORE.SYSTEM.DIHEDRAL>
0

>  <SCORE.SYSTEM.SOLV>
0

>  <SCORE.SYSTEM.norm>
0

>  <SCORE.heavy>
10

>  <SCORE.norm>
-0.240448

>  <RMSD>
26.063

$$$$
ligand
 OpenBabel11021811463D
libRbt.so/2013.1/901 2013/11/27
 10  9  0  0  0  0  0  0  0  0999 V2000
    6.2650   31.9051    3.5882 N   0  0  0  0  0  0  0  0  0  0  0  0
    5.9622   31.4563    4.9417 C   0  0  2  0  0  0  0  0  0  0  0  0
    4.9059   30.3527    4.9266 C   0  0  0  0  0  0  0  0  0  0  0  0
    4.3646   30.0367    3.8631 O   0  0  0  0  0  0  0  0  0  0  0  0
    5.5127   32.6312    5.8157 C   0  0  0  0  0  0  0  0  0  0  0  0
    6.6210   33.6371    6.1024 C   0  0  0  0  0  0  0  0  0  0  0  0
    6.1372   34.7993    6.9651 C   0  0  0  0  0  0  0  0  0  0  0  0
    7.2824   35.7524    7.3418 C   0  0  0  0  0  0  0  0  0  0  0  0
    7.9322   36.4332    6.1773 N   0  0  0  0  0  0  0  0  0  0  0  0
    4.5855   29.7501    5.9595 O   0  0  0  0  0  0  0  0  0  0  0  0
  2  1  1  6  0  0  0
  2  3  1  0  0  0  0
  2  5  1  0  0  0  0
  3  4  1  0  0  0  0
  3 10  1  0  0  0  0
  5  6  1  0  0  0  0
  6  7  1  0  0  0  0
  7  8  1  0  0  0  0
  8  9  1  0  0  0  0
M  END
>  <CHROM.1>
-5.41248483,-67.96026437,179.53323268,175.56483061,62.74456813,5.93009006
32.63910162,5.56361298,-2.37070967,1.00200062,1.07470032

>  <Name>
ligand

>  <RI>
0

>  <Rbt.Current_Directory>
/home/itssahil/PROJECTS/Mol_Feturizer/New_Systems/rnas/3D0U

>  <Rbt.Executable>
rbdock ($Id: //depot/dev/client3/rdock/2013.1/src/exe/rbdock.cxx#4 $)

>  <Rbt.Library>
libRbt.so (2013.1, Build901 2013/11/27)

>  <Rbt.Parameter_File>
/export/apps/rDock/src/rDock_2013.1_src/data/scripts/dock_solv.prm

>  <Rbt.Receptor>
prm/blind_docking_40.prm

>  <SCORE>
-2.65414

>  <SCORE.INTER>
-2.458

>  <SCORE.INTER.CONST>
1

>  <SCORE.INTER.POLAR>
0

>  <SCORE.INTER.ROT>
5

>  <SCORE.INTER.SOLV>
6.23382

>  <SCORE.INTER.VDW>
-10.6499

>  <SCORE.INTER.norm>
-0.2458

>  <SCORE.INTRA>
-0.196144

>  <SCORE.INTRA.DIHEDRAL>
-0.361126

>  <SCORE.INTRA.DIHEDRAL.0>
2.22229

>  <SCORE.INTRA.POLAR>
0

>  <SCORE.INTRA.POLAR.0>
0

>  <SCORE.INTRA.REPUL>
0

>  <SCORE.INTRA.REPUL.0>
0

>  <SCORE.INTRA.SOLV>
0.0303433

>  <SCORE.INTRA.SOLV.lig_0>
-31.87

>  <SCORE.INTRA.VDW>
-0.0307526

>  <SCORE.INTRA.VDW.0>
-0.575321

>  <SCORE.INTRA.norm>
-0.0196144

>  <SCORE.RESTR>
0

>  <SCORE.RESTR.CAVITY>
0

>  <SCORE.RESTR.norm>
0

>  <SCORE.SYSTEM>
0

>  <SCORE.SYSTEM.CONST>
0

>  <SCORE.SYSTEM.DIHEDRAL>
0

>  <SCORE.SYSTEM.SOLV>
0

>  <SCORE.SYSTEM.norm>
0

>  <SCORE.heavy>
10

>  <SCORE.norm>
-0.265414

>  <RMSD>
26.063

$$$$
ligand
 OpenBabel11021811463D
libRbt.so/2013.1/901 2013/11/27
 10  9  0  0  0  0  0  0  0  0999 V2000
    6.3183   31.8150    3.5882 N   0  0  0  0  0  0  0  0  0  0  0  0
    5.9952   31.3877    4.9440 C   0  0  2  0  0  0  0  0  0  0  0  0
    4.9166   30.3058    4.9320 C   0  0  0  0  0  0  0  0  0  0  0  0
    4.5780   29.7658    5.9892 O   0  0  0  0  0  0  0  0  0  0  0  0
    5.5628   32.5812    5.8012 C   0  0  0  0  0  0  0  0  0  0  0  0
    6.6653   33.6120    6.0120 C   0  0  0  0  0  0  0  0  0  0  0  0
    6.1754   34.8310    6.7884 C   0  0  0  0  0  0  0  0  0  0  0  0
    7.2957   35.8587    7.0134 C   0  0  0  0  0  0  0  0  0  0  0  0
    6.8513   37.1278    7.6717 N   0  0  0  0  0  0  0  0  0  0  0  0
    4.3562   29.9630    3.8826 O   0  0  0  0  0  0  0  0  0  0  0  0
  2  1  1  6  0  0  0
  2  3  1  0  0  0  0
  2  5  1  0  0  0  0
  3  4  1  0  0  0  0
  3 10  1  0  0  0  0
  5  6  1  0  0  0  0
  6  7  1  0  0  0  0
  7  8  1  0  0  0  0
  8  9  1  0  0  0  0
M  END
>  <CHROM.1>
175.47738538,-64.27234886,176.11074304,179.27240270,175.23281998,5.84477839
32.68843245,5.65752522,-2.15030658,0.99204086,0.90893801

>  <Name>
ligand

>  <RI>
0

>  <Rbt.Current_Directory>
/home/itssahil/PROJECTS/Mol_Feturizer/New_Systems/rnas/3D0U

>  <Rbt.Executable>
rbdock ($Id: //depot/dev/client3/rdock/2013.1/src/exe/rbdock.cxx#4 $)

>  <Rbt.Library>
libRbt.so (2013.1, Build901 2013/11/27)

>  <Rbt.Parameter_File>
/export/apps/rDock/src/rDock_2013.1_src/data/scripts/dock_solv.prm

>  <Rbt.Receptor>
prm/blind_docking_40.prm

>  <SCORE>
-2.37387

>  <SCORE.INTER>
-1.6983

>  <SCORE.INTER.CONST>
1

>  <SCORE.INTER.POLAR>
0

>  <SCORE.INTER.ROT>
5

>  <SCORE.INTER.SOLV>
8.76753

>  <SCORE.INTER.VDW>
-10.988

>  <SCORE.INTER.norm>
-0.16983

>  <SCORE.INTRA>
-0.675568

>  <SCORE.INTRA.DIHEDRAL>
-0.523207

>  <SCORE.INTRA.DIHEDRAL.0>
2.22229

>  <SCORE.INTRA.POLAR>
0

>  <SCORE.INTRA.POLAR.0>
0

>  <SCORE.INTRA.REPUL>
0

>  <SCORE.INTRA.REPUL.0>
0

>  <SCORE.INTRA.SOLV>
-0.743057

>  <SCORE.INTRA.SOLV.lig_0>
-31.87

>  <SCORE.INTRA.VDW>
-0.042436

>  <SCORE.INTRA.VDW.0>
-0.575321

>  <SCORE.INTRA.norm>
-0.0675568

>  <SCORE.RESTR>
0

>  <SCORE.RESTR.CAVITY>
0

>  <SCORE.RESTR.norm>
0

>  <SCORE.SYSTEM>
0

>  <SCORE.SYSTEM.CONST>
0

>  <SCORE.SYSTEM.DIHEDRAL>
0

>  <SCORE.SYSTEM.SOLV>
0

>  <SCORE.SYSTEM.norm>
0

>  <SCORE.heavy>
10

>  <SCORE.norm>
-0.237387

>  <RMSD>
26.067

$$$$
ligand
 OpenBabel11021811463D
libRbt.so/2013.1/901 2013/11/27
 10  9  0  0  0  0  0  0  0  0999 V2000
    6.2287   31.9089    3.5775 N   0  0  0  0  0  0  0  0  0  0  0  0
    5.9585   31.4413    4.9316 C   0  0  2  0  0  0  0  0  0  0  0  0
    4.9103   30.3300    4.9255 C   0  0  0  0  0  0  0  0  0  0  0  0
    4.3731   29.9997    3.8642 O   0  0  0  0  0  0  0  0  0  0  0  0
    5.5195   32.6020    5.8296 C   0  0  0  0  0  0  0  0  0  0  0  0
    6.6270   33.6113    6.1070 C   0  0  0  0  0  0  0  0  0  0  0  0
    6.1497   34.7662    6.9830 C   0  0  0  0  0  0  0  0  0  0  0  0
    7.2936   35.7281    7.3409 C   0  0  0  0  0  0  0  0  0  0  0  0
    7.9088   36.4254    6.1674 N   0  0  0  0  0  0  0  0  0  0  0  0
    4.5926   29.7350    5.9637 O   0  0  0  0  0  0  0  0  0  0  0  0
  2  1  1  6  0  0  0
  2  3  1  0  0  0  0
  2  5  1  0  0  0  0
  3  4  1  0  0  0  0
  3 10  1  0  0  0  0
  5  6  1  0  0  0  0
  6  7  1  0  0  0  0
  7  8  1  0  0  0  0
  8  9  1  0  0  0  0
M  END
>  <CHROM.1>
-3.58344104,-68.07019545,178.97781193,175.98873870,63.13064249,5.92960048
32.61829966,5.56465743,-2.39044805,1.01480556,1.09868540

>  <Name>
ligand

>  <RI>
0

>  <Rbt.Current_Directory>
/home/itssahil/PROJECTS/Mol_Feturizer/New_Systems/rnas/3D0U

>  <Rbt.Executable>
rbdock ($Id: //depot/dev/client3/rdock/2013.1/src/exe/rbdock.cxx#4 $)

>  <Rbt.Library>
libRbt.so (2013.1, Build901 2013/11/27)

>  <Rbt.Parameter_File>
/export/apps/rDock/src/rDock_2013.1_src/data/scripts/dock_solv.prm

>  <Rbt.Receptor>
prm/blind_docking_40.prm

>  <SCORE>
-2.65057

>  <SCORE.INTER>
-2.46661

>  <SCORE.INTER.CONST>
1

>  <SCORE.INTER.POLAR>
0

>  <SCORE.INTER.ROT>
5

>  <SCORE.INTER.SOLV>
6.17852

>  <SCORE.INTER.VDW>
-10.6372

>  <SCORE.INTER.norm>
-0.246661

>  <SCORE.INTRA>
-0.183964

>  <SCORE.INTRA.DIHEDRAL>
-0.359885

>  <SCORE.INTRA.DIHEDRAL.0>
2.22229

>  <SCORE.INTRA.POLAR>
0

>  <SCORE.INTRA.POLAR.0>
0

>  <SCORE.INTRA.REPUL>
0

>  <SCORE.INTRA.REPUL.0>
0

>  <SCORE.INTRA.SOLV>
0.0282954

>  <SCORE.INTRA.SOLV.lig_0>
-31.87

>  <SCORE.INTRA.VDW>
-0.0181696

>  <SCORE.INTRA.VDW.0>
-0.575321

>  <SCORE.INTRA.norm>
-0.0183964

>  <SCORE.RESTR>
0

>  <SCORE.RESTR.CAVITY>
0

>  <SCORE.RESTR.norm>
0

>  <SCORE.SYSTEM>
0

>  <SCORE.SYSTEM.CONST>
0

>  <SCORE.SYSTEM.DIHEDRAL>
0

>  <SCORE.SYSTEM.SOLV>
0

>  <SCORE.SYSTEM.norm>
0

>  <SCORE.heavy>
10

>  <SCORE.norm>
-0.265057

>  <RMSD>
26.069

$$$$
ligand
 OpenBabel11021811463D
libRbt.so/2013.1/901 2013/11/27
 10  9  0  0  0  0  0  0  0  0999 V2000
    6.2413   32.0015    3.7248 N   0  0  0  0  0  0  0  0  0  0  0  0
    5.8144   31.5727    5.0511 C   0  0  2  0  0  0  0  0  0  0  0  0
    5.0040   30.2801    4.9715 C   0  0  0  0  0  0  0  0  0  0  0  0
    4.7479   29.7838    3.8706 O   0  0  0  0  0  0  0  0  0  0  0  0
    5.0143   32.6775    5.7479 C   0  0  0  0  0  0  0  0  0  0  0  0
    5.8072   33.9608    5.9645 C   0  0  0  0  0  0  0  0  0  0  0  0
    6.9204   33.7851    6.9935 C   0  0  0  0  0  0  0  0  0  0  0  0
    7.7709   35.0562    7.1443 C   0  0  0  0  0  0  0  0  0  0  0  0
    7.0035   36.2704    7.5667 N   0  0  0  0  0  0  0  0  0  0  0  0
    4.6059   29.7026    5.9917 O   0  0  0  0  0  0  0  0  0  0  0  0
  2  1  1  6  0  0  0
  2  3  1  0  0  0  0
  2  5  1  0  0  0  0
  3  4  1  0  0  0  0
  3 10  1  0  0  0  0
  5  6  1  0  0  0  0
  6  7  1  0  0  0  0
  7  8  1  0  0  0  0
  8  9  1  0  0  0  0
M  END
>  <CHROM.1>
-3.14409513,-61.20870456,-68.65346426,176.47815143,59.17305156,5.87203573
32.46982129,5.69618701,-2.39286089,1.06212806,1.20477015

>  <Name>
ligand

>  <RI>
0

>  <Rbt.Current_Directory>
/home/itssahil/PROJECTS/Mol_Feturizer/New_Systems/rnas/3D0U

>  <Rbt.Executable>
rbdock ($Id: //depot/dev/client3/rdock/2013.1/src/exe/rbdock.cxx#4 $)

>  <Rbt.Library>
libRbt.so (2013.1, Build901 2013/11/27)

>  <Rbt.Parameter_File>
/export/apps/rDock/src/rDock_2013.1_src/data/scripts/dock_solv.prm

>  <Rbt.Receptor>
prm/blind_docking_40.prm

>  <SCORE>
-2.34335

>  <SCORE.INTER>
-2.70176

>  <SCORE.INTER.CONST>
1

>  <SCORE.INTER.POLAR>
0

>  <SCORE.INTER.ROT>
5

>  <SCORE.INTER.SOLV>
7.98006

>  <SCORE.INTER.VDW>
-11.3945

>  <SCORE.INTER.norm>
-0.270176

>  <SCORE.INTRA>
0.35841

>  <SCORE.INTRA.DIHEDRAL>
-0.367182

>  <SCORE.INTRA.DIHEDRAL.0>
2.22229

>  <SCORE.INTRA.POLAR>
0

>  <SCORE.INTRA.POLAR.0>
0

>  <SCORE.INTRA.REPUL>
0

>  <SCORE.INTRA.REPUL.0>
0

>  <SCORE.INTRA.SOLV>
0.643711

>  <SCORE.INTRA.SOLV.lig_0>
-31.87

>  <SCORE.INTRA.VDW>
0.220145

>  <SCORE.INTRA.VDW.0>
-0.575321

>  <SCORE.INTRA.norm>
0.035841

>  <SCORE.RESTR>
0

>  <SCORE.RESTR.CAVITY>
0

>  <SCORE.RESTR.norm>
0

>  <SCORE.SYSTEM>
0

>  <SCORE.SYSTEM.CONST>
0

>  <SCORE.SYSTEM.DIHEDRAL>
0

>  <SCORE.SYSTEM.SOLV>
0

>  <SCORE.SYSTEM.norm>
0

>  <SCORE.heavy>
10

>  <SCORE.norm>
-0.234335

>  <RMSD>
26.085

$$$$
ligand
 OpenBabel11021811463D
libRbt.so/2013.1/901 2013/11/27
 10  9  0  0  0  0  0  0  0  0999 V2000
    6.2036   31.8838    3.5410 N   0  0  0  0  0  0  0  0  0  0  0  0
    5.9615   31.3849    4.8892 C   0  0  2  0  0  0  0  0  0  0  0  0
    4.9079   30.2787    4.8801 C   0  0  0  0  0  0  0  0  0  0  0  0
    4.3051   30.0148    3.8357 O   0  0  0  0  0  0  0  0  0  0  0  0
    5.5486   32.5255    5.8245 C   0  0  0  0  0  0  0  0  0  0  0  0
    6.6504   33.5521    6.0578 C   0  0  0  0  0  0  0  0  0  0  0  0
    6.2006   34.6828    6.9789 C   0  0  0  0  0  0  0  0  0  0  0  0
    7.3498   35.6485    7.3084 C   0  0  0  0  0  0  0  0  0  0  0  0
    7.8936   36.3924    6.1282 N   0  0  0  0  0  0  0  0  0  0  0  0
    4.6501   29.6228    5.8981 O   0  0  0  0  0  0  0  0  0  0  0  0
  2  1  1  6  0  0  0
  2  3  1  0  0  0  0
  2  5  1  0  0  0  0
  3  4  1  0  0  0  0
  3 10  1  0  0  0  0
  5  6  1  0  0  0  0
  6  7  1  0  0  0  0
  7  8  1  0  0  0  0
  8  9  1  0  0  0  0
M  END
>  <CHROM.1>
-6.61764934,-65.82473483,179.27711131,175.05125559,63.98382603,5.94033674
32.56228496,5.52967829,-2.45454574,1.03991740,1.17230841

>  <Name>
ligand

>  <RI>
0

>  <Rbt.Current_Directory>
/home/itssahil/PROJECTS/Mol_Feturizer/New_Systems/rnas/3D0U

>  <Rbt.Executable>
rbdock ($Id: //depot/dev/client3/rdock/2013.1/src/exe/rbdock.cxx#4 $)

>  <Rbt.Library>
libRbt.so (2013.1, Build901 2013/11/27)

>  <Rbt.Parameter_File>
/export/apps/rDock/src/rDock_2013.1_src/data/scripts/dock_solv.prm

>  <Rbt.Receptor>
prm/blind_docking_40.prm

>  <SCORE>
-2.58325

>  <SCORE.INTER>
-2.35974

>  <SCORE.INTER.CONST>
1

>  <SCORE.INTER.POLAR>
0

>  <SCORE.INTER.ROT>
5

>  <SCORE.INTER.SOLV>
6.18128

>  <SCORE.INTER.VDW>
-10.5669

>  <SCORE.INTER.norm>
-0.235974

>  <SCORE.INTRA>
-0.223504

>  <SCORE.INTRA.DIHEDRAL>
-0.4247

>  <SCORE.INTRA.DIHEDRAL.0>
2.22229

>  <SCORE.INTRA.POLAR>
0

>  <SCORE.INTRA.POLAR.0>
0

>  <SCORE.INTRA.REPUL>
0

>  <SCORE.INTRA.REPUL.0>
0

>  <SCORE.INTRA.SOLV>
0.0396259

>  <SCORE.INTRA.SOLV.lig_0>
-31.87

>  <SCORE.INTRA.VDW>
-0.0309677

>  <SCORE.INTRA.VDW.0>
-0.575321

>  <SCORE.INTRA.norm>
-0.0223504

>  <SCORE.RESTR>
0

>  <SCORE.RESTR.CAVITY>
0

>  <SCORE.RESTR.norm>
0

>  <SCORE.SYSTEM>
0

>  <SCORE.SYSTEM.CONST>
0

>  <SCORE.SYSTEM.DIHEDRAL>
0

>  <SCORE.SYSTEM.SOLV>
0

>  <SCORE.SYSTEM.norm>
0

>  <SCORE.heavy>
10

>  <SCORE.norm>
-0.258325

>  <RMSD>
26.102

$$$$
ligand
 OpenBabel11021811463D
libRbt.so/2013.1/901 2013/11/27
 10  9  0  0  0  0  0  0  0  0999 V2000
    6.1882   32.1544    3.6689 N   0  0  0  0  0  0  0  0  0  0  0  0
    5.8157   31.5891    4.9600 C   0  0  2  0  0  0  0  0  0  0  0  0
    5.0215   30.2965    4.7803 C   0  0  0  0  0  0  0  0  0  0  0  0
    4.8057   29.5691    5.7541 O   0  0  0  0  0  0  0  0  0  0  0  0
    5.0255   32.6053    5.7902 C   0  0  0  0  0  0  0  0  0  0  0  0
    5.8177   33.8614    6.1320 C   0  0  0  0  0  0  0  0  0  0  0  0
    7.0093   33.5641    7.0380 C   0  0  0  0  0  0  0  0  0  0  0  0
    7.7077   34.8488    7.5108 C   0  0  0  0  0  0  0  0  0  0  0  0
    8.2696   35.6919    6.4084 N   0  0  0  0  0  0  0  0  0  0  0  0
    4.5708   29.9625    3.6766 O   0  0  0  0  0  0  0  0  0  0  0  0
  2  1  1  6  0  0  0
  2  3  1  0  0  0  0
  2  5  1  0  0  0  0
  3  4  1  0  0  0  0
  3 10  1  0  0  0  0
  5  6  1  0  0  0  0
  6  7  1  0  0  0  0
  7  8  1  0  0  0  0
  8  9  1  0  0  0  0
M  END
>  <CHROM.1>
168.50490666,-62.49076905,-64.75856588,-173.40935677,-60.99022987,6.00131331
32.37598947,5.56382669,-2.69387159,1.03956214,1.51841513

>  <Name>
ligand

>  <RI>
0

>  <Rbt.Current_Directory>
/home/itssahil/PROJECTS/Mol_Feturizer/New_Systems/rnas/3D0U

>  <Rbt.Executable>
rbdock ($Id: //depot/dev/client3/rdock/2013.1/src/exe/rbdock.cxx#4 $)

>  <Rbt.Library>
libRbt.so (2013.1, Build901 2013/11/27)

>  <Rbt.Parameter_File>
/export/apps/rDock/src/rDock_2013.1_src/data/scripts/dock_solv.prm

>  <Rbt.Receptor>
prm/blind_docking_40.prm

>  <SCORE>
-2.8829

>  <SCORE.INTER>
-3.12545

>  <SCORE.INTER.CONST>
1

>  <SCORE.INTER.POLAR>
0

>  <SCORE.INTER.ROT>
5

>  <SCORE.INTER.SOLV>
5.75

>  <SCORE.INTER.VDW>
-10.9336

>  <SCORE.INTER.norm>
-0.312545

>  <SCORE.INTRA>
0.242552

>  <SCORE.INTRA.DIHEDRAL>
-0.456455

>  <SCORE.INTRA.DIHEDRAL.0>
2.22229

>  <SCORE.INTRA.POLAR>
0

>  <SCORE.INTRA.POLAR.0>
0

>  <SCORE.INTRA.REPUL>
0

>  <SCORE.INTRA.REPUL.0>
0

>  <SCORE.INTRA.SOLV>
0.614554

>  <SCORE.INTRA.SOLV.lig_0>
-31.87

>  <SCORE.INTRA.VDW>
0.163502

>  <SCORE.INTRA.VDW.0>
-0.575321

>  <SCORE.INTRA.norm>
0.0242552

>  <SCORE.RESTR>
0

>  <SCORE.RESTR.CAVITY>
0

>  <SCORE.RESTR.norm>
0

>  <SCORE.SYSTEM>
0

>  <SCORE.SYSTEM.CONST>
0

>  <SCORE.SYSTEM.DIHEDRAL>
0

>  <SCORE.SYSTEM.SOLV>
0

>  <SCORE.SYSTEM.norm>
0

>  <SCORE.heavy>
10

>  <SCORE.norm>
-0.28829

>  <RMSD>
26.104

$$$$
ligand
 OpenBabel11021811463D
libRbt.so/2013.1/901 2013/11/27
 10  9  0  0  0  0  0  0  0  0999 V2000
    6.1486   31.8048    3.4905 N   0  0  0  0  0  0  0  0  0  0  0  0
    5.9553   31.3209    4.8519 C   0  0  2  0  0  0  0  0  0  0  0  0
    4.8936   30.2233    4.8947 C   0  0  0  0  0  0  0  0  0  0  0  0
    4.2960   29.9077    3.8616 O   0  0  0  0  0  0  0  0  0  0  0  0
    5.5878   32.4738    5.7911 C   0  0  0  0  0  0  0  0  0  0  0  0
    6.6831   33.5250    5.9241 C   0  0  0  0  0  0  0  0  0  0  0  0
    6.2577   34.6935    6.8088 C   0  0  0  0  0  0  0  0  0  0  0  0
    7.3651   35.7513    6.9371 C   0  0  0  0  0  0  0  0  0  0  0  0
    6.9791   36.9616    7.7295 N   0  0  0  0  0  0  0  0  0  0  0  0
    4.6240   29.6249    5.9445 O   0  0  0  0  0  0  0  0  0  0  0  0
  2  1  1  6  0  0  0
  2  3  1  0  0  0  0
  2  5  1  0  0  0  0
  3  4  1  0  0  0  0
  3 10  1  0  0  0  0
  5  6  1  0  0  0  0
  6  7  1  0  0  0  0
  7  8  1  0  0  0  0
  8  9  1  0  0  0  0
M  END
>  <CHROM.1>
-2.97343962,-63.32204627,177.05973381,-179.89593977,176.64909964,5.85271633
32.59185542,5.61915145,-2.26772574,1.05076088,1.04533196

>  <Name>
ligand

>  <RI>
0

>  <Rbt.Current_Directory>
/home/itssahil/PROJECTS/Mol_Feturizer/New_Systems/rnas/3D0U

>  <Rbt.Executable>
rbdock ($Id: //depot/dev/client3/rdock/2013.1/src/exe/rbdock.cxx#4 $)

>  <Rbt.Library>
libRbt.so (2013.1, Build901 2013/11/27)

>  <Rbt.Parameter_File>
/export/apps/rDock/src/rDock_2013.1_src/data/scripts/dock_solv.prm

>  <Rbt.Receptor>
prm/blind_docking_40.prm

>  <SCORE>
-2.37742

>  <SCORE.INTER>
-1.69651

>  <SCORE.INTER.CONST>
1

>  <SCORE.INTER.POLAR>
0

>  <SCORE.INTER.ROT>
5

>  <SCORE.INTER.SOLV>
8.47409

>  <SCORE.INTER.VDW>
-10.889

>  <SCORE.INTER.norm>
-0.169651

>  <SCORE.INTRA>
-0.680907

>  <SCORE.INTRA.DIHEDRAL>
-0.61038

>  <SCORE.INTRA.DIHEDRAL.0>
2.22229

>  <SCORE.INTRA.POLAR>
0

>  <SCORE.INTRA.POLAR.0>
0

>  <SCORE.INTRA.REPUL>
0

>  <SCORE.INTRA.REPUL.0>
0

>  <SCORE.INTRA.SOLV>
-0.725882

>  <SCORE.INTRA.SOLV.lig_0>
-31.87

>  <SCORE.INTRA.VDW>
-0.0127763

>  <SCORE.INTRA.VDW.0>
-0.575321

>  <SCORE.INTRA.norm>
-0.0680907

>  <SCORE.RESTR>
0

>  <SCORE.RESTR.CAVITY>
0

>  <SCORE.RESTR.norm>
0

>  <SCORE.SYSTEM>
0

>  <SCORE.SYSTEM.CONST>
0

>  <SCORE.SYSTEM.DIHEDRAL>
0

>  <SCORE.SYSTEM.SOLV>
0

>  <SCORE.SYSTEM.norm>
0

>  <SCORE.heavy>
10

>  <SCORE.norm>
-0.237742

>  <RMSD>
26.118

$$$$
ligand
 OpenBabel11021811463D
libRbt.so/2013.1/901 2013/11/27
 10  9  0  0  0  0  0  0  0  0999 V2000
    6.2336   31.7920    3.5161 N   0  0  0  0  0  0  0  0  0  0  0  0
    5.9750   31.2765    4.8550 C   0  0  2  0  0  0  0  0  0  0  0  0
    4.9103   30.1815    4.8212 C   0  0  0  0  0  0  0  0  0  0  0  0
    4.2383   30.0110    3.7998 O   0  0  0  0  0  0  0  0  0  0  0  0
    5.5658   32.4079    5.8030 C   0  0  0  0  0  0  0  0  0  0  0  0
    6.6765   33.4188    6.0616 C   0  0  0  0  0  0  0  0  0  0  0  0
    6.2235   34.5532    6.9763 C   0  0  0  0  0  0  0  0  0  0  0  0
    7.3707   35.5222    7.3032 C   0  0  0  0  0  0  0  0  0  0  0  0
    7.9089   36.2685    6.1220 N   0  0  0  0  0  0  0  0  0  0  0  0
    4.7111   29.4430    5.7947 O   0  0  0  0  0  0  0  0  0  0  0  0
  2  1  1  6  0  0  0
  2  3  1  0  0  0  0
  2  5  1  0  0  0  0
  3  4  1  0  0  0  0
  3 10  1  0  0  0  0
  5  6  1  0  0  0  0
  6  7  1  0  0  0  0
  7  8  1  0  0  0  0
  8  9  1  0  0  0  0
M  END
>  <CHROM.1>
-12.45781954,-65.89719885,178.32515121,176.49077738,64.40973520,5.95427615
32.45144243,5.50009947,-2.48393996,1.04837122,1.21408740

>  <Name>
ligand

>  <RI>
0

>  <Rbt.Current_Directory>
/home/itssahil/PROJECTS/Mol_Feturizer/New_Systems/rnas/3D0U

>  <Rbt.Executable>
rbdock ($Id: //depot/dev/client3/rdock/2013.1/src/exe/rbdock.cxx#4 $)

>  <Rbt.Library>
libRbt.so (2013.1, Build901 2013/11/27)

>  <Rbt.Parameter_File>
/export/apps/rDock/src/rDock_2013.1_src/data/scripts/dock_solv.prm

>  <Rbt.Receptor>
prm/blind_docking_40.prm

>  <SCORE>
-2.57163

>  <SCORE.INTER>
-2.28952

>  <SCORE.INTER.CONST>
1

>  <SCORE.INTER.POLAR>
0

>  <SCORE.INTER.ROT>
5

>  <SCORE.INTER.SOLV>
6.47646

>  <SCORE.INTER.VDW>
-10.6185

>  <SCORE.INTER.norm>
-0.228952

>  <SCORE.INTRA>
-0.28211

>  <SCORE.INTRA.DIHEDRAL>
-0.440818

>  <SCORE.INTRA.DIHEDRAL.0>
2.22229

>  <SCORE.INTRA.POLAR>
0

>  <SCORE.INTRA.POLAR.0>
0

>  <SCORE.INTRA.REPUL>
0

>  <SCORE.INTRA.REPUL.0>
0

>  <SCORE.INTRA.SOLV>
0.0432614

>  <SCORE.INTRA.SOLV.lig_0>
-31.87

>  <SCORE.INTRA.VDW>
-0.0833318

>  <SCORE.INTRA.VDW.0>
-0.575321

>  <SCORE.INTRA.norm>
-0.028211

>  <SCORE.RESTR>
0

>  <SCORE.RESTR.CAVITY>
0

>  <SCORE.RESTR.norm>
0

>  <SCORE.SYSTEM>
0

>  <SCORE.SYSTEM.CONST>
0

>  <SCORE.SYSTEM.DIHEDRAL>
0

>  <SCORE.SYSTEM.SOLV>
0

>  <SCORE.SYSTEM.norm>
0

>  <SCORE.heavy>
10

>  <SCORE.norm>
-0.257163

>  <RMSD>
26.150

$$$$
ligand
 OpenBabel11021811463D
libRbt.so/2013.1/901 2013/11/27
 10  9  0  0  0  0  0  0  0  0999 V2000
    5.2365   32.2272    3.3762 N   0  0  0  0  0  0  0  0  0  0  0  0
    5.6809   31.6842    4.6540 C   0  0  2  0  0  0  0  0  0  0  0  0
    4.9994   30.3483    4.9451 C   0  0  0  0  0  0  0  0  0  0  0  0
    4.8812   29.5114    4.0454 O   0  0  0  0  0  0  0  0  0  0  0  0
    5.4291   32.6846    5.7863 C   0  0  0  0  0  0  0  0  0  0  0  0
    6.1517   34.0130    5.5985 C   0  0  0  0  0  0  0  0  0  0  0  0
    6.0109   34.9241    6.8146 C   0  0  0  0  0  0  0  0  0  0  0  0
    6.6365   36.3070    6.5735 C   0  0  0  0  0  0  0  0  0  0  0  0
    8.1048   36.2821    6.2820 N   0  0  0  0  0  0  0  0  0  0  0  0
    4.5715   30.0731    6.0738 O   0  0  0  0  0  0  0  0  0  0  0  0
  2  1  1  6  0  0  0
  2  3  1  0  0  0  0
  2  5  1  0  0  0  0
  3  4  1  0  0  0  0
  3 10  1  0  0  0  0
  5  6  1  0  0  0  0
  6  7  1  0  0  0  0
  7  8  1  0  0  0  0
  8  9  1  0  0  0  0
M  END
>  <CHROM.1>
43.02905496,-59.86565869,-173.44232925,-175.04653051,-60.84871282,5.75244371
32.76394092,5.41731709,-2.51477466,1.14120364,1.19737783

>  <Name>
ligand

>  <RI>
0

>  <Rbt.Current_Directory>
/home/itssahil/PROJECTS/Mol_Feturizer/New_Systems/rnas/3D0U

>  <Rbt.Executable>
rbdock ($Id: //depot/dev/client3/rdock/2013.1/src/exe/rbdock.cxx#4 $)

>  <Rbt.Library>
libRbt.so (2013.1, Build901 2013/11/27)

>  <Rbt.Parameter_File>
/export/apps/rDock/src/rDock_2013.1_src/data/scripts/dock_solv.prm

>  <Rbt.Receptor>
prm/blind_docking_40.prm

>  <SCORE>
-2.25085

>  <SCORE.INTER>
-2.60699

>  <SCORE.INTER.CONST>
1

>  <SCORE.INTER.POLAR>
0

>  <SCORE.INTER.ROT>
5

>  <SCORE.INTER.SOLV>
5.69427

>  <SCORE.INTER.VDW>
-10.5694

>  <SCORE.INTER.norm>
-0.260699

>  <SCORE.INTRA>
0.356142

>  <SCORE.INTRA.DIHEDRAL>
-0.486794

>  <SCORE.INTRA.DIHEDRAL.0>
2.22229

>  <SCORE.INTRA.POLAR>
0

>  <SCORE.INTRA.POLAR.0>
0

>  <SCORE.INTRA.REPUL>
0

>  <SCORE.INTRA.REPUL.0>
0

>  <SCORE.INTRA.SOLV>
0.110314

>  <SCORE.INTRA.SOLV.lig_0>
-31.87

>  <SCORE.INTRA.VDW>
0.544382

>  <SCORE.INTRA.VDW.0>
-0.575321

>  <SCORE.INTRA.norm>
0.0356142

>  <SCORE.RESTR>
0

>  <SCORE.RESTR.CAVITY>
0

>  <SCORE.RESTR.norm>
0

>  <SCORE.SYSTEM>
0

>  <SCORE.SYSTEM.CONST>
0

>  <SCORE.SYSTEM.DIHEDRAL>
0

>  <SCORE.SYSTEM.SOLV>
0

>  <SCORE.SYSTEM.norm>
0

>  <SCORE.heavy>
10

>  <SCORE.norm>
-0.225085

>  <RMSD>
26.226

$$$$
ligand
 OpenBabel11021811463D
libRbt.so/2013.1/901 2013/11/27
 10  9  0  0  0  0  0  0  0  0999 V2000
    6.3051   32.2072    3.4603 N   0  0  0  0  0  0  0  0  0  0  0  0
    5.9660   31.2902    4.5416 C   0  0  2  0  0  0  0  0  0  0  0  0
    4.9101   30.2824    4.0907 C   0  0  0  0  0  0  0  0  0  0  0  0
    4.6639   29.2971    4.7924 O   0  0  0  0  0  0  0  0  0  0  0  0
    5.4937   32.0603    5.7787 C   0  0  0  0  0  0  0  0  0  0  0  0
    6.5966   32.8677    6.4524 C   0  0  0  0  0  0  0  0  0  0  0  0
    7.6652   31.9759    7.0783 C   0  0  0  0  0  0  0  0  0  0  0  0
    8.7646   32.7952    7.7724 C   0  0  0  0  0  0  0  0  0  0  0  0
    9.5298   33.7047    6.8619 N   0  0  0  0  0  0  0  0  0  0  0  0
    4.2774   30.4362    3.0377 O   0  0  0  0  0  0  0  0  0  0  0  0
  2  1  1  6  0  0  0
  2  3  1  0  0  0  0
  2  5  1  0  0  0  0
  3  4  1  0  0  0  0
  3 10  1  0  0  0  0
  5  6  1  0  0  0  0
  6  7  1  0  0  0  0
  7  8  1  0  0  0  0
  8  9  1  0  0  0  0
M  END
>  <CHROM.1>
167.93208465,-68.38463193,-67.11279497,-179.23124658,-61.54871871,6.38716560
31.66330754,5.37012906,-2.82155307,0.79077919,2.01764457

>  <Name>
ligand

>  <RI>
0

>  <Rbt.Current_Directory>
/home/itssahil/PROJECTS/Mol_Feturizer/New_Systems/rnas/3D0U

>  <Rbt.Executable>
rbdock ($Id: //depot/dev/client3/rdock/2013.1/src/exe/rbdock.cxx#4 $)

>  <Rbt.Library>
libRbt.so (2013.1, Build901 2013/11/27)

>  <Rbt.Parameter_File>
/export/apps/rDock/src/rDock_2013.1_src/data/scripts/dock_solv.prm

>  <Rbt.Receptor>
prm/blind_docking_100.prm

>  <SCORE>
-3.57781

>  <SCORE.INTER>
-3.74685

>  <SCORE.INTER.CONST>
1

>  <SCORE.INTER.POLAR>
0

>  <SCORE.INTER.ROT>
5

>  <SCORE.INTER.SOLV>
6.34739

>  <SCORE.INTER.VDW>
-11.547

>  <SCORE.INTER.norm>
-0.374685

>  <SCORE.INTRA>
0.169034

>  <SCORE.INTRA.DIHEDRAL>
-0.253895

>  <SCORE.INTRA.DIHEDRAL.0>
2.22229

>  <SCORE.INTRA.POLAR>
0

>  <SCORE.INTRA.POLAR.0>
0

>  <SCORE.INTRA.REPUL>
0

>  <SCORE.INTRA.REPUL.0>
0

>  <SCORE.INTRA.SOLV>
0.493021

>  <SCORE.INTRA.SOLV.lig_0>
-31.87

>  <SCORE.INTRA.VDW>
0.0494711

>  <SCORE.INTRA.VDW.0>
-0.575321

>  <SCORE.INTRA.norm>
0.0169034

>  <SCORE.RESTR>
0

>  <SCORE.RESTR.CAVITY>
0

>  <SCORE.RESTR.norm>
0

>  <SCORE.SYSTEM>
0

>  <SCORE.SYSTEM.CONST>
0

>  <SCORE.SYSTEM.DIHEDRAL>
0

>  <SCORE.SYSTEM.SOLV>
0

>  <SCORE.SYSTEM.norm>
0

>  <SCORE.heavy>
10

>  <SCORE.norm>
-0.357781

>  <RMSD>
26.266

$$$$
ligand
 OpenBabel11021811463D
libRbt.so/2013.1/901 2013/11/27
 10  9  0  0  0  0  0  0  0  0999 V2000
    4.8597   32.7677    3.2149 N   0  0  0  0  0  0  0  0  0  0  0  0
    5.7073   31.5912    3.3643 C   0  0  2  0  0  0  0  0  0  0  0  0
    5.0194   30.5289    4.2200 C   0  0  0  0  0  0  0  0  0  0  0  0
    4.9955   29.3552    3.8384 O   0  0  0  0  0  0  0  0  0  0  0  0
    7.0675   31.9732    3.9561 C   0  0  0  0  0  0  0  0  0  0  0  0
    6.9887   32.4727    5.3937 C   0  0  0  0  0  0  0  0  0  0  0  0
    8.3667   32.6020    6.0366 C   0  0  0  0  0  0  0  0  0  0  0  0
    8.2756   32.8102    7.5565 C   0  0  0  0  0  0  0  0  0  0  0  0
    9.5937   32.7884    8.2664 N   0  0  0  0  0  0  0  0  0  0  0  0
    4.4930   30.8130    5.3040 O   0  0  0  0  0  0  0  0  0  0  0  0
  2  1  1  1  0  0  0
  2  3  1  0  0  0  0
  2  5  1  0  0  0  0
  3  4  1  0  0  0  0
  3 10  1  0  0  0  0
  5  6  1  0  0  0  0
  6  7  1  0  0  0  0
  7  8  1  0  0  0  0
  8  9  1  0  0  0  0
M  END
>  <CHROM.1>
132.45090230,66.63530810,169.57221907,-167.75052888,173.38116579,6.51398551
31.74183414,5.12499254,-2.88765025,0.77829212,2.28675042

>  <Name>
ligand

>  <RI>
0

>  <Rbt.Current_Directory>
/home/itssahil/PROJECTS/Mol_Feturizer/New_Systems/rnas/3D0U

>  <Rbt.Executable>
rbdock ($Id: //depot/dev/client3/rdock/2013.1/src/exe/rbdock.cxx#4 $)

>  <Rbt.Library>
libRbt.so (2013.1, Build901 2013/11/27)

>  <Rbt.Parameter_File>
/export/apps/rDock/src/rDock_2013.1_src/data/scripts/dock_solv.prm

>  <Rbt.Receptor>
prm/blind_docking_40.prm

>  <SCORE>
-0.964587

>  <SCORE.INTER>
-0.867829

>  <SCORE.INTER.CONST>
1

>  <SCORE.INTER.POLAR>
0

>  <SCORE.INTER.ROT>
5

>  <SCORE.INTER.SOLV>
9.64681

>  <SCORE.INTER.VDW>
-10.7275

>  <SCORE.INTER.norm>
-0.0867829

>  <SCORE.INTRA>
-0.0967579

>  <SCORE.INTRA.DIHEDRAL>
0.616365

>  <SCORE.INTRA.DIHEDRAL.0>
2.22229

>  <SCORE.INTRA.POLAR>
0

>  <SCORE.INTRA.POLAR.0>
0

>  <SCORE.INTRA.REPUL>
0

>  <SCORE.INTRA.REPUL.0>
0

>  <SCORE.INTRA.SOLV>
-0.857669

>  <SCORE.INTRA.SOLV.lig_0>
-31.87

>  <SCORE.INTRA.VDW>
0.0238945

>  <SCORE.INTRA.VDW.0>
-0.575321

>  <SCORE.INTRA.norm>
-0.00967579

>  <SCORE.RESTR>
0

>  <SCORE.RESTR.CAVITY>
0

>  <SCORE.RESTR.norm>
0

>  <SCORE.SYSTEM>
0

>  <SCORE.SYSTEM.CONST>
0

>  <SCORE.SYSTEM.DIHEDRAL>
0

>  <SCORE.SYSTEM.SOLV>
0

>  <SCORE.SYSTEM.norm>
0

>  <SCORE.heavy>
10

>  <SCORE.norm>
-0.0964587

>  <RMSD>
26.318

$$$$
ligand
 OpenBabel11021811463D
libRbt.so/2013.1/901 2013/11/27
 10  9  0  0  0  0  0  0  0  0999 V2000
    6.1382   32.5704    3.0099 N   0  0  0  0  0  0  0  0  0  0  0  0
    6.1937   31.3608    3.8217 C   0  0  2  0  0  0  0  0  0  0  0  0
    5.0231   30.4337    3.4992 C   0  0  0  0  0  0  0  0  0  0  0  0
    4.8508   29.4091    4.1657 O   0  0  0  0  0  0  0  0  0  0  0  0
    6.2208   31.7085    5.3132 C   0  0  0  0  0  0  0  0  0  0  0  0
    7.4608   32.4871    5.7356 C   0  0  0  0  0  0  0  0  0  0  0  0
    7.4980   32.7422    7.2398 C   0  0  0  0  0  0  0  0  0  0  0  0
    8.6899   33.6238    7.6449 C   0  0  0  0  0  0  0  0  0  0  0  0
   10.0302   32.9891    7.4384 N   0  0  0  0  0  0  0  0  0  0  0  0
    4.2256   30.6921    2.5881 O   0  0  0  0  0  0  0  0  0  0  0  0
  2  1  1  6  0  0  0
  2  3  1  0  0  0  0
  2  5  1  0  0  0  0
  3  4  1  0  0  0  0
  3 10  1  0  0  0  0
  5  6  1  0  0  0  0
  6  7  1  0  0  0  0
  7  8  1  0  0  0  0
  8  9  1  0  0  0  0
M  END
>  <CHROM.1>
-174.34636861,-63.63437336,-176.48126025,-175.38941223,-66.20976956,6.60028113
31.77514108,5.02977974,-2.85908871,0.84548677,2.20492893

>  <Name>
ligand

>  <RI>
0

>  <Rbt.Current_Directory>
/home/itssahil/PROJECTS/Mol_Feturizer/New_Systems/rnas/3D0U

>  <Rbt.Executable>
rbdock ($Id: //depot/dev/client3/rdock/2013.1/src/exe/rbdock.cxx#4 $)

>  <Rbt.Library>
libRbt.so (2013.1, Build901 2013/11/27)

>  <Rbt.Parameter_File>
/export/apps/rDock/src/rDock_2013.1_src/data/scripts/dock_solv.prm

>  <Rbt.Receptor>
prm/blind_docking_40.prm

>  <SCORE>
-2.31734

>  <SCORE.INTER>
-2.23733

>  <SCORE.INTER.CONST>
1

>  <SCORE.INTER.POLAR>
0

>  <SCORE.INTER.ROT>
5

>  <SCORE.INTER.SOLV>
6.9499

>  <SCORE.INTER.VDW>
-10.7415

>  <SCORE.INTER.norm>
-0.223733

>  <SCORE.INTRA>
-0.0800007

>  <SCORE.INTRA.DIHEDRAL>
-0.393664

>  <SCORE.INTRA.DIHEDRAL.0>
2.22229

>  <SCORE.INTRA.POLAR>
0

>  <SCORE.INTRA.POLAR.0>
0

>  <SCORE.INTRA.REPUL>
0

>  <SCORE.INTRA.REPUL.0>
0

>  <SCORE.INTRA.SOLV>
0.00807526

>  <SCORE.INTRA.SOLV.lig_0>
-31.87

>  <SCORE.INTRA.VDW>
0.112794

>  <SCORE.INTRA.VDW.0>
-0.575321

>  <SCORE.INTRA.norm>
-0.00800007

>  <SCORE.RESTR>
0

>  <SCORE.RESTR.CAVITY>
0

>  <SCORE.RESTR.norm>
0

>  <SCORE.SYSTEM>
0

>  <SCORE.SYSTEM.CONST>
0

>  <SCORE.SYSTEM.DIHEDRAL>
0

>  <SCORE.SYSTEM.SOLV>
0

>  <SCORE.SYSTEM.norm>
0

>  <SCORE.heavy>
10

>  <SCORE.norm>
-0.231734

>  <RMSD>
26.337

$$$$
ligand
 OpenBabel11021811463D
libRbt.so/2013.1/901 2013/11/27
 10  9  0  0  0  0  0  0  0  0999 V2000
    5.7030   32.7569    3.4128 N   0  0  0  0  0  0  0  0  0  0  0  0
    5.9790   31.4338    3.9591 C   0  0  2  0  0  0  0  0  0  0  0  0
    4.8682   30.4507    3.5938 C   0  0  0  0  0  0  0  0  0  0  0  0
    4.1574   30.6674    2.6080 O   0  0  0  0  0  0  0  0  0  0  0  0
    6.1708   31.5023    5.4773 C   0  0  0  0  0  0  0  0  0  0  0  0
    7.4627   32.1924    5.8983 C   0  0  0  0  0  0  0  0  0  0  0  0
    7.6991   32.1069    7.4035 C   0  0  0  0  0  0  0  0  0  0  0  0
    9.1013   32.5993    7.7949 C   0  0  0  0  0  0  0  0  0  0  0  0
    9.4273   33.9829    7.3247 N   0  0  0  0  0  0  0  0  0  0  0  0
    4.6690   29.4244    4.2570 O   0  0  0  0  0  0  0  0  0  0  0  0
  2  1  1  1  0  0  0
  2  3  1  0  0  0  0
  2  5  1  0  0  0  0
  3  4  1  0  0  0  0
  3 10  1  0  0  0  0
  5  6  1  0  0  0  0
  6  7  1  0  0  0  0
  7  8  1  0  0  0  0
  8  9  1  0  0  0  0
M  END
>  <CHROM.1>
23.27812131,-70.29685657,-173.62428548,170.78579628,55.05747832,6.49202442
31.68465042,5.15543919,-3.00101257,0.84245869,2.40993768

>  <Name>
ligand

>  <RI>
0

>  <Rbt.Current_Directory>
/home/itssahil/PROJECTS/Mol_Feturizer/New_Systems/rnas/3D0U

>  <Rbt.Executable>
rbdock ($Id: //depot/dev/client3/rdock/2013.1/src/exe/rbdock.cxx#4 $)

>  <Rbt.Library>
libRbt.so (2013.1, Build901 2013/11/27)

>  <Rbt.Parameter_File>
/export/apps/rDock/src/rDock_2013.1_src/data/scripts/dock_solv.prm

>  <Rbt.Receptor>
prm/blind_docking_40.prm

>  <SCORE>
-2.88808

>  <SCORE.INTER>
-3.33884

>  <SCORE.INTER.CONST>
1

>  <SCORE.INTER.POLAR>
0

>  <SCORE.INTER.ROT>
5

>  <SCORE.INTER.SOLV>
6.5679

>  <SCORE.INTER.VDW>
-11.3485

>  <SCORE.INTER.norm>
-0.333884

>  <SCORE.INTRA>
0.450756

>  <SCORE.INTRA.DIHEDRAL>
0.265421

>  <SCORE.INTRA.DIHEDRAL.0>
2.22229

>  <SCORE.INTRA.POLAR>
0

>  <SCORE.INTRA.POLAR.0>
0

>  <SCORE.INTRA.REPUL>
0

>  <SCORE.INTRA.REPUL.0>
0

>  <SCORE.INTRA.SOLV>
0.0491716

>  <SCORE.INTRA.SOLV.lig_0>
-31.87

>  <SCORE.INTRA.VDW>
0.29346

>  <SCORE.INTRA.VDW.0>
-0.575321

>  <SCORE.INTRA.norm>
0.0450756

>  <SCORE.RESTR>
0

>  <SCORE.RESTR.CAVITY>
0

>  <SCORE.RESTR.norm>
0

>  <SCORE.SYSTEM>
0

>  <SCORE.SYSTEM.CONST>
0

>  <SCORE.SYSTEM.DIHEDRAL>
0

>  <SCORE.SYSTEM.SOLV>
0

>  <SCORE.SYSTEM.norm>
0

>  <SCORE.heavy>
10

>  <SCORE.norm>
-0.288808

>  <RMSD>
26.353

$$$$
ligand
 OpenBabel11021811463D
libRbt.so/2013.1/901 2013/11/27
 10  9  0  0  0  0  0  0  0  0999 V2000
    5.0803   32.3873    5.9994 N   0  0  0  0  0  0  0  0  0  0  0  0
    5.2390   31.6111    4.7757 C   0  0  2  0  0  0  0  0  0  0  0  0
    4.7610   30.1740    4.9759 C   0  0  0  0  0  0  0  0  0  0  0  0
    4.5940   29.4413    3.9966 O   0  0  0  0  0  0  0  0  0  0  0  0
    6.6941   31.6417    4.2980 C   0  0  0  0  0  0  0  0  0  0  0  0
    7.1858   33.0361    3.9291 C   0  0  0  0  0  0  0  0  0  0  0  0
    8.6489   33.0366    3.4953 C   0  0  0  0  0  0  0  0  0  0  0  0
    9.1369   34.4441    3.1175 C   0  0  0  0  0  0  0  0  0  0  0  0
   10.5680   34.5092    2.6823 N   0  0  0  0  0  0  0  0  0  0  0  0
    4.5488   29.7146    6.1059 O   0  0  0  0  0  0  0  0  0  0  0  0
  2  1  1  1  0  0  0
  2  3  1  0  0  0  0
  2  5  1  0  0  0  0
  3  4  1  0  0  0  0
  3 10  1  0  0  0  0
  5  6  1  0  0  0  0
  6  7  1  0  0  0  0
  7  8  1  0  0  0  0
  8  9  1  0  0  0  0
M  END
>  <CHROM.1>
167.00600425,-62.86377104,178.39317297,179.69890294,-179.99359626,6.62432161
31.96034204,4.34527735,2.83739870,-0.69422333,-2.52480442

>  <Name>
ligand

>  <RI>
0

>  <Rbt.Current_Directory>
/home/itssahil/PROJECTS/Mol_Feturizer/New_Systems/rnas/3D0U

>  <Rbt.Executable>
rbdock ($Id: //depot/dev/client3/rdock/2013.1/src/exe/rbdock.cxx#4 $)

>  <Rbt.Library>
libRbt.so (2013.1, Build901 2013/11/27)

>  <Rbt.Parameter_File>
/export/apps/rDock/src/rDock_2013.1_src/data/scripts/dock_solv.prm

>  <Rbt.Receptor>
prm/blind_docking_40.prm

>  <SCORE>
-1.72552

>  <SCORE.INTER>
-0.886283

>  <SCORE.INTER.CONST>
1

>  <SCORE.INTER.POLAR>
0

>  <SCORE.INTER.ROT>
5

>  <SCORE.INTER.SOLV>
9.4689

>  <SCORE.INTER.VDW>
-10.6805

>  <SCORE.INTER.norm>
-0.0886283

>  <SCORE.INTRA>
-0.839235

>  <SCORE.INTRA.DIHEDRAL>
-0.717158

>  <SCORE.INTRA.DIHEDRAL.0>
2.22229

>  <SCORE.INTRA.POLAR>
0

>  <SCORE.INTRA.POLAR.0>
0

>  <SCORE.INTRA.REPUL>
0

>  <SCORE.INTRA.REPUL.0>
0

>  <SCORE.INTRA.SOLV>
-0.740469

>  <SCORE.INTRA.SOLV.lig_0>
-31.87

>  <SCORE.INTRA.VDW>
-0.110422

>  <SCORE.INTRA.VDW.0>
-0.575321

>  <SCORE.INTRA.norm>
-0.0839235

>  <SCORE.RESTR>
0

>  <SCORE.RESTR.CAVITY>
0

>  <SCORE.RESTR.norm>
0

>  <SCORE.SYSTEM>
0

>  <SCORE.SYSTEM.CONST>
0

>  <SCORE.SYSTEM.DIHEDRAL>
0

>  <SCORE.SYSTEM.SOLV>
0

>  <SCORE.SYSTEM.norm>
0

>  <SCORE.heavy>
10

>  <SCORE.norm>
-0.172552

>  <RMSD>
26.448

$$$$
ligand
 OpenBabel11021811463D
libRbt.so/2013.1/901 2013/11/27
 10  9  0  0  0  0  0  0  0  0999 V2000
    4.8675   30.9608    2.9086 N   0  0  0  0  0  0  0  0  0  0  0  0
    5.4517   31.1362    4.2327 C   0  0  2  0  0  0  0  0  0  0  0  0
    4.8439   30.1527    5.2313 C   0  0  0  0  0  0  0  0  0  0  0  0
    4.6686   28.9756    4.9032 O   0  0  0  0  0  0  0  0  0  0  0  0
    5.2812   32.5801    4.7147 C   0  0  0  0  0  0  0  0  0  0  0  0
    6.1498   32.9283    5.9174 C   0  0  0  0  0  0  0  0  0  0  0  0
    5.9452   34.3680    6.3803 C   0  0  0  0  0  0  0  0  0  0  0  0
    6.9071   34.7497    7.5164 C   0  0  0  0  0  0  0  0  0  0  0  0
    8.3539   34.7508    7.1311 N   0  0  0  0  0  0  0  0  0  0  0  0
    4.5332   30.5037    6.3771 O   0  0  0  0  0  0  0  0  0  0  0  0
  2  1  1  6  0  0  0
  2  3  1  0  0  0  0
  2  5  1  0  0  0  0
  3  4  1  0  0  0  0
  3 10  1  0  0  0  0
  5  6  1  0  0  0  0
  6  7  1  0  0  0  0
  7  8  1  0  0  0  0
  8  9  1  0  0  0  0
M  END
>  <CHROM.1>
43.28970836,-165.83775816,-179.41147799,-175.20724137,64.56494142,5.68322905
32.07901636,5.54803004,-2.92302824,1.11769914,1.81873814

>  <Name>
ligand

>  <RI>
0

>  <Rbt.Current_Directory>
/home/itssahil/PROJECTS/Mol_Feturizer/New_Systems/rnas/3D0U

>  <Rbt.Executable>
rbdock ($Id: //depot/dev/client3/rdock/2013.1/src/exe/rbdock.cxx#4 $)

>  <Rbt.Library>
libRbt.so (2013.1, Build901 2013/11/27)

>  <Rbt.Parameter_File>
/export/apps/rDock/src/rDock_2013.1_src/data/scripts/dock_solv.prm

>  <Rbt.Receptor>
prm/blind_docking_40.prm

>  <SCORE>
-2.01708

>  <SCORE.INTER>
-2.30594

>  <SCORE.INTER.CONST>
1

>  <SCORE.INTER.POLAR>
0

>  <SCORE.INTER.ROT>
5

>  <SCORE.INTER.SOLV>
10.7616

>  <SCORE.INTER.VDW>
-12.0578

>  <SCORE.INTER.norm>
-0.230594

>  <SCORE.INTRA>
0.288858

>  <SCORE.INTRA.DIHEDRAL>
0.145099

>  <SCORE.INTRA.DIHEDRAL.0>
2.22229

>  <SCORE.INTRA.POLAR>
0

>  <SCORE.INTRA.POLAR.0>
0

>  <SCORE.INTRA.REPUL>
0

>  <SCORE.INTRA.REPUL.0>
0

>  <SCORE.INTRA.SOLV>
-0.743206

>  <SCORE.INTRA.SOLV.lig_0>
-31.87

>  <SCORE.INTRA.VDW>
0.587912

>  <SCORE.INTRA.VDW.0>
-0.575321

>  <SCORE.INTRA.norm>
0.0288858

>  <SCORE.RESTR>
0

>  <SCORE.RESTR.CAVITY>
0

>  <SCORE.RESTR.norm>
0

>  <SCORE.SYSTEM>
0

>  <SCORE.SYSTEM.CONST>
0

>  <SCORE.SYSTEM.DIHEDRAL>
0

>  <SCORE.SYSTEM.SOLV>
0

>  <SCORE.SYSTEM.norm>
0

>  <SCORE.heavy>
10

>  <SCORE.norm>
-0.201708

>  <RMSD>
26.463

$$$$
ligand
 OpenBabel11021811463D
libRbt.so/2013.1/901 2013/11/27
 10  9  0  0  0  0  0  0  0  0999 V2000
    4.9329   30.9107    2.9186 N   0  0  0  0  0  0  0  0  0  0  0  0
    5.4934   31.1017    4.2507 C   0  0  2  0  0  0  0  0  0  0  0  0
    4.8916   30.1081    5.2429 C   0  0  0  0  0  0  0  0  0  0  0  0
    4.6306   30.4722    6.3933 O   0  0  0  0  0  0  0  0  0  0  0  0
    5.2853   32.5429    4.7260 C   0  0  0  0  0  0  0  0  0  0  0  0
    6.1500   32.9215    5.9224 C   0  0  0  0  0  0  0  0  0  0  0  0
    5.9975   34.3915    6.3031 C   0  0  0  0  0  0  0  0  0  0  0  0
    6.9423   34.7908    7.4475 C   0  0  0  0  0  0  0  0  0  0  0  0
    6.9389   36.2519    7.7744 N   0  0  0  0  0  0  0  0  0  0  0  0
    4.6419   28.9400    4.9174 O   0  0  0  0  0  0  0  0  0  0  0  0
  2  1  1  6  0  0  0
  2  3  1  0  0  0  0
  2  5  1  0  0  0  0
  3  4  1  0  0  0  0
  3 10  1  0  0  0  0
  5  6  1  0  0  0  0
  6  7  1  0  0  0  0
  7  8  1  0  0  0  0
  8  9  1  0  0  0  0
M  END
>  <CHROM.1>
-141.17051537,-164.61861980,175.63216520,-176.09328059,174.16122590,5.57436072
32.21045924,5.60605382,-2.82847149,1.24343298,1.71057180

>  <Name>
ligand

>  <RI>
0

>  <Rbt.Current_Directory>
/home/itssahil/PROJECTS/Mol_Feturizer/New_Systems/rnas/3D0U

>  <Rbt.Executable>
rbdock ($Id: //depot/dev/client3/rdock/2013.1/src/exe/rbdock.cxx#4 $)

>  <Rbt.Library>
libRbt.so (2013.1, Build901 2013/11/27)

>  <Rbt.Parameter_File>
/export/apps/rDock/src/rDock_2013.1_src/data/scripts/dock_solv.prm

>  <Rbt.Receptor>
prm/blind_docking_40.prm

>  <SCORE>
-2.02529

>  <SCORE.INTER>
-2.16283

>  <SCORE.INTER.CONST>
1

>  <SCORE.INTER.POLAR>
0

>  <SCORE.INTER.ROT>
5

>  <SCORE.INTER.SOLV>
12.3039

>  <SCORE.INTER.VDW>
-12.4765

>  <SCORE.INTER.norm>
-0.216283

>  <SCORE.INTRA>
0.137542

>  <SCORE.INTRA.DIHEDRAL>
0.422267

>  <SCORE.INTRA.DIHEDRAL.0>
2.22229

>  <SCORE.INTRA.POLAR>
0

>  <SCORE.INTRA.POLAR.0>
0

>  <SCORE.INTRA.REPUL>
0

>  <SCORE.INTRA.REPUL.0>
0

>  <SCORE.INTRA.SOLV>
-1.59063

>  <SCORE.INTRA.SOLV.lig_0>
-31.87

>  <SCORE.INTRA.VDW>
0.721722

>  <SCORE.INTRA.VDW.0>
-0.575321

>  <SCORE.INTRA.norm>
0.0137542

>  <SCORE.RESTR>
0

>  <SCORE.RESTR.CAVITY>
0

>  <SCORE.RESTR.norm>
0

>  <SCORE.SYSTEM>
0

>  <SCORE.SYSTEM.CONST>
0

>  <SCORE.SYSTEM.DIHEDRAL>
0

>  <SCORE.SYSTEM.SOLV>
0

>  <SCORE.SYSTEM.norm>
0

>  <SCORE.heavy>
10

>  <SCORE.norm>
-0.202529

>  <RMSD>
26.464

$$$$
ligand
 OpenBabel11021811463D
libRbt.so/2013.1/901 2013/11/27
 10  9  0  0  0  0  0  0  0  0999 V2000
    5.8923   32.7732    3.6253 N   0  0  0  0  0  0  0  0  0  0  0  0
    5.9560   31.4893    4.3129 C   0  0  2  0  0  0  0  0  0  0  0  0
    5.0049   30.4801    3.6723 C   0  0  0  0  0  0  0  0  0  0  0  0
    4.4957   30.7281    2.5754 O   0  0  0  0  0  0  0  0  0  0  0  0
    5.6517   31.6566    5.8048 C   0  0  0  0  0  0  0  0  0  0  0  0
    6.6649   32.5253    6.5404 C   0  0  0  0  0  0  0  0  0  0  0  0
    6.4073   34.0150    6.3324 C   0  0  0  0  0  0  0  0  0  0  0  0
    7.3729   34.8860    7.1515 C   0  0  0  0  0  0  0  0  0  0  0  0
    7.2240   36.3587    6.9262 N   0  0  0  0  0  0  0  0  0  0  0  0
    4.7398   29.4025    4.2213 O   0  0  0  0  0  0  0  0  0  0  0  0
  2  1  1  6  0  0  0
  2  3  1  0  0  0  0
  2  5  1  0  0  0  0
  3  4  1  0  0  0  0
  3 10  1  0  0  0  0
  5  6  1  0  0  0  0
  6  7  1  0  0  0  0
  7  8  1  0  0  0  0
  8  9  1  0  0  0  0
M  END
>  <CHROM.1>
12.57833271,-63.13584802,80.22314453,176.15629983,176.49707054,5.91705313
32.39933116,5.09454935,2.92633614,1.19643971,2.41101926

>  <Name>
ligand

>  <RI>
0

>  <Rbt.Current_Directory>
/home/itssahil/PROJECTS/Mol_Feturizer/New_Systems/rnas/3D0U

>  <Rbt.Executable>
rbdock ($Id: //depot/dev/client3/rdock/2013.1/src/exe/rbdock.cxx#4 $)

>  <Rbt.Library>
libRbt.so (2013.1, Build901 2013/11/27)

>  <Rbt.Parameter_File>
/export/apps/rDock/src/rDock_2013.1_src/data/scripts/dock_solv.prm

>  <Rbt.Receptor>
prm/blind_docking_40.prm

>  <SCORE>
-1.59921

>  <SCORE.INTER>
-2.61389

>  <SCORE.INTER.CONST>
1

>  <SCORE.INTER.POLAR>
0

>  <SCORE.INTER.ROT>
5

>  <SCORE.INTER.SOLV>
5.25948

>  <SCORE.INTER.VDW>
-10.4291

>  <SCORE.INTER.norm>
-0.261389

>  <SCORE.INTRA>
1.01468

>  <SCORE.INTRA.DIHEDRAL>
0.950821

>  <SCORE.INTRA.DIHEDRAL.0>
2.22229

>  <SCORE.INTRA.POLAR>
0

>  <SCORE.INTRA.POLAR.0>
0

>  <SCORE.INTRA.REPUL>
0

>  <SCORE.INTRA.REPUL.0>
0

>  <SCORE.INTRA.SOLV>
0.518539

>  <SCORE.INTRA.SOLV.lig_0>
-31.87

>  <SCORE.INTRA.VDW>
0.280001

>  <SCORE.INTRA.VDW.0>
-0.575321

>  <SCORE.INTRA.norm>
0.101468

>  <SCORE.RESTR>
0

>  <SCORE.RESTR.CAVITY>
0

>  <SCORE.RESTR.norm>
0

>  <SCORE.SYSTEM>
0

>  <SCORE.SYSTEM.CONST>
0

>  <SCORE.SYSTEM.DIHEDRAL>
0

>  <SCORE.SYSTEM.SOLV>
0

>  <SCORE.SYSTEM.norm>
0

>  <SCORE.heavy>
10

>  <SCORE.norm>
-0.159921

>  <RMSD>
26.482

$$$$
ligand
 OpenBabel11021811463D
libRbt.so/2013.1/901 2013/11/27
 10  9  0  0  0  0  0  0  0  0999 V2000
    5.1682   30.6822    6.2363 N   0  0  0  0  0  0  0  0  0  0  0  0
    4.8496   31.4626    5.0469 C   0  0  2  0  0  0  0  0  0  0  0  0
    4.9204   30.5957    3.7910 C   0  0  0  0  0  0  0  0  0  0  0  0
    4.7633   31.1114    2.6804 O   0  0  0  0  0  0  0  0  0  0  0  0
    5.7787   32.6746    4.9277 C   0  0  0  0  0  0  0  0  0  0  0  0
    5.6179   33.6803    6.0613 C   0  0  0  0  0  0  0  0  0  0  0  0
    6.5620   34.8704    5.9158 C   0  0  0  0  0  0  0  0  0  0  0  0
    6.3842   35.8887    7.0531 C   0  0  0  0  0  0  0  0  0  0  0  0
    7.2701   37.0916    6.9538 N   0  0  0  0  0  0  0  0  0  0  0  0
    5.1484   29.3806    3.8560 O   0  0  0  0  0  0  0  0  0  0  0  0
  2  1  1  1  0  0  0
  2  3  1  0  0  0  0
  2  5  1  0  0  0  0
  3  4  1  0  0  0  0
  3 10  1  0  0  0  0
  5  6  1  0  0  0  0
  6  7  1  0  0  0  0
  7  8  1  0  0  0  0
  8  9  1  0  0  0  0
M  END
>  <CHROM.1>
-175.39629652,-64.23341008,179.70802543,179.35835336,-179.10075136,5.64287199
32.71347901,5.21873132,2.94707541,-1.29389345,-1.31336147

>  <Name>
ligand

>  <RI>
0

>  <Rbt.Current_Directory>
/home/itssahil/PROJECTS/Mol_Feturizer/New_Systems/rnas/3D0U

>  <Rbt.Executable>
rbdock ($Id: //depot/dev/client3/rdock/2013.1/src/exe/rbdock.cxx#4 $)

>  <Rbt.Library>
libRbt.so (2013.1, Build901 2013/11/27)

>  <Rbt.Parameter_File>
/export/apps/rDock/src/rDock_2013.1_src/data/scripts/dock_solv.prm

>  <Rbt.Receptor>
prm/blind_docking_40.prm

>  <SCORE>
-1.07945

>  <SCORE.INTER>
-0.438491

>  <SCORE.INTER.CONST>
1

>  <SCORE.INTER.POLAR>
0

>  <SCORE.INTER.ROT>
5

>  <SCORE.INTER.SOLV>
9.93987

>  <SCORE.INTER.VDW>
-10.539

>  <SCORE.INTER.norm>
-0.0438491

>  <SCORE.INTRA>
-0.640958

>  <SCORE.INTRA.DIHEDRAL>
-0.655673

>  <SCORE.INTRA.DIHEDRAL.0>
2.22229

>  <SCORE.INTRA.POLAR>
0

>  <SCORE.INTRA.POLAR.0>
0

>  <SCORE.INTRA.REPUL>
0

>  <SCORE.INTRA.REPUL.0>
0

>  <SCORE.INTRA.SOLV>
-0.761814

>  <SCORE.INTRA.SOLV.lig_0>
-31.87

>  <SCORE.INTRA.VDW>
0.0677854

>  <SCORE.INTRA.VDW.0>
-0.575321

>  <SCORE.INTRA.norm>
-0.0640958

>  <SCORE.RESTR>
0

>  <SCORE.RESTR.CAVITY>
0

>  <SCORE.RESTR.norm>
0

>  <SCORE.SYSTEM>
0

>  <SCORE.SYSTEM.CONST>
0

>  <SCORE.SYSTEM.DIHEDRAL>
0

>  <SCORE.SYSTEM.SOLV>
0

>  <SCORE.SYSTEM.norm>
0

>  <SCORE.heavy>
10

>  <SCORE.norm>
-0.107945

>  <RMSD>
26.488

$$$$
ligand
 OpenBabel11021811463D
libRbt.so/2013.1/901 2013/11/27
 10  9  0  0  0  0  0  0  0  0999 V2000
    7.6880   32.5244    7.2027 N   0  0  0  0  0  0  0  0  0  0  0  0
    6.8511   32.5688    6.0100 C   0  0  2  0  0  0  0  0  0  0  0  0
    6.1813   33.9341    5.8646 C   0  0  0  0  0  0  0  0  0  0  0  0
    5.8973   34.5881    6.8723 O   0  0  0  0  0  0  0  0  0  0  0  0
    5.8074   31.4479    6.0367 C   0  0  0  0  0  0  0  0  0  0  0  0
    4.9622   31.3712    4.7710 C   0  0  0  0  0  0  0  0  0  0  0  0
    5.7956   31.0268    3.5399 C   0  0  0  0  0  0  0  0  0  0  0  0
    4.9753   31.1233    2.2439 C   0  0  0  0  0  0  0  0  0  0  0  0
    4.5297   32.5089    1.8927 N   0  0  0  0  0  0  0  0  0  0  0  0
    5.9266   34.4143    4.7522 O   0  0  0  0  0  0  0  0  0  0  0  0
  2  1  1  1  0  0  0
  2  3  1  0  0  0  0
  2  5  1  0  0  0  0
  3  4  1  0  0  0  0
  3 10  1  0  0  0  0
  5  6  1  0  0  0  0
  6  7  1  0  0  0  0
  7  8  1  0  0  0  0
  8  9  1  0  0  0  0
M  END
>  <CHROM.1>
-30.73697776,-175.79008664,63.94789003,-172.84330523,66.42277132,5.85115605
32.58542752,4.92238002,-0.63843896,1.12659761,-2.90816776

>  <Name>
ligand

>  <RI>
0

>  <Rbt.Current_Directory>
/home/itssahil/PROJECTS/Mol_Feturizer/New_Systems/rnas/3D0U

>  <Rbt.Executable>
rbdock ($Id: //depot/dev/client3/rdock/2013.1/src/exe/rbdock.cxx#4 $)

>  <Rbt.Library>
libRbt.so (2013.1, Build901 2013/11/27)

>  <Rbt.Parameter_File>
/export/apps/rDock/src/rDock_2013.1_src/data/scripts/dock_solv.prm

>  <Rbt.Receptor>
prm/blind_docking_40.prm

>  <SCORE>
-1.15737

>  <SCORE.INTER>
-0.757287

>  <SCORE.INTER.CONST>
1

>  <SCORE.INTER.POLAR>
0

>  <SCORE.INTER.ROT>
5

>  <SCORE.INTER.SOLV>
7.78098

>  <SCORE.INTER.VDW>
-10.0319

>  <SCORE.INTER.norm>
-0.0757287

>  <SCORE.INTRA>
-0.400079

>  <SCORE.INTRA.DIHEDRAL>
-0.219068

>  <SCORE.INTRA.DIHEDRAL.0>
2.22229

>  <SCORE.INTRA.POLAR>
0

>  <SCORE.INTRA.POLAR.0>
0

>  <SCORE.INTRA.REPUL>
0

>  <SCORE.INTRA.REPUL.0>
0

>  <SCORE.INTRA.SOLV>
-0.306438

>  <SCORE.INTRA.SOLV.lig_0>
-31.87

>  <SCORE.INTRA.VDW>
-0.137326

>  <SCORE.INTRA.VDW.0>
-0.575321

>  <SCORE.INTRA.norm>
-0.0400079

>  <SCORE.RESTR>
0

>  <SCORE.RESTR.CAVITY>
0

>  <SCORE.RESTR.norm>
0

>  <SCORE.SYSTEM>
0

>  <SCORE.SYSTEM.CONST>
0

>  <SCORE.SYSTEM.DIHEDRAL>
0

>  <SCORE.SYSTEM.SOLV>
0

>  <SCORE.SYSTEM.norm>
0

>  <SCORE.heavy>
10

>  <SCORE.norm>
-0.115737

>  <RMSD>
26.528

$$$$
ligand
 OpenBabel11021811463D
libRbt.so/2013.1/901 2013/11/27
 10  9  0  0  0  0  0  0  0  0999 V2000
    5.8491   32.5326    5.9281 N   0  0  0  0  0  0  0  0  0  0  0  0
    5.4876   32.0708    4.5935 C   0  0  2  0  0  0  0  0  0  0  0  0
    5.0719   30.6010    4.6193 C   0  0  0  0  0  0  0  0  0  0  0  0
    4.8802   30.0369    5.7005 O   0  0  0  0  0  0  0  0  0  0  0  0
    6.6403   32.2957    3.6101 C   0  0  0  0  0  0  0  0  0  0  0  0
    6.9324   33.7666    3.3390 C   0  0  0  0  0  0  0  0  0  0  0  0
    8.1051   33.9553    2.3807 C   0  0  0  0  0  0  0  0  0  0  0  0
    9.4468   33.5873    3.0333 C   0  0  0  0  0  0  0  0  0  0  0  0
   10.6470   33.8553    2.1793 N   0  0  0  0  0  0  0  0  0  0  0  0
    4.9055   29.9576    3.5747 O   0  0  0  0  0  0  0  0  0  0  0  0
  2  1  1  1  0  0  0
  2  3  1  0  0  0  0
  2  5  1  0  0  0  0
  3  4  1  0  0  0  0
  3 10  1  0  0  0  0
  5  6  1  0  0  0  0
  6  7  1  0  0  0  0
  7  8  1  0  0  0  0
  8  9  1  0  0  0  0
M  END
>  <CHROM.1>
11.04110026,-67.17910045,178.71872275,-70.88432233,-175.35213917,6.77693531
32.22739588,3.90123328,3.00901004,-0.73344083,-2.39413989

>  <Name>
ligand

>  <RI>
0

>  <Rbt.Current_Directory>
/home/itssahil/PROJECTS/Mol_Feturizer/New_Systems/rnas/3D0U

>  <Rbt.Executable>
rbdock ($Id: //depot/dev/client3/rdock/2013.1/src/exe/rbdock.cxx#4 $)

>  <Rbt.Library>
libRbt.so (2013.1, Build901 2013/11/27)

>  <Rbt.Parameter_File>
/export/apps/rDock/src/rDock_2013.1_src/data/scripts/dock_solv.prm

>  <Rbt.Receptor>
prm/blind_docking_40.prm

>  <SCORE>
-0.386174

>  <SCORE.INTER>
-0.582422

>  <SCORE.INTER.CONST>
1

>  <SCORE.INTER.POLAR>
0

>  <SCORE.INTER.ROT>
5

>  <SCORE.INTER.SOLV>
8.59601

>  <SCORE.INTER.VDW>
-10.187

>  <SCORE.INTER.norm>
-0.0582422

>  <SCORE.INTRA>
0.196248

>  <SCORE.INTRA.DIHEDRAL>
0.0261561

>  <SCORE.INTRA.DIHEDRAL.0>
2.22229

>  <SCORE.INTRA.POLAR>
0

>  <SCORE.INTRA.POLAR.0>
0

>  <SCORE.INTRA.REPUL>
0

>  <SCORE.INTRA.REPUL.0>
0

>  <SCORE.INTRA.SOLV>
-0.632997

>  <SCORE.INTRA.SOLV.lig_0>
-31.87

>  <SCORE.INTRA.VDW>
0.499668

>  <SCORE.INTRA.VDW.0>
-0.575321

>  <SCORE.INTRA.norm>
0.0196248

>  <SCORE.RESTR>
0

>  <SCORE.RESTR.CAVITY>
0

>  <SCORE.RESTR.norm>
0

>  <SCORE.SYSTEM>
0

>  <SCORE.SYSTEM.CONST>
0

>  <SCORE.SYSTEM.DIHEDRAL>
0

>  <SCORE.SYSTEM.SOLV>
0

>  <SCORE.SYSTEM.norm>
0

>  <SCORE.heavy>
10

>  <SCORE.norm>
-0.0386174

>  <RMSD>
26.543

$$$$
ligand
 OpenBabel11021811463D
libRbt.so/2013.1/901 2013/11/27
 10  9  0  0  0  0  0  0  0  0999 V2000
    6.2310   32.8263    3.3428 N   0  0  0  0  0  0  0  0  0  0  0  0
    5.9782   31.6540    4.1716 C   0  0  2  0  0  0  0  0  0  0  0  0
    5.1347   30.6262    3.4193 C   0  0  0  0  0  0  0  0  0  0  0  0
    4.9694   29.5003    3.8978 O   0  0  0  0  0  0  0  0  0  0  0  0
    5.3060   32.0545    5.4884 C   0  0  0  0  0  0  0  0  0  0  0  0
    6.2036   32.8752    6.4065 C   0  0  0  0  0  0  0  0  0  0  0  0
    6.2854   34.3376    5.9779 C   0  0  0  0  0  0  0  0  0  0  0  0
    7.1399   35.1737    6.9436 C   0  0  0  0  0  0  0  0  0  0  0  0
    7.2898   36.6116    6.5544 N   0  0  0  0  0  0  0  0  0  0  0  0
    4.5943   30.8991    2.3393 O   0  0  0  0  0  0  0  0  0  0  0  0
  2  1  1  6  0  0  0
  2  3  1  0  0  0  0
  2  5  1  0  0  0  0
  3  4  1  0  0  0  0
  3 10  1  0  0  0  0
  5  6  1  0  0  0  0
  6  7  1  0  0  0  0
  7  8  1  0  0  0  0
  8  9  1  0  0  0  0
M  END
>  <CHROM.1>
170.55620524,-67.01046490,78.71677209,177.39525713,178.35966266,5.89202557
32.62275069,4.83099249,-2.85543728,1.23733062,1.85744005

>  <Name>
ligand

>  <RI>
0

>  <Rbt.Current_Directory>
/home/itssahil/PROJECTS/Mol_Feturizer/New_Systems/rnas/3D0U

>  <Rbt.Executable>
rbdock ($Id: //depot/dev/client3/rdock/2013.1/src/exe/rbdock.cxx#4 $)

>  <Rbt.Library>
libRbt.so (2013.1, Build901 2013/11/27)

>  <Rbt.Parameter_File>
/export/apps/rDock/src/rDock_2013.1_src/data/scripts/dock_solv.prm

>  <Rbt.Receptor>
prm/blind_docking_40.prm

>  <SCORE>
-1.34403

>  <SCORE.INTER>
-2.00872

>  <SCORE.INTER.CONST>
1

>  <SCORE.INTER.POLAR>
0

>  <SCORE.INTER.ROT>
5

>  <SCORE.INTER.SOLV>
4.52018

>  <SCORE.INTER.VDW>
-9.77921

>  <SCORE.INTER.norm>
-0.200872

>  <SCORE.INTRA>
0.664691

>  <SCORE.INTRA.DIHEDRAL>
0.83827

>  <SCORE.INTRA.DIHEDRAL.0>
2.22229

>  <SCORE.INTRA.POLAR>
0

>  <SCORE.INTRA.POLAR.0>
0

>  <SCORE.INTRA.REPUL>
0

>  <SCORE.INTRA.REPUL.0>
0

>  <SCORE.INTRA.SOLV>
0.453955

>  <SCORE.INTRA.SOLV.lig_0>
-31.87

>  <SCORE.INTRA.VDW>
0.0185787

>  <SCORE.INTRA.VDW.0>
-0.575321

>  <SCORE.INTRA.norm>
0.0664691

>  <SCORE.RESTR>
0

>  <SCORE.RESTR.CAVITY>
0

>  <SCORE.RESTR.norm>
0

>  <SCORE.SYSTEM>
0

>  <SCORE.SYSTEM.CONST>
0

>  <SCORE.SYSTEM.DIHEDRAL>
0

>  <SCORE.SYSTEM.SOLV>
0

>  <SCORE.SYSTEM.norm>
0

>  <SCORE.heavy>
10

>  <SCORE.norm>
-0.134403

>  <RMSD>
26.591

$$$$
ligand
 OpenBabel11021811463D
libRbt.so/2013.1/901 2013/11/27
 10  9  0  0  0  0  0  0  0  0999 V2000
    4.5874   31.8280    2.7076 N   0  0  0  0  0  0  0  0  0  0  0  0
    5.5148   30.9450    3.4044 C   0  0  2  0  0  0  0  0  0  0  0  0
    4.9277   30.4790    4.7356 C   0  0  0  0  0  0  0  0  0  0  0  0
    4.7498   29.2745    4.9391 O   0  0  0  0  0  0  0  0  0  0  0  0
    6.8667   31.6338    3.6144 C   0  0  0  0  0  0  0  0  0  0  0  0
    6.7667   32.9590    4.3602 C   0  0  0  0  0  0  0  0  0  0  0  0
    8.1311   33.6121    4.5628 C   0  0  0  0  0  0  0  0  0  0  0  0
    8.0170   34.9839    5.2460 C   0  0  0  0  0  0  0  0  0  0  0  0
    7.4531   34.9422    6.6324 N   0  0  0  0  0  0  0  0  0  0  0  0
    4.6364   31.2831    5.6308 O   0  0  0  0  0  0  0  0  0  0  0  0
  2  1  1  1  0  0  0
  2  3  1  0  0  0  0
  2  5  1  0  0  0  0
  3  4  1  0  0  0  0
  3 10  1  0  0  0  0
  5  6  1  0  0  0  0
  6  7  1  0  0  0  0
  7  8  1  0  0  0  0
  8  9  1  0  0  0  0
M  END
>  <CHROM.1>
119.63864893,56.21524339,179.50818673,176.85029118,63.14642443,6.14627258
32.17360993,4.60915774,-2.73384684,0.90523728,1.33268179

>  <Name>
ligand

>  <RI>
0

>  <Rbt.Current_Directory>
/home/itssahil/PROJECTS/Mol_Feturizer/New_Systems/rnas/3D0U

>  <Rbt.Executable>
rbdock ($Id: //depot/dev/client3/rdock/2013.1/src/exe/rbdock.cxx#4 $)

>  <Rbt.Library>
libRbt.so (2013.1, Build901 2013/11/27)

>  <Rbt.Parameter_File>
/export/apps/rDock/src/rDock_2013.1_src/data/scripts/dock_solv.prm

>  <Rbt.Receptor>
prm/blind_docking_40.prm

>  <SCORE>
-0.109542

>  <SCORE.INTER>
0.032275

>  <SCORE.INTER.CONST>
1

>  <SCORE.INTER.POLAR>
0

>  <SCORE.INTER.ROT>
5

>  <SCORE.INTER.SOLV>
5.85841

>  <SCORE.INTER.VDW>
-8.86462

>  <SCORE.INTER.norm>
0.0032275

>  <SCORE.INTRA>
-0.141817

>  <SCORE.INTRA.DIHEDRAL>
-0.599495

>  <SCORE.INTRA.DIHEDRAL.0>
2.22229

>  <SCORE.INTRA.POLAR>
0

>  <SCORE.INTRA.POLAR.0>
0

>  <SCORE.INTRA.REPUL>
0

>  <SCORE.INTRA.REPUL.0>
0

>  <SCORE.INTRA.SOLV>
0.133985

>  <SCORE.INTRA.SOLV.lig_0>
-31.87

>  <SCORE.INTRA.VDW>
0.0909376

>  <SCORE.INTRA.VDW.0>
-0.575321

>  <SCORE.INTRA.norm>
-0.0141817

>  <SCORE.RESTR>
0

>  <SCORE.RESTR.CAVITY>
0

>  <SCORE.RESTR.norm>
0

>  <SCORE.SYSTEM>
0

>  <SCORE.SYSTEM.CONST>
0

>  <SCORE.SYSTEM.DIHEDRAL>
0

>  <SCORE.SYSTEM.SOLV>
0

>  <SCORE.SYSTEM.norm>
0

>  <SCORE.heavy>
10

>  <SCORE.norm>
-0.0109542

>  <RMSD>
26.636

$$$$
ligand
 OpenBabel11021811463D
libRbt.so/2013.1/901 2013/11/27
 10  9  0  0  0  0  0  0  0  0999 V2000
    4.5646   30.8706    2.6242 N   0  0  0  0  0  0  0  0  0  0  0  0
    5.4400   30.8933    3.7896 C   0  0  2  0  0  0  0  0  0  0  0  0
    4.8252   30.1105    4.9485 C   0  0  0  0  0  0  0  0  0  0  0  0
    4.7937   28.8771    4.9069 O   0  0  0  0  0  0  0  0  0  0  0  0
    5.7513   32.3338    4.2071 C   0  0  0  0  0  0  0  0  0  0  0  0
    7.0592   32.4769    4.9761 C   0  0  0  0  0  0  0  0  0  0  0  0
    6.9589   31.9227    6.3944 C   0  0  0  0  0  0  0  0  0  0  0  0
    8.2662   32.1115    7.1800 C   0  0  0  0  0  0  0  0  0  0  0  0
    8.2407   31.5569    8.5705 N   0  0  0  0  0  0  0  0  0  0  0  0
    4.3667   30.6842    5.9452 O   0  0  0  0  0  0  0  0  0  0  0  0
  2  1  1  6  0  0  0
  2  3  1  0  0  0  0
  2  5  1  0  0  0  0
  3  4  1  0  0  0  0
  3 10  1  0  0  0  0
  5  6  1  0  0  0  0
  6  7  1  0  0  0  0
  7  8  1  0  0  0  0
  8  9  1  0  0  0  0
M  END
>  <CHROM.1>
73.14864815,-155.27593756,-72.64694440,-178.11967743,-178.58855865,6.00748054
31.16190318,5.37315735,-2.70203497,0.78244566,2.14150449

>  <Name>
ligand

>  <RI>
0

>  <Rbt.Current_Directory>
/home/itssahil/PROJECTS/Mol_Feturizer/New_Systems/rnas/3D0U

>  <Rbt.Executable>
rbdock ($Id: //depot/dev/client3/rdock/2013.1/src/exe/rbdock.cxx#4 $)

>  <Rbt.Library>
libRbt.so (2013.1, Build901 2013/11/27)

>  <Rbt.Parameter_File>
/export/apps/rDock/src/rDock_2013.1_src/data/scripts/dock_solv.prm

>  <Rbt.Receptor>
prm/blind_docking_40.prm

>  <SCORE>
-0.732892

>  <SCORE.INTER>
-1.54632

>  <SCORE.INTER.CONST>
1

>  <SCORE.INTER.POLAR>
0

>  <SCORE.INTER.ROT>
5

>  <SCORE.INTER.SOLV>
15.1524

>  <SCORE.INTER.VDW>
-13.015

>  <SCORE.INTER.norm>
-0.154632

>  <SCORE.INTRA>
0.813428

>  <SCORE.INTRA.DIHEDRAL>
2.02115

>  <SCORE.INTRA.DIHEDRAL.0>
2.22229

>  <SCORE.INTRA.POLAR>
0

>  <SCORE.INTRA.POLAR.0>
0

>  <SCORE.INTRA.REPUL>
0

>  <SCORE.INTRA.REPUL.0>
0

>  <SCORE.INTRA.SOLV>
-1.48135

>  <SCORE.INTRA.SOLV.lig_0>
-31.87

>  <SCORE.INTRA.VDW>
0.543527

>  <SCORE.INTRA.VDW.0>
-0.575321

>  <SCORE.INTRA.norm>
0.0813428

>  <SCORE.RESTR>
0

>  <SCORE.RESTR.CAVITY>
0

>  <SCORE.RESTR.norm>
0

>  <SCORE.SYSTEM>
0

>  <SCORE.SYSTEM.CONST>
0

>  <SCORE.SYSTEM.DIHEDRAL>
0

>  <SCORE.SYSTEM.SOLV>
0

>  <SCORE.SYSTEM.norm>
0

>  <SCORE.heavy>
10

>  <SCORE.norm>
-0.0732892

>  <RMSD>
26.726

$$$$
ligand
 OpenBabel11021811463D
libRbt.so/2013.1/901 2013/11/27
 10  9  0  0  0  0  0  0  0  0999 V2000
    4.8440   30.9265    6.2600 N   0  0  0  0  0  0  0  0  0  0  0  0
    5.2939   31.5478    5.0204 C   0  0  2  0  0  0  0  0  0  0  0  0
    5.0465   30.6260    3.8276 C   0  0  0  0  0  0  0  0  0  0  0  0
    4.9158   31.1065    2.6980 O   0  0  0  0  0  0  0  0  0  0  0  0
    6.7725   31.9369    5.1133 C   0  0  0  0  0  0  0  0  0  0  0  0
    7.2473   32.8097    3.9579 C   0  0  0  0  0  0  0  0  0  0  0  0
    8.7317   33.1483    4.0619 C   0  0  0  0  0  0  0  0  0  0  0  0
    9.1615   34.1822    3.0092 C   0  0  0  0  0  0  0  0  0  0  0  0
    8.9368   33.7555    1.5918 N   0  0  0  0  0  0  0  0  0  0  0  0
    4.9881   29.3966    3.9616 O   0  0  0  0  0  0  0  0  0  0  0  0
  2  1  1  1  0  0  0
  2  3  1  0  0  0  0
  2  5  1  0  0  0  0
  3  4  1  0  0  0  0
  3 10  1  0  0  0  0
  5  6  1  0  0  0  0
  6  7  1  0  0  0  0
  7  8  1  0  0  0  0
  8  9  1  0  0  0  0
M  END
>  <CHROM.1>
154.87559520,-169.71167596,-178.49795780,-172.08515310,-59.42933308,6.57919030
31.91783589,3.92692883,-2.86783442,-0.70988779,-1.65349572

>  <Name>
ligand

>  <RI>
0

>  <Rbt.Current_Directory>
/home/itssahil/PROJECTS/Mol_Feturizer/New_Systems/rnas/3D0U

>  <Rbt.Executable>
rbdock ($Id: //depot/dev/client3/rdock/2013.1/src/exe/rbdock.cxx#4 $)

>  <Rbt.Library>
libRbt.so (2013.1, Build901 2013/11/27)

>  <Rbt.Parameter_File>
/export/apps/rDock/src/rDock_2013.1_src/data/scripts/dock_solv.prm

>  <Rbt.Receptor>
prm/blind_docking_40.prm

>  <SCORE>
-0.773916

>  <SCORE.INTER>
-0.197752

>  <SCORE.INTER.CONST>
1

>  <SCORE.INTER.POLAR>
0

>  <SCORE.INTER.ROT>
5

>  <SCORE.INTER.SOLV>
12.3833

>  <SCORE.INTER.VDW>
-11.1929

>  <SCORE.INTER.norm>
-0.0197752

>  <SCORE.INTRA>
-0.576164

>  <SCORE.INTRA.DIHEDRAL>
-0.112141

>  <SCORE.INTRA.DIHEDRAL.0>
2.22229

>  <SCORE.INTRA.POLAR>
0

>  <SCORE.INTRA.POLAR.0>
0

>  <SCORE.INTRA.REPUL>
0

>  <SCORE.INTRA.REPUL.0>
0

>  <SCORE.INTRA.SOLV>
-0.738812

>  <SCORE.INTRA.SOLV.lig_0>
-31.87

>  <SCORE.INTRA.VDW>
-0.150688

>  <SCORE.INTRA.VDW.0>
-0.575321

>  <SCORE.INTRA.norm>
-0.0576164

>  <SCORE.RESTR>
0

>  <SCORE.RESTR.CAVITY>
0

>  <SCORE.RESTR.norm>
0

>  <SCORE.SYSTEM>
0

>  <SCORE.SYSTEM.CONST>
0

>  <SCORE.SYSTEM.DIHEDRAL>
0

>  <SCORE.SYSTEM.SOLV>
0

>  <SCORE.SYSTEM.norm>
0

>  <SCORE.heavy>
10

>  <SCORE.norm>
-0.0773916

>  <RMSD>
26.788

$$$$
ligand
 OpenBabel11021811463D
libRbt.so/2013.1/901 2013/11/27
 10  9  0  0  0  0  0  0  0  0999 V2000
    7.7939   33.2976    5.7474 N   0  0  0  0  0  0  0  0  0  0  0  0
    6.5143   32.8198    5.2380 C   0  0  2  0  0  0  0  0  0  0  0  0
    5.3665   33.6923    5.7429 C   0  0  0  0  0  0  0  0  0  0  0  0
    5.5899   34.5808    6.5703 O   0  0  0  0  0  0  0  0  0  0  0  0
    6.2928   31.3522    5.6165 C   0  0  0  0  0  0  0  0  0  0  0  0
    5.0447   30.7423    4.9899 C   0  0  0  0  0  0  0  0  0  0  0  0
    5.2076   30.5058    3.4911 C   0  0  0  0  0  0  0  0  0  0  0  0
    5.0705   31.8069    2.6848 C   0  0  0  0  0  0  0  0  0  0  0  0
    5.1395   31.6274    1.1999 N   0  0  0  0  0  0  0  0  0  0  0  0
    4.2092   33.5414    5.3296 O   0  0  0  0  0  0  0  0  0  0  0  0
  2  1  1  1  0  0  0
  2  3  1  0  0  0  0
  2  5  1  0  0  0  0
  3  4  1  0  0  0  0
  3 10  1  0  0  0  0
  5  6  1  0  0  0  0
  6  7  1  0  0  0  0
  7  8  1  0  0  0  0
  8  9  1  0  0  0  0
M  END
>  <CHROM.1>
-6.14648093,-173.78086238,72.06718144,-77.08783210,-176.53006225,5.59973281
32.42161725,4.67784791,-1.28723262,0.80043846,-2.40124380

>  <Name>
ligand

>  <RI>
0

>  <Rbt.Current_Directory>
/home/itssahil/PROJECTS/Mol_Feturizer/New_Systems/rnas/3D0U

>  <Rbt.Executable>
rbdock ($Id: //depot/dev/client3/rdock/2013.1/src/exe/rbdock.cxx#4 $)

>  <Rbt.Library>
libRbt.so (2013.1, Build901 2013/11/27)

>  <Rbt.Parameter_File>
/export/apps/rDock/src/rDock_2013.1_src/data/scripts/dock_solv.prm

>  <Rbt.Receptor>
prm/blind_docking_40.prm

>  <SCORE>
-1.26044

>  <SCORE.INTER>
-2.05506

>  <SCORE.INTER.CONST>
1

>  <SCORE.INTER.POLAR>
0

>  <SCORE.INTER.ROT>
5

>  <SCORE.INTER.SOLV>
8.02448

>  <SCORE.INTER.VDW>
-10.9782

>  <SCORE.INTER.norm>
-0.205506

>  <SCORE.INTRA>
0.794617

>  <SCORE.INTRA.DIHEDRAL>
1.1895

>  <SCORE.INTRA.DIHEDRAL.0>
2.22229

>  <SCORE.INTRA.POLAR>
0

>  <SCORE.INTRA.POLAR.0>
0

>  <SCORE.INTRA.REPUL>
0

>  <SCORE.INTRA.REPUL.0>
0

>  <SCORE.INTRA.SOLV>
-0.801412

>  <SCORE.INTRA.SOLV.lig_0>
-31.87

>  <SCORE.INTRA.VDW>
0.600573

>  <SCORE.INTRA.VDW.0>
-0.575321

>  <SCORE.INTRA.norm>
0.0794617

>  <SCORE.RESTR>
0

>  <SCORE.RESTR.CAVITY>
0

>  <SCORE.RESTR.norm>
0

>  <SCORE.SYSTEM>
0

>  <SCORE.SYSTEM.CONST>
0

>  <SCORE.SYSTEM.DIHEDRAL>
0

>  <SCORE.SYSTEM.SOLV>
0

>  <SCORE.SYSTEM.norm>
0

>  <SCORE.heavy>
10

>  <SCORE.norm>
-0.126044

>  <RMSD>
26.901

$$$$
ligand
 OpenBabel11021811463D
libRbt.so/2013.1/901 2013/11/27
 10  9  0  0  0  0  0  0  0  0999 V2000
    8.8777   34.7655    4.1961 N   0  0  0  0  0  0  0  0  0  0  0  0
    8.8400   33.7202    3.1807 C   0  0  2  0  0  0  0  0  0  0  0  0
    8.2833   34.2591    1.8641 C   0  0  0  0  0  0  0  0  0  0  0  0
    7.3435   35.0593    1.8776 O   0  0  0  0  0  0  0  0  0  0  0  0
    8.0244   32.5187    3.6681 C   0  0  0  0  0  0  0  0  0  0  0  0
    6.5916   32.8690    4.0510 C   0  0  0  0  0  0  0  0  0  0  0  0
    5.7836   31.6381    4.4523 C   0  0  0  0  0  0  0  0  0  0  0  0
    5.4990   30.7202    3.2530 C   0  0  0  0  0  0  0  0  0  0  0  0
    4.6892   31.3537    2.1646 N   0  0  0  0  0  0  0  0  0  0  0  0
    8.7636   33.9236    0.7734 O   0  0  0  0  0  0  0  0  0  0  0  0
  2  1  1  1  0  0  0
  2  3  1  0  0  0  0
  2  5  1  0  0  0  0
  3  4  1  0  0  0  0
  3 10  1  0  0  0  0
  5  6  1  0  0  0  0
  6  7  1  0  0  0  0
  7  8  1  0  0  0  0
  8  9  1  0  0  0  0
M  END
>  <CHROM.1>
-39.01888339,57.73123755,176.59809175,-69.46637939,-61.58977213,7.26594533
33.10077310,2.91648484,-0.40848974,0.72781227,1.81020422

>  <Name>
ligand

>  <RI>
0

>  <Rbt.Current_Directory>
/home/itssahil/PROJECTS/Mol_Feturizer/New_Systems/rnas/3D0U

>  <Rbt.Executable>
rbdock ($Id: //depot/dev/client3/rdock/2013.1/src/exe/rbdock.cxx#4 $)

>  <Rbt.Library>
libRbt.so (2013.1, Build901 2013/11/27)

>  <Rbt.Parameter_File>
/export/apps/rDock/src/rDock_2013.1_src/data/scripts/dock_solv.prm

>  <Rbt.Receptor>
prm/blind_docking_40.prm

>  <SCORE>
0.452081

>  <SCORE.INTER>
-0.0499409

>  <SCORE.INTER.CONST>
1

>  <SCORE.INTER.POLAR>
0

>  <SCORE.INTER.ROT>
5

>  <SCORE.INTER.SOLV>
7.86475

>  <SCORE.INTER.VDW>
-9.58821

>  <SCORE.INTER.norm>
-0.00499409

>  <SCORE.INTRA>
0.502022

>  <SCORE.INTRA.DIHEDRAL>
-0.26741

>  <SCORE.INTRA.DIHEDRAL.0>
2.22229

>  <SCORE.INTRA.POLAR>
0

>  <SCORE.INTRA.POLAR.0>
0

>  <SCORE.INTRA.REPUL>
0

>  <SCORE.INTRA.REPUL.0>
0

>  <SCORE.INTRA.SOLV>
0.677793

>  <SCORE.INTRA.SOLV.lig_0>
-31.87

>  <SCORE.INTRA.VDW>
0.296831

>  <SCORE.INTRA.VDW.0>
-0.575321

>  <SCORE.INTRA.norm>
0.0502022

>  <SCORE.RESTR>
0

>  <SCORE.RESTR.CAVITY>
0

>  <SCORE.RESTR.norm>
0

>  <SCORE.SYSTEM>
0

>  <SCORE.SYSTEM.CONST>
0

>  <SCORE.SYSTEM.DIHEDRAL>
0

>  <SCORE.SYSTEM.SOLV>
0

>  <SCORE.SYSTEM.norm>
0

>  <SCORE.heavy>
10

>  <SCORE.norm>
0.0452081

>  <RMSD>
26.902

$$$$
ligand
 OpenBabel11021811463D
libRbt.so/2013.1/901 2013/11/27
 10  9  0  0  0  0  0  0  0  0999 V2000
    7.6537   33.3272    2.8383 N   0  0  0  0  0  0  0  0  0  0  0  0
    7.9725   34.5661    2.1392 C   0  0  2  0  0  0  0  0  0  0  0  0
    6.7426   35.4665    2.0373 C   0  0  0  0  0  0  0  0  0  0  0  0
    5.7321   35.0608    1.4557 O   0  0  0  0  0  0  0  0  0  0  0  0
    8.5520   34.2732    0.7519 C   0  0  0  0  0  0  0  0  0  0  0  0
    9.9373   33.6393    0.7909 C   0  0  0  0  0  0  0  0  0  0  0  0
   10.4920   33.3769   -0.6064 C   0  0  0  0  0  0  0  0  0  0  0  0
   11.9504   32.8940   -0.5656 C   0  0  0  0  0  0  0  0  0  0  0  0
   12.5752   32.6908   -1.9109 N   0  0  0  0  0  0  0  0  0  0  0  0
    6.7259   36.5978    2.5402 O   0  0  0  0  0  0  0  0  0  0  0  0
  2  1  1  6  0  0  0
  2  3  1  0  0  0  0
  2  5  1  0  0  0  0
  3  4  1  0  0  0  0
  3 10  1  0  0  0  0
  5  6  1  0  0  0  0
  6  7  1  0  0  0  0
  7  8  1  0  0  0  0
  8  9  1  0  0  0  0
M  END
>  <CHROM.1>
-59.65535065,-68.86820383,-179.28751784,173.23806958,-176.82594844,8.79620721
34.21451594,0.95248153,-3.06256522,0.65795615,-0.77728982

>  <Name>
ligand

>  <RI>
0

>  <Rbt.Current_Directory>
/home/itssahil/PROJECTS/Mol_Feturizer/New_Systems/rnas/3D0U

>  <Rbt.Executable>
rbdock ($Id: //depot/dev/client3/rdock/2013.1/src/exe/rbdock.cxx#4 $)

>  <Rbt.Library>
libRbt.so (2013.1, Build901 2013/11/27)

>  <Rbt.Parameter_File>
/export/apps/rDock/src/rDock_2013.1_src/data/scripts/dock_solv.prm

>  <Rbt.Receptor>
prm/blind_docking_40.prm

>  <SCORE>
-1.62816

>  <SCORE.INTER>
-0.876794

>  <SCORE.INTER.CONST>
1

>  <SCORE.INTER.POLAR>
0

>  <SCORE.INTER.ROT>
5

>  <SCORE.INTER.SOLV>
7.22613

>  <SCORE.INTER.VDW>
-9.92657

>  <SCORE.INTER.norm>
-0.0876794

>  <SCORE.INTRA>
-0.751366

>  <SCORE.INTRA.DIHEDRAL>
-0.193763

>  <SCORE.INTRA.DIHEDRAL.0>
2.22229

>  <SCORE.INTRA.POLAR>
0

>  <SCORE.INTRA.POLAR.0>
0

>  <SCORE.INTRA.REPUL>
0

>  <SCORE.INTRA.REPUL.0>
0

>  <SCORE.INTRA.SOLV>
-0.835092

>  <SCORE.INTRA.SOLV.lig_0>
-31.87

>  <SCORE.INTRA.VDW>
-0.236939

>  <SCORE.INTRA.VDW.0>
-0.575321

>  <SCORE.INTRA.norm>
-0.0751366

>  <SCORE.RESTR>
0

>  <SCORE.RESTR.CAVITY>
0

>  <SCORE.RESTR.norm>
0

>  <SCORE.SYSTEM>
0

>  <SCORE.SYSTEM.CONST>
0

>  <SCORE.SYSTEM.DIHEDRAL>
0

>  <SCORE.SYSTEM.SOLV>
0

>  <SCORE.SYSTEM.norm>
0

>  <SCORE.heavy>
10

>  <SCORE.norm>
-0.162816

>  <RMSD>
26.922

$$$$
ligand
 OpenBabel11021811463D
libRbt.so/2013.1/901 2013/11/27
 10  9  0  0  0  0  0  0  0  0999 V2000
    6.9977   32.3323    5.8856 N   0  0  0  0  0  0  0  0  0  0  0  0
    5.5487   32.1735    5.8709 C   0  0  2  0  0  0  0  0  0  0  0  0
    5.1575   30.7856    5.3664 C   0  0  0  0  0  0  0  0  0  0  0  0
    4.4361   30.0621    6.0594 O   0  0  0  0  0  0  0  0  0  0  0  0
    4.8908   33.2681    5.0252 C   0  0  0  0  0  0  0  0  0  0  0  0
    5.3164   33.2469    3.5620 C   0  0  0  0  0  0  0  0  0  0  0  0
    4.7745   34.4437    2.7855 C   0  0  0  0  0  0  0  0  0  0  0  0
    5.0943   34.3492    1.2853 C   0  0  0  0  0  0  0  0  0  0  0  0
    6.5536   34.2461    0.9667 N   0  0  0  0  0  0  0  0  0  0  0  0
    5.5354   30.3680    4.2639 O   0  0  0  0  0  0  0  0  0  0  0  0
  2  1  1  6  0  0  0
  2  3  1  0  0  0  0
  2  5  1  0  0  0  0
  3  4  1  0  0  0  0
  3 10  1  0  0  0  0
  5  6  1  0  0  0  0
  6  7  1  0  0  0  0
  7  8  1  0  0  0  0
  8  9  1  0  0  0  0
M  END
>  <CHROM.1>
124.72129281,61.53582658,-173.26828032,-174.61703192,-57.98688256,5.42073216
32.49006761,4.10619087,-1.79025825,-1.29717507,-1.07110527

>  <Name>
ligand

>  <RI>
0

>  <Rbt.Current_Directory>
/home/itssahil/PROJECTS/Mol_Feturizer/New_Systems/rnas/3D0U

>  <Rbt.Executable>
rbdock ($Id: //depot/dev/client3/rdock/2013.1/src/exe/rbdock.cxx#4 $)

>  <Rbt.Library>
libRbt.so (2013.1, Build901 2013/11/27)

>  <Rbt.Parameter_File>
/export/apps/rDock/src/rDock_2013.1_src/data/scripts/dock_solv.prm

>  <Rbt.Receptor>
prm/blind_docking_40.prm

>  <SCORE>
-1.67108

>  <SCORE.INTER>
-1.69313

>  <SCORE.INTER.CONST>
1

>  <SCORE.INTER.POLAR>
0

>  <SCORE.INTER.ROT>
5

>  <SCORE.INTER.SOLV>
6.9464

>  <SCORE.INTER.VDW>
-10.3776

>  <SCORE.INTER.norm>
-0.169313

>  <SCORE.INTRA>
0.0220515

>  <SCORE.INTRA.DIHEDRAL>
-0.420263

>  <SCORE.INTRA.DIHEDRAL.0>
2.22229

>  <SCORE.INTRA.POLAR>
0

>  <SCORE.INTRA.POLAR.0>
0

>  <SCORE.INTRA.REPUL>
0

>  <SCORE.INTRA.REPUL.0>
0

>  <SCORE.INTRA.SOLV>
0.168434

>  <SCORE.INTRA.SOLV.lig_0>
-31.87

>  <SCORE.INTRA.VDW>
0.147966

>  <SCORE.INTRA.VDW.0>
-0.575321

>  <SCORE.INTRA.norm>
0.00220515

>  <SCORE.RESTR>
0

>  <SCORE.RESTR.CAVITY>
0

>  <SCORE.RESTR.norm>
0

>  <SCORE.SYSTEM>
0

>  <SCORE.SYSTEM.CONST>
0

>  <SCORE.SYSTEM.DIHEDRAL>
0

>  <SCORE.SYSTEM.SOLV>
0

>  <SCORE.SYSTEM.norm>
0

>  <SCORE.heavy>
10

>  <SCORE.norm>
-0.167108

>  <RMSD>
27.216

$$$$
ligand
 OpenBabel11021811463D
libRbt.so/2013.1/901 2013/11/27
 10  9  0  0  0  0  0  0  0  0999 V2000
    6.1273   32.1725    5.8003 N   0  0  0  0  0  0  0  0  0  0  0  0
    5.2542   31.6758    4.7438 C   0  0  2  0  0  0  0  0  0  0  0  0
    4.8488   30.2268    5.0080 C   0  0  0  0  0  0  0  0  0  0  0  0
    4.8371   29.4141    4.0788 O   0  0  0  0  0  0  0  0  0  0  0  0
    5.9258   31.8145    3.3741 C   0  0  0  0  0  0  0  0  0  0  0  0
    6.2972   33.2492    3.0194 C   0  0  0  0  0  0  0  0  0  0  0  0
    5.0701   34.1455    2.8788 C   0  0  0  0  0  0  0  0  0  0  0  0
    5.4539   35.6083    2.6053 C   0  0  0  0  0  0  0  0  0  0  0  0
    6.1961   36.2747    3.7218 N   0  0  0  0  0  0  0  0  0  0  0  0
    4.5429   29.8375    6.1428 O   0  0  0  0  0  0  0  0  0  0  0  0
  2  1  1  1  0  0  0
  2  3  1  0  0  0  0
  2  5  1  0  0  0  0
  3  4  1  0  0  0  0
  3 10  1  0  0  0  0
  5  6  1  0  0  0  0
  6  7  1  0  0  0  0
  7  8  1  0  0  0  0
  8  9  1  0  0  0  0
M  END
>  <CHROM.1>
-137.54619511,-59.10443362,-64.25345981,176.53665259,-64.64468849,5.44386089
32.39976536,4.14759038,-2.46856729,-1.36914119,-1.25913363

>  <Name>
ligand

>  <RI>
0

>  <Rbt.Current_Directory>
/home/itssahil/PROJECTS/Mol_Feturizer/New_Systems/rnas/3D0U

>  <Rbt.Executable>
rbdock ($Id: //depot/dev/client3/rdock/2013.1/src/exe/rbdock.cxx#4 $)

>  <Rbt.Library>
libRbt.so (2013.1, Build901 2013/11/27)

>  <Rbt.Parameter_File>
/export/apps/rDock/src/rDock_2013.1_src/data/scripts/dock_solv.prm

>  <Rbt.Receptor>
prm/blind_docking_40.prm

>  <SCORE>
-1.27388

>  <SCORE.INTER>
-2.24695

>  <SCORE.INTER.CONST>
1

>  <SCORE.INTER.POLAR>
0

>  <SCORE.INTER.ROT>
5

>  <SCORE.INTER.SOLV>
7.16548

>  <SCORE.INTER.VDW>
-10.8198

>  <SCORE.INTER.norm>
-0.224695

>  <SCORE.INTRA>
0.973077

>  <SCORE.INTRA.DIHEDRAL>
-0.510746

>  <SCORE.INTRA.DIHEDRAL.0>
2.22229

>  <SCORE.INTRA.POLAR>
0

>  <SCORE.INTRA.POLAR.0>
0

>  <SCORE.INTRA.REPUL>
0

>  <SCORE.INTRA.REPUL.0>
0

>  <SCORE.INTRA.SOLV>
0.680133

>  <SCORE.INTRA.SOLV.lig_0>
-31.87

>  <SCORE.INTRA.VDW>
0.888384

>  <SCORE.INTRA.VDW.0>
-0.575321

>  <SCORE.INTRA.norm>
0.0973077

>  <SCORE.RESTR>
0

>  <SCORE.RESTR.CAVITY>
0

>  <SCORE.RESTR.norm>
0

>  <SCORE.SYSTEM>
0

>  <SCORE.SYSTEM.CONST>
0

>  <SCORE.SYSTEM.DIHEDRAL>
0

>  <SCORE.SYSTEM.SOLV>
0

>  <SCORE.SYSTEM.norm>
0

>  <SCORE.heavy>
10

>  <SCORE.norm>
-0.127388

>  <RMSD>
27.220

$$$$
ligand
 OpenBabel11021811463D
libRbt.so/2013.1/901 2013/11/27
 10  9  0  0  0  0  0  0  0  0999 V2000
    6.6255   31.8905    5.7414 N   0  0  0  0  0  0  0  0  0  0  0  0
    5.3279   31.8288    5.0800 C   0  0  2  0  0  0  0  0  0  0  0  0
    5.3046   30.7219    4.0274 C   0  0  0  0  0  0  0  0  0  0  0  0
    4.4337   29.8483    4.0755 O   0  0  0  0  0  0  0  0  0  0  0  0
    4.9704   33.1822    4.4581 C   0  0  0  0  0  0  0  0  0  0  0  0
    5.9786   33.6623    3.4211 C   0  0  0  0  0  0  0  0  0  0  0  0
    5.6178   35.0334    2.8565 C   0  0  0  0  0  0  0  0  0  0  0  0
    4.3543   34.9820    1.9830 C   0  0  0  0  0  0  0  0  0  0  0  0
    4.4904   34.1555    0.7421 N   0  0  0  0  0  0  0  0  0  0  0  0
    6.1345   30.6849    3.1094 O   0  0  0  0  0  0  0  0  0  0  0  0
  2  1  1  6  0  0  0
  2  3  1  0  0  0  0
  2  5  1  0  0  0  0
  3  4  1  0  0  0  0
  3 10  1  0  0  0  0
  5  6  1  0  0  0  0
  6  7  1  0  0  0  0
  7  8  1  0  0  0  0
  8  9  1  0  0  0  0
M  END
>  <CHROM.1>
124.82703420,59.45708594,-178.06525265,-68.86347237,-64.27720317,5.32283971
32.56597062,3.53298292,-1.25097494,-1.14386144,-0.28153246

>  <Name>
ligand

>  <RI>
0

>  <Rbt.Current_Directory>
/home/itssahil/PROJECTS/Mol_Feturizer/New_Systems/rnas/3D0U

>  <Rbt.Executable>
rbdock ($Id: //depot/dev/client3/rdock/2013.1/src/exe/rbdock.cxx#4 $)

>  <Rbt.Library>
libRbt.so (2013.1, Build901 2013/11/27)

>  <Rbt.Parameter_File>
/export/apps/rDock/src/rDock_2013.1_src/data/scripts/dock_solv.prm

>  <Rbt.Receptor>
prm/blind_docking_40.prm

>  <SCORE>
-0.785861

>  <SCORE.INTER>
-1.35835

>  <SCORE.INTER.CONST>
1

>  <SCORE.INTER.POLAR>
0

>  <SCORE.INTER.ROT>
5

>  <SCORE.INTER.SOLV>
6.61089

>  <SCORE.INTER.VDW>
-10.0425

>  <SCORE.INTER.norm>
-0.135835

>  <SCORE.INTRA>
0.572492

>  <SCORE.INTRA.DIHEDRAL>
-0.340881

>  <SCORE.INTRA.DIHEDRAL.0>
2.22229

>  <SCORE.INTRA.POLAR>
0

>  <SCORE.INTRA.POLAR.0>
0

>  <SCORE.INTRA.REPUL>
0

>  <SCORE.INTRA.REPUL.0>
0

>  <SCORE.INTRA.SOLV>
0.612165

>  <SCORE.INTRA.SOLV.lig_0>
-31.87

>  <SCORE.INTRA.VDW>
0.436849

>  <SCORE.INTRA.VDW.0>
-0.575321

>  <SCORE.INTRA.norm>
0.0572492

>  <SCORE.RESTR>
0

>  <SCORE.RESTR.CAVITY>
0

>  <SCORE.RESTR.norm>
0

>  <SCORE.SYSTEM>
0

>  <SCORE.SYSTEM.CONST>
0

>  <SCORE.SYSTEM.DIHEDRAL>
0

>  <SCORE.SYSTEM.SOLV>
0

>  <SCORE.SYSTEM.norm>
0

>  <SCORE.heavy>
10

>  <SCORE.norm>
-0.0785861

>  <RMSD>
27.664

$$$$
ligand
 OpenBabel11021811463D
libRbt.so/2013.1/901 2013/11/27
 10  9  0  0  0  0  0  0  0  0999 V2000
    6.1550   31.7280    5.7349 N   0  0  0  0  0  0  0  0  0  0  0  0
    5.3118   31.7250    4.5458 C   0  0  2  0  0  0  0  0  0  0  0  0
    5.2703   30.3363    3.9105 C   0  0  0  0  0  0  0  0  0  0  0  0
    5.9550   30.0985    2.9112 O   0  0  0  0  0  0  0  0  0  0  0  0
    5.7914   32.7734    3.5372 C   0  0  0  0  0  0  0  0  0  0  0  0
    4.8671   32.9320    2.3361 C   0  0  0  0  0  0  0  0  0  0  0  0
    5.3081   34.0648    1.4135 C   0  0  0  0  0  0  0  0  0  0  0  0
    5.0397   35.4468    2.0299 C   0  0  0  0  0  0  0  0  0  0  0  0
    5.8747   35.7636    3.2316 N   0  0  0  0  0  0  0  0  0  0  0  0
    4.5734   29.4291    4.3840 O   0  0  0  0  0  0  0  0  0  0  0  0
  2  1  1  1  0  0  0
  2  3  1  0  0  0  0
  2  5  1  0  0  0  0
  3  4  1  0  0  0  0
  3 10  1  0  0  0  0
  5  6  1  0  0  0  0
  6  7  1  0  0  0  0
  7  8  1  0  0  0  0
  8  9  1  0  0  0  0
M  END
>  <CHROM.1>
-101.57772240,-173.69261336,175.07043048,-72.47492657,67.53709919,5.41307717
32.38979038,3.39460331,-1.62622397,-1.32172651,-0.43220013

>  <Name>
ligand

>  <RI>
0

>  <Rbt.Current_Directory>
/home/itssahil/PROJECTS/Mol_Feturizer/New_Systems/rnas/3D0U

>  <Rbt.Executable>
rbdock ($Id: //depot/dev/client3/rdock/2013.1/src/exe/rbdock.cxx#4 $)

>  <Rbt.Library>
libRbt.so (2013.1, Build901 2013/11/27)

>  <Rbt.Parameter_File>
/export/apps/rDock/src/rDock_2013.1_src/data/scripts/dock_solv.prm

>  <Rbt.Receptor>
prm/blind_docking_40.prm

>  <SCORE>
0.187526

>  <SCORE.INTER>
-1.28739

>  <SCORE.INTER.CONST>
1

>  <SCORE.INTER.POLAR>
0

>  <SCORE.INTER.ROT>
5

>  <SCORE.INTER.SOLV>
7.53216

>  <SCORE.INTER.VDW>
-10.3023

>  <SCORE.INTER.norm>
-0.128739

>  <SCORE.INTRA>
1.47491

>  <SCORE.INTRA.DIHEDRAL>
0.319583

>  <SCORE.INTRA.DIHEDRAL.0>
2.22229

>  <SCORE.INTRA.POLAR>
0

>  <SCORE.INTRA.POLAR.0>
0

>  <SCORE.INTRA.REPUL>
0

>  <SCORE.INTRA.REPUL.0>
0

>  <SCORE.INTRA.SOLV>
0.607014

>  <SCORE.INTRA.SOLV.lig_0>
-31.87

>  <SCORE.INTRA.VDW>
1.01161

>  <SCORE.INTRA.VDW.0>
-0.575321

>  <SCORE.INTRA.norm>
0.147491

>  <SCORE.RESTR>
0

>  <SCORE.RESTR.CAVITY>
0

>  <SCORE.RESTR.norm>
0

>  <SCORE.SYSTEM>
0

>  <SCORE.SYSTEM.CONST>
0

>  <SCORE.SYSTEM.DIHEDRAL>
0

>  <SCORE.SYSTEM.SOLV>
0

>  <SCORE.SYSTEM.norm>
0

>  <SCORE.heavy>
10

>  <SCORE.norm>
0.0187526

>  <RMSD>
27.741

$$$$
ligand
 OpenBabel11021811463D
libRbt.so/2013.1/901 2013/11/27
 10  9  0  0  0  0  0  0  0  0999 V2000
    6.0904   32.3307    5.0079 N   0  0  0  0  0  0  0  0  0  0  0  0
    5.0440   31.3873    4.6338 C   0  0  2  0  0  0  0  0  0  0  0  0
    4.9036   30.2850    5.6821 C   0  0  0  0  0  0  0  0  0  0  0  0
    4.7455   29.1144    5.3236 O   0  0  0  0  0  0  0  0  0  0  0  0
    5.3184   30.7930    3.2489 C   0  0  0  0  0  0  0  0  0  0  0  0
    5.0008   31.7454    2.1025 C   0  0  0  0  0  0  0  0  0  0  0  0
    5.8702   32.9992    2.1357 C   0  0  0  0  0  0  0  0  0  0  0  0
    5.5785   33.9335    0.9508 C   0  0  0  0  0  0  0  0  0  0  0  0
    4.1743   34.4504    0.8985 N   0  0  0  0  0  0  0  0  0  0  0  0
    4.9597   30.5339    6.8936 O   0  0  0  0  0  0  0  0  0  0  0  0
  2  1  1  1  0  0  0
  2  3  1  0  0  0  0
  2  5  1  0  0  0  0
  3  4  1  0  0  0  0
  3 10  1  0  0  0  0
  5  6  1  0  0  0  0
  6  7  1  0  0  0  0
  7  8  1  0  0  0  0
  8  9  1  0  0  0  0
M  END
>  <CHROM.1>
-138.04632677,-76.24462313,62.79346574,178.07181651,61.17004928,5.16440083
31.72643756,3.72039200,-1.63312301,-1.30075246,-0.98071577

>  <Name>
ligand

>  <RI>
0

>  <Rbt.Current_Directory>
/home/itssahil/PROJECTS/Mol_Feturizer/New_Systems/rnas/3D0U

>  <Rbt.Executable>
rbdock ($Id: //depot/dev/client3/rdock/2013.1/src/exe/rbdock.cxx#4 $)

>  <Rbt.Library>
libRbt.so (2013.1, Build901 2013/11/27)

>  <Rbt.Parameter_File>
/export/apps/rDock/src/rDock_2013.1_src/data/scripts/dock_solv.prm

>  <Rbt.Receptor>
prm/blind_docking_40.prm

>  <SCORE>
-1.21167

>  <SCORE.INTER>
-3.09454

>  <SCORE.INTER.CONST>
1

>  <SCORE.INTER.POLAR>
0

>  <SCORE.INTER.ROT>
5

>  <SCORE.INTER.SOLV>
5.86637

>  <SCORE.INTER.VDW>
-10.9518

>  <SCORE.INTER.norm>
-0.309454

>  <SCORE.INTRA>
1.88288

>  <SCORE.INTRA.DIHEDRAL>
0.348152

>  <SCORE.INTRA.DIHEDRAL.0>
2.22229

>  <SCORE.INTRA.POLAR>
0

>  <SCORE.INTRA.POLAR.0>
0

>  <SCORE.INTRA.REPUL>
0

>  <SCORE.INTRA.REPUL.0>
0

>  <SCORE.INTRA.SOLV>
1.30924

>  <SCORE.INTRA.SOLV.lig_0>
-31.87

>  <SCORE.INTRA.VDW>
1.05418

>  <SCORE.INTRA.VDW.0>
-0.575321

>  <SCORE.INTRA.norm>
0.188288

>  <SCORE.RESTR>
0

>  <SCORE.RESTR.CAVITY>
0

>  <SCORE.RESTR.norm>
0

>  <SCORE.SYSTEM>
0

>  <SCORE.SYSTEM.CONST>
0

>  <SCORE.SYSTEM.DIHEDRAL>
0

>  <SCORE.SYSTEM.SOLV>
0

>  <SCORE.SYSTEM.norm>
0

>  <SCORE.heavy>
10

>  <SCORE.norm>
-0.121167

>  <RMSD>
27.892

$$$$
ligand
 OpenBabel11021811463D
libRbt.so/2013.1/901 2013/11/27
 10  9  0  0  0  0  0  0  0  0999 V2000
    5.9624   31.4603    6.0300 N   0  0  0  0  0  0  0  0  0  0  0  0
    5.2929   31.6551    4.7498 C   0  0  2  0  0  0  0  0  0  0  0  0
    5.2855   30.3621    3.9362 C   0  0  0  0  0  0  0  0  0  0  0  0
    4.5804   29.4151    4.2965 O   0  0  0  0  0  0  0  0  0  0  0  0
    5.9485   32.7932    3.9617 C   0  0  0  0  0  0  0  0  0  0  0  0
    5.2202   33.1380    2.6683 C   0  0  0  0  0  0  0  0  0  0  0  0
    5.9246   34.2427    1.8857 C   0  0  0  0  0  0  0  0  0  0  0  0
    5.2353   34.5252    0.5414 C   0  0  0  0  0  0  0  0  0  0  0  0
    3.8250   35.0142    0.6573 N   0  0  0  0  0  0  0  0  0  0  0  0
    5.9624   30.2421    2.9066 O   0  0  0  0  0  0  0  0  0  0  0  0
  2  1  1  1  0  0  0
  2  3  1  0  0  0  0
  2  5  1  0  0  0  0
  3  4  1  0  0  0  0
  3 10  1  0  0  0  0
  5  6  1  0  0  0  0
  6  7  1  0  0  0  0
  7  8  1  0  0  0  0
  8  9  1  0  0  0  0
M  END
>  <CHROM.1>
70.26816986,-174.69023056,-178.09938779,176.43414984,62.20553249,5.32314346
32.24782563,3.15318740,-1.29378861,-1.23245996,-0.44698904

>  <Name>
ligand

>  <RI>
0

>  <Rbt.Current_Directory>
/home/itssahil/PROJECTS/Mol_Feturizer/New_Systems/rnas/3D0U

>  <Rbt.Executable>
rbdock ($Id: //depot/dev/client3/rdock/2013.1/src/exe/rbdock.cxx#4 $)

>  <Rbt.Library>
libRbt.so (2013.1, Build901 2013/11/27)

>  <Rbt.Parameter_File>
/export/apps/rDock/src/rDock_2013.1_src/data/scripts/dock_solv.prm

>  <Rbt.Receptor>
prm/blind_docking_40.prm

>  <SCORE>
-0.846795

>  <SCORE.INTER>
-0.777056

>  <SCORE.INTER.CONST>
1

>  <SCORE.INTER.POLAR>
0

>  <SCORE.INTER.ROT>
5

>  <SCORE.INTER.SOLV>
9.00542

>  <SCORE.INTER.VDW>
-10.4532

>  <SCORE.INTER.norm>
-0.0777056

>  <SCORE.INTRA>
-0.0697389

>  <SCORE.INTRA.DIHEDRAL>
-0.541638

>  <SCORE.INTRA.DIHEDRAL.0>
2.22229

>  <SCORE.INTRA.POLAR>
0

>  <SCORE.INTRA.POLAR.0>
0

>  <SCORE.INTRA.REPUL>
0

>  <SCORE.INTRA.REPUL.0>
0

>  <SCORE.INTRA.SOLV>
-0.780489

>  <SCORE.INTRA.SOLV.lig_0>
-31.87

>  <SCORE.INTRA.VDW>
0.591325

>  <SCORE.INTRA.VDW.0>
-0.575321

>  <SCORE.INTRA.norm>
-0.00697389

>  <SCORE.RESTR>
0

>  <SCORE.RESTR.CAVITY>
0

>  <SCORE.RESTR.norm>
0

>  <SCORE.SYSTEM>
0

>  <SCORE.SYSTEM.CONST>
0

>  <SCORE.SYSTEM.DIHEDRAL>
0

>  <SCORE.SYSTEM.SOLV>
0

>  <SCORE.SYSTEM.norm>
0

>  <SCORE.heavy>
10

>  <SCORE.norm>
-0.0846795

>  <RMSD>
27.988

$$$$
ligand
 OpenBabel11021811463D
libRbt.so/2013.1/901 2013/11/27
 10  9  0  0  0  0  0  0  0  0999 V2000
    7.2848   33.1220    4.9490 N   0  0  0  0  0  0  0  0  0  0  0  0
    6.0131   32.6033    4.4603 C   0  0  2  0  0  0  0  0  0  0  0  0
    5.0139   32.4426    5.6047 C   0  0  0  0  0  0  0  0  0  0  0  0
    4.9551   31.3752    6.2219 O   0  0  0  0  0  0  0  0  0  0  0  0
    6.2155   31.2771    3.7210 C   0  0  0  0  0  0  0  0  0  0  0  0
    4.9612   30.7736    3.0170 C   0  0  0  0  0  0  0  0  0  0  0  0
    4.6378   31.5830    1.7643 C   0  0  0  0  0  0  0  0  0  0  0  0
    3.4341   31.0072    1.0017 C   0  0  0  0  0  0  0  0  0  0  0  0
    3.1082   31.7202   -0.2739 N   0  0  0  0  0  0  0  0  0  0  0  0
    4.2643   33.3680    5.9434 O   0  0  0  0  0  0  0  0  0  0  0  0
  2  1  1  1  0  0  0
  2  3  1  0  0  0  0
  2  5  1  0  0  0  0
  3  4  1  0  0  0  0
  3 10  1  0  0  0  0
  5  6  1  0  0  0  0
  6  7  1  0  0  0  0
  7  8  1  0  0  0  0
  8  9  1  0  0  0  0
M  END
>  <CHROM.1>
-90.30499584,-171.99602889,73.38828842,175.75946671,-177.19579472,4.97046930
31.92732452,3.67566994,-1.21368106,-0.00579414,-1.80434856

>  <Name>
ligand

>  <RI>
0

>  <Rbt.Current_Directory>
/home/itssahil/PROJECTS/Mol_Feturizer/New_Systems/rnas/3D0U

>  <Rbt.Executable>
rbdock ($Id: //depot/dev/client3/rdock/2013.1/src/exe/rbdock.cxx#4 $)

>  <Rbt.Library>
libRbt.so (2013.1, Build901 2013/11/27)

>  <Rbt.Parameter_File>
/export/apps/rDock/src/rDock_2013.1_src/data/scripts/dock_solv.prm

>  <Rbt.Receptor>
prm/blind_docking_80.prm

>  <SCORE>
-4.10493

>  <SCORE.INTER>
-3.84134

>  <SCORE.INTER.CONST>
1

>  <SCORE.INTER.POLAR>
0

>  <SCORE.INTER.ROT>
5

>  <SCORE.INTER.SOLV>
5.20607

>  <SCORE.INTER.VDW>
-11.2296

>  <SCORE.INTER.norm>
-0.384134

>  <SCORE.INTRA>
-0.263589

>  <SCORE.INTRA.DIHEDRAL>
0.287651

>  <SCORE.INTRA.DIHEDRAL.0>
2.22229

>  <SCORE.INTRA.POLAR>
0

>  <SCORE.INTRA.POLAR.0>
0

>  <SCORE.INTRA.REPUL>
0

>  <SCORE.INTRA.REPUL.0>
0

>  <SCORE.INTRA.SOLV>
-1.379

>  <SCORE.INTRA.SOLV.lig_0>
-31.87

>  <SCORE.INTRA.VDW>
0.282086

>  <SCORE.INTRA.VDW.0>
-0.575321

>  <SCORE.INTRA.norm>
-0.0263589

>  <SCORE.RESTR>
0

>  <SCORE.RESTR.CAVITY>
0

>  <SCORE.RESTR.norm>
0

>  <SCORE.SYSTEM>
0

>  <SCORE.SYSTEM.CONST>
0

>  <SCORE.SYSTEM.DIHEDRAL>
0

>  <SCORE.SYSTEM.SOLV>
0

>  <SCORE.SYSTEM.norm>
0

>  <SCORE.heavy>
10

>  <SCORE.norm>
-0.410493

>  <RMSD>
28.094

$$$$
ligand
 OpenBabel11021811463D
libRbt.so/2013.1/901 2013/11/27
 10  9  0  0  0  0  0  0  0  0999 V2000
    6.2043   32.6029    5.7882 N   0  0  0  0  0  0  0  0  0  0  0  0
    5.3918   31.7997    4.8827 C   0  0  2  0  0  0  0  0  0  0  0  0
    4.8570   30.5551    5.5889 C   0  0  0  0  0  0  0  0  0  0  0  0
    4.8010   29.4819    4.9815 O   0  0  0  0  0  0  0  0  0  0  0  0
    6.1889   31.4183    3.6315 C   0  0  0  0  0  0  0  0  0  0  0  0
    5.3335   30.8155    2.5236 C   0  0  0  0  0  0  0  0  0  0  0  0
    4.4514   31.8584    1.8429 C   0  0  0  0  0  0  0  0  0  0  0  0
    3.5962   31.2461    0.7224 C   0  0  0  0  0  0  0  0  0  0  0  0
    2.7705   32.2354   -0.0399 N   0  0  0  0  0  0  0  0  0  0  0  0
    4.4885   30.5901    6.7703 O   0  0  0  0  0  0  0  0  0  0  0  0
  2  1  1  1  0  0  0
  2  3  1  0  0  0  0
  2  5  1  0  0  0  0
  3  4  1  0  0  0  0
  3 10  1  0  0  0  0
  5  6  1  0  0  0  0
  6  7  1  0  0  0  0
  7  8  1  0  0  0  0
  8  9  1  0  0  0  0
M  END
>  <CHROM.1>
-141.28793644,-168.74849482,72.28666162,179.72969308,-176.42870665,4.79897150
31.23200805,3.69503776,-1.12323226,-0.82577374,-1.08448357

>  <Name>
ligand

>  <RI>
0

>  <Rbt.Current_Directory>
/home/itssahil/PROJECTS/Mol_Feturizer/New_Systems/rnas/3D0U

>  <Rbt.Executable>
rbdock ($Id: //depot/dev/client3/rdock/2013.1/src/exe/rbdock.cxx#4 $)

>  <Rbt.Library>
libRbt.so (2013.1, Build901 2013/11/27)

>  <Rbt.Parameter_File>
/export/apps/rDock/src/rDock_2013.1_src/data/scripts/dock_solv.prm

>  <Rbt.Receptor>
prm/blind_docking_80.prm

>  <SCORE>
-3.76342

>  <SCORE.INTER>
-4.31848

>  <SCORE.INTER.CONST>
1

>  <SCORE.INTER.POLAR>
0

>  <SCORE.INTER.ROT>
5

>  <SCORE.INTER.SOLV>
7.1502

>  <SCORE.INTER.VDW>
-12.1957

>  <SCORE.INTER.norm>
-0.431848

>  <SCORE.INTRA>
0.555061

>  <SCORE.INTRA.DIHEDRAL>
0.414307

>  <SCORE.INTRA.DIHEDRAL.0>
2.22229

>  <SCORE.INTRA.POLAR>
0

>  <SCORE.INTRA.POLAR.0>
0

>  <SCORE.INTRA.REPUL>
0

>  <SCORE.INTRA.REPUL.0>
0

>  <SCORE.INTRA.SOLV>
-1.33544

>  <SCORE.INTRA.SOLV.lig_0>
-31.87

>  <SCORE.INTRA.VDW>
1.01563

>  <SCORE.INTRA.VDW.0>
-0.575321

>  <SCORE.INTRA.norm>
0.0555061

>  <SCORE.RESTR>
0

>  <SCORE.RESTR.CAVITY>
0

>  <SCORE.RESTR.norm>
0

>  <SCORE.SYSTEM>
0

>  <SCORE.SYSTEM.CONST>
0

>  <SCORE.SYSTEM.DIHEDRAL>
0

>  <SCORE.SYSTEM.SOLV>
0

>  <SCORE.SYSTEM.norm>
0

>  <SCORE.heavy>
10

>  <SCORE.norm>
-0.376342

>  <RMSD>
28.366

$$$$
ligand
 OpenBabel11021811463D
libRbt.so/2013.1/901 2013/11/27
 10  9  0  0  0  0  0  0  0  0999 V2000
    6.7183   34.5351    1.3031 N   0  0  0  0  0  0  0  0  0  0  0  0
    5.5981   33.6099    1.4227 C   0  0  2  0  0  0  0  0  0  0  0  0
    4.2953   34.3626    1.6872 C   0  0  0  0  0  0  0  0  0  0  0  0
    4.1617   35.0090    2.7304 O   0  0  0  0  0  0  0  0  0  0  0  0
    5.8637   32.5743    2.5196 C   0  0  0  0  0  0  0  0  0  0  0  0
    4.8456   31.4407    2.5476 C   0  0  0  0  0  0  0  0  0  0  0  0
    5.1979   30.3734    3.5800 C   0  0  0  0  0  0  0  0  0  0  0  0
    5.0232   30.8844    5.0188 C   0  0  0  0  0  0  0  0  0  0  0  0
    5.9231   32.0230    5.3870 N   0  0  0  0  0  0  0  0  0  0  0  0
    3.3662   34.3545    0.8690 O   0  0  0  0  0  0  0  0  0  0  0  0
  2  1  1  1  0  0  0
  2  3  1  0  0  0  0
  2  5  1  0  0  0  0
  3  4  1  0  0  0  0
  3 10  1  0  0  0  0
  5  6  1  0  0  0  0
  6  7  1  0  0  0  0
  7  8  1  0  0  0  0
  8  9  1  0  0  0  0
M  END
>  <CHROM.1>
-63.87526525,-170.47549935,175.66289178,69.82622938,-63.07024355,5.06955037
32.94032080,2.70475766,-1.73194583,0.05684708,2.43069127

>  <Name>
ligand

>  <RI>
0

>  <Rbt.Current_Directory>
/home/itssahil/PROJECTS/Mol_Feturizer/New_Systems/rnas/3D0U

>  <Rbt.Executable>
rbdock ($Id: //depot/dev/client3/rdock/2013.1/src/exe/rbdock.cxx#4 $)

>  <Rbt.Library>
libRbt.so (2013.1, Build901 2013/11/27)

>  <Rbt.Parameter_File>
/export/apps/rDock/src/rDock_2013.1_src/data/scripts/dock_solv.prm

>  <Rbt.Receptor>
prm/blind_docking_40.prm

>  <SCORE>
-0.262749

>  <SCORE.INTER>
-1.07224

>  <SCORE.INTER.CONST>
1

>  <SCORE.INTER.POLAR>
0

>  <SCORE.INTER.ROT>
5

>  <SCORE.INTER.SOLV>
7.58872

>  <SCORE.INTER.VDW>
-10.1777

>  <SCORE.INTER.norm>
-0.107224

>  <SCORE.INTRA>
0.809487

>  <SCORE.INTRA.DIHEDRAL>
0.0947342

>  <SCORE.INTRA.DIHEDRAL.0>
2.22229

>  <SCORE.INTRA.POLAR>
0

>  <SCORE.INTRA.POLAR.0>
0

>  <SCORE.INTRA.REPUL>
0

>  <SCORE.INTRA.REPUL.0>
0

>  <SCORE.INTRA.SOLV>
0.722756

>  <SCORE.INTRA.SOLV.lig_0>
-31.87

>  <SCORE.INTRA.VDW>
0.400741

>  <SCORE.INTRA.VDW.0>
-0.575321

>  <SCORE.INTRA.norm>
0.0809487

>  <SCORE.RESTR>
0

>  <SCORE.RESTR.CAVITY>
0

>  <SCORE.RESTR.norm>
0

>  <SCORE.SYSTEM>
0

>  <SCORE.SYSTEM.CONST>
0

>  <SCORE.SYSTEM.DIHEDRAL>
0

>  <SCORE.SYSTEM.SOLV>
0

>  <SCORE.SYSTEM.norm>
0

>  <SCORE.heavy>
10

>  <SCORE.norm>
-0.0262749

>  <RMSD>
28.571

$$$$
ligand
 OpenBabel11021811463D
libRbt.so/2013.1/901 2013/11/27
 10  9  0  0  0  0  0  0  0  0999 V2000
    6.4689   34.0450    1.0611 N   0  0  0  0  0  0  0  0  0  0  0  0
    5.1403   33.5032    0.8032 C   0  0  2  0  0  0  0  0  0  0  0  0
    4.0567   34.4459    1.3236 C   0  0  0  0  0  0  0  0  0  0  0  0
    3.0516   34.6615    0.6401 O   0  0  0  0  0  0  0  0  0  0  0  0
    4.9935   32.1085    1.4193 C   0  0  0  0  0  0  0  0  0  0  0  0
    5.1257   32.0953    2.9374 C   0  0  0  0  0  0  0  0  0  0  0  0
    5.1332   30.6784    3.5042 C   0  0  0  0  0  0  0  0  0  0  0  0
    5.0565   30.6719    5.0391 C   0  0  0  0  0  0  0  0  0  0  0  0
    6.1560   31.4271    5.7190 N   0  0  0  0  0  0  0  0  0  0  0  0
    4.1527   34.9935    2.4298 O   0  0  0  0  0  0  0  0  0  0  0  0
  2  1  1  1  0  0  0
  2  3  1  0  0  0  0
  2  5  1  0  0  0  0
  3  4  1  0  0  0  0
  3 10  1  0  0  0  0
  5  6  1  0  0  0  0
  6  7  1  0  0  0  0
  7  8  1  0  0  0  0
  8  9  1  0  0  0  0
M  END
>  <CHROM.1>
137.51114140,62.62175834,-173.51374341,-171.53796437,-57.64663750,4.90693987
32.89080233,2.48943570,-1.93524630,-0.81808630,2.04763226

>  <Name>
ligand

>  <RI>
0

>  <Rbt.Current_Directory>
/home/itssahil/PROJECTS/Mol_Feturizer/New_Systems/rnas/3D0U

>  <Rbt.Executable>
rbdock ($Id: //depot/dev/client3/rdock/2013.1/src/exe/rbdock.cxx#4 $)

>  <Rbt.Library>
libRbt.so (2013.1, Build901 2013/11/27)

>  <Rbt.Parameter_File>
/export/apps/rDock/src/rDock_2013.1_src/data/scripts/dock_solv.prm

>  <Rbt.Receptor>
prm/blind_docking_40.prm

>  <SCORE>
-1.23189

>  <SCORE.INTER>
-1.17815

>  <SCORE.INTER.CONST>
1

>  <SCORE.INTER.POLAR>
0

>  <SCORE.INTER.ROT>
5

>  <SCORE.INTER.SOLV>
8.19881

>  <SCORE.INTER.VDW>
-10.4517

>  <SCORE.INTER.norm>
-0.117815

>  <SCORE.INTRA>
-0.0537437

>  <SCORE.INTRA.DIHEDRAL>
-0.25494

>  <SCORE.INTRA.DIHEDRAL.0>
2.22229

>  <SCORE.INTRA.POLAR>
0

>  <SCORE.INTRA.POLAR.0>
0

>  <SCORE.INTRA.REPUL>
0

>  <SCORE.INTRA.REPUL.0>
0

>  <SCORE.INTRA.SOLV>
0.152726

>  <SCORE.INTRA.SOLV.lig_0>
-31.87

>  <SCORE.INTRA.VDW>
-0.00263674

>  <SCORE.INTRA.VDW.0>
-0.575321

>  <SCORE.INTRA.norm>
-0.00537437

>  <SCORE.RESTR>
0

>  <SCORE.RESTR.CAVITY>
0

>  <SCORE.RESTR.norm>
0

>  <SCORE.SYSTEM>
0

>  <SCORE.SYSTEM.CONST>
0

>  <SCORE.SYSTEM.DIHEDRAL>
0

>  <SCORE.SYSTEM.SOLV>
0

>  <SCORE.SYSTEM.norm>
0

>  <SCORE.heavy>
10

>  <SCORE.norm>
-0.123189

>  <RMSD>
28.878

$$$$
ligand
 OpenBabel11021811463D
libRbt.so/2013.1/901 2013/11/27
 10  9  0  0  0  0  0  0  0  0999 V2000
   -2.1707   41.2923  -11.1982 N   0  0  0  0  0  0  0  0  0  0  0  0
   -2.3196   41.9679   -9.9151 C   0  0  2  0  0  0  0  0  0  0  0  0
   -3.0908   41.0957   -8.9260 C   0  0  0  0  0  0  0  0  0  0  0  0
   -3.8129   40.1860   -9.3443 O   0  0  0  0  0  0  0  0  0  0  0  0
   -3.0024   43.3275  -10.0931 C   0  0  0  0  0  0  0  0  0  0  0  0
   -2.2541   44.2679  -11.0301 C   0  0  0  0  0  0  0  0  0  0  0  0
   -2.9766   45.6001  -11.2094 C   0  0  0  0  0  0  0  0  0  0  0  0
   -2.2788   46.4990  -12.2423 C   0  0  0  0  0  0  0  0  0  0  0  0
   -0.8814   46.8943  -11.8782 N   0  0  0  0  0  0  0  0  0  0  0  0
   -2.9990   41.2682   -7.7034 O   0  0  0  0  0  0  0  0  0  0  0  0
  2  1  1  6  0  0  0
  2  3  1  0  0  0  0
  2  5  1  0  0  0  0
  3  4  1  0  0  0  0
  3 10  1  0  0  0  0
  5  6  1  0  0  0  0
  6  7  1  0  0  0  0
  7  8  1  0  0  0  0
  8  9  1  0  0  0  0
M  END
>  <CHROM.1>
-20.93526151,-58.53568397,178.72738955,-175.34318854,-62.05670842,-2.59657084
43.20909951,-10.32603437,-2.36840516,1.28493719,0.29761772

>  <Name>
ligand

>  <RI>
0

>  <Rbt.Current_Directory>
/home/itssahil/PROJECTS/Mol_Feturizer/New_Systems/rnas/3D0U

>  <Rbt.Executable>
rbdock ($Id: //depot/dev/client3/rdock/2013.1/src/exe/rbdock.cxx#4 $)

>  <Rbt.Library>
libRbt.so (2013.1, Build901 2013/11/27)

>  <Rbt.Parameter_File>
/export/apps/rDock/src/rDock_2013.1_src/data/scripts/dock_solv.prm

>  <Rbt.Receptor>
prm/blind_docking_80.prm

>  <SCORE>
-5.20715

>  <SCORE.INTER>
-4.93686

>  <SCORE.INTER.CONST>
1

>  <SCORE.INTER.POLAR>
0

>  <SCORE.INTER.ROT>
5

>  <SCORE.INTER.SOLV>
9.49429

>  <SCORE.INTER.VDW>
-13.3893

>  <SCORE.INTER.norm>
-0.493686

>  <SCORE.INTRA>
-0.270288

>  <SCORE.INTRA.DIHEDRAL>
-0.597384

>  <SCORE.INTRA.DIHEDRAL.0>
2.22229

>  <SCORE.INTRA.POLAR>
0

>  <SCORE.INTRA.POLAR.0>
0

>  <SCORE.INTRA.REPUL>
0

>  <SCORE.INTRA.REPUL.0>
0

>  <SCORE.INTRA.SOLV>
0.158283

>  <SCORE.INTRA.SOLV.lig_0>
-31.87

>  <SCORE.INTRA.VDW>
-0.0507375

>  <SCORE.INTRA.VDW.0>
-0.575321

>  <SCORE.INTRA.norm>
-0.0270288

>  <SCORE.RESTR>
0

>  <SCORE.RESTR.CAVITY>
0

>  <SCORE.RESTR.norm>
0

>  <SCORE.SYSTEM>
0

>  <SCORE.SYSTEM.CONST>
0

>  <SCORE.SYSTEM.DIHEDRAL>
0

>  <SCORE.SYSTEM.SOLV>
0

>  <SCORE.SYSTEM.norm>
0

>  <SCORE.heavy>
10

>  <SCORE.norm>
-0.520715

>  <RMSD>
41.790

$$$$
ligand
 OpenBabel11021811463D
libRbt.so/2013.1/901 2013/11/27
 10  9  0  0  0  0  0  0  0  0999 V2000
   -2.9079   40.1844  -10.6342 N   0  0  0  0  0  0  0  0  0  0  0  0
   -3.3281   40.7515   -9.3586 C   0  0  2  0  0  0  0  0  0  0  0  0
   -4.5853   40.0552   -8.8404 C   0  0  0  0  0  0  0  0  0  0  0  0
   -4.5515   39.4489   -7.7656 O   0  0  0  0  0  0  0  0  0  0  0  0
   -3.5515   42.2618   -9.4829 C   0  0  0  0  0  0  0  0  0  0  0  0
   -2.3196   43.0236   -9.9565 C   0  0  0  0  0  0  0  0  0  0  0  0
   -2.6350   44.4775  -10.2964 C   0  0  0  0  0  0  0  0  0  0  0  0
   -1.4051   45.2215  -10.8402 C   0  0  0  0  0  0  0  0  0  0  0  0
   -1.6763   46.6231  -11.2914 N   0  0  0  0  0  0  0  0  0  0  0  0
   -5.6520   40.0955   -9.4676 O   0  0  0  0  0  0  0  0  0  0  0  0
  2  1  1  6  0  0  0
  2  3  1  0  0  0  0
  2  5  1  0  0  0  0
  3  4  1  0  0  0  0
  3 10  1  0  0  0  0
  5  6  1  0  0  0  0
  6  7  1  0  0  0  0
  7  8  1  0  0  0  0
  8  9  1  0  0  0  0
M  END
>  <CHROM.1>
118.39690575,-58.12517972,170.29096203,-177.13028109,175.50610814,-3.29354446
42.18697871,-9.77687082,-2.10217754,0.58251507,-0.02605163

>  <Name>
ligand

>  <RI>
0

>  <Rbt.Current_Directory>
/home/itssahil/PROJECTS/Mol_Feturizer/New_Systems/rnas/3D0U

>  <Rbt.Executable>
rbdock ($Id: //depot/dev/client3/rdock/2013.1/src/exe/rbdock.cxx#4 $)

>  <Rbt.Library>
libRbt.so (2013.1, Build901 2013/11/27)

>  <Rbt.Parameter_File>
/export/apps/rDock/src/rDock_2013.1_src/data/scripts/dock_solv.prm

>  <Rbt.Receptor>
prm/blind_docking_80.prm

>  <SCORE>
-5.43716

>  <SCORE.INTER>
-4.84305

>  <SCORE.INTER.CONST>
1

>  <SCORE.INTER.POLAR>
0

>  <SCORE.INTER.ROT>
5

>  <SCORE.INTER.SOLV>
13.7774

>  <SCORE.INTER.VDW>
-14.7545

>  <SCORE.INTER.norm>
-0.484305

>  <SCORE.INTRA>
-0.594112

>  <SCORE.INTRA.DIHEDRAL>
-0.232672

>  <SCORE.INTRA.DIHEDRAL.0>
2.22229

>  <SCORE.INTRA.POLAR>
0

>  <SCORE.INTRA.POLAR.0>
0

>  <SCORE.INTRA.REPUL>
0

>  <SCORE.INTRA.REPUL.0>
0

>  <SCORE.INTRA.SOLV>
-0.65608

>  <SCORE.INTRA.SOLV.lig_0>
-31.87

>  <SCORE.INTRA.VDW>
-0.149736

>  <SCORE.INTRA.VDW.0>
-0.575321

>  <SCORE.INTRA.norm>
-0.0594112

>  <SCORE.RESTR>
0

>  <SCORE.RESTR.CAVITY>
0

>  <SCORE.RESTR.norm>
0

>  <SCORE.SYSTEM>
0

>  <SCORE.SYSTEM.CONST>
0

>  <SCORE.SYSTEM.DIHEDRAL>
0

>  <SCORE.SYSTEM.SOLV>
0

>  <SCORE.SYSTEM.norm>
0

>  <SCORE.heavy>
10

>  <SCORE.norm>
-0.543716

>  <RMSD>
41.795

$$$$
ligand
 OpenBabel11021811463D
libRbt.so/2013.1/901 2013/11/27
 10  9  0  0  0  0  0  0  0  0999 V2000
   -2.2333   41.0747  -11.1598 N   0  0  0  0  0  0  0  0  0  0  0  0
   -2.4307   41.6650   -9.8416 C   0  0  2  0  0  0  0  0  0  0  0  0
   -3.3189   40.7754   -8.9734 C   0  0  0  0  0  0  0  0  0  0  0  0
   -3.1734   40.7735   -7.7476 O   0  0  0  0  0  0  0  0  0  0  0  0
   -3.0182   43.0746   -9.9602 C   0  0  0  0  0  0  0  0  0  0  0  0
   -2.1093   44.0546  -10.6923 C   0  0  0  0  0  0  0  0  0  0  0  0
   -2.7587   45.4245  -10.8669 C   0  0  0  0  0  0  0  0  0  0  0  0
   -1.8193   46.4224  -11.5623 C   0  0  0  0  0  0  0  0  0  0  0  0
   -1.4287   46.0398  -12.9562 N   0  0  0  0  0  0  0  0  0  0  0  0
   -4.1997   40.0604   -9.4693 O   0  0  0  0  0  0  0  0  0  0  0  0
  2  1  1  6  0  0  0
  2  3  1  0  0  0  0
  2  5  1  0  0  0  0
  3  4  1  0  0  0  0
  3 10  1  0  0  0  0
  5  6  1  0  0  0  0
  6  7  1  0  0  0  0
  7  8  1  0  0  0  0
  8  9  1  0  0  0  0
M  END
>  <CHROM.1>
150.28105551,-62.42024378,176.54275987,178.02416814,62.52443552,-2.67024581
42.90584702,-10.29723453,-2.37740953,1.22837698,0.28022283

>  <Name>
ligand

>  <RI>
0

>  <Rbt.Current_Directory>
/home/itssahil/PROJECTS/Mol_Feturizer/New_Systems/rnas/3D0U

>  <Rbt.Executable>
rbdock ($Id: //depot/dev/client3/rdock/2013.1/src/exe/rbdock.cxx#4 $)

>  <Rbt.Library>
libRbt.so (2013.1, Build901 2013/11/27)

>  <Rbt.Parameter_File>
/export/apps/rDock/src/rDock_2013.1_src/data/scripts/dock_solv.prm

>  <Rbt.Receptor>
prm/blind_docking_80.prm

>  <SCORE>
-5.23707

>  <SCORE.INTER>
-4.78963

>  <SCORE.INTER.CONST>
1

>  <SCORE.INTER.POLAR>
0

>  <SCORE.INTER.ROT>
5

>  <SCORE.INTER.SOLV>
9.71622

>  <SCORE.INTER.VDW>
-13.3652

>  <SCORE.INTER.norm>
-0.478963

>  <SCORE.INTRA>
-0.447446

>  <SCORE.INTRA.DIHEDRAL>
-0.658295

>  <SCORE.INTRA.DIHEDRAL.0>
2.22229

>  <SCORE.INTRA.POLAR>
0

>  <SCORE.INTRA.POLAR.0>
0

>  <SCORE.INTRA.REPUL>
0

>  <SCORE.INTRA.REPUL.0>
0

>  <SCORE.INTRA.SOLV>
0.111322

>  <SCORE.INTRA.SOLV.lig_0>
-31.87

>  <SCORE.INTRA.VDW>
-0.17396

>  <SCORE.INTRA.VDW.0>
-0.575321

>  <SCORE.INTRA.norm>
-0.0447446

>  <SCORE.RESTR>
0

>  <SCORE.RESTR.CAVITY>
0

>  <SCORE.RESTR.norm>
0

>  <SCORE.SYSTEM>
0

>  <SCORE.SYSTEM.CONST>
0

>  <SCORE.SYSTEM.DIHEDRAL>
0

>  <SCORE.SYSTEM.SOLV>
0

>  <SCORE.SYSTEM.norm>
0

>  <SCORE.heavy>
10

>  <SCORE.norm>
-0.523707

>  <RMSD>
41.800

$$$$
ligand
 OpenBabel11021811463D
libRbt.so/2013.1/901 2013/11/27
 10  9  0  0  0  0  0  0  0  0999 V2000
   -2.4263   40.7824  -11.0108 N   0  0  0  0  0  0  0  0  0  0  0  0
   -2.5753   41.4159   -9.7063 C   0  0  2  0  0  0  0  0  0  0  0  0
   -3.5775   40.6535   -8.8414 C   0  0  0  0  0  0  0  0  0  0  0  0
   -3.3610   40.5096   -7.6346 O   0  0  0  0  0  0  0  0  0  0  0  0
   -2.9895   42.8827   -9.8590 C   0  0  0  0  0  0  0  0  0  0  0  0
   -1.9322   43.7480  -10.5341 C   0  0  0  0  0  0  0  0  0  0  0  0
   -1.7765   43.4187  -12.0160 C   0  0  0  0  0  0  0  0  0  0  0  0
   -0.7077   44.2929  -12.6908 C   0  0  0  0  0  0  0  0  0  0  0  0
   -0.4913   43.9993  -14.1429 N   0  0  0  0  0  0  0  0  0  0  0  0
   -4.6188   40.1844   -9.3193 O   0  0  0  0  0  0  0  0  0  0  0  0
  2  1  1  6  0  0  0
  2  3  1  0  0  0  0
  2  5  1  0  0  0  0
  3  4  1  0  0  0  0
  3 10  1  0  0  0  0
  5  6  1  0  0  0  0
  6  7  1  0  0  0  0
  7  8  1  0  0  0  0
  8  9  1  0  0  0  0
M  END
>  <CHROM.1>
140.86709967,-64.97573388,70.08814813,-179.91605537,178.96065338,-2.47194838
42.16464858,-10.54726280,2.89512011,1.08415622,0.95600438

>  <Name>
ligand

>  <RI>
0

>  <Rbt.Current_Directory>
/home/itssahil/PROJECTS/Mol_Feturizer/New_Systems/rnas/3D0U

>  <Rbt.Executable>
rbdock ($Id: //depot/dev/client3/rdock/2013.1/src/exe/rbdock.cxx#4 $)

>  <Rbt.Library>
libRbt.so (2013.1, Build901 2013/11/27)

>  <Rbt.Parameter_File>
/export/apps/rDock/src/rDock_2013.1_src/data/scripts/dock_solv.prm

>  <Rbt.Receptor>
prm/blind_docking_80.prm

>  <SCORE>
-3.82548

>  <SCORE.INTER>
-4.19662

>  <SCORE.INTER.CONST>
1

>  <SCORE.INTER.POLAR>
0

>  <SCORE.INTER.ROT>
5

>  <SCORE.INTER.SOLV>
8.40933

>  <SCORE.INTER.VDW>
-12.5342

>  <SCORE.INTER.norm>
-0.419662

>  <SCORE.INTRA>
0.371139

>  <SCORE.INTRA.DIHEDRAL>
-0.24418

>  <SCORE.INTRA.DIHEDRAL.0>
2.22229

>  <SCORE.INTRA.POLAR>
0

>  <SCORE.INTRA.POLAR.0>
0

>  <SCORE.INTRA.REPUL>
0

>  <SCORE.INTRA.REPUL.0>
0

>  <SCORE.INTRA.SOLV>
0.663506

>  <SCORE.INTRA.SOLV.lig_0>
-31.87

>  <SCORE.INTRA.VDW>
0.161476

>  <SCORE.INTRA.VDW.0>
-0.575321

>  <SCORE.INTRA.norm>
0.0371139

>  <SCORE.RESTR>
0

>  <SCORE.RESTR.CAVITY>
0

>  <SCORE.RESTR.norm>
0

>  <SCORE.SYSTEM>
0

>  <SCORE.SYSTEM.CONST>
0

>  <SCORE.SYSTEM.DIHEDRAL>
0

>  <SCORE.SYSTEM.SOLV>
0

>  <SCORE.SYSTEM.norm>
0

>  <SCORE.heavy>
10

>  <SCORE.norm>
-0.382548

>  <RMSD>
41.825

$$$$
ligand
 OpenBabel11021811463D
libRbt.so/2013.1/901 2013/11/27
 10  9  0  0  0  0  0  0  0  0999 V2000
   -2.1662   42.7246   -9.6255 N   0  0  0  0  0  0  0  0  0  0  0  0
   -3.0168   41.5806   -9.9302 C   0  0  2  0  0  0  0  0  0  0  0  0
   -3.5205   40.9192   -8.6485 C   0  0  0  0  0  0  0  0  0  0  0  0
   -2.9515   41.1465   -7.5768 O   0  0  0  0  0  0  0  0  0  0  0  0
   -2.2745   40.5710  -10.8111 C   0  0  0  0  0  0  0  0  0  0  0  0
   -1.8362   41.1405  -12.1549 C   0  0  0  0  0  0  0  0  0  0  0  0
   -1.1413   40.0971  -13.0253 C   0  0  0  0  0  0  0  0  0  0  0  0
   -0.7645   40.6577  -14.4057 C   0  0  0  0  0  0  0  0  0  0  0  0
    0.2237   41.7820  -14.3708 N   0  0  0  0  0  0  0  0  0  0  0  0
   -4.5028   40.1656   -8.6526 O   0  0  0  0  0  0  0  0  0  0  0  0
  2  1  1  1  0  0  0
  2  3  1  0  0  0  0
  2  5  1  0  0  0  0
  3  4  1  0  0  0  0
  3 10  1  0  0  0  0
  5  6  1  0  0  0  0
  6  7  1  0  0  0  0
  7  8  1  0  0  0  0
  8  9  1  0  0  0  0
M  END
>  <CHROM.1>
-17.77935164,-60.74937499,-178.10758108,177.14774654,63.11162513,-2.21343086
41.06502047,-10.88092480,-2.38154805,-0.86288691,-2.24390359

>  <Name>
ligand

>  <RI>
0

>  <Rbt.Current_Directory>
/home/itssahil/PROJECTS/Mol_Feturizer/New_Systems/rnas/3D0U

>  <Rbt.Executable>
rbdock ($Id: //depot/dev/client3/rdock/2013.1/src/exe/rbdock.cxx#4 $)

>  <Rbt.Library>
libRbt.so (2013.1, Build901 2013/11/27)

>  <Rbt.Parameter_File>
/export/apps/rDock/src/rDock_2013.1_src/data/scripts/dock_solv.prm

>  <Rbt.Receptor>
prm/blind_docking_100.prm

>  <SCORE>
-5.42142

>  <SCORE.INTER>
-5.09966

>  <SCORE.INTER.CONST>
1

>  <SCORE.INTER.POLAR>
0

>  <SCORE.INTER.ROT>
5

>  <SCORE.INTER.SOLV>
8.03925

>  <SCORE.INTER.VDW>
-13.0129

>  <SCORE.INTER.norm>
-0.509966

>  <SCORE.INTRA>
-0.321757

>  <SCORE.INTRA.DIHEDRAL>
-0.629932

>  <SCORE.INTRA.DIHEDRAL.0>
2.22229

>  <SCORE.INTRA.POLAR>
0

>  <SCORE.INTRA.POLAR.0>
0

>  <SCORE.INTRA.REPUL>
0

>  <SCORE.INTRA.REPUL.0>
0

>  <SCORE.INTRA.SOLV>
0.110864

>  <SCORE.INTRA.SOLV.lig_0>
-31.87

>  <SCORE.INTRA.VDW>
-0.062223

>  <SCORE.INTRA.VDW.0>
-0.575321

>  <SCORE.INTRA.norm>
-0.0321757

>  <SCORE.RESTR>
0

>  <SCORE.RESTR.CAVITY>
0

>  <SCORE.RESTR.norm>
0

>  <SCORE.SYSTEM>
0

>  <SCORE.SYSTEM.CONST>
0

>  <SCORE.SYSTEM.DIHEDRAL>
0

>  <SCORE.SYSTEM.SOLV>
0

>  <SCORE.SYSTEM.norm>
0

>  <SCORE.heavy>
10

>  <SCORE.norm>
-0.542142

>  <RMSD>
41.925

$$$$
ligand
 OpenBabel11021811463D
libRbt.so/2013.1/901 2013/11/27
 10  9  0  0  0  0  0  0  0  0999 V2000
   -2.2053   42.7191   -9.5862 N   0  0  0  0  0  0  0  0  0  0  0  0
   -3.0519   41.5740   -9.8979 C   0  0  2  0  0  0  0  0  0  0  0  0
   -3.5519   40.9020   -8.6203 C   0  0  0  0  0  0  0  0  0  0  0  0
   -4.5508   40.1778   -8.6590 O   0  0  0  0  0  0  0  0  0  0  0  0
   -2.3064   40.5732  -10.7862 C   0  0  0  0  0  0  0  0  0  0  0  0
   -1.8626   41.1563  -12.1224 C   0  0  0  0  0  0  0  0  0  0  0  0
   -1.1561   40.1242  -12.9968 C   0  0  0  0  0  0  0  0  0  0  0  0
   -0.8075   40.6867  -14.3838 C   0  0  0  0  0  0  0  0  0  0  0  0
    0.1398   41.8460  -14.3637 N   0  0  0  0  0  0  0  0  0  0  0  0
   -2.9680   41.0532   -7.5390 O   0  0  0  0  0  0  0  0  0  0  0  0
  2  1  1  1  0  0  0
  2  3  1  0  0  0  0
  2  5  1  0  0  0  0
  3  4  1  0  0  0  0
  3 10  1  0  0  0  0
  5  6  1  0  0  0  0
  6  7  1  0  0  0  0
  7  8  1  0  0  0  0
  8  9  1  0  0  0  0
M  END
>  <CHROM.1>
159.66169322,-60.32840683,-178.50433870,175.59513036,62.17312383,-2.25038834
41.06691723,-10.85666187,-2.38518510,-0.87075921,-2.23757075

>  <Name>
ligand

>  <RI>
0

>  <Rbt.Current_Directory>
/home/itssahil/PROJECTS/Mol_Feturizer/New_Systems/rnas/3D0U

>  <Rbt.Executable>
rbdock ($Id: //depot/dev/client3/rdock/2013.1/src/exe/rbdock.cxx#4 $)

>  <Rbt.Library>
libRbt.so (2013.1, Build901 2013/11/27)

>  <Rbt.Parameter_File>
/export/apps/rDock/src/rDock_2013.1_src/data/scripts/dock_solv.prm

>  <Rbt.Receptor>
prm/blind_docking_80.prm

>  <SCORE>
-5.4911

>  <SCORE.INTER>
-5.12347

>  <SCORE.INTER.CONST>
1

>  <SCORE.INTER.POLAR>
0

>  <SCORE.INTER.ROT>
5

>  <SCORE.INTER.SOLV>
7.93222

>  <SCORE.INTER.VDW>
-12.9931

>  <SCORE.INTER.norm>
-0.512347

>  <SCORE.INTRA>
-0.367624

>  <SCORE.INTRA.DIHEDRAL>
-0.663883

>  <SCORE.INTRA.DIHEDRAL.0>
2.22229

>  <SCORE.INTRA.POLAR>
0

>  <SCORE.INTRA.POLAR.0>
0

>  <SCORE.INTRA.REPUL>
0

>  <SCORE.INTRA.REPUL.0>
0

>  <SCORE.INTRA.SOLV>
0.110734

>  <SCORE.INTRA.SOLV.lig_0>
-31.87

>  <SCORE.INTRA.VDW>
-0.0910498

>  <SCORE.INTRA.VDW.0>
-0.575321

>  <SCORE.INTRA.norm>
-0.0367624

>  <SCORE.RESTR>
0

>  <SCORE.RESTR.CAVITY>
0

>  <SCORE.RESTR.norm>
0

>  <SCORE.SYSTEM>
0

>  <SCORE.SYSTEM.CONST>
0

>  <SCORE.SYSTEM.DIHEDRAL>
0

>  <SCORE.SYSTEM.SOLV>
0

>  <SCORE.SYSTEM.norm>
0

>  <SCORE.heavy>
10

>  <SCORE.norm>
-0.54911

>  <RMSD>
41.929

$$$$
ligand
 OpenBabel11021811463D
libRbt.so/2013.1/901 2013/11/27
 10  9  0  0  0  0  0  0  0  0999 V2000
   -2.1879   42.7274   -9.5909 N   0  0  0  0  0  0  0  0  0  0  0  0
   -3.0333   41.5815   -9.9028 C   0  0  2  0  0  0  0  0  0  0  0  0
   -3.5307   40.9073   -8.6254 C   0  0  0  0  0  0  0  0  0  0  0  0
   -2.9680   41.1382   -7.5511 O   0  0  0  0  0  0  0  0  0  0  0  0
   -2.2876   40.5828  -10.7933 C   0  0  0  0  0  0  0  0  0  0  0  0
   -1.8703   41.1601  -12.1405 C   0  0  0  0  0  0  0  0  0  0  0  0
   -1.1741   40.1263  -13.0211 C   0  0  0  0  0  0  0  0  0  0  0  0
   -0.8405   40.6865  -14.4127 C   0  0  0  0  0  0  0  0  0  0  0  0
    0.1242   41.8315  -14.4063 N   0  0  0  0  0  0  0  0  0  0  0  0
   -4.5020   40.1396   -8.6353 O   0  0  0  0  0  0  0  0  0  0  0  0
  2  1  1  1  0  0  0
  2  3  1  0  0  0  0
  2  5  1  0  0  0  0
  3  4  1  0  0  0  0
  3 10  1  0  0  0  0
  5  6  1  0  0  0  0
  6  7  1  0  0  0  0
  7  8  1  0  0  0  0
  8  9  1  0  0  0  0
M  END
>  <CHROM.1>
-17.14403058,-61.46133975,-177.99013272,176.15141065,63.08143011,-2.24514798
41.07428588,-10.86872477,-2.37741765,-0.87898592,-2.23805993

>  <Name>
ligand

>  <RI>
0

>  <Rbt.Current_Directory>
/home/itssahil/PROJECTS/Mol_Feturizer/New_Systems/rnas/3D0U

>  <Rbt.Executable>
rbdock ($Id: //depot/dev/client3/rdock/2013.1/src/exe/rbdock.cxx#4 $)

>  <Rbt.Library>
libRbt.so (2013.1, Build901 2013/11/27)

>  <Rbt.Parameter_File>
/export/apps/rDock/src/rDock_2013.1_src/data/scripts/dock_solv.prm

>  <Rbt.Receptor>
prm/blind_docking_80.prm

>  <SCORE>
-5.4352

>  <SCORE.INTER>
-5.12175

>  <SCORE.INTER.CONST>
1

>  <SCORE.INTER.POLAR>
0

>  <SCORE.INTER.ROT>
5

>  <SCORE.INTER.SOLV>
7.90875

>  <SCORE.INTER.VDW>
-12.9841

>  <SCORE.INTER.norm>
-0.512175

>  <SCORE.INTRA>
-0.313449

>  <SCORE.INTRA.DIHEDRAL>
-0.593935

>  <SCORE.INTRA.DIHEDRAL.0>
2.22229

>  <SCORE.INTRA.POLAR>
0

>  <SCORE.INTRA.POLAR.0>
0

>  <SCORE.INTRA.REPUL>
0

>  <SCORE.INTRA.REPUL.0>
0

>  <SCORE.INTRA.SOLV>
0.0975608

>  <SCORE.INTRA.SOLV.lig_0>
-31.87

>  <SCORE.INTRA.VDW>
-0.0652617

>  <SCORE.INTRA.VDW.0>
-0.575321

>  <SCORE.INTRA.norm>
-0.0313449

>  <SCORE.RESTR>
0

>  <SCORE.RESTR.CAVITY>
0

>  <SCORE.RESTR.norm>
0

>  <SCORE.SYSTEM>
0

>  <SCORE.SYSTEM.CONST>
0

>  <SCORE.SYSTEM.DIHEDRAL>
0

>  <SCORE.SYSTEM.SOLV>
0

>  <SCORE.SYSTEM.norm>
0

>  <SCORE.heavy>
10

>  <SCORE.norm>
-0.54352

>  <RMSD>
41.935

$$$$
ligand
 OpenBabel11021811463D
libRbt.so/2013.1/901 2013/11/27
 10  9  0  0  0  0  0  0  0  0999 V2000
   -2.9288   41.2551   -7.8266 N   0  0  0  0  0  0  0  0  0  0  0  0
   -3.8019   40.9610   -8.9563 C   0  0  2  0  0  0  0  0  0  0  0  0
   -4.7820   39.8412   -8.6107 C   0  0  0  0  0  0  0  0  0  0  0  0
   -5.8877   39.8035   -9.1583 O   0  0  0  0  0  0  0  0  0  0  0  0
   -2.9806   40.6044  -10.1991 C   0  0  0  0  0  0  0  0  0  0  0  0
   -2.1998   41.7808  -10.7724 C   0  0  0  0  0  0  0  0  0  0  0  0
   -1.6695   41.4938  -12.1743 C   0  0  0  0  0  0  0  0  0  0  0  0
   -1.0087   42.7300  -12.8041 C   0  0  0  0  0  0  0  0  0  0  0  0
   -0.4724   42.5120  -14.1849 N   0  0  0  0  0  0  0  0  0  0  0  0
   -4.4891   38.9530   -7.7995 O   0  0  0  0  0  0  0  0  0  0  0  0
  2  1  1  1  0  0  0
  2  3  1  0  0  0  0
  2  5  1  0  0  0  0
  3  4  1  0  0  0  0
  3 10  1  0  0  0  0
  5  6  1  0  0  0  0
  6  7  1  0  0  0  0
  7  8  1  0  0  0  0
  8  9  1  0  0  0  0
M  END
>  <CHROM.1>
151.00887789,-68.57365959,-166.25683182,174.14541224,-179.77914805,-3.05229094
40.96475042,-10.23157212,-2.31036775,-0.56810181,-1.53618794

>  <Name>
ligand

>  <RI>
0

>  <Rbt.Current_Directory>
/home/itssahil/PROJECTS/Mol_Feturizer/New_Systems/rnas/3D0U

>  <Rbt.Executable>
rbdock ($Id: //depot/dev/client3/rdock/2013.1/src/exe/rbdock.cxx#4 $)

>  <Rbt.Library>
libRbt.so (2013.1, Build901 2013/11/27)

>  <Rbt.Parameter_File>
/export/apps/rDock/src/rDock_2013.1_src/data/scripts/dock_solv.prm

>  <Rbt.Receptor>
prm/blind_docking_100.prm

>  <SCORE>
-5.79193

>  <SCORE.INTER>
-5.2948

>  <SCORE.INTER.CONST>
1

>  <SCORE.INTER.POLAR>
0

>  <SCORE.INTER.ROT>
5

>  <SCORE.INTER.SOLV>
10.115

>  <SCORE.INTER.VDW>
-13.8349

>  <SCORE.INTER.norm>
-0.52948

>  <SCORE.INTRA>
-0.497128

>  <SCORE.INTRA.DIHEDRAL>
0.427446

>  <SCORE.INTRA.DIHEDRAL.0>
2.22229

>  <SCORE.INTRA.POLAR>
0

>  <SCORE.INTRA.POLAR.0>
0

>  <SCORE.INTRA.REPUL>
0

>  <SCORE.INTRA.REPUL.0>
0

>  <SCORE.INTRA.SOLV>
-0.879997

>  <SCORE.INTRA.SOLV.lig_0>
-31.87

>  <SCORE.INTRA.VDW>
-0.270852

>  <SCORE.INTRA.VDW.0>
-0.575321

>  <SCORE.INTRA.norm>
-0.0497128

>  <SCORE.RESTR>
0

>  <SCORE.RESTR.CAVITY>
0

>  <SCORE.RESTR.norm>
0

>  <SCORE.SYSTEM>
0

>  <SCORE.SYSTEM.CONST>
0

>  <SCORE.SYSTEM.DIHEDRAL>
0

>  <SCORE.SYSTEM.SOLV>
0

>  <SCORE.SYSTEM.norm>
0

>  <SCORE.heavy>
10

>  <SCORE.norm>
-0.579193

>  <RMSD>
41.937

$$$$
ligand
 OpenBabel11021811463D
libRbt.so/2013.1/901 2013/11/27
 10  9  0  0  0  0  0  0  0  0999 V2000
   -2.9595   41.4351   -7.9799 N   0  0  0  0  0  0  0  0  0  0  0  0
   -3.8624   40.9286   -9.0062 C   0  0  2  0  0  0  0  0  0  0  0  0
   -4.7879   39.8551   -8.4364 C   0  0  0  0  0  0  0  0  0  0  0  0
   -5.9314   39.7304   -8.8846 O   0  0  0  0  0  0  0  0  0  0  0  0
   -3.0750   40.3913  -10.2052 C   0  0  0  0  0  0  0  0  0  0  0  0
   -2.2443   41.4536  -10.9149 C   0  0  0  0  0  0  0  0  0  0  0  0
   -1.6776   40.9533  -12.2406 C   0  0  0  0  0  0  0  0  0  0  0  0
   -1.0055   42.0799  -13.0412 C   0  0  0  0  0  0  0  0  0  0  0  0
   -0.4146   41.6467  -14.3469 N   0  0  0  0  0  0  0  0  0  0  0  0
   -4.4139   39.0888   -7.5387 O   0  0  0  0  0  0  0  0  0  0  0  0
  2  1  1  1  0  0  0
  2  3  1  0  0  0  0
  2  5  1  0  0  0  0
  3  4  1  0  0  0  0
  3 10  1  0  0  0  0
  5  6  1  0  0  0  0
  6  7  1  0  0  0  0
  7  8  1  0  0  0  0
  8  9  1  0  0  0  0
M  END
>  <CHROM.1>
147.94800403,-62.63057467,-169.62855747,172.18222142,179.30311689,-3.06639949
40.73006190,-10.23694833,-2.33168116,-0.58960572,-1.71806203

>  <Name>
ligand

>  <RI>
0

>  <Rbt.Current_Directory>
/home/itssahil/PROJECTS/Mol_Feturizer/New_Systems/rnas/3D0U

>  <Rbt.Executable>
rbdock ($Id: //depot/dev/client3/rdock/2013.1/src/exe/rbdock.cxx#4 $)

>  <Rbt.Library>
libRbt.so (2013.1, Build901 2013/11/27)

>  <Rbt.Parameter_File>
/export/apps/rDock/src/rDock_2013.1_src/data/scripts/dock_solv.prm

>  <Rbt.Receptor>
prm/blind_docking_80.prm

>  <SCORE>
-6.04146

>  <SCORE.INTER>
-5.39056

>  <SCORE.INTER.CONST>
1

>  <SCORE.INTER.POLAR>
0

>  <SCORE.INTER.ROT>
5

>  <SCORE.INTER.SOLV>
9.8199

>  <SCORE.INTER.VDW>
-13.8003

>  <SCORE.INTER.norm>
-0.539056

>  <SCORE.INTRA>
-0.650898

>  <SCORE.INTRA.DIHEDRAL>
-0.048911

>  <SCORE.INTRA.DIHEDRAL.0>
2.22229

>  <SCORE.INTRA.POLAR>
0

>  <SCORE.INTRA.POLAR.0>
0

>  <SCORE.INTRA.REPUL>
0

>  <SCORE.INTRA.REPUL.0>
0

>  <SCORE.INTRA.SOLV>
-0.792951

>  <SCORE.INTRA.SOLV.lig_0>
-31.87

>  <SCORE.INTRA.VDW>
-0.229967

>  <SCORE.INTRA.VDW.0>
-0.575321

>  <SCORE.INTRA.norm>
-0.0650898

>  <SCORE.RESTR>
0

>  <SCORE.RESTR.CAVITY>
0

>  <SCORE.RESTR.norm>
0

>  <SCORE.SYSTEM>
0

>  <SCORE.SYSTEM.CONST>
0

>  <SCORE.SYSTEM.DIHEDRAL>
0

>  <SCORE.SYSTEM.SOLV>
0

>  <SCORE.SYSTEM.norm>
0

>  <SCORE.heavy>
10

>  <SCORE.norm>
-0.604146

>  <RMSD>
41.960

$$$$
ligand
 OpenBabel11021811463D
libRbt.so/2013.1/901 2013/11/27
 10  9  0  0  0  0  0  0  0  0999 V2000
   -2.8769   40.9033   -7.5014 N   0  0  0  0  0  0  0  0  0  0  0  0
   -3.8610   41.2623   -8.5152 C   0  0  2  0  0  0  0  0  0  0  0  0
   -4.7432   40.0656   -8.8664 C   0  0  0  0  0  0  0  0  0  0  0  0
   -4.5084   38.9625   -8.3645 O   0  0  0  0  0  0  0  0  0  0  0  0
   -3.1741   41.8207   -9.7653 C   0  0  0  0  0  0  0  0  0  0  0  0
   -2.4153   40.7689  -10.5655 C   0  0  0  0  0  0  0  0  0  0  0  0
   -1.8602   41.3272  -11.8728 C   0  0  0  0  0  0  0  0  0  0  0  0
   -1.2708   40.2240  -12.7657 C   0  0  0  0  0  0  0  0  0  0  0  0
   -0.7204   40.7093  -14.0708 N   0  0  0  0  0  0  0  0  0  0  0  0
   -5.7063   40.1761   -9.6366 O   0  0  0  0  0  0  0  0  0  0  0  0
  2  1  1  1  0  0  0
  2  3  1  0  0  0  0
  2  5  1  0  0  0  0
  3  4  1  0  0  0  0
  3 10  1  0  0  0  0
  5  6  1  0  0  0  0
  6  7  1  0  0  0  0
  7  8  1  0  0  0  0
  8  9  1  0  0  0  0
M  END
>  <CHROM.1>
-4.36814603,70.72430271,174.34353214,-171.94247428,179.47239370,-3.14116430
40.59588586,-10.18984958,-2.31261421,-0.54103166,-1.89385425

>  <Name>
ligand

>  <RI>
0

>  <Rbt.Current_Directory>
/home/itssahil/PROJECTS/Mol_Feturizer/New_Systems/rnas/3D0U

>  <Rbt.Executable>
rbdock ($Id: //depot/dev/client3/rdock/2013.1/src/exe/rbdock.cxx#4 $)

>  <Rbt.Library>
libRbt.so (2013.1, Build901 2013/11/27)

>  <Rbt.Parameter_File>
/export/apps/rDock/src/rDock_2013.1_src/data/scripts/dock_solv.prm

>  <Rbt.Receptor>
prm/blind_docking_100.prm

>  <SCORE>
-6.12069

>  <SCORE.INTER>
-5.8916

>  <SCORE.INTER.CONST>
1

>  <SCORE.INTER.POLAR>
0

>  <SCORE.INTER.ROT>
5

>  <SCORE.INTER.SOLV>
11.8169

>  <SCORE.INTER.VDW>
-14.8

>  <SCORE.INTER.norm>
-0.58916

>  <SCORE.INTRA>
-0.229097

>  <SCORE.INTRA.DIHEDRAL>
0.0939554

>  <SCORE.INTRA.DIHEDRAL.0>
2.22229

>  <SCORE.INTRA.POLAR>
0

>  <SCORE.INTRA.POLAR.0>
0

>  <SCORE.INTRA.REPUL>
0

>  <SCORE.INTRA.REPUL.0>
0

>  <SCORE.INTRA.SOLV>
-0.870137

>  <SCORE.INTRA.SOLV.lig_0>
-31.87

>  <SCORE.INTRA.VDW>
0.158993

>  <SCORE.INTRA.VDW.0>
-0.575321

>  <SCORE.INTRA.norm>
-0.0229097

>  <SCORE.RESTR>
0

>  <SCORE.RESTR.CAVITY>
0

>  <SCORE.RESTR.norm>
0

>  <SCORE.SYSTEM>
0

>  <SCORE.SYSTEM.CONST>
0

>  <SCORE.SYSTEM.DIHEDRAL>
0

>  <SCORE.SYSTEM.SOLV>
0

>  <SCORE.SYSTEM.norm>
0

>  <SCORE.heavy>
10

>  <SCORE.norm>
-0.612069

>  <RMSD>
41.980

$$$$
ligand
 OpenBabel11021811463D
libRbt.so/2013.1/901 2013/11/27
 10  9  0  0  0  0  0  0  0  0999 V2000
   -2.2916   42.7362   -9.4984 N   0  0  0  0  0  0  0  0  0  0  0  0
   -3.0968   41.5668   -9.8290 C   0  0  2  0  0  0  0  0  0  0  0  0
   -3.5713   40.8561   -8.5626 C   0  0  0  0  0  0  0  0  0  0  0  0
   -2.9762   41.0399   -7.4968 O   0  0  0  0  0  0  0  0  0  0  0  0
   -2.3168   40.6084  -10.7341 C   0  0  0  0  0  0  0  0  0  0  0  0
   -1.8675   41.2390  -12.0467 C   0  0  0  0  0  0  0  0  0  0  0  0
   -1.2079   40.2259  -12.9781 C   0  0  0  0  0  0  0  0  0  0  0  0
   -0.7635   40.8659  -14.3028 C   0  0  0  0  0  0  0  0  0  0  0  0
   -0.1621   39.9084  -15.2842 N   0  0  0  0  0  0  0  0  0  0  0  0
   -4.5553   40.1048   -8.5728 O   0  0  0  0  0  0  0  0  0  0  0  0
  2  1  1  1  0  0  0
  2  3  1  0  0  0  0
  2  5  1  0  0  0  0
  3  4  1  0  0  0  0
  3 10  1  0  0  0  0
  5  6  1  0  0  0  0
  6  7  1  0  0  0  0
  7  8  1  0  0  0  0
  8  9  1  0  0  0  0
M  END
>  <CHROM.1>
-20.64524482,-58.99379324,-174.71804627,179.70800424,-177.47069723,-2.29847240
40.90163962,-10.89088184,-2.35302306,-0.91675182,-2.34350474

>  <Name>
ligand

>  <RI>
0

>  <Rbt.Current_Directory>
/home/itssahil/PROJECTS/Mol_Feturizer/New_Systems/rnas/3D0U

>  <Rbt.Executable>
rbdock ($Id: //depot/dev/client3/rdock/2013.1/src/exe/rbdock.cxx#4 $)

>  <Rbt.Library>
libRbt.so (2013.1, Build901 2013/11/27)

>  <Rbt.Parameter_File>
/export/apps/rDock/src/rDock_2013.1_src/data/scripts/dock_solv.prm

>  <Rbt.Receptor>
prm/blind_docking_100.prm

>  <SCORE>
-5.64333

>  <SCORE.INTER>
-4.89784

>  <SCORE.INTER.CONST>
1

>  <SCORE.INTER.POLAR>
0

>  <SCORE.INTER.ROT>
5

>  <SCORE.INTER.SOLV>
8.43061

>  <SCORE.INTER.VDW>
-13.0088

>  <SCORE.INTER.norm>
-0.489784

>  <SCORE.INTRA>
-0.745497

>  <SCORE.INTRA.DIHEDRAL>
-0.57376

>  <SCORE.INTRA.DIHEDRAL.0>
2.22229

>  <SCORE.INTRA.POLAR>
0

>  <SCORE.INTRA.POLAR.0>
0

>  <SCORE.INTRA.REPUL>
0

>  <SCORE.INTRA.REPUL.0>
0

>  <SCORE.INTRA.SOLV>
-0.711894

>  <SCORE.INTRA.SOLV.lig_0>
-31.87

>  <SCORE.INTRA.VDW>
-0.10267

>  <SCORE.INTRA.VDW.0>
-0.575321

>  <SCORE.INTRA.norm>
-0.0745497

>  <SCORE.RESTR>
0

>  <SCORE.RESTR.CAVITY>
0

>  <SCORE.RESTR.norm>
0

>  <SCORE.SYSTEM>
0

>  <SCORE.SYSTEM.CONST>
0

>  <SCORE.SYSTEM.DIHEDRAL>
0

>  <SCORE.SYSTEM.SOLV>
0

>  <SCORE.SYSTEM.norm>
0

>  <SCORE.heavy>
10

>  <SCORE.norm>
-0.564333

>  <RMSD>
42.001

$$$$
ligand
 OpenBabel11021811463D
libRbt.so/2013.1/901 2013/11/27
 10  9  0  0  0  0  0  0  0  0999 V2000
   -2.2474   42.7972   -9.5508 N   0  0  0  0  0  0  0  0  0  0  0  0
   -3.0729   41.6331   -9.8483 C   0  0  2  0  0  0  0  0  0  0  0  0
   -3.5631   40.9695   -8.5626 C   0  0  0  0  0  0  0  0  0  0  0  0
   -4.5728   40.2595   -8.5855 O   0  0  0  0  0  0  0  0  0  0  0  0
   -2.3083   40.6340  -10.7221 C   0  0  0  0  0  0  0  0  0  0  0  0
   -1.8682   41.2085  -12.0632 C   0  0  0  0  0  0  0  0  0  0  0  0
   -1.2020   40.1603  -12.9499 C   0  0  0  0  0  0  0  0  0  0  0  0
   -0.8161   40.7299  -14.3241 C   0  0  0  0  0  0  0  0  0  0  0  0
   -0.1947   39.7362  -15.2559 N   0  0  0  0  0  0  0  0  0  0  0  0
   -2.9609   41.1133   -7.4905 O   0  0  0  0  0  0  0  0  0  0  0  0
  2  1  1  1  0  0  0
  2  3  1  0  0  0  0
  2  5  1  0  0  0  0
  3  4  1  0  0  0  0
  3 10  1  0  0  0  0
  5  6  1  0  0  0  0
  6  7  1  0  0  0  0
  7  8  1  0  0  0  0
  8  9  1  0  0  0  0
M  END
>  <CHROM.1>
157.47443264,-60.12272640,-175.74621050,177.49471814,-178.23225140,-2.29850923
40.91170132,-10.89552319,-2.32512126,-0.90515827,-2.35232648

>  <Name>
ligand

>  <RI>
0

>  <Rbt.Current_Directory>
/home/itssahil/PROJECTS/Mol_Feturizer/New_Systems/rnas/3D0U

>  <Rbt.Executable>
rbdock ($Id: //depot/dev/client3/rdock/2013.1/src/exe/rbdock.cxx#4 $)

>  <Rbt.Library>
libRbt.so (2013.1, Build901 2013/11/27)

>  <Rbt.Parameter_File>
/export/apps/rDock/src/rDock_2013.1_src/data/scripts/dock_solv.prm

>  <Rbt.Receptor>
prm/blind_docking_100.prm

>  <SCORE>
-5.71013

>  <SCORE.INTER>
-4.86032

>  <SCORE.INTER.CONST>
1

>  <SCORE.INTER.POLAR>
0

>  <SCORE.INTER.ROT>
5

>  <SCORE.INTER.SOLV>
8.71062

>  <SCORE.INTER.VDW>
-13.0771

>  <SCORE.INTER.norm>
-0.486032

>  <SCORE.INTRA>
-0.849811

>  <SCORE.INTRA.DIHEDRAL>
-0.660555

>  <SCORE.INTRA.DIHEDRAL.0>
2.22229

>  <SCORE.INTRA.POLAR>
0

>  <SCORE.INTRA.POLAR.0>
0

>  <SCORE.INTRA.REPUL>
0

>  <SCORE.INTRA.REPUL.0>
0

>  <SCORE.INTRA.SOLV>
-0.735357

>  <SCORE.INTRA.SOLV.lig_0>
-31.87

>  <SCORE.INTRA.VDW>
-0.151855

>  <SCORE.INTRA.VDW.0>
-0.575321

>  <SCORE.INTRA.norm>
-0.0849811

>  <SCORE.RESTR>
0

>  <SCORE.RESTR.CAVITY>
0

>  <SCORE.RESTR.norm>
0

>  <SCORE.SYSTEM>
0

>  <SCORE.SYSTEM.CONST>
0

>  <SCORE.SYSTEM.DIHEDRAL>
0

>  <SCORE.SYSTEM.SOLV>
0

>  <SCORE.SYSTEM.norm>
0

>  <SCORE.heavy>
10

>  <SCORE.norm>
-0.571013

>  <RMSD>
42.008

$$$$
ligand
 OpenBabel11021811463D
libRbt.so/2013.1/901 2013/11/27
 10  9  0  0  0  0  0  0  0  0999 V2000
   -2.2396   42.7416   -9.5911 N   0  0  0  0  0  0  0  0  0  0  0  0
   -3.0459   41.5624   -9.8820 C   0  0  2  0  0  0  0  0  0  0  0  0
   -3.5131   40.8898   -8.5924 C   0  0  0  0  0  0  0  0  0  0  0  0
   -2.9463   41.1473   -7.5264 O   0  0  0  0  0  0  0  0  0  0  0  0
   -2.2701   40.5777  -10.7622 C   0  0  0  0  0  0  0  0  0  0  0  0
   -1.8551   41.1591  -12.1084 C   0  0  0  0  0  0  0  0  0  0  0  0
   -1.1969   40.1177  -13.0091 C   0  0  0  0  0  0  0  0  0  0  0  0
   -0.8367   40.6939  -14.3875 C   0  0  0  0  0  0  0  0  0  0  0  0
   -0.3705   39.6774  -15.3830 N   0  0  0  0  0  0  0  0  0  0  0  0
   -4.4639   40.0968   -8.5844 O   0  0  0  0  0  0  0  0  0  0  0  0
  2  1  1  1  0  0  0
  2  3  1  0  0  0  0
  2  5  1  0  0  0  0
  3  4  1  0  0  0  0
  3 10  1  0  0  0  0
  5  6  1  0  0  0  0
  6  7  1  0  0  0  0
  7  8  1  0  0  0  0
  8  9  1  0  0  0  0
M  END
>  <CHROM.1>
-17.73640821,-60.27605697,-174.83155267,177.48494730,-171.61094696,-2.29089451
40.85412526,-10.94239363,-2.31194962,-0.93221058,-2.34633837

>  <Name>
ligand

>  <RI>
0

>  <Rbt.Current_Directory>
/home/itssahil/PROJECTS/Mol_Feturizer/New_Systems/rnas/3D0U

>  <Rbt.Executable>
rbdock ($Id: //depot/dev/client3/rdock/2013.1/src/exe/rbdock.cxx#4 $)

>  <Rbt.Library>
libRbt.so (2013.1, Build901 2013/11/27)

>  <Rbt.Parameter_File>
/export/apps/rDock/src/rDock_2013.1_src/data/scripts/dock_solv.prm

>  <Rbt.Receptor>
prm/blind_docking_80.prm

>  <SCORE>
-5.62232

>  <SCORE.INTER>
-5.00311

>  <SCORE.INTER.CONST>
1

>  <SCORE.INTER.POLAR>
0

>  <SCORE.INTER.ROT>
5

>  <SCORE.INTER.SOLV>
8.40028

>  <SCORE.INTER.VDW>
-13.0688

>  <SCORE.INTER.norm>
-0.500311

>  <SCORE.INTRA>
-0.619211

>  <SCORE.INTRA.DIHEDRAL>
-0.318493

>  <SCORE.INTRA.DIHEDRAL.0>
2.22229

>  <SCORE.INTRA.POLAR>
0

>  <SCORE.INTRA.POLAR.0>
0

>  <SCORE.INTRA.REPUL>
0

>  <SCORE.INTRA.REPUL.0>
0

>  <SCORE.INTRA.SOLV>
-0.722666

>  <SCORE.INTRA.SOLV.lig_0>
-31.87

>  <SCORE.INTRA.VDW>
-0.0986313

>  <SCORE.INTRA.VDW.0>
-0.575321

>  <SCORE.INTRA.norm>
-0.0619211

>  <SCORE.RESTR>
0

>  <SCORE.RESTR.CAVITY>
0

>  <SCORE.RESTR.norm>
0

>  <SCORE.SYSTEM>
0

>  <SCORE.SYSTEM.CONST>
0

>  <SCORE.SYSTEM.DIHEDRAL>
0

>  <SCORE.SYSTEM.SOLV>
0

>  <SCORE.SYSTEM.norm>
0

>  <SCORE.heavy>
10

>  <SCORE.norm>
-0.562232

>  <RMSD>
42.040

$$$$
ligand
 OpenBabel11021811463D
libRbt.so/2013.1/901 2013/11/27
 10  9  0  0  0  0  0  0  0  0999 V2000
   -2.2475   42.7354   -9.5363 N   0  0  0  0  0  0  0  0  0  0  0  0
   -3.0676   41.5742   -9.8590 C   0  0  2  0  0  0  0  0  0  0  0  0
   -3.5552   40.8810   -8.5880 C   0  0  0  0  0  0  0  0  0  0  0  0
   -2.9695   41.0776   -7.5192 O   0  0  0  0  0  0  0  0  0  0  0  0
   -2.2982   40.5975  -10.7536 C   0  0  0  0  0  0  0  0  0  0  0  0
   -1.8733   41.1981  -12.0882 C   0  0  0  0  0  0  0  0  0  0  0  0
   -1.2406   40.1617  -13.0126 C   0  0  0  0  0  0  0  0  0  0  0  0
   -0.8942   40.7526  -14.3884 C   0  0  0  0  0  0  0  0  0  0  0  0
   -0.3300   39.7665  -15.3636 N   0  0  0  0  0  0  0  0  0  0  0  0
   -4.5407   40.1317   -8.5974 O   0  0  0  0  0  0  0  0  0  0  0  0
  2  1  1  1  0  0  0
  2  3  1  0  0  0  0
  2  5  1  0  0  0  0
  3  4  1  0  0  0  0
  3 10  1  0  0  0  0
  5  6  1  0  0  0  0
  6  7  1  0  0  0  0
  7  8  1  0  0  0  0
  8  9  1  0  0  0  0
M  END
>  <CHROM.1>
-19.85191995,-60.73830167,-173.99364532,176.43970078,-177.19832622,-2.31923753
40.87482489,-10.93075349,-2.30146552,-0.91462180,-2.31637003

>  <Name>
ligand

>  <RI>
0

>  <Rbt.Current_Directory>
/home/itssahil/PROJECTS/Mol_Feturizer/New_Systems/rnas/3D0U

>  <Rbt.Executable>
rbdock ($Id: //depot/dev/client3/rdock/2013.1/src/exe/rbdock.cxx#4 $)

>  <Rbt.Library>
libRbt.so (2013.1, Build901 2013/11/27)

>  <Rbt.Parameter_File>
/export/apps/rDock/src/rDock_2013.1_src/data/scripts/dock_solv.prm

>  <Rbt.Receptor>
prm/blind_docking_80.prm

>  <SCORE>
-5.67095

>  <SCORE.INTER>
-4.94392

>  <SCORE.INTER.CONST>
1

>  <SCORE.INTER.POLAR>
0

>  <SCORE.INTER.ROT>
5

>  <SCORE.INTER.SOLV>
8.41223

>  <SCORE.INTER.VDW>
-13.0334

>  <SCORE.INTER.norm>
-0.494392

>  <SCORE.INTRA>
-0.727032

>  <SCORE.INTRA.DIHEDRAL>
-0.481178

>  <SCORE.INTRA.DIHEDRAL.0>
2.22229

>  <SCORE.INTRA.POLAR>
0

>  <SCORE.INTRA.POLAR.0>
0

>  <SCORE.INTRA.REPUL>
0

>  <SCORE.INTRA.REPUL.0>
0

>  <SCORE.INTRA.SOLV>
-0.736166

>  <SCORE.INTRA.SOLV.lig_0>
-31.87

>  <SCORE.INTRA.VDW>
-0.11836

>  <SCORE.INTRA.VDW.0>
-0.575321

>  <SCORE.INTRA.norm>
-0.0727032

>  <SCORE.RESTR>
0

>  <SCORE.RESTR.CAVITY>
0

>  <SCORE.RESTR.norm>
0

>  <SCORE.SYSTEM>
0

>  <SCORE.SYSTEM.CONST>
0

>  <SCORE.SYSTEM.DIHEDRAL>
0

>  <SCORE.SYSTEM.SOLV>
0

>  <SCORE.SYSTEM.norm>
0

>  <SCORE.heavy>
10

>  <SCORE.norm>
-0.567095

>  <RMSD>
42.047

$$$$
ligand
 OpenBabel11021811463D
libRbt.so/2013.1/901 2013/11/27
 10  9  0  0  0  0  0  0  0  0999 V2000
   -1.6204   43.9331  -10.8804 N   0  0  0  0  0  0  0  0  0  0  0  0
   -2.0081   42.6413  -10.3271 C   0  0  2  0  0  0  0  0  0  0  0  0
   -1.9956   41.5601  -11.4064 C   0  0  0  0  0  0  0  0  0  0  0  0
   -2.0843   41.8798  -12.5955 O   0  0  0  0  0  0  0  0  0  0  0  0
   -3.3824   42.7281   -9.6563 C   0  0  0  0  0  0  0  0  0  0  0  0
   -3.6696   41.5748   -8.7025 C   0  0  0  0  0  0  0  0  0  0  0  0
   -4.1642   40.3300   -9.4339 C   0  0  0  0  0  0  0  0  0  0  0  0
   -4.5637   39.2106   -8.4596 C   0  0  0  0  0  0  0  0  0  0  0  0
   -5.8173   39.4787   -7.6860 N   0  0  0  0  0  0  0  0  0  0  0  0
   -1.8825   40.3611  -11.1193 O   0  0  0  0  0  0  0  0  0  0  0  0
  2  1  1  6  0  0  0
  2  3  1  0  0  0  0
  2  5  1  0  0  0  0
  3  4  1  0  0  0  0
  3 10  1  0  0  0  0
  5  6  1  0  0  0  0
  6  7  1  0  0  0  0
  7  8  1  0  0  0  0
  8  9  1  0  0  0  0
M  END
>  <CHROM.1>
-21.74744967,-162.31484311,-82.08574853,-175.21646957,70.78395069,-3.11086953
41.35088314,-10.05624395,0.26417547,0.90733656,0.38674142

>  <Name>
ligand

>  <RI>
0

>  <Rbt.Current_Directory>
/home/itssahil/PROJECTS/Mol_Feturizer/New_Systems/rnas/3D0U

>  <Rbt.Executable>
rbdock ($Id: //depot/dev/client3/rdock/2013.1/src/exe/rbdock.cxx#4 $)

>  <Rbt.Library>
libRbt.so (2013.1, Build901 2013/11/27)

>  <Rbt.Parameter_File>
/export/apps/rDock/src/rDock_2013.1_src/data/scripts/dock_solv.prm

>  <Rbt.Receptor>
prm/blind_docking_60.prm

>  <SCORE>
-3.00469

>  <SCORE.INTER>
-4.10081

>  <SCORE.INTER.CONST>
1

>  <SCORE.INTER.POLAR>
0

>  <SCORE.INTER.ROT>
5

>  <SCORE.INTER.SOLV>
15.8058

>  <SCORE.INTER.VDW>
-14.9358

>  <SCORE.INTER.norm>
-0.410081

>  <SCORE.INTRA>
1.09613

>  <SCORE.INTRA.DIHEDRAL>
2.76688

>  <SCORE.INTRA.DIHEDRAL.0>
2.22229

>  <SCORE.INTRA.POLAR>
0

>  <SCORE.INTRA.POLAR.0>
0

>  <SCORE.INTRA.REPUL>
0

>  <SCORE.INTRA.REPUL.0>
0

>  <SCORE.INTRA.SOLV>
-0.745565

>  <SCORE.INTRA.SOLV.lig_0>
-31.87

>  <SCORE.INTRA.VDW>
0.0854689

>  <SCORE.INTRA.VDW.0>
-0.575321

>  <SCORE.INTRA.norm>
0.109613

>  <SCORE.RESTR>
0

>  <SCORE.RESTR.CAVITY>
0

>  <SCORE.RESTR.norm>
0

>  <SCORE.SYSTEM>
0

>  <SCORE.SYSTEM.CONST>
0

>  <SCORE.SYSTEM.DIHEDRAL>
0

>  <SCORE.SYSTEM.SOLV>
0

>  <SCORE.SYSTEM.norm>
0

>  <SCORE.heavy>
10

>  <SCORE.norm>
-0.300469

>  <RMSD>
42.071

$$$$
ligand
 OpenBabel11021811463D
libRbt.so/2013.1/901 2013/11/27
 10  9  0  0  0  0  0  0  0  0999 V2000
   -3.7265   40.8371   -8.3024 N   0  0  0  0  0  0  0  0  0  0  0  0
   -2.6840   41.3326   -9.1927 C   0  0  2  0  0  0  0  0  0  0  0  0
   -2.8012   42.8441   -9.3812 C   0  0  0  0  0  0  0  0  0  0  0  0
   -3.7651   43.3127   -9.9937 O   0  0  0  0  0  0  0  0  0  0  0  0
   -2.7320   40.6081  -10.5415 C   0  0  0  0  0  0  0  0  0  0  0  0
   -1.7875   41.1954  -11.5833 C   0  0  0  0  0  0  0  0  0  0  0  0
   -1.8033   40.4044  -12.8883 C   0  0  0  0  0  0  0  0  0  0  0  0
   -0.7721   40.9360  -13.8962 C   0  0  0  0  0  0  0  0  0  0  0  0
   -0.6989   40.1626  -15.1761 N   0  0  0  0  0  0  0  0  0  0  0  0
   -1.9552   43.6209   -8.9189 O   0  0  0  0  0  0  0  0  0  0  0  0
  2  1  1  1  0  0  0
  2  3  1  0  0  0  0
  2  5  1  0  0  0  0
  3  4  1  0  0  0  0
  3 10  1  0  0  0  0
  5  6  1  0  0  0  0
  6  7  1  0  0  0  0
  7  8  1  0  0  0  0
  8  9  1  0  0  0  0
M  END
>  <CHROM.1>
-68.00924548,172.65911265,176.83853596,-175.65212775,177.50493842,-2.27853911
41.56249981,-10.98015940,2.43237750,1.09297241,0.40305302

>  <Name>
ligand

>  <RI>
0

>  <Rbt.Current_Directory>
/home/itssahil/PROJECTS/Mol_Feturizer/New_Systems/rnas/3D0U

>  <Rbt.Executable>
rbdock ($Id: //depot/dev/client3/rdock/2013.1/src/exe/rbdock.cxx#4 $)

>  <Rbt.Library>
libRbt.so (2013.1, Build901 2013/11/27)

>  <Rbt.Parameter_File>
/export/apps/rDock/src/rDock_2013.1_src/data/scripts/dock_solv.prm

>  <Rbt.Receptor>
prm/blind_docking_80.prm

>  <SCORE>
-4.33213

>  <SCORE.INTER>
-3.48892

>  <SCORE.INTER.CONST>
1

>  <SCORE.INTER.POLAR>
0

>  <SCORE.INTER.ROT>
5

>  <SCORE.INTER.SOLV>
8.30056

>  <SCORE.INTER.VDW>
-12.0261

>  <SCORE.INTER.norm>
-0.348892

>  <SCORE.INTRA>
-0.843209

>  <SCORE.INTRA.DIHEDRAL>
-0.390534

>  <SCORE.INTRA.DIHEDRAL.0>
2.22229

>  <SCORE.INTRA.POLAR>
0

>  <SCORE.INTRA.POLAR.0>
0

>  <SCORE.INTRA.REPUL>
0

>  <SCORE.INTRA.REPUL.0>
0

>  <SCORE.INTRA.SOLV>
-1.61071

>  <SCORE.INTRA.SOLV.lig_0>
-31.87

>  <SCORE.INTRA.VDW>
0.157413

>  <SCORE.INTRA.VDW.0>
-0.575321

>  <SCORE.INTRA.norm>
-0.0843209

>  <SCORE.RESTR>
0

>  <SCORE.RESTR.CAVITY>
0

>  <SCORE.RESTR.norm>
0

>  <SCORE.SYSTEM>
0

>  <SCORE.SYSTEM.CONST>
0

>  <SCORE.SYSTEM.DIHEDRAL>
0

>  <SCORE.SYSTEM.SOLV>
0

>  <SCORE.SYSTEM.norm>
0

>  <SCORE.heavy>
10

>  <SCORE.norm>
-0.433213

>  <RMSD>
42.086

$$$$
ligand
 OpenBabel11021811463D
libRbt.so/2013.1/901 2013/11/27
 10  9  0  0  0  0  0  0  0  0999 V2000
   -3.3149   41.7894   -8.7487 N   0  0  0  0  0  0  0  0  0  0  0  0
   -2.9269   42.4494   -9.9893 C   0  0  2  0  0  0  0  0  0  0  0  0
   -2.1798   41.4852  -10.9091 C   0  0  0  0  0  0  0  0  0  0  0  0
   -1.5601   41.9229  -11.8829 O   0  0  0  0  0  0  0  0  0  0  0  0
   -2.0828   43.6946   -9.7010 C   0  0  0  0  0  0  0  0  0  0  0  0
   -2.4872   44.9101  -10.5264 C   0  0  0  0  0  0  0  0  0  0  0  0
   -2.2063   44.7174  -12.0140 C   0  0  0  0  0  0  0  0  0  0  0  0
   -2.4803   45.9957  -12.8219 C   0  0  0  0  0  0  0  0  0  0  0  0
   -1.5290   47.1191  -12.5485 N   0  0  0  0  0  0  0  0  0  0  0  0
   -2.1661   40.2660  -10.6940 O   0  0  0  0  0  0  0  0  0  0  0  0
  2  1  1  1  0  0  0
  2  3  1  0  0  0  0
  2  5  1  0  0  0  0
  3  4  1  0  0  0  0
  3 10  1  0  0  0  0
  5  6  1  0  0  0  0
  6  7  1  0  0  0  0
  7  8  1  0  0  0  0
  8  9  1  0  0  0  0
M  END
>  <CHROM.1>
-166.44514425,-135.34240916,-66.65634078,-174.13396417,68.35751801,-2.27836867
43.40415545,-11.00035728,1.80563011,-1.20668813,2.95683119

>  <Name>
ligand

>  <RI>
0

>  <Rbt.Current_Directory>
/home/itssahil/PROJECTS/Mol_Feturizer/New_Systems/rnas/3D0U

>  <Rbt.Executable>
rbdock ($Id: //depot/dev/client3/rdock/2013.1/src/exe/rbdock.cxx#4 $)

>  <Rbt.Library>
libRbt.so (2013.1, Build901 2013/11/27)

>  <Rbt.Parameter_File>
/export/apps/rDock/src/rDock_2013.1_src/data/scripts/dock_solv.prm

>  <Rbt.Receptor>
prm/blind_docking_80.prm

>  <SCORE>
-0.665581

>  <SCORE.INTER>
-3.18094

>  <SCORE.INTER.CONST>
1

>  <SCORE.INTER.POLAR>
0

>  <SCORE.INTER.ROT>
5

>  <SCORE.INTER.SOLV>
10.1897

>  <SCORE.INTER.VDW>
-12.4505

>  <SCORE.INTER.norm>
-0.318094

>  <SCORE.INTRA>
2.51536

>  <SCORE.INTRA.DIHEDRAL>
4.7552

>  <SCORE.INTRA.DIHEDRAL.0>
2.22229

>  <SCORE.INTRA.POLAR>
0

>  <SCORE.INTRA.POLAR.0>
0

>  <SCORE.INTRA.REPUL>
0

>  <SCORE.INTRA.REPUL.0>
0

>  <SCORE.INTRA.SOLV>
-0.522974

>  <SCORE.INTRA.SOLV.lig_0>
-31.87

>  <SCORE.INTRA.VDW>
0.399242

>  <SCORE.INTRA.VDW.0>
-0.575321

>  <SCORE.INTRA.norm>
0.251536

>  <SCORE.RESTR>
0

>  <SCORE.RESTR.CAVITY>
0

>  <SCORE.RESTR.norm>
0

>  <SCORE.SYSTEM>
0

>  <SCORE.SYSTEM.CONST>
0

>  <SCORE.SYSTEM.DIHEDRAL>
0

>  <SCORE.SYSTEM.SOLV>
0

>  <SCORE.SYSTEM.norm>
0

>  <SCORE.heavy>
10

>  <SCORE.norm>
-0.0665581

>  <RMSD>
42.109

$$$$
ligand
 OpenBabel11021811463D
libRbt.so/2013.1/901 2013/11/27
 10  9  0  0  0  0  0  0  0  0999 V2000
   -4.0131   40.4706   -9.7816 N   0  0  0  0  0  0  0  0  0  0  0  0
   -2.6607   41.0013   -9.6603 C   0  0  2  0  0  0  0  0  0  0  0  0
   -2.5927   42.0779   -8.5787 C   0  0  0  0  0  0  0  0  0  0  0  0
   -2.8625   41.7899   -7.4090 O   0  0  0  0  0  0  0  0  0  0  0  0
   -2.1681   41.5452  -11.0048 C   0  0  0  0  0  0  0  0  0  0  0  0
   -1.9062   40.4604  -12.0426 C   0  0  0  0  0  0  0  0  0  0  0  0
   -1.5327   41.0411  -13.4035 C   0  0  0  0  0  0  0  0  0  0  0  0
   -1.3410   39.9455  -14.4640 C   0  0  0  0  0  0  0  0  0  0  0  0
   -0.9750   40.4545  -15.8237 N   0  0  0  0  0  0  0  0  0  0  0  0
   -2.2563   43.2398   -8.8430 O   0  0  0  0  0  0  0  0  0  0  0  0
  2  1  1  6  0  0  0
  2  3  1  0  0  0  0
  2  5  1  0  0  0  0
  3  4  1  0  0  0  0
  3 10  1  0  0  0  0
  5  6  1  0  0  0  0
  6  7  1  0  0  0  0
  7  8  1  0  0  0  0
  8  9  1  0  0  0  0
M  END
>  <CHROM.1>
61.56482534,-69.62884858,175.10334316,-177.04176367,179.89191846,-2.23168894
41.22843371,-11.06377487,1.96383120,0.92056156,1.00379892

>  <Name>
ligand

>  <RI>
0

>  <Rbt.Current_Directory>
/home/itssahil/PROJECTS/Mol_Feturizer/New_Systems/rnas/3D0U

>  <Rbt.Executable>
rbdock ($Id: //depot/dev/client3/rdock/2013.1/src/exe/rbdock.cxx#4 $)

>  <Rbt.Library>
libRbt.so (2013.1, Build901 2013/11/27)

>  <Rbt.Parameter_File>
/export/apps/rDock/src/rDock_2013.1_src/data/scripts/dock_solv.prm

>  <Rbt.Receptor>
prm/blind_docking_60.prm

>  <SCORE>
-4.37176

>  <SCORE.INTER>
-4.26038

>  <SCORE.INTER.CONST>
1

>  <SCORE.INTER.POLAR>
0

>  <SCORE.INTER.ROT>
5

>  <SCORE.INTER.SOLV>
7.60138

>  <SCORE.INTER.VDW>
-12.3074

>  <SCORE.INTER.norm>
-0.426038

>  <SCORE.INTRA>
-0.111381

>  <SCORE.INTRA.DIHEDRAL>
-0.230013

>  <SCORE.INTRA.DIHEDRAL.0>
2.22229

>  <SCORE.INTRA.POLAR>
0

>  <SCORE.INTRA.POLAR.0>
0

>  <SCORE.INTRA.REPUL>
0

>  <SCORE.INTRA.REPUL.0>
0

>  <SCORE.INTRA.SOLV>
-0.823213

>  <SCORE.INTRA.SOLV.lig_0>
-31.87

>  <SCORE.INTRA.VDW>
0.415232

>  <SCORE.INTRA.VDW.0>
-0.575321

>  <SCORE.INTRA.norm>
-0.0111381

>  <SCORE.RESTR>
0

>  <SCORE.RESTR.CAVITY>
0

>  <SCORE.RESTR.norm>
0

>  <SCORE.SYSTEM>
0

>  <SCORE.SYSTEM.CONST>
0

>  <SCORE.SYSTEM.DIHEDRAL>
0

>  <SCORE.SYSTEM.SOLV>
0

>  <SCORE.SYSTEM.norm>
0

>  <SCORE.heavy>
10

>  <SCORE.norm>
-0.437176

>  <RMSD>
42.129

$$$$
ligand
 OpenBabel11021811463D
libRbt.so/2013.1/901 2013/11/27
 10  9  0  0  0  0  0  0  0  0999 V2000
   -2.8374   43.8431   -9.5590 N   0  0  0  0  0  0  0  0  0  0  0  0
   -2.9902   42.5458  -10.2062 C   0  0  2  0  0  0  0  0  0  0  0  0
   -3.0651   41.4254   -9.1705 C   0  0  0  0  0  0  0  0  0  0  0  0
   -3.4596   40.3050   -9.5066 O   0  0  0  0  0  0  0  0  0  0  0  0
   -1.8511   42.2969  -11.1996 C   0  0  0  0  0  0  0  0  0  0  0  0
   -1.9675   40.9707  -11.9412 C   0  0  0  0  0  0  0  0  0  0  0  0
   -0.9186   40.8298  -13.0407 C   0  0  0  0  0  0  0  0  0  0  0  0
   -0.9550   39.4405  -13.6965 C   0  0  0  0  0  0  0  0  0  0  0  0
   -2.1681   39.1810  -14.5348 N   0  0  0  0  0  0  0  0  0  0  0  0
   -2.7231   41.6078   -7.9946 O   0  0  0  0  0  0  0  0  0  0  0  0
  2  1  1  1  0  0  0
  2  3  1  0  0  0  0
  2  5  1  0  0  0  0
  3  4  1  0  0  0  0
  3 10  1  0  0  0  0
  5  6  1  0  0  0  0
  6  7  1  0  0  0  0
  7  8  1  0  0  0  0
  8  9  1  0  0  0  0
M  END
>  <CHROM.1>
165.46059602,-178.49937252,172.98268086,174.64327975,69.68043441,-2.29981978
41.22458655,-11.05304668,-2.28695612,-1.14977364,-2.70691297

>  <Name>
ligand

>  <RI>
0

>  <Rbt.Current_Directory>
/home/itssahil/PROJECTS/Mol_Feturizer/New_Systems/rnas/3D0U

>  <Rbt.Executable>
rbdock ($Id: //depot/dev/client3/rdock/2013.1/src/exe/rbdock.cxx#4 $)

>  <Rbt.Library>
libRbt.so (2013.1, Build901 2013/11/27)

>  <Rbt.Parameter_File>
/export/apps/rDock/src/rDock_2013.1_src/data/scripts/dock_solv.prm

>  <Rbt.Receptor>
prm/blind_docking_100.prm

>  <SCORE>
-3.91892

>  <SCORE.INTER>
-3.62665

>  <SCORE.INTER.CONST>
1

>  <SCORE.INTER.POLAR>
0

>  <SCORE.INTER.ROT>
5

>  <SCORE.INTER.SOLV>
8.95696

>  <SCORE.INTER.VDW>
-12.3368

>  <SCORE.INTER.norm>
-0.362665

>  <SCORE.INTRA>
-0.292267

>  <SCORE.INTRA.DIHEDRAL>
-0.0906414

>  <SCORE.INTRA.DIHEDRAL.0>
2.22229

>  <SCORE.INTRA.POLAR>
0

>  <SCORE.INTRA.POLAR.0>
0

>  <SCORE.INTRA.REPUL>
0

>  <SCORE.INTRA.REPUL.0>
0

>  <SCORE.INTRA.SOLV>
-0.874903

>  <SCORE.INTRA.SOLV.lig_0>
-31.87

>  <SCORE.INTRA.VDW>
0.190505

>  <SCORE.INTRA.VDW.0>
-0.575321

>  <SCORE.INTRA.norm>
-0.0292267

>  <SCORE.RESTR>
0

>  <SCORE.RESTR.CAVITY>
0

>  <SCORE.RESTR.norm>
0

>  <SCORE.SYSTEM>
0

>  <SCORE.SYSTEM.CONST>
0

>  <SCORE.SYSTEM.DIHEDRAL>
0

>  <SCORE.SYSTEM.SOLV>
0

>  <SCORE.SYSTEM.norm>
0

>  <SCORE.heavy>
10

>  <SCORE.norm>
-0.391892

>  <RMSD>
42.146

$$$$
ligand
 OpenBabel11021811463D
libRbt.so/2013.1/901 2013/11/27
 10  9  0  0  0  0  0  0  0  0999 V2000
   -2.4743   45.0501  -12.7532 N   0  0  0  0  0  0  0  0  0  0  0  0
   -2.5249   45.6578  -11.4291 C   0  0  2  0  0  0  0  0  0  0  0  0
   -1.6984   46.9419  -11.3868 C   0  0  0  0  0  0  0  0  0  0  0  0
   -1.3620   47.4190  -10.2990 O   0  0  0  0  0  0  0  0  0  0  0  0
   -2.0531   44.6685  -10.3591 C   0  0  0  0  0  0  0  0  0  0  0  0
   -2.9938   43.4853  -10.1651 C   0  0  0  0  0  0  0  0  0  0  0  0
   -2.5220   42.5480   -9.0571 C   0  0  0  0  0  0  0  0  0  0  0  0
   -3.4878   41.3709   -8.8487 C   0  0  0  0  0  0  0  0  0  0  0  0
   -3.5680   40.4215  -10.0037 N   0  0  0  0  0  0  0  0  0  0  0  0
   -1.3402   47.5149  -12.4242 O   0  0  0  0  0  0  0  0  0  0  0  0
  2  1  1  6  0  0  0
  2  3  1  0  0  0  0
  2  5  1  0  0  0  0
  3  4  1  0  0  0  0
  3 10  1  0  0  0  0
  5  6  1  0  0  0  0
  6  7  1  0  0  0  0
  7  8  1  0  0  0  0
  8  9  1  0  0  0  0
M  END
>  <CHROM.1>
-162.85338374,-67.45300585,-177.84403403,178.95566050,66.04228534,-2.38207077
44.54803922,-10.67605748,0.72258440,-1.20653895,-1.18850679

>  <Name>
ligand

>  <RI>
0

>  <Rbt.Current_Directory>
/home/itssahil/PROJECTS/Mol_Feturizer/New_Systems/rnas/3D0U

>  <Rbt.Executable>
rbdock ($Id: //depot/dev/client3/rdock/2013.1/src/exe/rbdock.cxx#4 $)

>  <Rbt.Library>
libRbt.so (2013.1, Build901 2013/11/27)

>  <Rbt.Parameter_File>
/export/apps/rDock/src/rDock_2013.1_src/data/scripts/dock_solv.prm

>  <Rbt.Receptor>
prm/blind_docking_80.prm

>  <SCORE>
-2.32093

>  <SCORE.INTER>
-2.39112

>  <SCORE.INTER.CONST>
1

>  <SCORE.INTER.POLAR>
0

>  <SCORE.INTER.ROT>
5

>  <SCORE.INTER.SOLV>
11.848

>  <SCORE.INTER.VDW>
-12.4767

>  <SCORE.INTER.norm>
-0.239112

>  <SCORE.INTRA>
0.0701948

>  <SCORE.INTRA.DIHEDRAL>
-0.329655

>  <SCORE.INTRA.DIHEDRAL.0>
2.22229

>  <SCORE.INTRA.POLAR>
0

>  <SCORE.INTRA.POLAR.0>
0

>  <SCORE.INTRA.REPUL>
0

>  <SCORE.INTRA.REPUL.0>
0

>  <SCORE.INTRA.SOLV>
-0.0171574

>  <SCORE.INTRA.SOLV.lig_0>
-31.87

>  <SCORE.INTRA.VDW>
0.243601

>  <SCORE.INTRA.VDW.0>
-0.575321

>  <SCORE.INTRA.norm>
0.00701948

>  <SCORE.RESTR>
0

>  <SCORE.RESTR.CAVITY>
0

>  <SCORE.RESTR.norm>
0

>  <SCORE.SYSTEM>
0

>  <SCORE.SYSTEM.CONST>
0

>  <SCORE.SYSTEM.DIHEDRAL>
0

>  <SCORE.SYSTEM.SOLV>
0

>  <SCORE.SYSTEM.norm>
0

>  <SCORE.heavy>
10

>  <SCORE.norm>
-0.232093

>  <RMSD>
42.269

$$$$
ligand
 OpenBabel11021811463D
libRbt.so/2013.1/901 2013/11/27
 10  9  0  0  0  0  0  0  0  0999 V2000
   -1.8313   45.0868  -10.7513 N   0  0  0  0  0  0  0  0  0  0  0  0
   -1.8450   43.6326  -10.6499 C   0  0  2  0  0  0  0  0  0  0  0  0
   -1.8510   42.9896  -12.0356 C   0  0  0  0  0  0  0  0  0  0  0  0
   -1.3776   41.8599  -12.1894 O   0  0  0  0  0  0  0  0  0  0  0  0
   -3.0424   43.1571   -9.8214 C   0  0  0  0  0  0  0  0  0  0  0  0
   -3.0557   41.6532   -9.5760 C   0  0  0  0  0  0  0  0  0  0  0  0
   -4.3453   41.1889   -8.9049 C   0  0  0  0  0  0  0  0  0  0  0  0
   -4.3749   39.6652   -8.7069 C   0  0  0  0  0  0  0  0  0  0  0  0
   -5.5871   39.1554   -7.9910 N   0  0  0  0  0  0  0  0  0  0  0  0
   -2.3361   43.5700  -13.0158 O   0  0  0  0  0  0  0  0  0  0  0  0
  2  1  1  6  0  0  0
  2  3  1  0  0  0  0
  2  5  1  0  0  0  0
  3  4  1  0  0  0  0
  3 10  1  0  0  0  0
  5  6  1  0  0  0  0
  6  7  1  0  0  0  0
  7  8  1  0  0  0  0
  8  9  1  0  0  0  0
M  END
>  <CHROM.1>
153.14736508,-175.18782872,-172.71078442,177.90473816,177.12364352,-2.95734954
42.18878301,-10.40117979,0.26012779,1.02412463,0.53597380

>  <Name>
ligand

>  <RI>
0

>  <Rbt.Current_Directory>
/home/itssahil/PROJECTS/Mol_Feturizer/New_Systems/rnas/3D0U

>  <Rbt.Executable>
rbdock ($Id: //depot/dev/client3/rdock/2013.1/src/exe/rbdock.cxx#4 $)

>  <Rbt.Library>
libRbt.so (2013.1, Build901 2013/11/27)

>  <Rbt.Parameter_File>
/export/apps/rDock/src/rDock_2013.1_src/data/scripts/dock_solv.prm

>  <Rbt.Receptor>
prm/blind_docking_80.prm

>  <SCORE>
-5.42377

>  <SCORE.INTER>
-4.23986

>  <SCORE.INTER.CONST>
1

>  <SCORE.INTER.POLAR>
0

>  <SCORE.INTER.ROT>
5

>  <SCORE.INTER.SOLV>
13.8706

>  <SCORE.INTER.VDW>
-14.3834

>  <SCORE.INTER.norm>
-0.423986

>  <SCORE.INTRA>
-1.18391

>  <SCORE.INTRA.DIHEDRAL>
-0.423033

>  <SCORE.INTRA.DIHEDRAL.0>
2.22229

>  <SCORE.INTRA.POLAR>
0

>  <SCORE.INTRA.POLAR.0>
0

>  <SCORE.INTRA.REPUL>
0

>  <SCORE.INTRA.REPUL.0>
0

>  <SCORE.INTRA.SOLV>
-1.60481

>  <SCORE.INTRA.SOLV.lig_0>
-31.87

>  <SCORE.INTRA.VDW>
-0.169991

>  <SCORE.INTRA.VDW.0>
-0.575321

>  <SCORE.INTRA.norm>
-0.118391

>  <SCORE.RESTR>
0

>  <SCORE.RESTR.CAVITY>
0

>  <SCORE.RESTR.norm>
0

>  <SCORE.SYSTEM>
0

>  <SCORE.SYSTEM.CONST>
0

>  <SCORE.SYSTEM.DIHEDRAL>
0

>  <SCORE.SYSTEM.SOLV>
0

>  <SCORE.SYSTEM.norm>
0

>  <SCORE.heavy>
10

>  <SCORE.norm>
-0.542377

>  <RMSD>
42.275

$$$$
ligand
 OpenBabel11021811463D
libRbt.so/2013.1/901 2013/11/27
 10  9  0  0  0  0  0  0  0  0999 V2000
   -2.2093   44.4171  -10.9139 N   0  0  0  0  0  0  0  0  0  0  0  0
   -2.4173   42.9898  -11.1252 C   0  0  2  0  0  0  0  0  0  0  0  0
   -2.3458   42.2269   -9.8036 C   0  0  0  0  0  0  0  0  0  0  0  0
   -2.4231   40.9949   -9.8018 O   0  0  0  0  0  0  0  0  0  0  0  0
   -1.4037   42.4363  -12.1315 C   0  0  0  0  0  0  0  0  0  0  0  0
   -1.6889   41.0013  -12.5579 C   0  0  0  0  0  0  0  0  0  0  0  0
   -0.6067   40.4471  -13.4802 C   0  0  0  0  0  0  0  0  0  0  0  0
   -0.9307   39.0223  -13.9566 C   0  0  0  0  0  0  0  0  0  0  0  0
   -2.1359   38.9216  -14.8392 N   0  0  0  0  0  0  0  0  0  0  0  0
   -2.1955   42.8153   -8.7246 O   0  0  0  0  0  0  0  0  0  0  0  0
  2  1  1  1  0  0  0
  2  3  1  0  0  0  0
  2  5  1  0  0  0  0
  3  4  1  0  0  0  0
  3 10  1  0  0  0  0
  5  6  1  0  0  0  0
  6  7  1  0  0  0  0
  7  8  1  0  0  0  0
  8  9  1  0  0  0  0
M  END
>  <CHROM.1>
-175.85480700,-171.43215938,-175.85024230,-177.47454783,65.82800691,-1.83740647
41.51732548,-11.69597619,-2.40653810,-1.35003153,-3.08085250

>  <Name>
ligand

>  <RI>
0

>  <Rbt.Current_Directory>
/home/itssahil/PROJECTS/Mol_Feturizer/New_Systems/rnas/3D0U

>  <Rbt.Executable>
rbdock ($Id: //depot/dev/client3/rdock/2013.1/src/exe/rbdock.cxx#4 $)

>  <Rbt.Library>
libRbt.so (2013.1, Build901 2013/11/27)

>  <Rbt.Parameter_File>
/export/apps/rDock/src/rDock_2013.1_src/data/scripts/dock_solv.prm

>  <Rbt.Receptor>
prm/blind_docking_80.prm

>  <SCORE>
-3.46814

>  <SCORE.INTER>
-3.41919

>  <SCORE.INTER.CONST>
1

>  <SCORE.INTER.POLAR>
0

>  <SCORE.INTER.ROT>
5

>  <SCORE.INTER.SOLV>
7.12818

>  <SCORE.INTER.VDW>
-11.5889

>  <SCORE.INTER.norm>
-0.341919

>  <SCORE.INTRA>
-0.0489523

>  <SCORE.INTRA.DIHEDRAL>
-0.241215

>  <SCORE.INTRA.DIHEDRAL.0>
2.22229

>  <SCORE.INTRA.POLAR>
0

>  <SCORE.INTRA.POLAR.0>
0

>  <SCORE.INTRA.REPUL>
0

>  <SCORE.INTRA.REPUL.0>
0

>  <SCORE.INTRA.SOLV>
-0.774718

>  <SCORE.INTRA.SOLV.lig_0>
-31.87

>  <SCORE.INTRA.VDW>
0.459014

>  <SCORE.INTRA.VDW.0>
-0.575321

>  <SCORE.INTRA.norm>
-0.00489523

>  <SCORE.RESTR>
0

>  <SCORE.RESTR.CAVITY>
0

>  <SCORE.RESTR.norm>
0

>  <SCORE.SYSTEM>
0

>  <SCORE.SYSTEM.CONST>
0

>  <SCORE.SYSTEM.DIHEDRAL>
0

>  <SCORE.SYSTEM.SOLV>
0

>  <SCORE.SYSTEM.norm>
0

>  <SCORE.heavy>
10

>  <SCORE.norm>
-0.346814

>  <RMSD>
42.393

$$$$
ligand
 OpenBabel11021811463D
libRbt.so/2013.1/901 2013/11/27
 10  9  0  0  0  0  0  0  0  0999 V2000
   -1.6768   41.5988  -14.3402 N   0  0  0  0  0  0  0  0  0  0  0  0
   -1.2646   40.4955  -13.4813 C   0  0  2  0  0  0  0  0  0  0  0  0
   -1.5378   39.1506  -14.1525 C   0  0  0  0  0  0  0  0  0  0  0  0
   -2.4209   39.0618  -15.0106 O   0  0  0  0  0  0  0  0  0  0  0  0
   -1.9606   40.5781  -12.1193 C   0  0  0  0  0  0  0  0  0  0  0  0
   -1.8217   41.9375  -11.4447 C   0  0  0  0  0  0  0  0  0  0  0  0
   -2.4921   41.9734  -10.0743 C   0  0  0  0  0  0  0  0  0  0  0  0
   -2.3558   43.3489   -9.4026 C   0  0  0  0  0  0  0  0  0  0  0  0
   -2.9582   44.4803  -10.1764 N   0  0  0  0  0  0  0  0  0  0  0  0
   -0.8811   38.1405  -13.8677 O   0  0  0  0  0  0  0  0  0  0  0  0
  2  1  1  6  0  0  0
  2  3  1  0  0  0  0
  2  5  1  0  0  0  0
  3  4  1  0  0  0  0
  3 10  1  0  0  0  0
  5  6  1  0  0  0  0
  6  7  1  0  0  0  0
  7  8  1  0  0  0  0
  8  9  1  0  0  0  0
M  END
>  <CHROM.1>
-25.04043410,-51.74560485,-178.39141665,-179.66770804,59.75666000,-1.93936776
41.03844444,-12.43120390,0.88823723,1.31731163,-1.68162662

>  <Name>
ligand

>  <RI>
0

>  <Rbt.Current_Directory>
/home/itssahil/PROJECTS/Mol_Feturizer/New_Systems/rnas/3D0U

>  <Rbt.Executable>
rbdock ($Id: //depot/dev/client3/rdock/2013.1/src/exe/rbdock.cxx#4 $)

>  <Rbt.Library>
libRbt.so (2013.1, Build901 2013/11/27)

>  <Rbt.Parameter_File>
/export/apps/rDock/src/rDock_2013.1_src/data/scripts/dock_solv.prm

>  <Rbt.Receptor>
prm/blind_docking_80.prm

>  <SCORE>
-3.13751

>  <SCORE.INTER>
-3.09268

>  <SCORE.INTER.CONST>
1

>  <SCORE.INTER.POLAR>
0

>  <SCORE.INTER.ROT>
5

>  <SCORE.INTER.SOLV>
7.58177

>  <SCORE.INTER.VDW>
-11.5224

>  <SCORE.INTER.norm>
-0.309268

>  <SCORE.INTRA>
-0.0448333

>  <SCORE.INTRA.DIHEDRAL>
-0.450224

>  <SCORE.INTRA.DIHEDRAL.0>
2.22229

>  <SCORE.INTRA.POLAR>
0

>  <SCORE.INTRA.POLAR.0>
0

>  <SCORE.INTRA.REPUL>
0

>  <SCORE.INTRA.REPUL.0>
0

>  <SCORE.INTRA.SOLV>
0.278564

>  <SCORE.INTRA.SOLV.lig_0>
-31.87

>  <SCORE.INTRA.VDW>
0.0409969

>  <SCORE.INTRA.VDW.0>
-0.575321

>  <SCORE.INTRA.norm>
-0.00448333

>  <SCORE.RESTR>
0

>  <SCORE.RESTR.CAVITY>
0

>  <SCORE.RESTR.norm>
0

>  <SCORE.SYSTEM>
0

>  <SCORE.SYSTEM.CONST>
0

>  <SCORE.SYSTEM.DIHEDRAL>
0

>  <SCORE.SYSTEM.SOLV>
0

>  <SCORE.SYSTEM.norm>
0

>  <SCORE.heavy>
10

>  <SCORE.norm>
-0.313751

>  <RMSD>
43.107

$$$$
ligand
 OpenBabel11021811463D
libRbt.so/2013.1/901 2013/11/27
 10  9  0  0  0  0  0  0  0  0999 V2000
   -0.7689   41.3091  -14.8397 N   0  0  0  0  0  0  0  0  0  0  0  0
   -1.4665   40.1433  -14.3114 C   0  0  2  0  0  0  0  0  0  0  0  0
   -2.9349   40.1493  -14.7330 C   0  0  0  0  0  0  0  0  0  0  0  0
   -3.6262   39.1411  -14.5613 O   0  0  0  0  0  0  0  0  0  0  0  0
   -1.3358   40.0769  -12.7867 C   0  0  0  0  0  0  0  0  0  0  0  0
   -1.9615   41.2665  -12.0685 C   0  0  0  0  0  0  0  0  0  0  0  0
   -2.1779   40.9953  -10.5824 C   0  0  0  0  0  0  0  0  0  0  0  0
   -2.8210   42.1934   -9.8662 C   0  0  0  0  0  0  0  0  0  0  0  0
   -2.0292   43.4617   -9.9443 N   0  0  0  0  0  0  0  0  0  0  0  0
   -3.4599   41.1527  -15.2333 O   0  0  0  0  0  0  0  0  0  0  0  0
  2  1  1  1  0  0  0
  2  3  1  0  0  0  0
  2  5  1  0  0  0  0
  3  4  1  0  0  0  0
  3 10  1  0  0  0  0
  5  6  1  0  0  0  0
  6  7  1  0  0  0  0
  7  8  1  0  0  0  0
  8  9  1  0  0  0  0
M  END
>  <CHROM.1>
168.44366310,62.25379845,163.53701938,-179.46971408,-59.22247397,-2.29033241
40.98301255,-12.91245227,-1.65427106,0.44563251,1.18048343

>  <Name>
ligand

>  <RI>
0

>  <Rbt.Current_Directory>
/home/itssahil/PROJECTS/Mol_Feturizer/New_Systems/rnas/3D0U

>  <Rbt.Executable>
rbdock ($Id: //depot/dev/client3/rdock/2013.1/src/exe/rbdock.cxx#4 $)

>  <Rbt.Library>
libRbt.so (2013.1, Build901 2013/11/27)

>  <Rbt.Parameter_File>
/export/apps/rDock/src/rDock_2013.1_src/data/scripts/dock_solv.prm

>  <Rbt.Receptor>
prm/blind_docking_80.prm

>  <SCORE>
-3.54724

>  <SCORE.INTER>
-3.7816

>  <SCORE.INTER.CONST>
1

>  <SCORE.INTER.POLAR>
0

>  <SCORE.INTER.ROT>
5

>  <SCORE.INTER.SOLV>
6.3706

>  <SCORE.INTER.VDW>
-11.5779

>  <SCORE.INTER.norm>
-0.37816

>  <SCORE.INTRA>
0.234367

>  <SCORE.INTRA.DIHEDRAL>
0.323697

>  <SCORE.INTRA.DIHEDRAL.0>
2.22229

>  <SCORE.INTRA.POLAR>
0

>  <SCORE.INTRA.POLAR.0>
0

>  <SCORE.INTRA.REPUL>
0

>  <SCORE.INTRA.REPUL.0>
0

>  <SCORE.INTRA.SOLV>
0.0901575

>  <SCORE.INTRA.SOLV.lig_0>
-31.87

>  <SCORE.INTRA.VDW>
0.0274397

>  <SCORE.INTRA.VDW.0>
-0.575321

>  <SCORE.INTRA.norm>
0.0234367

>  <SCORE.RESTR>
0

>  <SCORE.RESTR.CAVITY>
0

>  <SCORE.RESTR.norm>
0

>  <SCORE.SYSTEM>
0

>  <SCORE.SYSTEM.CONST>
0

>  <SCORE.SYSTEM.DIHEDRAL>
0

>  <SCORE.SYSTEM.SOLV>
0

>  <SCORE.SYSTEM.norm>
0

>  <SCORE.heavy>
10

>  <SCORE.norm>
-0.354724

>  <RMSD>
43.699

$$$$
ligand
 OpenBabel11021811463D
libRbt.so/2013.1/901 2013/11/27
 10  9  0  0  0  0  0  0  0  0999 V2000
   -0.8087   40.8962  -15.5629 N   0  0  0  0  0  0  0  0  0  0  0  0
   -1.5228   40.3063  -14.4371 C   0  0  2  0  0  0  0  0  0  0  0  0
   -2.9828   40.0380  -14.7980 C   0  0  0  0  0  0  0  0  0  0  0  0
   -3.6645   40.9351  -15.3024 O   0  0  0  0  0  0  0  0  0  0  0  0
   -1.4214   41.2032  -13.1995 C   0  0  0  0  0  0  0  0  0  0  0  0
   -1.9950   40.5691  -11.9381 C   0  0  0  0  0  0  0  0  0  0  0  0
   -2.1566   41.5795  -10.8059 C   0  0  0  0  0  0  0  0  0  0  0  0
   -2.9302   40.9913   -9.6154 C   0  0  0  0  0  0  0  0  0  0  0  0
   -3.1660   41.9526   -8.4920 N   0  0  0  0  0  0  0  0  0  0  0  0
   -3.5021   38.9299  -14.6104 O   0  0  0  0  0  0  0  0  0  0  0  0
  2  1  1  6  0  0  0
  2  3  1  0  0  0  0
  2  5  1  0  0  0  0
  3  4  1  0  0  0  0
  3 10  1  0  0  0  0
  5  6  1  0  0  0  0
  6  7  1  0  0  0  0
  7  8  1  0  0  0  0
  8  9  1  0  0  0  0
M  END
>  <CHROM.1>
-50.44646167,-172.76573486,-167.64739571,171.23900530,-177.81604998,-2.44603612
40.73049305,-12.89598907,-1.50828758,0.42092792,1.32840753

>  <Name>
ligand

>  <RI>
0

>  <Rbt.Current_Directory>
/home/itssahil/PROJECTS/Mol_Feturizer/New_Systems/rnas/3D0U

>  <Rbt.Executable>
rbdock ($Id: //depot/dev/client3/rdock/2013.1/src/exe/rbdock.cxx#4 $)

>  <Rbt.Library>
libRbt.so (2013.1, Build901 2013/11/27)

>  <Rbt.Parameter_File>
/export/apps/rDock/src/rDock_2013.1_src/data/scripts/dock_solv.prm

>  <Rbt.Receptor>
prm/blind_docking_80.prm

>  <SCORE>
-4.85646

>  <SCORE.INTER>
-3.9472

>  <SCORE.INTER.CONST>
1

>  <SCORE.INTER.POLAR>
0

>  <SCORE.INTER.ROT>
5

>  <SCORE.INTER.SOLV>
7.96816

>  <SCORE.INTER.VDW>
-12.2209

>  <SCORE.INTER.norm>
-0.39472

>  <SCORE.INTRA>
-0.909263

>  <SCORE.INTRA.DIHEDRAL>
0.414111

>  <SCORE.INTRA.DIHEDRAL.0>
2.22229

>  <SCORE.INTRA.POLAR>
0

>  <SCORE.INTRA.POLAR.0>
0

>  <SCORE.INTRA.REPUL>
0

>  <SCORE.INTRA.REPUL.0>
0

>  <SCORE.INTRA.SOLV>
-1.60065

>  <SCORE.INTRA.SOLV.lig_0>
-31.87

>  <SCORE.INTRA.VDW>
-0.315993

>  <SCORE.INTRA.VDW.0>
-0.575321

>  <SCORE.INTRA.norm>
-0.0909263

>  <SCORE.RESTR>
0

>  <SCORE.RESTR.CAVITY>
0

>  <SCORE.RESTR.norm>
0

>  <SCORE.SYSTEM>
0

>  <SCORE.SYSTEM.CONST>
0

>  <SCORE.SYSTEM.DIHEDRAL>
0

>  <SCORE.SYSTEM.SOLV>
0

>  <SCORE.SYSTEM.norm>
0

>  <SCORE.heavy>
10

>  <SCORE.norm>
-0.485646

>  <RMSD>
43.827

$$$$
ligand
 OpenBabel11021811463D
libRbt.so/2013.1/901 2013/11/27
 10  9  0  0  0  0  0  0  0  0999 V2000
   -0.9886   47.9980  -13.1524 N   0  0  0  0  0  0  0  0  0  0  0  0
   -1.9898   46.9415  -13.2334 C   0  0  2  0  0  0  0  0  0  0  0  0
   -2.5945   46.6571  -11.8596 C   0  0  0  0  0  0  0  0  0  0  0  0
   -1.9689   46.9607  -10.8396 O   0  0  0  0  0  0  0  0  0  0  0  0
   -1.3895   45.6696  -13.8403 C   0  0  0  0  0  0  0  0  0  0  0  0
   -2.4189   44.5798  -14.1140 C   0  0  0  0  0  0  0  0  0  0  0  0
   -1.7747   43.2882  -14.6096 C   0  0  0  0  0  0  0  0  0  0  0  0
   -2.8164   42.1891  -14.8719 C   0  0  0  0  0  0  0  0  0  0  0  0
   -2.2447   40.8974  -15.3681 N   0  0  0  0  0  0  0  0  0  0  0  0
   -3.7126   46.1392  -11.7398 O   0  0  0  0  0  0  0  0  0  0  0  0
  2  1  1  1  0  0  0
  2  3  1  0  0  0  0
  2  5  1  0  0  0  0
  3  4  1  0  0  0  0
  3 10  1  0  0  0  0
  5  6  1  0  0  0  0
  6  7  1  0  0  0  0
  7  8  1  0  0  0  0
  8  9  1  0  0  0  0
M  END
>  <CHROM.1>
-22.44803939,-172.89012092,-175.29049104,179.49340006,179.68675959,-2.20385713
45.13718570,-13.32705242,-1.51474256,-0.81540254,-2.56974605

>  <Name>
ligand

>  <RI>
0

>  <Rbt.Current_Directory>
/home/itssahil/PROJECTS/Mol_Feturizer/New_Systems/rnas/3D0U

>  <Rbt.Executable>
rbdock ($Id: //depot/dev/client3/rdock/2013.1/src/exe/rbdock.cxx#4 $)

>  <Rbt.Library>
libRbt.so (2013.1, Build901 2013/11/27)

>  <Rbt.Parameter_File>
/export/apps/rDock/src/rDock_2013.1_src/data/scripts/dock_solv.prm

>  <Rbt.Receptor>
prm/blind_docking_80.prm

>  <SCORE>
-1.01824

>  <SCORE.INTER>
0.152393

>  <SCORE.INTER.CONST>
1

>  <SCORE.INTER.POLAR>
0

>  <SCORE.INTER.ROT>
5

>  <SCORE.INTER.SOLV>
6.77935

>  <SCORE.INTER.VDW>
-9.09152

>  <SCORE.INTER.norm>
0.0152393

>  <SCORE.INTRA>
-1.17063

>  <SCORE.INTRA.DIHEDRAL>
-0.435125

>  <SCORE.INTRA.DIHEDRAL.0>
2.22229

>  <SCORE.INTRA.POLAR>
0

>  <SCORE.INTRA.POLAR.0>
0

>  <SCORE.INTRA.REPUL>
0

>  <SCORE.INTRA.REPUL.0>
0

>  <SCORE.INTRA.SOLV>
-1.58837

>  <SCORE.INTRA.SOLV.lig_0>
-31.87

>  <SCORE.INTRA.VDW>
-0.158888

>  <SCORE.INTRA.VDW.0>
-0.575321

>  <SCORE.INTRA.norm>
-0.117063

>  <SCORE.RESTR>
0

>  <SCORE.RESTR.CAVITY>
0

>  <SCORE.RESTR.norm>
0

>  <SCORE.SYSTEM>
0

>  <SCORE.SYSTEM.CONST>
0

>  <SCORE.SYSTEM.DIHEDRAL>
0

>  <SCORE.SYSTEM.SOLV>
0

>  <SCORE.SYSTEM.norm>
0

>  <SCORE.heavy>
10

>  <SCORE.norm>
-0.101824

>  <RMSD>
44.124

$$$$
ligand
 OpenBabel11021811463D
libRbt.so/2013.1/901 2013/11/27
 10  9  0  0  0  0  0  0  0  0999 V2000
   -1.6224   40.7372  -14.3609 N   0  0  0  0  0  0  0  0  0  0  0  0
   -2.7539   41.6255  -14.5972 C   0  0  2  0  0  0  0  0  0  0  0  0
   -3.5407   41.1892  -15.8319 C   0  0  0  0  0  0  0  0  0  0  0  0
   -2.9807   40.5350  -16.7163 O   0  0  0  0  0  0  0  0  0  0  0  0
   -2.2855   43.0776  -14.7323 C   0  0  0  0  0  0  0  0  0  0  0  0
   -3.4261   44.0723  -14.9111 C   0  0  0  0  0  0  0  0  0  0  0  0
   -2.9563   45.5187  -14.7843 C   0  0  0  0  0  0  0  0  0  0  0  0
   -2.4960   45.8513  -13.3562 C   0  0  0  0  0  0  0  0  0  0  0  0
   -1.9355   47.2296  -13.1896 N   0  0  0  0  0  0  0  0  0  0  0  0
   -4.7407   41.4637  -15.9643 O   0  0  0  0  0  0  0  0  0  0  0  0
  2  1  1  6  0  0  0
  2  3  1  0  0  0  0
  2  5  1  0  0  0  0
  3  4  1  0  0  0  0
  3 10  1  0  0  0  0
  5  6  1  0  0  0  0
  6  7  1  0  0  0  0
  7  8  1  0  0  0  0
  8  9  1  0  0  0  0
M  END
>  <CHROM.1>
-24.77766922,-177.07806040,169.42825546,-67.12187699,176.03529492,-2.89302288
43.10866251,-14.87418987,-1.74808312,-0.62210850,0.27365429

>  <Name>
ligand

>  <RI>
0

>  <Rbt.Current_Directory>
/home/itssahil/PROJECTS/Mol_Feturizer/New_Systems/rnas/3D0U

>  <Rbt.Executable>
rbdock ($Id: //depot/dev/client3/rdock/2013.1/src/exe/rbdock.cxx#4 $)

>  <Rbt.Library>
libRbt.so (2013.1, Build901 2013/11/27)

>  <Rbt.Parameter_File>
/export/apps/rDock/src/rDock_2013.1_src/data/scripts/dock_solv.prm

>  <Rbt.Receptor>
prm/blind_docking_80.prm

>  <SCORE>
-3.70749

>  <SCORE.INTER>
-3.52888

>  <SCORE.INTER.CONST>
1

>  <SCORE.INTER.POLAR>
0

>  <SCORE.INTER.ROT>
5

>  <SCORE.INTER.SOLV>
5.94839

>  <SCORE.INTER.VDW>
-11.2687

>  <SCORE.INTER.norm>
-0.352888

>  <SCORE.INTRA>
-0.178612

>  <SCORE.INTRA.DIHEDRAL>
0.0406254

>  <SCORE.INTRA.DIHEDRAL.0>
2.22229

>  <SCORE.INTRA.POLAR>
0

>  <SCORE.INTRA.POLAR.0>
0

>  <SCORE.INTRA.REPUL>
0

>  <SCORE.INTRA.REPUL.0>
0

>  <SCORE.INTRA.SOLV>
-1.36531

>  <SCORE.INTRA.SOLV.lig_0>
-31.87

>  <SCORE.INTRA.VDW>
0.483728

>  <SCORE.INTRA.VDW.0>
-0.575321

>  <SCORE.INTRA.norm>
-0.0178612

>  <SCORE.RESTR>
0

>  <SCORE.RESTR.CAVITY>
0

>  <SCORE.RESTR.norm>
0

>  <SCORE.SYSTEM>
0

>  <SCORE.SYSTEM.CONST>
0

>  <SCORE.SYSTEM.DIHEDRAL>
0

>  <SCORE.SYSTEM.SOLV>
0

>  <SCORE.SYSTEM.norm>
0

>  <SCORE.heavy>
10

>  <SCORE.norm>
-0.370749

>  <RMSD>
45.567

$$$$
ligand
 OpenBabel11021811463D
libRbt.so/2013.1/901 2013/11/27
 10  9  0  0  0  0  0  0  0  0999 V2000
   -2.4173   41.6687  -15.4111 N   0  0  0  0  0  0  0  0  0  0  0  0
   -3.6868   42.2886  -15.0516 C   0  0  2  0  0  0  0  0  0  0  0  0
   -4.8254   41.7341  -15.9059 C   0  0  0  0  0  0  0  0  0  0  0  0
   -5.9399   41.5605  -15.4043 O   0  0  0  0  0  0  0  0  0  0  0  0
   -3.6017   43.8129  -15.1769 C   0  0  0  0  0  0  0  0  0  0  0  0
   -2.6716   44.4578  -14.1564 C   0  0  0  0  0  0  0  0  0  0  0  0
   -2.6336   45.9776  -14.2890 C   0  0  0  0  0  0  0  0  0  0  0  0
   -1.7801   46.6302  -13.1901 C   0  0  0  0  0  0  0  0  0  0  0  0
   -0.3265   46.2749  -13.2396 N   0  0  0  0  0  0  0  0  0  0  0  0
   -4.6636   41.4655  -17.1036 O   0  0  0  0  0  0  0  0  0  0  0  0
  2  1  1  6  0  0  0
  2  3  1  0  0  0  0
  2  5  1  0  0  0  0
  3  4  1  0  0  0  0
  3 10  1  0  0  0  0
  5  6  1  0  0  0  0
  6  7  1  0  0  0  0
  7  8  1  0  0  0  0
  8  9  1  0  0  0  0
M  END
>  <CHROM.1>
143.22164253,-67.46764256,-178.74517123,175.59789942,64.39320218,-3.28690505
43.56473488,-14.91545482,-2.13970389,-0.09709190,0.43991335

>  <Name>
ligand

>  <RI>
0

>  <Rbt.Current_Directory>
/home/itssahil/PROJECTS/Mol_Feturizer/New_Systems/rnas/3D0U

>  <Rbt.Executable>
rbdock ($Id: //depot/dev/client3/rdock/2013.1/src/exe/rbdock.cxx#4 $)

>  <Rbt.Library>
libRbt.so (2013.1, Build901 2013/11/27)

>  <Rbt.Parameter_File>
/export/apps/rDock/src/rDock_2013.1_src/data/scripts/dock_solv.prm

>  <Rbt.Receptor>
prm/blind_docking_80.prm

>  <SCORE>
-6.47721

>  <SCORE.INTER>
-6.02614

>  <SCORE.INTER.CONST>
1

>  <SCORE.INTER.POLAR>
0

>  <SCORE.INTER.ROT>
5

>  <SCORE.INTER.SOLV>
4.19164

>  <SCORE.INTER.VDW>
-12.348

>  <SCORE.INTER.norm>
-0.602614

>  <SCORE.INTRA>
-0.4547

>  <SCORE.INTRA.DIHEDRAL>
-0.381569

>  <SCORE.INTRA.DIHEDRAL.0>
2.22229

>  <SCORE.INTRA.POLAR>
0

>  <SCORE.INTRA.POLAR.0>
0

>  <SCORE.INTRA.REPUL>
0

>  <SCORE.INTRA.REPUL.0>
0

>  <SCORE.INTRA.SOLV>
-0.0160898

>  <SCORE.INTRA.SOLV.lig_0>
-31.87

>  <SCORE.INTRA.VDW>
-0.255871

>  <SCORE.INTRA.VDW.0>
-0.575321

>  <SCORE.INTRA.norm>
-0.04547

>  <SCORE.RESTR>
0.00363084

>  <SCORE.RESTR.CAVITY>
0.00363084

>  <SCORE.RESTR.norm>
0.000363084

>  <SCORE.SYSTEM>
0

>  <SCORE.SYSTEM.CONST>
0

>  <SCORE.SYSTEM.DIHEDRAL>
0

>  <SCORE.SYSTEM.SOLV>
0

>  <SCORE.SYSTEM.norm>
0

>  <SCORE.heavy>
10

>  <SCORE.norm>
-0.647721

>  <RMSD>
45.869

$$$$
ligand
 OpenBabel11021811463D
libRbt.so/2013.1/901 2013/11/27
 10  9  0  0  0  0  0  0  0  0999 V2000
   -2.4339   41.6574  -15.3820 N   0  0  0  0  0  0  0  0  0  0  0  0
   -3.6997   42.2981  -15.0466 C   0  0  2  0  0  0  0  0  0  0  0  0
   -4.8365   41.7391  -15.9003 C   0  0  0  0  0  0  0  0  0  0  0  0
   -4.6513   41.5205  -17.1011 O   0  0  0  0  0  0  0  0  0  0  0  0
   -3.5965   43.8185  -15.2011 C   0  0  0  0  0  0  0  0  0  0  0  0
   -2.6753   44.4744  -14.1796 C   0  0  0  0  0  0  0  0  0  0  0  0
   -2.6109   45.9897  -14.3490 C   0  0  0  0  0  0  0  0  0  0  0  0
   -1.7681   46.6564  -13.2504 C   0  0  0  0  0  0  0  0  0  0  0  0
   -0.3239   46.2615  -13.2499 N   0  0  0  0  0  0  0  0  0  0  0  0
   -5.9454   41.4826  -15.4129 O   0  0  0  0  0  0  0  0  0  0  0  0
  2  1  1  6  0  0  0
  2  3  1  0  0  0  0
  2  5  1  0  0  0  0
  3  4  1  0  0  0  0
  3 10  1  0  0  0  0
  5  6  1  0  0  0  0
  6  7  1  0  0  0  0
  7  8  1  0  0  0  0
  8  9  1  0  0  0  0
M  END
>  <CHROM.1>
-41.29755648,-67.82129382,-179.18267263,175.57097672,63.48519057,-3.28604011
43.56698892,-14.92999916,-2.14526206,-0.12171805,0.41326600

>  <Name>
ligand

>  <RI>
0

>  <Rbt.Current_Directory>
/home/itssahil/PROJECTS/Mol_Feturizer/New_Systems/rnas/3D0U

>  <Rbt.Executable>
rbdock ($Id: //depot/dev/client3/rdock/2013.1/src/exe/rbdock.cxx#4 $)

>  <Rbt.Library>
libRbt.so (2013.1, Build901 2013/11/27)

>  <Rbt.Parameter_File>
/export/apps/rDock/src/rDock_2013.1_src/data/scripts/dock_solv.prm

>  <Rbt.Receptor>
prm/blind_docking_80.prm

>  <SCORE>
-6.41206

>  <SCORE.INTER>
-6.0086

>  <SCORE.INTER.CONST>
1

>  <SCORE.INTER.POLAR>
0

>  <SCORE.INTER.ROT>
5

>  <SCORE.INTER.SOLV>
4.21949

>  <SCORE.INTER.VDW>
-12.3456

>  <SCORE.INTER.norm>
-0.60086

>  <SCORE.INTRA>
-0.404513

>  <SCORE.INTRA.DIHEDRAL>
-0.336142

>  <SCORE.INTRA.DIHEDRAL.0>
2.22229

>  <SCORE.INTRA.POLAR>
0

>  <SCORE.INTRA.POLAR.0>
0

>  <SCORE.INTRA.REPUL>
0

>  <SCORE.INTRA.REPUL.0>
0

>  <SCORE.INTRA.SOLV>
0.00467295

>  <SCORE.INTRA.SOLV.lig_0>
-31.87

>  <SCORE.INTRA.VDW>
-0.238778

>  <SCORE.INTRA.VDW.0>
-0.575321

>  <SCORE.INTRA.norm>
-0.0404513

>  <SCORE.RESTR>
0.00105348

>  <SCORE.RESTR.CAVITY>
0.00105348

>  <SCORE.RESTR.norm>
0.000105348

>  <SCORE.SYSTEM>
0

>  <SCORE.SYSTEM.CONST>
0

>  <SCORE.SYSTEM.DIHEDRAL>
0

>  <SCORE.SYSTEM.SOLV>
0

>  <SCORE.SYSTEM.norm>
0

>  <SCORE.heavy>
10

>  <SCORE.norm>
-0.641206

>  <RMSD>
45.879

$$$$
ligand
 OpenBabel11021811463D
libRbt.so/2013.1/901 2013/11/27
 10  9  0  0  0  0  0  0  0  0999 V2000
   -2.5171   41.5932  -15.5068 N   0  0  0  0  0  0  0  0  0  0  0  0
   -3.7372   42.2639  -15.0747 C   0  0  2  0  0  0  0  0  0  0  0  0
   -4.9363   41.7981  -15.8987 C   0  0  0  0  0  0  0  0  0  0  0  0
   -5.0325   42.1307  -17.0836 O   0  0  0  0  0  0  0  0  0  0  0  0
   -3.5777   43.7853  -15.1534 C   0  0  0  0  0  0  0  0  0  0  0  0
   -2.5646   44.3445  -14.1618 C   0  0  0  0  0  0  0  0  0  0  0  0
   -2.5192   45.8698  -14.1808 C   0  0  0  0  0  0  0  0  0  0  0  0
   -1.5481   46.4299  -13.1295 C   0  0  0  0  0  0  0  0  0  0  0  0
   -1.4917   47.9249  -13.0704 N   0  0  0  0  0  0  0  0  0  0  0  0
   -5.8156   41.0763  -15.4099 O   0  0  0  0  0  0  0  0  0  0  0  0
  2  1  1  6  0  0  0
  2  3  1  0  0  0  0
  2  5  1  0  0  0  0
  3  4  1  0  0  0  0
  3 10  1  0  0  0  0
  5  6  1  0  0  0  0
  6  7  1  0  0  0  0
  7  8  1  0  0  0  0
  8  9  1  0  0  0  0
M  END
>  <CHROM.1>
-70.35738542,-66.86721555,-174.97170597,177.11002412,-178.18286804,-3.40678748
43.70002744,-14.88948329,-2.10294977,-0.38063958,0.24798829

>  <Name>
ligand

>  <RI>
0

>  <Rbt.Current_Directory>
/home/itssahil/PROJECTS/Mol_Feturizer/New_Systems/rnas/3D0U

>  <Rbt.Executable>
rbdock ($Id: //depot/dev/client3/rdock/2013.1/src/exe/rbdock.cxx#4 $)

>  <Rbt.Library>
libRbt.so (2013.1, Build901 2013/11/27)

>  <Rbt.Parameter_File>
/export/apps/rDock/src/rDock_2013.1_src/data/scripts/dock_solv.prm

>  <Rbt.Receptor>
prm/blind_docking_80.prm

>  <SCORE>
-5.80104

>  <SCORE.INTER>
-5.05973

>  <SCORE.INTER.CONST>
1

>  <SCORE.INTER.POLAR>
0

>  <SCORE.INTER.ROT>
5

>  <SCORE.INTER.SOLV>
8.27135

>  <SCORE.INTER.VDW>
-13.0636

>  <SCORE.INTER.norm>
-0.505973

>  <SCORE.INTRA>
-0.741319

>  <SCORE.INTRA.DIHEDRAL>
-0.412186

>  <SCORE.INTRA.DIHEDRAL.0>
2.22229

>  <SCORE.INTRA.POLAR>
0

>  <SCORE.INTRA.POLAR.0>
0

>  <SCORE.INTRA.REPUL>
0

>  <SCORE.INTRA.REPUL.0>
0

>  <SCORE.INTRA.SOLV>
-0.833396

>  <SCORE.INTRA.SOLV.lig_0>
-31.87

>  <SCORE.INTRA.VDW>
-0.118527

>  <SCORE.INTRA.VDW.0>
-0.575321

>  <SCORE.INTRA.norm>
-0.0741319

>  <SCORE.RESTR>
0

>  <SCORE.RESTR.CAVITY>
0

>  <SCORE.RESTR.norm>
0

>  <SCORE.SYSTEM>
0

>  <SCORE.SYSTEM.CONST>
0

>  <SCORE.SYSTEM.DIHEDRAL>
0

>  <SCORE.SYSTEM.SOLV>
0

>  <SCORE.SYSTEM.norm>
0

>  <SCORE.heavy>
10

>  <SCORE.norm>
-0.580104

>  <RMSD>
45.930

$$$$
ligand
 OpenBabel11021811463D
libRbt.so/2013.1/901 2013/11/27
 10  9  0  0  0  0  0  0  0  0999 V2000
   -2.6346   40.7339  -15.3635 N   0  0  0  0  0  0  0  0  0  0  0  0
   -3.5242   41.8288  -14.9961 C   0  0  2  0  0  0  0  0  0  0  0  0
   -4.7456   41.8697  -15.9128 C   0  0  0  0  0  0  0  0  0  0  0  0
   -5.8274   42.2722  -15.4751 O   0  0  0  0  0  0  0  0  0  0  0  0
   -2.7778   43.1662  -15.0198 C   0  0  0  0  0  0  0  0  0  0  0  0
   -3.6917   44.3773  -14.8765 C   0  0  0  0  0  0  0  0  0  0  0  0
   -2.9079   45.6732  -14.6886 C   0  0  0  0  0  0  0  0  0  0  0  0
   -2.2405   45.7471  -13.3063 C   0  0  0  0  0  0  0  0  0  0  0  0
   -1.4940   47.0183  -13.0442 N   0  0  0  0  0  0  0  0  0  0  0  0
   -4.6761   41.5210  -17.0987 O   0  0  0  0  0  0  0  0  0  0  0  0
  2  1  1  6  0  0  0
  2  3  1  0  0  0  0
  2  5  1  0  0  0  0
  3  4  1  0  0  0  0
  3 10  1  0  0  0  0
  5  6  1  0  0  0  0
  6  7  1  0  0  0  0
  7  8  1  0  0  0  0
  8  9  1  0  0  0  0
M  END
>  <CHROM.1>
148.56045362,170.29509620,171.21523210,-71.00520403,-178.02088341,-3.48369333
43.41155833,-15.00147873,-2.02329541,-0.37809411,0.30659142

>  <Name>
ligand

>  <RI>
0

>  <Rbt.Current_Directory>
/home/itssahil/PROJECTS/Mol_Feturizer/New_Systems/rnas/3D0U

>  <Rbt.Executable>
rbdock ($Id: //depot/dev/client3/rdock/2013.1/src/exe/rbdock.cxx#4 $)

>  <Rbt.Library>
libRbt.so (2013.1, Build901 2013/11/27)

>  <Rbt.Parameter_File>
/export/apps/rDock/src/rDock_2013.1_src/data/scripts/dock_solv.prm

>  <Rbt.Receptor>
prm/blind_docking_80.prm

>  <SCORE>
-5.57701

>  <SCORE.INTER>
-5.72878

>  <SCORE.INTER.CONST>
1

>  <SCORE.INTER.POLAR>
0

>  <SCORE.INTER.ROT>
5

>  <SCORE.INTER.SOLV>
6.19784

>  <SCORE.INTER.VDW>
-12.8185

>  <SCORE.INTER.norm>
-0.572878

>  <SCORE.INTRA>
0.151763

>  <SCORE.INTRA.DIHEDRAL>
0.434118

>  <SCORE.INTRA.DIHEDRAL.0>
2.22229

>  <SCORE.INTRA.POLAR>
0

>  <SCORE.INTRA.POLAR.0>
0

>  <SCORE.INTRA.REPUL>
0

>  <SCORE.INTRA.REPUL.0>
0

>  <SCORE.INTRA.SOLV>
-1.43775

>  <SCORE.INTRA.SOLV.lig_0>
-31.87

>  <SCORE.INTRA.VDW>
0.653581

>  <SCORE.INTRA.VDW.0>
-0.575321

>  <SCORE.INTRA.norm>
0.0151763

>  <SCORE.RESTR>
0

>  <SCORE.RESTR.CAVITY>
0

>  <SCORE.RESTR.norm>
0

>  <SCORE.SYSTEM>
0

>  <SCORE.SYSTEM.CONST>
0

>  <SCORE.SYSTEM.DIHEDRAL>
0

>  <SCORE.SYSTEM.SOLV>
0

>  <SCORE.SYSTEM.norm>
0

>  <SCORE.heavy>
10

>  <SCORE.norm>
-0.557701

>  <RMSD>
46.041

$$$$
ligand
 OpenBabel11021811463D
libRbt.so/2013.1/901 2013/11/27
 10  9  0  0  0  0  0  0  0  0999 V2000
   -2.8641   42.4156  -14.6679 N   0  0  0  0  0  0  0  0  0  0  0  0
   -3.3485   41.4148  -15.6107 C   0  0  2  0  0  0  0  0  0  0  0  0
   -4.8214   41.6466  -15.9429 C   0  0  0  0  0  0  0  0  0  0  0  0
   -5.6895   40.9663  -15.3883 O   0  0  0  0  0  0  0  0  0  0  0  0
   -3.1273   40.0013  -15.0636 C   0  0  0  0  0  0  0  0  0  0  0  0
   -1.6673   39.5647  -15.0740 C   0  0  0  0  0  0  0  0  0  0  0  0
   -1.4718   38.1877  -14.4458 C   0  0  0  0  0  0  0  0  0  0  0  0
   -2.1200   37.0750  -15.2845 C   0  0  0  0  0  0  0  0  0  0  0  0
   -3.6164   37.0550  -15.2395 N   0  0  0  0  0  0  0  0  0  0  0  0
   -5.1731   42.5172  -16.7500 O   0  0  0  0  0  0  0  0  0  0  0  0
  2  1  1  1  0  0  0
  2  3  1  0  0  0  0
  2  5  1  0  0  0  0
  3  4  1  0  0  0  0
  3 10  1  0  0  0  0
  5  6  1  0  0  0  0
  6  7  1  0  0  0  0
  7  8  1  0  0  0  0
  8  9  1  0  0  0  0
M  END
>  <CHROM.1>
-100.24454940,-72.39414373,176.53870747,67.04456808,-72.11996767,-3.42689671
40.09904613,-15.35662627,-2.11898852,0.32224590,3.12384128

>  <Name>
ligand

>  <RI>
0

>  <Rbt.Current_Directory>
/home/itssahil/PROJECTS/Mol_Feturizer/New_Systems/rnas/3D0U

>  <Rbt.Executable>
rbdock ($Id: //depot/dev/client3/rdock/2013.1/src/exe/rbdock.cxx#4 $)

>  <Rbt.Library>
libRbt.so (2013.1, Build901 2013/11/27)

>  <Rbt.Parameter_File>
/export/apps/rDock/src/rDock_2013.1_src/data/scripts/dock_solv.prm

>  <Rbt.Receptor>
prm/blind_docking_80.prm

>  <SCORE>
-4.0164

>  <SCORE.INTER>
-5.9095

>  <SCORE.INTER.CONST>
1

>  <SCORE.INTER.POLAR>
0

>  <SCORE.INTER.ROT>
5

>  <SCORE.INTER.SOLV>
12.4883

>  <SCORE.INTER.VDW>
-15.0358

>  <SCORE.INTER.norm>
-0.59095

>  <SCORE.INTRA>
1.8931

>  <SCORE.INTRA.DIHEDRAL>
0.632724

>  <SCORE.INTRA.DIHEDRAL.0>
2.22229

>  <SCORE.INTRA.POLAR>
0

>  <SCORE.INTRA.POLAR.0>
0

>  <SCORE.INTRA.REPUL>
0

>  <SCORE.INTRA.REPUL.0>
0

>  <SCORE.INTRA.SOLV>
1.25815

>  <SCORE.INTRA.SOLV.lig_0>
-31.87

>  <SCORE.INTRA.VDW>
0.947668

>  <SCORE.INTRA.VDW.0>
-0.575321

>  <SCORE.INTRA.norm>
0.18931

>  <SCORE.RESTR>
0

>  <SCORE.RESTR.CAVITY>
0

>  <SCORE.RESTR.norm>
0

>  <SCORE.SYSTEM>
0

>  <SCORE.SYSTEM.CONST>
0

>  <SCORE.SYSTEM.DIHEDRAL>
0

>  <SCORE.SYSTEM.SOLV>
0

>  <SCORE.SYSTEM.norm>
0

>  <SCORE.heavy>
10

>  <SCORE.norm>
-0.40164

>  <RMSD>
46.326

$$$$
ligand
 OpenBabel11021811463D
libRbt.so/2013.1/901 2013/11/27
 10  9  0  0  0  0  0  0  0  0999 V2000
  -12.8431   42.9126   -5.9674 N   0  0  0  0  0  0  0  0  0  0  0  0
  -11.7899   42.9479   -6.9747 C   0  0  2  0  0  0  0  0  0  0  0  0
  -10.7033   43.9513   -6.5923 C   0  0  0  0  0  0  0  0  0  0  0  0
   -9.6247   43.9457   -7.1927 O   0  0  0  0  0  0  0  0  0  0  0  0
  -12.3696   43.2695   -8.3556 C   0  0  0  0  0  0  0  0  0  0  0  0
  -13.1063   44.6023   -8.4124 C   0  0  0  0  0  0  0  0  0  0  0  0
  -12.1494   45.7910   -8.4271 C   0  0  0  0  0  0  0  0  0  0  0  0
  -12.8957   47.1295   -8.5422 C   0  0  0  0  0  0  0  0  0  0  0  0
  -13.6836   47.2946   -9.8046 N   0  0  0  0  0  0  0  0  0  0  0  0
  -10.8820   44.7884   -5.6978 O   0  0  0  0  0  0  0  0  0  0  0  0
  2  1  1  1  0  0  0
  2  3  1  0  0  0  0
  2  5  1  0  0  0  0
  3  4  1  0  0  0  0
  3 10  1  0  0  0  0
  5  6  1  0  0  0  0
  6  7  1  0  0  0  0
  7  8  1  0  0  0  0
  8  9  1  0  0  0  0
M  END
>  <CHROM.1>
166.99684837,58.77172676,75.21007732,177.67423369,-62.36430873,-11.97557310
44.67728745,-7.58319582,1.03482393,0.48573055,2.72264661

>  <Name>
ligand

>  <RI>
0

>  <Rbt.Current_Directory>
/home/itssahil/PROJECTS/Mol_Feturizer/New_Systems/rnas/3D0U

>  <Rbt.Executable>
rbdock ($Id: //depot/dev/client3/rdock/2013.1/src/exe/rbdock.cxx#4 $)

>  <Rbt.Library>
libRbt.so (2013.1, Build901 2013/11/27)

>  <Rbt.Parameter_File>
/export/apps/rDock/src/rDock_2013.1_src/data/scripts/dock_solv.prm

>  <Rbt.Receptor>
prm/blind_docking_100.prm

>  <SCORE>
-4.91968

>  <SCORE.INTER>
-5.58115

>  <SCORE.INTER.CONST>
1

>  <SCORE.INTER.POLAR>
0

>  <SCORE.INTER.ROT>
5

>  <SCORE.INTER.SOLV>
9.5548

>  <SCORE.INTER.VDW>
-13.839

>  <SCORE.INTER.norm>
-0.558115

>  <SCORE.INTRA>
0.66147

>  <SCORE.INTRA.DIHEDRAL>
0.206152

>  <SCORE.INTRA.DIHEDRAL.0>
2.22229

>  <SCORE.INTRA.POLAR>
0

>  <SCORE.INTRA.POLAR.0>
0

>  <SCORE.INTRA.REPUL>
0

>  <SCORE.INTRA.REPUL.0>
0

>  <SCORE.INTRA.SOLV>
0.567224

>  <SCORE.INTRA.SOLV.lig_0>
-31.87

>  <SCORE.INTRA.VDW>
0.274782

>  <SCORE.INTRA.VDW.0>
-0.575321

>  <SCORE.INTRA.norm>
0.066147

>  <SCORE.RESTR>
0

>  <SCORE.RESTR.CAVITY>
0

>  <SCORE.RESTR.norm>
0

>  <SCORE.SYSTEM>
0

>  <SCORE.SYSTEM.CONST>
0

>  <SCORE.SYSTEM.DIHEDRAL>
0

>  <SCORE.SYSTEM.SOLV>
0

>  <SCORE.SYSTEM.norm>
0

>  <SCORE.heavy>
10

>  <SCORE.norm>
-0.491968

>  <RMSD>
46.740

$$$$
ligand
 OpenBabel11021811463D
libRbt.so/2013.1/901 2013/11/27
 10  9  0  0  0  0  0  0  0  0999 V2000
  -10.8833   44.8590   -5.5447 N   0  0  0  0  0  0  0  0  0  0  0  0
  -11.4609   44.1024   -6.6487 C   0  0  2  0  0  0  0  0  0  0  0  0
  -10.5286   42.9723   -7.0818 C   0  0  0  0  0  0  0  0  0  0  0  0
  -11.0028   41.9213   -7.5228 O   0  0  0  0  0  0  0  0  0  0  0  0
  -11.7864   45.0247   -7.8276 C   0  0  0  0  0  0  0  0  0  0  0  0
  -12.7717   46.1341   -7.4803 C   0  0  0  0  0  0  0  0  0  0  0  0
  -12.9814   47.1042   -8.6395 C   0  0  0  0  0  0  0  0  0  0  0  0
  -13.7438   46.4531   -9.8043 C   0  0  0  0  0  0  0  0  0  0  0  0
  -14.0497   47.3786  -10.9408 N   0  0  0  0  0  0  0  0  0  0  0  0
   -9.2978   43.0884   -7.0160 O   0  0  0  0  0  0  0  0  0  0  0  0
  2  1  1  1  0  0  0
  2  3  1  0  0  0  0
  2  5  1  0  0  0  0
  3  4  1  0  0  0  0
  3 10  1  0  0  0  0
  5  6  1  0  0  0  0
  6  7  1  0  0  0  0
  7  8  1  0  0  0  0
  8  9  1  0  0  0  0
M  END
>  <CHROM.1>
147.98006557,-59.39863669,175.05899457,69.38762215,176.65550173,-11.82458899
44.86971394,-7.85385407,-0.06932900,-0.98176049,0.84469962

>  <Name>
ligand

>  <RI>
0

>  <Rbt.Current_Directory>
/home/itssahil/PROJECTS/Mol_Feturizer/New_Systems/rnas/3D0U

>  <Rbt.Executable>
rbdock ($Id: //depot/dev/client3/rdock/2013.1/src/exe/rbdock.cxx#4 $)

>  <Rbt.Library>
libRbt.so (2013.1, Build901 2013/11/27)

>  <Rbt.Parameter_File>
/export/apps/rDock/src/rDock_2013.1_src/data/scripts/dock_solv.prm

>  <Rbt.Receptor>
prm/blind_docking_100.prm

>  <SCORE>
-5.94669

>  <SCORE.INTER>
-5.83925

>  <SCORE.INTER.CONST>
1

>  <SCORE.INTER.POLAR>
0

>  <SCORE.INTER.ROT>
5

>  <SCORE.INTER.SOLV>
14.7335

>  <SCORE.INTER.VDW>
-15.7373

>  <SCORE.INTER.norm>
-0.583925

>  <SCORE.INTRA>
-0.107438

>  <SCORE.INTRA.DIHEDRAL>
-0.269203

>  <SCORE.INTRA.DIHEDRAL.0>
2.22229

>  <SCORE.INTRA.POLAR>
0

>  <SCORE.INTRA.POLAR.0>
0

>  <SCORE.INTRA.REPUL>
0

>  <SCORE.INTRA.REPUL.0>
0

>  <SCORE.INTRA.SOLV>
-0.52057

>  <SCORE.INTRA.SOLV.lig_0>
-31.87

>  <SCORE.INTRA.VDW>
0.287448

>  <SCORE.INTRA.VDW.0>
-0.575321

>  <SCORE.INTRA.norm>
-0.0107438

>  <SCORE.RESTR>
0

>  <SCORE.RESTR.CAVITY>
0

>  <SCORE.RESTR.norm>
0

>  <SCORE.SYSTEM>
0

>  <SCORE.SYSTEM.CONST>
0

>  <SCORE.SYSTEM.DIHEDRAL>
0

>  <SCORE.SYSTEM.SOLV>
0

>  <SCORE.SYSTEM.norm>
0

>  <SCORE.heavy>
10

>  <SCORE.norm>
-0.594669

>  <RMSD>
46.796

$$$$
ligand
 OpenBabel11021811463D
libRbt.so/2013.1/901 2013/11/27
 10  9  0  0  0  0  0  0  0  0999 V2000
   -9.4945   42.9807   -6.5081 N   0  0  0  0  0  0  0  0  0  0  0  0
  -10.8491   43.5017   -6.6442 C   0  0  2  0  0  0  0  0  0  0  0  0
  -11.8323   42.3823   -6.9819 C   0  0  0  0  0  0  0  0  0  0  0  0
  -13.0307   42.5188   -6.7190 O   0  0  0  0  0  0  0  0  0  0  0  0
  -10.9009   44.6114   -7.6988 C   0  0  0  0  0  0  0  0  0  0  0  0
  -12.2606   45.2917   -7.8023 C   0  0  0  0  0  0  0  0  0  0  0  0
  -12.3466   46.2311   -9.0018 C   0  0  0  0  0  0  0  0  0  0  0  0
  -13.7535   46.8273   -9.1664 C   0  0  0  0  0  0  0  0  0  0  0  0
  -13.9627   47.5825  -10.4422 N   0  0  0  0  0  0  0  0  0  0  0  0
  -11.4589   41.3375   -7.5312 O   0  0  0  0  0  0  0  0  0  0  0  0
  2  1  1  6  0  0  0
  2  3  1  0  0  0  0
  2  5  1  0  0  0  0
  3  4  1  0  0  0  0
  3 10  1  0  0  0  0
  5  6  1  0  0  0  0
  6  7  1  0  0  0  0
  7  8  1  0  0  0  0
  8  9  1  0  0  0  0
M  END
>  <CHROM.1>
156.67825934,-174.63399852,-170.90984320,175.42376750,-170.78544430,-12.00658592
44.29283665,-7.85015894,-1.13782362,-0.30091128,-0.39536662

>  <Name>
ligand

>  <RI>
0

>  <Rbt.Current_Directory>
/home/itssahil/PROJECTS/Mol_Feturizer/New_Systems/rnas/3D0U

>  <Rbt.Executable>
rbdock ($Id: //depot/dev/client3/rdock/2013.1/src/exe/rbdock.cxx#4 $)

>  <Rbt.Library>
libRbt.so (2013.1, Build901 2013/11/27)

>  <Rbt.Parameter_File>
/export/apps/rDock/src/rDock_2013.1_src/data/scripts/dock_solv.prm

>  <Rbt.Receptor>
prm/blind_docking_80.prm

>  <SCORE>
-4.26985

>  <SCORE.INTER>
-3.3672

>  <SCORE.INTER.CONST>
1

>  <SCORE.INTER.POLAR>
0

>  <SCORE.INTER.ROT>
5

>  <SCORE.INTER.SOLV>
13.7161

>  <SCORE.INTER.VDW>
-13.7502

>  <SCORE.INTER.norm>
-0.33672

>  <SCORE.INTRA>
-0.902647

>  <SCORE.INTRA.DIHEDRAL>
0.0721264

>  <SCORE.INTRA.DIHEDRAL.0>
2.22229

>  <SCORE.INTRA.POLAR>
0

>  <SCORE.INTRA.POLAR.0>
0

>  <SCORE.INTRA.REPUL>
0

>  <SCORE.INTRA.REPUL.0>
0

>  <SCORE.INTRA.SOLV>
-1.59806

>  <SCORE.INTRA.SOLV.lig_0>
-31.87

>  <SCORE.INTRA.VDW>
-0.139683

>  <SCORE.INTRA.VDW.0>
-0.575321

>  <SCORE.INTRA.norm>
-0.0902647

>  <SCORE.RESTR>
0

>  <SCORE.RESTR.CAVITY>
0

>  <SCORE.RESTR.norm>
0

>  <SCORE.SYSTEM>
0

>  <SCORE.SYSTEM.CONST>
0

>  <SCORE.SYSTEM.DIHEDRAL>
0

>  <SCORE.SYSTEM.SOLV>
0

>  <SCORE.SYSTEM.norm>
0

>  <SCORE.heavy>
10

>  <SCORE.norm>
-0.426985

>  <RMSD>
46.858

$$$$
ligand
 OpenBabel11021811463D
libRbt.so/2013.1/901 2013/11/27
 10  9  0  0  0  0  0  0  0  0999 V2000
  -12.1475   41.9198   -7.0220 N   0  0  0  0  0  0  0  0  0  0  0  0
  -11.7449   43.1998   -7.5917 C   0  0  2  0  0  0  0  0  0  0  0  0
  -10.6024   43.8188   -6.7883 C   0  0  0  0  0  0  0  0  0  0  0  0
  -10.7991   44.1871   -5.6265 O   0  0  0  0  0  0  0  0  0  0  0  0
  -12.9376   44.1574   -7.6729 C   0  0  0  0  0  0  0  0  0  0  0  0
  -12.6922   45.3624   -8.5730 C   0  0  0  0  0  0  0  0  0  0  0  0
  -13.8612   46.3433   -8.5564 C   0  0  0  0  0  0  0  0  0  0  0  0
  -13.8010   47.3306   -9.7326 C   0  0  0  0  0  0  0  0  0  0  0  0
  -14.0081   46.7071  -11.0780 N   0  0  0  0  0  0  0  0  0  0  0  0
   -9.4693   43.9487   -7.2699 O   0  0  0  0  0  0  0  0  0  0  0  0
  2  1  1  1  0  0  0
  2  3  1  0  0  0  0
  2  5  1  0  0  0  0
  3  4  1  0  0  0  0
  3 10  1  0  0  0  0
  5  6  1  0  0  0  0
  6  7  1  0  0  0  0
  7  8  1  0  0  0  0
  8  9  1  0  0  0  0
M  END
>  <CHROM.1>
-66.21613916,-164.99714366,-176.06803071,-163.89945835,67.20826481,-12.17437881
44.70325080,-7.96774850,0.90330324,0.48169165,2.72271083

>  <Name>
ligand

>  <RI>
0

>  <Rbt.Current_Directory>
/home/itssahil/PROJECTS/Mol_Feturizer/New_Systems/rnas/3D0U

>  <Rbt.Executable>
rbdock ($Id: //depot/dev/client3/rdock/2013.1/src/exe/rbdock.cxx#4 $)

>  <Rbt.Library>
libRbt.so (2013.1, Build901 2013/11/27)

>  <Rbt.Parameter_File>
/export/apps/rDock/src/rDock_2013.1_src/data/scripts/dock_solv.prm

>  <Rbt.Receptor>
prm/blind_docking_80.prm

>  <SCORE>
-4.24696

>  <SCORE.INTER>
-4.32138

>  <SCORE.INTER.CONST>
1

>  <SCORE.INTER.POLAR>
0

>  <SCORE.INTER.ROT>
5

>  <SCORE.INTER.SOLV>
7.58652

>  <SCORE.INTER.VDW>
-12.3431

>  <SCORE.INTER.norm>
-0.432138

>  <SCORE.INTRA>
0.0744173

>  <SCORE.INTRA.DIHEDRAL>
1.35339

>  <SCORE.INTRA.DIHEDRAL.0>
2.22229

>  <SCORE.INTRA.POLAR>
0

>  <SCORE.INTRA.POLAR.0>
0

>  <SCORE.INTRA.REPUL>
0

>  <SCORE.INTRA.REPUL.0>
0

>  <SCORE.INTRA.SOLV>
-0.704921

>  <SCORE.INTRA.SOLV.lig_0>
-31.87

>  <SCORE.INTRA.VDW>
-0.249815

>  <SCORE.INTRA.VDW.0>
-0.575321

>  <SCORE.INTRA.norm>
0.00744173

>  <SCORE.RESTR>
0

>  <SCORE.RESTR.CAVITY>
0

>  <SCORE.RESTR.norm>
0

>  <SCORE.SYSTEM>
0

>  <SCORE.SYSTEM.CONST>
0

>  <SCORE.SYSTEM.DIHEDRAL>
0

>  <SCORE.SYSTEM.SOLV>
0

>  <SCORE.SYSTEM.norm>
0

>  <SCORE.heavy>
10

>  <SCORE.norm>
-0.424696

>  <RMSD>
47.160

$$$$
ligand
 OpenBabel11021811463D
libRbt.so/2013.1/901 2013/11/27
 10  9  0  0  0  0  0  0  0  0999 V2000
  -11.6296   46.3394   -9.2833 N   0  0  0  0  0  0  0  0  0  0  0  0
  -12.2905   45.4071   -8.3782 C   0  0  2  0  0  0  0  0  0  0  0  0
  -13.2817   46.1363   -7.4729 C   0  0  0  0  0  0  0  0  0  0  0  0
  -12.9816   47.2335   -6.9933 O   0  0  0  0  0  0  0  0  0  0  0  0
  -11.2610   44.6325   -7.5497 C   0  0  0  0  0  0  0  0  0  0  0  0
  -11.8587   43.4701   -6.7661 C   0  0  0  0  0  0  0  0  0  0  0  0
  -12.3201   42.3361   -7.6772 C   0  0  0  0  0  0  0  0  0  0  0  0
  -13.0884   41.2528   -6.9040 C   0  0  0  0  0  0  0  0  0  0  0  0
  -14.4233   41.6890   -6.3848 N   0  0  0  0  0  0  0  0  0  0  0  0
  -14.3950   45.6592   -7.2165 O   0  0  0  0  0  0  0  0  0  0  0  0
  2  1  1  1  0  0  0
  2  3  1  0  0  0  0
  2  5  1  0  0  0  0
  3  4  1  0  0  0  0
  3 10  1  0  0  0  0
  5  6  1  0  0  0  0
  6  7  1  0  0  0  0
  7  8  1  0  0  0  0
  8  9  1  0  0  0  0
M  END
>  <CHROM.1>
-40.70162026,-169.65220584,69.15678177,-172.40370310,68.49086173,-12.77480540
44.44082930,-7.44581138,-1.43508989,-0.46953541,2.98586692

>  <Name>
ligand

>  <RI>
0

>  <Rbt.Current_Directory>
/home/itssahil/PROJECTS/Mol_Feturizer/New_Systems/rnas/3D0U

>  <Rbt.Executable>
rbdock ($Id: //depot/dev/client3/rdock/2013.1/src/exe/rbdock.cxx#4 $)

>  <Rbt.Library>
libRbt.so (2013.1, Build901 2013/11/27)

>  <Rbt.Parameter_File>
/export/apps/rDock/src/rDock_2013.1_src/data/scripts/dock_solv.prm

>  <Rbt.Receptor>
prm/blind_docking_80.prm

>  <SCORE>
-4.0626

>  <SCORE.INTER>
-3.75338

>  <SCORE.INTER.CONST>
1

>  <SCORE.INTER.POLAR>
0

>  <SCORE.INTER.ROT>
5

>  <SCORE.INTER.SOLV>
10.4561

>  <SCORE.INTER.VDW>
-12.921

>  <SCORE.INTER.norm>
-0.375338

>  <SCORE.INTRA>
-0.309223

>  <SCORE.INTRA.DIHEDRAL>
0.530963

>  <SCORE.INTRA.DIHEDRAL.0>
2.22229

>  <SCORE.INTRA.POLAR>
0

>  <SCORE.INTRA.POLAR.0>
0

>  <SCORE.INTRA.REPUL>
0

>  <SCORE.INTRA.REPUL.0>
0

>  <SCORE.INTRA.SOLV>
-0.502321

>  <SCORE.INTRA.SOLV.lig_0>
-31.87

>  <SCORE.INTRA.VDW>
-0.323544

>  <SCORE.INTRA.VDW.0>
-0.575321

>  <SCORE.INTRA.norm>
-0.0309223

>  <SCORE.RESTR>
0

>  <SCORE.RESTR.CAVITY>
0

>  <SCORE.RESTR.norm>
0

>  <SCORE.SYSTEM>
0

>  <SCORE.SYSTEM.CONST>
0

>  <SCORE.SYSTEM.DIHEDRAL>
0

>  <SCORE.SYSTEM.SOLV>
0

>  <SCORE.SYSTEM.norm>
0

>  <SCORE.heavy>
10

>  <SCORE.norm>
-0.40626

>  <RMSD>
47.370

$$$$
ligand
 OpenBabel11021811463D
libRbt.so/2013.1/901 2013/11/27
 10  9  0  0  0  0  0  0  0  0999 V2000
  -12.9926   43.3762   -7.1572 N   0  0  0  0  0  0  0  0  0  0  0  0
  -11.7755   44.0112   -7.6479 C   0  0  2  0  0  0  0  0  0  0  0  0
  -10.6497   43.8980   -6.6214 C   0  0  0  0  0  0  0  0  0  0  0  0
   -9.5796   43.3719   -6.9405 O   0  0  0  0  0  0  0  0  0  0  0  0
  -12.0364   45.4755   -8.0140 C   0  0  0  0  0  0  0  0  0  0  0  0
  -13.1403   45.6582   -9.0485 C   0  0  0  0  0  0  0  0  0  0  0  0
  -13.3764   47.1272   -9.3879 C   0  0  0  0  0  0  0  0  0  0  0  0
  -14.5194   47.3079  -10.3992 C   0  0  0  0  0  0  0  0  0  0  0  0
  -14.3532   46.5330  -11.6694 N   0  0  0  0  0  0  0  0  0  0  0  0
  -10.7770   44.3376   -5.4710 O   0  0  0  0  0  0  0  0  0  0  0  0
  2  1  1  1  0  0  0
  2  3  1  0  0  0  0
  2  5  1  0  0  0  0
  3  4  1  0  0  0  0
  3 10  1  0  0  0  0
  5  6  1  0  0  0  0
  6  7  1  0  0  0  0
  7  8  1  0  0  0  0
  8  9  1  0  0  0  0
M  END
>  <CHROM.1>
123.53418361,-57.05475390,179.87777735,-178.25122869,-55.15268430,-12.28749635
45.09978010,-8.20588797,0.76532085,0.67451290,2.79288509

>  <Name>
ligand

>  <RI>
0

>  <Rbt.Current_Directory>
/home/itssahil/PROJECTS/Mol_Feturizer/New_Systems/rnas/3D0U

>  <Rbt.Executable>
rbdock ($Id: //depot/dev/client3/rdock/2013.1/src/exe/rbdock.cxx#4 $)

>  <Rbt.Library>
libRbt.so (2013.1, Build901 2013/11/27)

>  <Rbt.Parameter_File>
/export/apps/rDock/src/rDock_2013.1_src/data/scripts/dock_solv.prm

>  <Rbt.Receptor>
prm/blind_docking_80.prm

>  <SCORE>
-6.14387

>  <SCORE.INTER>
-5.90474

>  <SCORE.INTER.CONST>
1

>  <SCORE.INTER.POLAR>
0

>  <SCORE.INTER.ROT>
5

>  <SCORE.INTER.SOLV>
4.31218

>  <SCORE.INTER.VDW>
-12.3072

>  <SCORE.INTER.norm>
-0.590474

>  <SCORE.INTRA>
-0.239128

>  <SCORE.INTRA.DIHEDRAL>
-0.618634

>  <SCORE.INTRA.DIHEDRAL.0>
2.22229

>  <SCORE.INTRA.POLAR>
0

>  <SCORE.INTRA.POLAR.0>
0

>  <SCORE.INTRA.REPUL>
0

>  <SCORE.INTRA.REPUL.0>
0

>  <SCORE.INTRA.SOLV>
0.247528

>  <SCORE.INTRA.SOLV.lig_0>
-31.87

>  <SCORE.INTRA.VDW>
-0.0535745

>  <SCORE.INTRA.VDW.0>
-0.575321

>  <SCORE.INTRA.norm>
-0.0239128

>  <SCORE.RESTR>
0

>  <SCORE.RESTR.CAVITY>
0

>  <SCORE.RESTR.norm>
0

>  <SCORE.SYSTEM>
0

>  <SCORE.SYSTEM.CONST>
0

>  <SCORE.SYSTEM.DIHEDRAL>
0

>  <SCORE.SYSTEM.SOLV>
0

>  <SCORE.SYSTEM.norm>
0

>  <SCORE.heavy>
10

>  <SCORE.norm>
-0.614387

>  <RMSD>
47.418

$$$$
ligand
 OpenBabel11021811463D
libRbt.so/2013.1/901 2013/11/27
 10  9  0  0  0  0  0  0  0  0999 V2000
  -14.1016   45.9107   -9.8344 N   0  0  0  0  0  0  0  0  0  0  0  0
  -13.5662   45.6529   -8.5032 C   0  0  2  0  0  0  0  0  0  0  0  0
  -12.9915   46.9288   -7.8903 C   0  0  0  0  0  0  0  0  0  0  0  0
  -12.2192   47.6314   -8.5489 O   0  0  0  0  0  0  0  0  0  0  0  0
  -12.5103   44.5442   -8.5479 C   0  0  0  0  0  0  0  0  0  0  0  0
  -11.9127   44.2157   -7.1850 C   0  0  0  0  0  0  0  0  0  0  0  0
  -11.1337   42.9035   -7.1970 C   0  0  0  0  0  0  0  0  0  0  0  0
  -12.0452   41.6953   -7.4636 C   0  0  0  0  0  0  0  0  0  0  0  0
  -13.1461   41.5156   -6.4649 N   0  0  0  0  0  0  0  0  0  0  0  0
  -13.2940   47.2891   -6.7451 O   0  0  0  0  0  0  0  0  0  0  0  0
  2  1  1  6  0  0  0
  2  3  1  0  0  0  0
  2  5  1  0  0  0  0
  3  4  1  0  0  0  0
  3 10  1  0  0  0  0
  5  6  1  0  0  0  0
  6  7  1  0  0  0  0
  7  8  1  0  0  0  0
  8  9  1  0  0  0  0
M  END
>  <CHROM.1>
-48.68753726,-179.63523329,166.00114937,-65.19770083,-59.13500183,-12.68307897
44.86674541,-7.82709764,1.90928583,-1.02061382,0.05436505

>  <Name>
ligand

>  <RI>
0

>  <Rbt.Current_Directory>
/home/itssahil/PROJECTS/Mol_Feturizer/New_Systems/rnas/3D0U

>  <Rbt.Executable>
rbdock ($Id: //depot/dev/client3/rdock/2013.1/src/exe/rbdock.cxx#4 $)

>  <Rbt.Library>
libRbt.so (2013.1, Build901 2013/11/27)

>  <Rbt.Parameter_File>
/export/apps/rDock/src/rDock_2013.1_src/data/scripts/dock_solv.prm

>  <Rbt.Receptor>
prm/blind_docking_80.prm

>  <SCORE>
-4.08429

>  <SCORE.INTER>
-4.57514

>  <SCORE.INTER.CONST>
1

>  <SCORE.INTER.POLAR>
0

>  <SCORE.INTER.ROT>
5

>  <SCORE.INTER.SOLV>
5.50878

>  <SCORE.INTER.VDW>
-11.8197

>  <SCORE.INTER.norm>
-0.457514

>  <SCORE.INTRA>
0.49085

>  <SCORE.INTRA.DIHEDRAL>
0.172131

>  <SCORE.INTRA.DIHEDRAL.0>
2.22229

>  <SCORE.INTRA.POLAR>
0

>  <SCORE.INTRA.POLAR.0>
0

>  <SCORE.INTRA.REPUL>
0

>  <SCORE.INTRA.REPUL.0>
0

>  <SCORE.INTRA.SOLV>
-0.112552

>  <SCORE.INTRA.SOLV.lig_0>
-31.87

>  <SCORE.INTRA.VDW>
0.46106

>  <SCORE.INTRA.VDW.0>
-0.575321

>  <SCORE.INTRA.norm>
0.049085

>  <SCORE.RESTR>
0

>  <SCORE.RESTR.CAVITY>
0

>  <SCORE.RESTR.norm>
0

>  <SCORE.SYSTEM>
0

>  <SCORE.SYSTEM.CONST>
0

>  <SCORE.SYSTEM.DIHEDRAL>
0

>  <SCORE.SYSTEM.SOLV>
0

>  <SCORE.SYSTEM.norm>
0

>  <SCORE.heavy>
10

>  <SCORE.norm>
-0.408429

>  <RMSD>
47.595

$$$$
ligand
 OpenBabel11021811463D
libRbt.so/2013.1/901 2013/11/27
 10  9  0  0  0  0  0  0  0  0999 V2000
  -12.9681   42.8698   -6.1601 N   0  0  0  0  0  0  0  0  0  0  0  0
  -11.9027   43.0048   -7.1458 C   0  0  2  0  0  0  0  0  0  0  0  0
  -10.7332   43.8072   -6.5780 C   0  0  0  0  0  0  0  0  0  0  0  0
  -10.9408   44.6694   -5.7193 O   0  0  0  0  0  0  0  0  0  0  0  0
  -12.4314   43.6453   -8.4329 C   0  0  0  0  0  0  0  0  0  0  0  0
  -13.3929   42.7526   -9.2081 C   0  0  0  0  0  0  0  0  0  0  0  0
  -13.7060   43.3079  -10.5946 C   0  0  0  0  0  0  0  0  0  0  0  0
  -14.5252   42.3193  -11.4392 C   0  0  0  0  0  0  0  0  0  0  0  0
  -14.8054   42.7795  -12.8361 N   0  0  0  0  0  0  0  0  0  0  0  0
   -9.5694   43.6040   -6.9481 O   0  0  0  0  0  0  0  0  0  0  0  0
  2  1  1  1  0  0  0
  2  3  1  0  0  0  0
  2  5  1  0  0  0  0
  3  4  1  0  0  0  0
  3 10  1  0  0  0  0
  5  6  1  0  0  0  0
  6  7  1  0  0  0  0
  7  8  1  0  0  0  0
  8  9  1  0  0  0  0
M  END
>  <CHROM.1>
-29.48193472,-68.54913956,-169.83288303,172.53622802,-177.06996888,-12.46385900
43.29452432,-8.48245784,0.95983667,0.30345553,1.57237362

>  <Name>
ligand

>  <RI>
0

>  <Rbt.Current_Directory>
/home/itssahil/PROJECTS/Mol_Feturizer/New_Systems/rnas/3D0U

>  <Rbt.Executable>
rbdock ($Id: //depot/dev/client3/rdock/2013.1/src/exe/rbdock.cxx#4 $)

>  <Rbt.Library>
libRbt.so (2013.1, Build901 2013/11/27)

>  <Rbt.Parameter_File>
/export/apps/rDock/src/rDock_2013.1_src/data/scripts/dock_solv.prm

>  <Rbt.Receptor>
prm/blind_docking_80.prm

>  <SCORE>
-4.68227

>  <SCORE.INTER>
-4.14168

>  <SCORE.INTER.CONST>
1

>  <SCORE.INTER.POLAR>
0

>  <SCORE.INTER.ROT>
5

>  <SCORE.INTER.SOLV>
8.17997

>  <SCORE.INTER.VDW>
-12.4211

>  <SCORE.INTER.norm>
-0.414168

>  <SCORE.INTRA>
-0.540584

>  <SCORE.INTRA.DIHEDRAL>
0.273282

>  <SCORE.INTRA.DIHEDRAL.0>
2.22229

>  <SCORE.INTRA.POLAR>
0

>  <SCORE.INTRA.POLAR.0>
0

>  <SCORE.INTRA.REPUL>
0

>  <SCORE.INTRA.REPUL.0>
0

>  <SCORE.INTRA.SOLV>
-0.855431

>  <SCORE.INTRA.SOLV.lig_0>
-31.87

>  <SCORE.INTRA.VDW>
-0.24951

>  <SCORE.INTRA.VDW.0>
-0.575321

>  <SCORE.INTRA.norm>
-0.0540584

>  <SCORE.RESTR>
0

>  <SCORE.RESTR.CAVITY>
0

>  <SCORE.RESTR.norm>
0

>  <SCORE.SYSTEM>
0

>  <SCORE.SYSTEM.CONST>
0

>  <SCORE.SYSTEM.DIHEDRAL>
0

>  <SCORE.SYSTEM.SOLV>
0

>  <SCORE.SYSTEM.norm>
0

>  <SCORE.heavy>
10

>  <SCORE.norm>
-0.468227

>  <RMSD>
47.648

$$$$
ligand
 OpenBabel11021811463D
libRbt.so/2013.1/901 2013/11/27
 10  9  0  0  0  0  0  0  0  0999 V2000
  -12.8676   43.1116   -6.8089 N   0  0  0  0  0  0  0  0  0  0  0  0
  -11.8213   43.6635   -7.6608 C   0  0  2  0  0  0  0  0  0  0  0  0
  -10.5880   44.0338   -6.8388 C   0  0  0  0  0  0  0  0  0  0  0  0
  -10.6888   44.8445   -5.9133 O   0  0  0  0  0  0  0  0  0  0  0  0
  -12.3401   44.8736   -8.4436 C   0  0  0  0  0  0  0  0  0  0  0  0
  -13.5787   44.5740   -9.2793 C   0  0  0  0  0  0  0  0  0  0  0  0
  -13.2979   43.5606  -10.3853 C   0  0  0  0  0  0  0  0  0  0  0  0
  -14.5701   43.1918  -11.1647 C   0  0  0  0  0  0  0  0  0  0  0  0
  -15.2319   44.3442  -11.8544 N   0  0  0  0  0  0  0  0  0  0  0  0
   -9.4820   43.5267   -7.0679 O   0  0  0  0  0  0  0  0  0  0  0  0
  2  1  1  1  0  0  0
  2  3  1  0  0  0  0
  2  5  1  0  0  0  0
  3  4  1  0  0  0  0
  3 10  1  0  0  0  0
  5  6  1  0  0  0  0
  6  7  1  0  0  0  0
  7  8  1  0  0  0  0
  8  9  1  0  0  0  0
M  END
>  <CHROM.1>
-58.36396259,-55.99151988,-64.28516206,176.18702218,60.61469058,-12.41118817
43.97979536,-8.51475625,0.82122659,-0.22445928,1.32980728

>  <Name>
ligand

>  <RI>
0

>  <Rbt.Current_Directory>
/home/itssahil/PROJECTS/Mol_Feturizer/New_Systems/rnas/3D0U

>  <Rbt.Executable>
rbdock ($Id: //depot/dev/client3/rdock/2013.1/src/exe/rbdock.cxx#4 $)

>  <Rbt.Library>
libRbt.so (2013.1, Build901 2013/11/27)

>  <Rbt.Parameter_File>
/export/apps/rDock/src/rDock_2013.1_src/data/scripts/dock_solv.prm

>  <Rbt.Receptor>
prm/blind_docking_80.prm

>  <SCORE>
-3.52721

>  <SCORE.INTER>
-3.81056

>  <SCORE.INTER.CONST>
1

>  <SCORE.INTER.POLAR>
0

>  <SCORE.INTER.ROT>
5

>  <SCORE.INTER.SOLV>
3.84713

>  <SCORE.INTER.VDW>
-10.7561

>  <SCORE.INTER.norm>
-0.381056

>  <SCORE.INTRA>
0.28335

>  <SCORE.INTRA.DIHEDRAL>
-0.54848

>  <SCORE.INTRA.DIHEDRAL.0>
2.22229

>  <SCORE.INTRA.POLAR>
0

>  <SCORE.INTRA.POLAR.0>
0

>  <SCORE.INTRA.REPUL>
0

>  <SCORE.INTRA.REPUL.0>
0

>  <SCORE.INTRA.SOLV>
0.773294

>  <SCORE.INTRA.SOLV.lig_0>
-31.87

>  <SCORE.INTRA.VDW>
0.170943

>  <SCORE.INTRA.VDW.0>
-0.575321

>  <SCORE.INTRA.norm>
0.028335

>  <SCORE.RESTR>
0

>  <SCORE.RESTR.CAVITY>
0

>  <SCORE.RESTR.norm>
0

>  <SCORE.SYSTEM>
0

>  <SCORE.SYSTEM.CONST>
0

>  <SCORE.SYSTEM.DIHEDRAL>
0

>  <SCORE.SYSTEM.SOLV>
0

>  <SCORE.SYSTEM.norm>
0

>  <SCORE.heavy>
10

>  <SCORE.norm>
-0.352721

>  <RMSD>
47.654

$$$$
ligand
 OpenBabel11021811463D
libRbt.so/2013.1/901 2013/11/27
 10  9  0  0  0  0  0  0  0  0999 V2000
  -12.8882   42.2755   -6.4660 N   0  0  0  0  0  0  0  0  0  0  0  0
  -12.0840   42.5578   -7.6486 C   0  0  2  0  0  0  0  0  0  0  0  0
  -10.7424   43.1770   -7.2604 C   0  0  0  0  0  0  0  0  0  0  0  0
   -9.7692   42.4480   -7.0479 O   0  0  0  0  0  0  0  0  0  0  0  0
  -12.8451   43.4664   -8.6188 C   0  0  0  0  0  0  0  0  0  0  0  0
  -14.2273   42.9418   -8.9887 C   0  0  0  0  0  0  0  0  0  0  0  0
  -14.1569   41.7366   -9.9222 C   0  0  0  0  0  0  0  0  0  0  0  0
  -13.8199   42.1449  -11.3649 C   0  0  0  0  0  0  0  0  0  0  0  0
  -14.8136   43.0694  -11.9970 N   0  0  0  0  0  0  0  0  0  0  0  0
  -10.5991   44.4032   -7.1669 O   0  0  0  0  0  0  0  0  0  0  0  0
  2  1  1  1  0  0  0
  2  3  1  0  0  0  0
  2  5  1  0  0  0  0
  3  4  1  0  0  0  0
  3 10  1  0  0  0  0
  5  6  1  0  0  0  0
  6  7  1  0  0  0  0
  7  8  1  0  0  0  0
  8  9  1  0  0  0  0
M  END
>  <CHROM.1>
90.26002620,-53.29933874,-72.47815835,-76.22967734,-60.50117535,-12.55692396
42.83579060,-8.63184459,0.75672096,0.39821258,1.80980753

>  <Name>
ligand

>  <RI>
0

>  <Rbt.Current_Directory>
/home/itssahil/PROJECTS/Mol_Feturizer/New_Systems/rnas/3D0U

>  <Rbt.Executable>
rbdock ($Id: //depot/dev/client3/rdock/2013.1/src/exe/rbdock.cxx#4 $)

>  <Rbt.Library>
libRbt.so (2013.1, Build901 2013/11/27)

>  <Rbt.Parameter_File>
/export/apps/rDock/src/rDock_2013.1_src/data/scripts/dock_solv.prm

>  <Rbt.Receptor>
prm/blind_docking_100.prm

>  <SCORE>
-2.86047

>  <SCORE.INTER>
-4.6907

>  <SCORE.INTER.CONST>
1

>  <SCORE.INTER.POLAR>
0

>  <SCORE.INTER.ROT>
5

>  <SCORE.INTER.SOLV>
7.01341

>  <SCORE.INTER.VDW>
-12.3983

>  <SCORE.INTER.norm>
-0.46907

>  <SCORE.INTRA>
1.83023

>  <SCORE.INTRA.DIHEDRAL>
1.12244

>  <SCORE.INTRA.DIHEDRAL.0>
2.22229

>  <SCORE.INTRA.POLAR>
0

>  <SCORE.INTRA.POLAR.0>
0

>  <SCORE.INTRA.REPUL>
0

>  <SCORE.INTRA.REPUL.0>
0

>  <SCORE.INTRA.SOLV>
1.15001

>  <SCORE.INTRA.SOLV.lig_0>
-31.87

>  <SCORE.INTRA.VDW>
0.694005

>  <SCORE.INTRA.VDW.0>
-0.575321

>  <SCORE.INTRA.norm>
0.183023

>  <SCORE.RESTR>
0

>  <SCORE.RESTR.CAVITY>
0

>  <SCORE.RESTR.norm>
0

>  <SCORE.SYSTEM>
0

>  <SCORE.SYSTEM.CONST>
0

>  <SCORE.SYSTEM.DIHEDRAL>
0

>  <SCORE.SYSTEM.SOLV>
0

>  <SCORE.SYSTEM.norm>
0

>  <SCORE.heavy>
10

>  <SCORE.norm>
-0.286047

>  <RMSD>
47.794

$$$$
ligand
 OpenBabel11021811463D
libRbt.so/2013.1/901 2013/11/27
 10  9  0  0  0  0  0  0  0  0999 V2000
  -13.0434   42.2654   -6.1992 N   0  0  0  0  0  0  0  0  0  0  0  0
  -12.1064   42.4008   -7.3078 C   0  0  2  0  0  0  0  0  0  0  0  0
  -10.9537   43.3321   -6.9366 C   0  0  0  0  0  0  0  0  0  0  0  0
   -9.7942   43.0142   -7.2166 O   0  0  0  0  0  0  0  0  0  0  0  0
  -12.8238   42.8941   -8.5681 C   0  0  0  0  0  0  0  0  0  0  0  0
  -13.8457   41.9048   -9.1150 C   0  0  0  0  0  0  0  0  0  0  0  0
  -14.6065   42.4639  -10.3140 C   0  0  0  0  0  0  0  0  0  0  0  0
  -13.7101   42.5918  -11.5558 C   0  0  0  0  0  0  0  0  0  0  0  0
  -14.3839   43.1960  -12.7485 N   0  0  0  0  0  0  0  0  0  0  0  0
  -11.1538   44.4148   -6.3706 O   0  0  0  0  0  0  0  0  0  0  0  0
  2  1  1  1  0  0  0
  2  3  1  0  0  0  0
  2  5  1  0  0  0  0
  3  4  1  0  0  0  0
  3 10  1  0  0  0  0
  5  6  1  0  0  0  0
  6  7  1  0  0  0  0
  7  8  1  0  0  0  0
  8  9  1  0  0  0  0
M  END
>  <CHROM.1>
135.16956109,-65.13887752,176.22318566,69.76204968,-177.25380875,-12.60917521
42.86832456,-8.61525839,0.92865410,0.43712453,1.75780334

>  <Name>
ligand

>  <RI>
0

>  <Rbt.Current_Directory>
/home/itssahil/PROJECTS/Mol_Feturizer/New_Systems/rnas/3D0U

>  <Rbt.Executable>
rbdock ($Id: //depot/dev/client3/rdock/2013.1/src/exe/rbdock.cxx#4 $)

>  <Rbt.Library>
libRbt.so (2013.1, Build901 2013/11/27)

>  <Rbt.Parameter_File>
/export/apps/rDock/src/rDock_2013.1_src/data/scripts/dock_solv.prm

>  <Rbt.Receptor>
prm/blind_docking_100.prm

>  <SCORE>
-4.47977

>  <SCORE.INTER>
-4.29595

>  <SCORE.INTER.CONST>
1

>  <SCORE.INTER.POLAR>
0

>  <SCORE.INTER.ROT>
5

>  <SCORE.INTER.SOLV>
6.92757

>  <SCORE.INTER.VDW>
-12.1065

>  <SCORE.INTER.norm>
-0.429595

>  <SCORE.INTRA>
-0.183812

>  <SCORE.INTRA.DIHEDRAL>
-0.17352

>  <SCORE.INTRA.DIHEDRAL.0>
2.22229

>  <SCORE.INTRA.POLAR>
0

>  <SCORE.INTRA.POLAR.0>
0

>  <SCORE.INTRA.REPUL>
0

>  <SCORE.INTRA.REPUL.0>
0

>  <SCORE.INTRA.SOLV>
-0.572526

>  <SCORE.INTRA.SOLV.lig_0>
-31.87

>  <SCORE.INTRA.VDW>
0.189212

>  <SCORE.INTRA.VDW.0>
-0.575321

>  <SCORE.INTRA.norm>
-0.0183812

>  <SCORE.RESTR>
0

>  <SCORE.RESTR.CAVITY>
0

>  <SCORE.RESTR.norm>
0

>  <SCORE.SYSTEM>
0

>  <SCORE.SYSTEM.CONST>
0

>  <SCORE.SYSTEM.DIHEDRAL>
0

>  <SCORE.SYSTEM.SOLV>
0

>  <SCORE.SYSTEM.norm>
0

>  <SCORE.heavy>
10

>  <SCORE.norm>
-0.447977

>  <RMSD>
47.815

$$$$
ligand
 OpenBabel11021811463D
libRbt.so/2013.1/901 2013/11/27
 10  9  0  0  0  0  0  0  0  0999 V2000
  -11.7193   44.7287   -7.3255 N   0  0  0  0  0  0  0  0  0  0  0  0
  -12.0794   45.6919   -8.3588 C   0  0  2  0  0  0  0  0  0  0  0  0
  -12.7828   46.9047   -7.7522 C   0  0  0  0  0  0  0  0  0  0  0  0
  -12.5138   48.0378   -8.1615 O   0  0  0  0  0  0  0  0  0  0  0  0
  -12.9512   45.0351   -9.4335 C   0  0  0  0  0  0  0  0  0  0  0  0
  -13.2921   45.9629  -10.5933 C   0  0  0  0  0  0  0  0  0  0  0  0
  -14.2463   45.3132  -11.5915 C   0  0  0  0  0  0  0  0  0  0  0  0
  -14.6509   46.2808  -12.7148 C   0  0  0  0  0  0  0  0  0  0  0  0
  -15.6724   45.7371  -13.6648 N   0  0  0  0  0  0  0  0  0  0  0  0
  -13.6349   46.7801   -6.8627 O   0  0  0  0  0  0  0  0  0  0  0  0
  2  1  1  1  0  0  0
  2  3  1  0  0  0  0
  2  5  1  0  0  0  0
  3  4  1  0  0  0  0
  3 10  1  0  0  0  0
  5  6  1  0  0  0  0
  6  7  1  0  0  0  0
  7  8  1  0  0  0  0
  8  9  1  0  0  0  0
M  END
>  <CHROM.1>
138.84710526,-176.31695766,-175.66687327,176.67291921,-175.31510738,-13.36364975
46.07581510,-9.62221003,-0.68093300,1.01807561,-2.48495365

>  <Name>
ligand

>  <RI>
0

>  <Rbt.Current_Directory>
/home/itssahil/PROJECTS/Mol_Feturizer/New_Systems/rnas/3D0U

>  <Rbt.Executable>
rbdock ($Id: //depot/dev/client3/rdock/2013.1/src/exe/rbdock.cxx#4 $)

>  <Rbt.Library>
libRbt.so (2013.1, Build901 2013/11/27)

>  <Rbt.Parameter_File>
/export/apps/rDock/src/rDock_2013.1_src/data/scripts/dock_solv.prm

>  <Rbt.Receptor>
prm/blind_docking_80.prm

>  <SCORE>
-3.29488

>  <SCORE.INTER>
-1.97464

>  <SCORE.INTER.CONST>
1

>  <SCORE.INTER.POLAR>
0

>  <SCORE.INTER.ROT>
5

>  <SCORE.INTER.SOLV>
6.5141

>  <SCORE.INTER.VDW>
-10.4211

>  <SCORE.INTER.norm>
-0.197464

>  <SCORE.INTRA>
-1.32024

>  <SCORE.INTRA.DIHEDRAL>
-0.515475

>  <SCORE.INTRA.DIHEDRAL.0>
2.22229

>  <SCORE.INTRA.POLAR>
0

>  <SCORE.INTRA.POLAR.0>
0

>  <SCORE.INTRA.REPUL>
0

>  <SCORE.INTRA.REPUL.0>
0

>  <SCORE.INTRA.SOLV>
-1.61132

>  <SCORE.INTRA.SOLV.lig_0>
-31.87

>  <SCORE.INTRA.VDW>
-0.256841

>  <SCORE.INTRA.VDW.0>
-0.575321

>  <SCORE.INTRA.norm>
-0.132024

>  <SCORE.RESTR>
0

>  <SCORE.RESTR.CAVITY>
0

>  <SCORE.RESTR.norm>
0

>  <SCORE.SYSTEM>
0

>  <SCORE.SYSTEM.CONST>
0

>  <SCORE.SYSTEM.DIHEDRAL>
0

>  <SCORE.SYSTEM.SOLV>
0

>  <SCORE.SYSTEM.norm>
0

>  <SCORE.heavy>
10

>  <SCORE.norm>
-0.329488

>  <RMSD>
49.207

$$$$
ligand
 OpenBabel11021811463D
libRbt.so/2013.1/901 2013/11/27
 10  9  0  0  0  0  0  0  0  0999 V2000
  -15.8382   43.7656  -12.8511 N   0  0  0  0  0  0  0  0  0  0  0  0
  -14.6746   43.1799  -12.1967 C   0  0  2  0  0  0  0  0  0  0  0  0
  -14.1723   41.9602  -12.9672 C   0  0  0  0  0  0  0  0  0  0  0  0
  -12.9621   41.7215  -13.0160 O   0  0  0  0  0  0  0  0  0  0  0  0
  -14.9949   42.8150  -10.7439 C   0  0  0  0  0  0  0  0  0  0  0  0
  -13.7923   42.2933   -9.9667 C   0  0  0  0  0  0  0  0  0  0  0  0
  -14.1483   41.9285   -8.5283 C   0  0  0  0  0  0  0  0  0  0  0  0
  -12.9130   41.5007   -7.7203 C   0  0  0  0  0  0  0  0  0  0  0  0
  -13.1934   41.1641   -6.2886 N   0  0  0  0  0  0  0  0  0  0  0  0
  -14.9546   41.1881  -13.5371 O   0  0  0  0  0  0  0  0  0  0  0  0
  2  1  1  6  0  0  0
  2  3  1  0  0  0  0
  2  5  1  0  0  0  0
  3  4  1  0  0  0  0
  3 10  1  0  0  0  0
  5  6  1  0  0  0  0
  6  7  1  0  0  0  0
  7  8  1  0  0  0  0
  8  9  1  0  0  0  0
M  END
>  <CHROM.1>
145.12374664,-175.66460688,-179.51784945,-175.82992550,178.48276888,-14.15476115
42.12751081,-10.81034942,1.88797220,0.76556601,-1.65124264

>  <Name>
ligand

>  <RI>
0

>  <Rbt.Current_Directory>
/home/itssahil/PROJECTS/Mol_Feturizer/New_Systems/rnas/3D0U

>  <Rbt.Executable>
rbdock ($Id: //depot/dev/client3/rdock/2013.1/src/exe/rbdock.cxx#4 $)

>  <Rbt.Library>
libRbt.so (2013.1, Build901 2013/11/27)

>  <Rbt.Parameter_File>
/export/apps/rDock/src/rDock_2013.1_src/data/scripts/dock_solv.prm

>  <Rbt.Receptor>
prm/blind_docking_80.prm

>  <SCORE>
-2.43554

>  <SCORE.INTER>
-1.10568

>  <SCORE.INTER.CONST>
1

>  <SCORE.INTER.POLAR>
0

>  <SCORE.INTER.ROT>
5

>  <SCORE.INTER.SOLV>
8.16649

>  <SCORE.INTER.VDW>
-10.3926

>  <SCORE.INTER.norm>
-0.110568

>  <SCORE.INTRA>
-1.32987

>  <SCORE.INTRA.DIHEDRAL>
-0.625612

>  <SCORE.INTRA.DIHEDRAL.0>
2.22229

>  <SCORE.INTRA.POLAR>
0

>  <SCORE.INTRA.POLAR.0>
0

>  <SCORE.INTRA.REPUL>
0

>  <SCORE.INTRA.REPUL.0>
0

>  <SCORE.INTRA.SOLV>
-1.60921

>  <SCORE.INTRA.SOLV.lig_0>
-31.87

>  <SCORE.INTRA.VDW>
-0.212456

>  <SCORE.INTRA.VDW.0>
-0.575321

>  <SCORE.INTRA.norm>
-0.132987

>  <SCORE.RESTR>
0

>  <SCORE.RESTR.CAVITY>
0

>  <SCORE.RESTR.norm>
0

>  <SCORE.SYSTEM>
0

>  <SCORE.SYSTEM.CONST>
0

>  <SCORE.SYSTEM.DIHEDRAL>
0

>  <SCORE.SYSTEM.SOLV>
0

>  <SCORE.SYSTEM.norm>
0

>  <SCORE.heavy>
10

>  <SCORE.norm>
-0.243554

>  <RMSD>
50.501

$$$$
ligand
 OpenBabel11021811463D
libRbt.so/2013.1/901 2013/11/27
 10  9  0  0  0  0  0  0  0  0999 V2000
   -9.5062    8.9988   -4.3004 N   0  0  0  0  0  0  0  0  0  0  0  0
   -8.8075   10.1609   -4.8356 C   0  0  2  0  0  0  0  0  0  0  0  0
   -9.7972   11.2453   -5.2578 C   0  0  0  0  0  0  0  0  0  0  0  0
  -10.6271   11.0081   -6.1404 O   0  0  0  0  0  0  0  0  0  0  0  0
   -7.9038    9.7600   -6.0056 C   0  0  0  0  0  0  0  0  0  0  0  0
   -6.7492    8.8514   -5.6011 C   0  0  0  0  0  0  0  0  0  0  0  0
   -5.8939    8.4379   -6.7954 C   0  0  0  0  0  0  0  0  0  0  0  0
   -4.8176    7.4126   -6.4052 C   0  0  0  0  0  0  0  0  0  0  0  0
   -3.9976    6.9065   -7.5511 N   0  0  0  0  0  0  0  0  0  0  0  0
   -9.7999   12.3620   -4.7232 O   0  0  0  0  0  0  0  0  0  0  0  0
  2  1  1  6  0  0  0
  2  3  1  0  0  0  0
  2  5  1  0  0  0  0
  3  4  1  0  0  0  0
  3 10  1  0  0  0  0
  5  6  1  0  0  0  0
  6  7  1  0  0  0  0
  7  8  1  0  0  0  0
  8  9  1  0  0  0  0
M  END
>  <CHROM.1>
-61.23636137,-65.77707915,178.30329169,-174.31694027,176.55572463,-7.82210436
9.54613164,-5.76611138,2.86417369,0.62212613,-0.67946316

>  <Name>
ligand

>  <RI>
0

>  <Rbt.Current_Directory>
/home/itssahil/PROJECTS/Mol_Feturizer/New_Systems/rnas/3D0U

>  <Rbt.Executable>
rbdock ($Id: //depot/dev/client3/rdock/2013.1/src/exe/rbdock.cxx#4 $)

>  <Rbt.Library>
libRbt.so (2013.1, Build901 2013/11/27)

>  <Rbt.Parameter_File>
/export/apps/rDock/src/rDock_2013.1_src/data/scripts/dock_solv.prm

>  <Rbt.Receptor>
prm/blind_docking_20.prm

>  <SCORE>
-2.22832

>  <SCORE.INTER>
-1.42754

>  <SCORE.INTER.CONST>
1

>  <SCORE.INTER.POLAR>
0

>  <SCORE.INTER.ROT>
5

>  <SCORE.INTER.SOLV>
4.15731

>  <SCORE.INTER.VDW>
-9.2708

>  <SCORE.INTER.norm>
-0.142754

>  <SCORE.INTRA>
-0.800774

>  <SCORE.INTRA.DIHEDRAL>
-0.415607

>  <SCORE.INTRA.DIHEDRAL.0>
2.22229

>  <SCORE.INTRA.POLAR>
0

>  <SCORE.INTRA.POLAR.0>
0

>  <SCORE.INTRA.REPUL>
0

>  <SCORE.INTRA.REPUL.0>
0

>  <SCORE.INTRA.SOLV>
-0.783939

>  <SCORE.INTRA.SOLV.lig_0>
-31.87

>  <SCORE.INTRA.VDW>
-0.201002

>  <SCORE.INTRA.VDW.0>
-0.575321

>  <SCORE.INTRA.norm>
-0.0800774

>  <SCORE.RESTR>
0

>  <SCORE.RESTR.CAVITY>
0

>  <SCORE.RESTR.norm>
0

>  <SCORE.SYSTEM>
0

>  <SCORE.SYSTEM.CONST>
0

>  <SCORE.SYSTEM.DIHEDRAL>
0

>  <SCORE.SYSTEM.SOLV>
0

>  <SCORE.SYSTEM.norm>
0

>  <SCORE.heavy>
10

>  <SCORE.norm>
-0.222832

>  <RMSD>
52.959

$$$$
ligand
 OpenBabel11021811463D
libRbt.so/2013.1/901 2013/11/27
 10  9  0  0  0  0  0  0  0  0999 V2000
   -9.3665    9.0128   -4.1236 N   0  0  0  0  0  0  0  0  0  0  0  0
   -8.7577   10.1587   -4.7879 C   0  0  2  0  0  0  0  0  0  0  0  0
   -9.8185   11.1799   -5.1949 C   0  0  0  0  0  0  0  0  0  0  0  0
  -10.5756   10.9346   -6.1386 O   0  0  0  0  0  0  0  0  0  0  0  0
   -7.9368    9.7103   -6.0009 C   0  0  0  0  0  0  0  0  0  0  0  0
   -6.7013    8.8969   -5.6343 C   0  0  0  0  0  0  0  0  0  0  0  0
   -5.9447    8.4087   -6.8664 C   0  0  0  0  0  0  0  0  0  0  0  0
   -4.7883    7.4668   -6.4962 C   0  0  0  0  0  0  0  0  0  0  0  0
   -4.0462    6.9038   -7.6684 N   0  0  0  0  0  0  0  0  0  0  0  0
   -9.9512   12.2512   -4.5885 O   0  0  0  0  0  0  0  0  0  0  0  0
  2  1  1  6  0  0  0
  2  3  1  0  0  0  0
  2  5  1  0  0  0  0
  3  4  1  0  0  0  0
  3 10  1  0  0  0  0
  5  6  1  0  0  0  0
  6  7  1  0  0  0  0
  7  8  1  0  0  0  0
  8  9  1  0  0  0  0
M  END
>  <CHROM.1>
-72.69433268,-67.16405318,177.19850866,-173.92449464,177.32504230,-7.82227080
9.52266053,-5.75391109,3.10111818,0.67574031,-1.01951462

>  <Name>
ligand

>  <RI>
0

>  <Rbt.Current_Directory>
/home/itssahil/PROJECTS/Mol_Feturizer/New_Systems/rnas/3D0U

>  <Rbt.Executable>
rbdock ($Id: //depot/dev/client3/rdock/2013.1/src/exe/rbdock.cxx#4 $)

>  <Rbt.Library>
libRbt.so (2013.1, Build901 2013/11/27)

>  <Rbt.Parameter_File>
/export/apps/rDock/src/rDock_2013.1_src/data/scripts/dock_solv.prm

>  <Rbt.Receptor>
prm/blind_docking_20.prm

>  <SCORE>
-2.03969

>  <SCORE.INTER>
-1.37672

>  <SCORE.INTER.CONST>
1

>  <SCORE.INTER.POLAR>
0

>  <SCORE.INTER.ROT>
5

>  <SCORE.INTER.SOLV>
4.48828

>  <SCORE.INTER.VDW>
-9.34724

>  <SCORE.INTER.norm>
-0.137672

>  <SCORE.INTRA>
-0.662964

>  <SCORE.INTRA.DIHEDRAL>
-0.337993

>  <SCORE.INTRA.DIHEDRAL.0>
2.22229

>  <SCORE.INTRA.POLAR>
0

>  <SCORE.INTRA.POLAR.0>
0

>  <SCORE.INTRA.REPUL>
0

>  <SCORE.INTRA.REPUL.0>
0

>  <SCORE.INTRA.SOLV>
-0.800701

>  <SCORE.INTRA.SOLV.lig_0>
-31.87

>  <SCORE.INTRA.VDW>
-0.0936165

>  <SCORE.INTRA.VDW.0>
-0.575321

>  <SCORE.INTRA.norm>
-0.0662964

>  <SCORE.RESTR>
0

>  <SCORE.RESTR.CAVITY>
0

>  <SCORE.RESTR.norm>
0

>  <SCORE.SYSTEM>
0

>  <SCORE.SYSTEM.CONST>
0

>  <SCORE.SYSTEM.DIHEDRAL>
0

>  <SCORE.SYSTEM.SOLV>
0

>  <SCORE.SYSTEM.norm>
0

>  <SCORE.heavy>
10

>  <SCORE.norm>
-0.203969

>  <RMSD>
52.961

$$$$
ligand
 OpenBabel11021811463D
libRbt.so/2013.1/901 2013/11/27
 10  9  0  0  0  0  0  0  0  0999 V2000
   -9.2777    8.8825   -4.5862 N   0  0  0  0  0  0  0  0  0  0  0  0
   -8.6081   10.0875   -5.0602 C   0  0  2  0  0  0  0  0  0  0  0  0
   -9.6216   11.1060   -5.5791 C   0  0  0  0  0  0  0  0  0  0  0  0
   -9.7340   12.1998   -5.0180 O   0  0  0  0  0  0  0  0  0  0  0  0
   -7.5748    9.7465   -6.1382 C   0  0  0  0  0  0  0  0  0  0  0  0
   -6.3565    9.0042   -5.6024 C   0  0  0  0  0  0  0  0  0  0  0  0
   -5.1734    9.0659   -6.5643 C   0  0  0  0  0  0  0  0  0  0  0  0
   -5.3704    8.1453   -7.7790 C   0  0  0  0  0  0  0  0  0  0  0  0
   -5.1674    6.6895   -7.4943 N   0  0  0  0  0  0  0  0  0  0  0  0
  -10.3300   10.8680   -6.5662 O   0  0  0  0  0  0  0  0  0  0  0  0
  2  1  1  6  0  0  0
  2  3  1  0  0  0  0
  2  5  1  0  0  0  0
  3  4  1  0  0  0  0
  3 10  1  0  0  0  0
  5  6  1  0  0  0  0
  6  7  1  0  0  0  0
  7  8  1  0  0  0  0
  8  9  1  0  0  0  0
M  END
>  <CHROM.1>
116.80778630,-70.09773567,-161.87074957,-74.42720270,-75.62462620,-7.75264608
9.60924262,-6.04545490,2.76369229,0.58933250,-0.46646717

>  <Name>
ligand

>  <RI>
0

>  <Rbt.Current_Directory>
/home/itssahil/PROJECTS/Mol_Feturizer/New_Systems/rnas/3D0U

>  <Rbt.Executable>
rbdock ($Id: //depot/dev/client3/rdock/2013.1/src/exe/rbdock.cxx#4 $)

>  <Rbt.Library>
libRbt.so (2013.1, Build901 2013/11/27)

>  <Rbt.Parameter_File>
/export/apps/rDock/src/rDock_2013.1_src/data/scripts/dock_solv.prm

>  <Rbt.Receptor>
prm/blind_docking_20.prm

>  <SCORE>
-0.741418

>  <SCORE.INTER>
-2.19654

>  <SCORE.INTER.CONST>
1

>  <SCORE.INTER.POLAR>
0

>  <SCORE.INTER.ROT>
5

>  <SCORE.INTER.SOLV>
6.19886

>  <SCORE.INTER.VDW>
-10.464

>  <SCORE.INTER.norm>
-0.219654

>  <SCORE.INTRA>
1.44883

>  <SCORE.INTRA.DIHEDRAL>
2.65886

>  <SCORE.INTRA.DIHEDRAL.0>
2.22229

>  <SCORE.INTRA.POLAR>
0

>  <SCORE.INTRA.POLAR.0>
0

>  <SCORE.INTRA.REPUL>
0

>  <SCORE.INTRA.REPUL.0>
0

>  <SCORE.INTRA.SOLV>
0.111801

>  <SCORE.INTRA.SOLV.lig_0>
-31.87

>  <SCORE.INTRA.VDW>
0.0635033

>  <SCORE.INTRA.VDW.0>
-0.575321

>  <SCORE.INTRA.norm>
0.144883

>  <SCORE.RESTR>
0.00629211

>  <SCORE.RESTR.CAVITY>
0.00629211

>  <SCORE.RESTR.norm>
0.000629211

>  <SCORE.SYSTEM>
0

>  <SCORE.SYSTEM.CONST>
0

>  <SCORE.SYSTEM.DIHEDRAL>
0

>  <SCORE.SYSTEM.SOLV>
0

>  <SCORE.SYSTEM.norm>
0

>  <SCORE.heavy>
10

>  <SCORE.norm>
-0.0741418

>  <RMSD>
53.005

$$$$
ligand
 OpenBabel11021811463D
libRbt.so/2013.1/901 2013/11/27
 10  9  0  0  0  0  0  0  0  0999 V2000
   -6.0519    7.0740   -5.5682 N   0  0  0  0  0  0  0  0  0  0  0  0
   -6.3071    8.2081   -6.4478 C   0  0  2  0  0  0  0  0  0  0  0  0
   -5.2294    8.3157   -7.5252 C   0  0  0  0  0  0  0  0  0  0  0  0
   -4.1574    7.7205   -7.3817 O   0  0  0  0  0  0  0  0  0  0  0  0
   -6.4074    9.5077   -5.6432 C   0  0  0  0  0  0  0  0  0  0  0  0
   -7.6815    9.6149   -4.8139 C   0  0  0  0  0  0  0  0  0  0  0  0
   -8.9227    9.7965   -5.6831 C   0  0  0  0  0  0  0  0  0  0  0  0
  -10.1987    9.9477   -4.8400 C   0  0  0  0  0  0  0  0  0  0  0  0
  -11.4477   10.1630   -5.6370 N   0  0  0  0  0  0  0  0  0  0  0  0
   -5.4091    8.9778   -8.5558 O   0  0  0  0  0  0  0  0  0  0  0  0
  2  1  1  1  0  0  0
  2  3  1  0  0  0  0
  2  5  1  0  0  0  0
  3  4  1  0  0  0  0
  3 10  1  0  0  0  0
  5  6  1  0  0  0  0
  6  7  1  0  0  0  0
  7  8  1  0  0  0  0
  8  9  1  0  0  0  0
M  END
>  <CHROM.1>
-17.22365718,-71.69199366,-69.54535476,-178.22462697,178.57776888,-7.14793991
8.93034881,-6.23843638,-0.22403339,-0.44677488,1.92625329

>  <Name>
ligand

>  <RI>
0

>  <Rbt.Current_Directory>
/home/itssahil/PROJECTS/Mol_Feturizer/New_Systems/rnas/3D0U

>  <Rbt.Executable>
rbdock ($Id: //depot/dev/client3/rdock/2013.1/src/exe/rbdock.cxx#4 $)

>  <Rbt.Library>
libRbt.so (2013.1, Build901 2013/11/27)

>  <Rbt.Parameter_File>
/export/apps/rDock/src/rDock_2013.1_src/data/scripts/dock_solv.prm

>  <Rbt.Receptor>
prm/blind_docking_20.prm

>  <SCORE>
-3.87816

>  <SCORE.INTER>
-3.69841

>  <SCORE.INTER.CONST>
1

>  <SCORE.INTER.POLAR>
0

>  <SCORE.INTER.ROT>
5

>  <SCORE.INTER.SOLV>
4.35487

>  <SCORE.INTER.VDW>
-10.8506

>  <SCORE.INTER.norm>
-0.369841

>  <SCORE.INTRA>
-0.179745

>  <SCORE.INTRA.DIHEDRAL>
0.22209

>  <SCORE.INTRA.DIHEDRAL.0>
2.22229

>  <SCORE.INTRA.POLAR>
0

>  <SCORE.INTRA.POLAR.0>
0

>  <SCORE.INTRA.REPUL>
0

>  <SCORE.INTRA.REPUL.0>
0

>  <SCORE.INTRA.SOLV>
-0.447612

>  <SCORE.INTRA.SOLV.lig_0>
-31.87

>  <SCORE.INTRA.VDW>
-0.0669843

>  <SCORE.INTRA.VDW.0>
-0.575321

>  <SCORE.INTRA.norm>
-0.0179745

>  <SCORE.RESTR>
0

>  <SCORE.RESTR.CAVITY>
0

>  <SCORE.RESTR.norm>
0

>  <SCORE.SYSTEM>
0

>  <SCORE.SYSTEM.CONST>
0

>  <SCORE.SYSTEM.DIHEDRAL>
0

>  <SCORE.SYSTEM.SOLV>
0

>  <SCORE.SYSTEM.norm>
0

>  <SCORE.heavy>
10

>  <SCORE.norm>
-0.387816

>  <RMSD>
53.222

$$$$
ligand
 OpenBabel11021811463D
libRbt.so/2013.1/901 2013/11/27
 10  9  0  0  0  0  0  0  0  0999 V2000
   -6.7320    7.9759   -4.7798 N   0  0  0  0  0  0  0  0  0  0  0  0
   -7.0733    8.3335   -6.1512 C   0  0  2  0  0  0  0  0  0  0  0  0
   -5.8221    8.7047   -6.9452 C   0  0  0  0  0  0  0  0  0  0  0  0
   -4.7055    8.4511   -6.4839 O   0  0  0  0  0  0  0  0  0  0  0  0
   -8.0954    9.4740   -6.1768 C   0  0  0  0  0  0  0  0  0  0  0  0
   -9.4987    9.0448   -5.7657 C   0  0  0  0  0  0  0  0  0  0  0  0
  -10.5308   10.1443   -5.9999 C   0  0  0  0  0  0  0  0  0  0  0  0
  -10.2830   11.3671   -5.1026 C   0  0  0  0  0  0  0  0  0  0  0  0
  -11.2954   12.4604   -5.2493 N   0  0  0  0  0  0  0  0  0  0  0  0
   -5.8980    9.2448   -8.0567 O   0  0  0  0  0  0  0  0  0  0  0  0
  2  1  1  1  0  0  0
  2  3  1  0  0  0  0
  2  5  1  0  0  0  0
  3  4  1  0  0  0  0
  3 10  1  0  0  0  0
  5  6  1  0  0  0  0
  6  7  1  0  0  0  0
  7  8  1  0  0  0  0
  8  9  1  0  0  0  0
M  END
>  <CHROM.1>
12.71574605,-73.09044510,-171.46240841,-65.43210139,-177.78161015,-7.95545581
9.52119276,-6.09187206,0.17919264,-0.50908098,2.36310571

>  <Name>
ligand

>  <RI>
0

>  <Rbt.Current_Directory>
/home/itssahil/PROJECTS/Mol_Feturizer/New_Systems/rnas/3D0U

>  <Rbt.Executable>
rbdock ($Id: //depot/dev/client3/rdock/2013.1/src/exe/rbdock.cxx#4 $)

>  <Rbt.Library>
libRbt.so (2013.1, Build901 2013/11/27)

>  <Rbt.Parameter_File>
/export/apps/rDock/src/rDock_2013.1_src/data/scripts/dock_solv.prm

>  <Rbt.Receptor>
prm/blind_docking_20.prm

>  <SCORE>
-1.4922

>  <SCORE.INTER>
-1.97448

>  <SCORE.INTER.CONST>
1

>  <SCORE.INTER.POLAR>
0

>  <SCORE.INTER.ROT>
5

>  <SCORE.INTER.SOLV>
3.9831

>  <SCORE.INTER.VDW>
-9.57735

>  <SCORE.INTER.norm>
-0.197448

>  <SCORE.INTRA>
0.482277

>  <SCORE.INTRA.DIHEDRAL>
0.356114

>  <SCORE.INTRA.DIHEDRAL.0>
2.22229

>  <SCORE.INTRA.POLAR>
0

>  <SCORE.INTRA.POLAR.0>
0

>  <SCORE.INTRA.REPUL>
0

>  <SCORE.INTRA.REPUL.0>
0

>  <SCORE.INTRA.SOLV>
-0.710606

>  <SCORE.INTRA.SOLV.lig_0>
-31.87

>  <SCORE.INTRA.VDW>
0.659523

>  <SCORE.INTRA.VDW.0>
-0.575321

>  <SCORE.INTRA.norm>
0.0482277

>  <SCORE.RESTR>
0

>  <SCORE.RESTR.CAVITY>
0

>  <SCORE.RESTR.norm>
0

>  <SCORE.SYSTEM>
0

>  <SCORE.SYSTEM.CONST>
0

>  <SCORE.SYSTEM.DIHEDRAL>
0

>  <SCORE.SYSTEM.SOLV>
0

>  <SCORE.SYSTEM.norm>
0

>  <SCORE.heavy>
10

>  <SCORE.norm>
-0.14922

>  <RMSD>
53.257

$$$$
ligand
 OpenBabel11021811463D
libRbt.so/2013.1/901 2013/11/27
 10  9  0  0  0  0  0  0  0  0999 V2000
  -12.6161   10.8421   -5.8288 N   0  0  0  0  0  0  0  0  0  0  0  0
  -11.2667   11.0202   -5.3069 C   0  0  2  0  0  0  0  0  0  0  0  0
  -10.8398   12.4848   -5.3879 C   0  0  0  0  0  0  0  0  0  0  0  0
   -9.9588   12.9093   -4.6345 O   0  0  0  0  0  0  0  0  0  0  0  0
  -10.2742   10.1196   -6.0487 C   0  0  0  0  0  0  0  0  0  0  0  0
   -8.8674   10.1507   -5.4636 C   0  0  0  0  0  0  0  0  0  0  0  0
   -7.9122    9.2209   -6.2068 C   0  0  0  0  0  0  0  0  0  0  0  0
   -6.4752    9.3249   -5.6720 C   0  0  0  0  0  0  0  0  0  0  0  0
   -5.4948    8.4153   -6.3451 N   0  0  0  0  0  0  0  0  0  0  0  0
  -11.3475   13.2620   -6.2071 O   0  0  0  0  0  0  0  0  0  0  0  0
  2  1  1  6  0  0  0
  2  3  1  0  0  0  0
  2  5  1  0  0  0  0
  3  4  1  0  0  0  0
  3 10  1  0  0  0  0
  5  6  1  0  0  0  0
  6  7  1  0  0  0  0
  7  8  1  0  0  0  0
  8  9  1  0  0  0  0
M  END
>  <CHROM.1>
156.56210575,-174.25380886,178.77925759,176.25831116,178.87283188,-9.50583918
10.81374126,-5.70943492,2.55300164,-0.06776317,0.23904147

>  <Name>
ligand

>  <RI>
0

>  <Rbt.Current_Directory>
/home/itssahil/PROJECTS/Mol_Feturizer/New_Systems/rnas/3D0U

>  <Rbt.Executable>
rbdock ($Id: //depot/dev/client3/rdock/2013.1/src/exe/rbdock.cxx#4 $)

>  <Rbt.Library>
libRbt.so (2013.1, Build901 2013/11/27)

>  <Rbt.Parameter_File>
/export/apps/rDock/src/rDock_2013.1_src/data/scripts/dock_solv.prm

>  <Rbt.Receptor>
prm/blind_docking_40.prm

>  <SCORE>
-1.7212

>  <SCORE.INTER>
-0.490557

>  <SCORE.INTER.CONST>
1

>  <SCORE.INTER.POLAR>
0

>  <SCORE.INTER.ROT>
5

>  <SCORE.INTER.SOLV>
6.70539

>  <SCORE.INTER.VDW>
-9.4955

>  <SCORE.INTER.norm>
-0.0490557

>  <SCORE.INTRA>
-1.23064

>  <SCORE.INTRA.DIHEDRAL>
-0.584991

>  <SCORE.INTRA.DIHEDRAL.0>
2.22229

>  <SCORE.INTRA.POLAR>
0

>  <SCORE.INTRA.POLAR.0>
0

>  <SCORE.INTRA.REPUL>
0

>  <SCORE.INTRA.REPUL.0>
0

>  <SCORE.INTRA.SOLV>
-1.60328

>  <SCORE.INTRA.SOLV.lig_0>
-31.87

>  <SCORE.INTRA.VDW>
-0.136505

>  <SCORE.INTRA.VDW.0>
-0.575321

>  <SCORE.INTRA.norm>
-0.123064

>  <SCORE.RESTR>
0

>  <SCORE.RESTR.CAVITY>
0

>  <SCORE.RESTR.norm>
0

>  <SCORE.SYSTEM>
0

>  <SCORE.SYSTEM.CONST>
0

>  <SCORE.SYSTEM.DIHEDRAL>
0

>  <SCORE.SYSTEM.SOLV>
0

>  <SCORE.SYSTEM.norm>
0

>  <SCORE.heavy>
10

>  <SCORE.norm>
-0.17212

>  <RMSD>
53.269

$$$$
ligand
 OpenBabel11021811463D
libRbt.so/2013.1/901 2013/11/27
 10  9  0  0  0  0  0  0  0  0999 V2000
   -8.0513    8.0662   -4.8929 N   0  0  0  0  0  0  0  0  0  0  0  0
   -8.0383    8.8660   -6.1116 C   0  0  2  0  0  0  0  0  0  0  0  0
   -6.6083    9.2198   -6.5162 C   0  0  0  0  0  0  0  0  0  0  0  0
   -5.8007    9.5855   -5.6571 O   0  0  0  0  0  0  0  0  0  0  0  0
   -8.8867   10.1299   -5.9408 C   0  0  0  0  0  0  0  0  0  0  0  0
  -10.3836    9.8839   -6.0857 C   0  0  0  0  0  0  0  0  0  0  0  0
  -11.2040   11.1435   -5.8229 C   0  0  0  0  0  0  0  0  0  0  0  0
  -11.1417   11.5741   -4.3489 C   0  0  0  0  0  0  0  0  0  0  0  0
  -11.9383   12.7999   -4.0258 N   0  0  0  0  0  0  0  0  0  0  0  0
   -6.2289    9.1344   -7.6916 O   0  0  0  0  0  0  0  0  0  0  0  0
  2  1  1  1  0  0  0
  2  3  1  0  0  0  0
  2  5  1  0  0  0  0
  3  4  1  0  0  0  0
  3 10  1  0  0  0  0
  5  6  1  0  0  0  0
  6  7  1  0  0  0  0
  7  8  1  0  0  0  0
  8  9  1  0  0  0  0
M  END
>  <CHROM.1>
-43.24910191,-79.25327470,176.37692908,-68.25178656,-179.49592714,-8.78656825
10.04128903,-5.72228379,-0.50377003,-0.30232684,1.06188961

>  <Name>
ligand

>  <RI>
0

>  <Rbt.Current_Directory>
/home/itssahil/PROJECTS/Mol_Feturizer/New_Systems/rnas/3D0U

>  <Rbt.Executable>
rbdock ($Id: //depot/dev/client3/rdock/2013.1/src/exe/rbdock.cxx#4 $)

>  <Rbt.Library>
libRbt.so (2013.1, Build901 2013/11/27)

>  <Rbt.Parameter_File>
/export/apps/rDock/src/rDock_2013.1_src/data/scripts/dock_solv.prm

>  <Rbt.Receptor>
prm/blind_docking_20.prm

>  <SCORE>
-1.41237

>  <SCORE.INTER>
-1.67215

>  <SCORE.INTER.CONST>
1

>  <SCORE.INTER.POLAR>
0

>  <SCORE.INTER.ROT>
5

>  <SCORE.INTER.SOLV>
1.66724

>  <SCORE.INTER.VDW>
-8.60385

>  <SCORE.INTER.norm>
-0.167215

>  <SCORE.INTRA>
0.259778

>  <SCORE.INTRA.DIHEDRAL>
0.997647

>  <SCORE.INTRA.DIHEDRAL.0>
2.22229

>  <SCORE.INTRA.POLAR>
0

>  <SCORE.INTRA.POLAR.0>
0

>  <SCORE.INTRA.REPUL>
0

>  <SCORE.INTRA.REPUL.0>
0

>  <SCORE.INTRA.SOLV>
-0.750548

>  <SCORE.INTRA.SOLV.lig_0>
-31.87

>  <SCORE.INTRA.VDW>
0.136228

>  <SCORE.INTRA.VDW.0>
-0.575321

>  <SCORE.INTRA.norm>
0.0259778

>  <SCORE.RESTR>
0

>  <SCORE.RESTR.CAVITY>
0

>  <SCORE.RESTR.norm>
0

>  <SCORE.SYSTEM>
0

>  <SCORE.SYSTEM.CONST>
0

>  <SCORE.SYSTEM.DIHEDRAL>
0

>  <SCORE.SYSTEM.SOLV>
0

>  <SCORE.SYSTEM.norm>
0

>  <SCORE.heavy>
10

>  <SCORE.norm>
-0.141237

>  <RMSD>
53.280

$$$$
ligand
 OpenBabel11021811463D
libRbt.so/2013.1/901 2013/11/27
 10  9  0  0  0  0  0  0  0  0999 V2000
   -6.0548    7.0829   -5.5714 N   0  0  0  0  0  0  0  0  0  0  0  0
   -6.3289    8.1892   -6.4804 C   0  0  2  0  0  0  0  0  0  0  0  0
   -5.2267    8.3177   -7.5304 C   0  0  0  0  0  0  0  0  0  0  0  0
   -4.1354    7.7716   -7.3439 O   0  0  0  0  0  0  0  0  0  0  0  0
   -6.5009    9.4991   -5.7053 C   0  0  0  0  0  0  0  0  0  0  0  0
   -7.7935    9.5667   -4.9010 C   0  0  0  0  0  0  0  0  0  0  0  0
   -9.0253    9.6756   -5.7954 C   0  0  0  0  0  0  0  0  0  0  0  0
  -10.3017    9.9536   -4.9859 C   0  0  0  0  0  0  0  0  0  0  0  0
  -11.5337   10.1443   -5.8151 N   0  0  0  0  0  0  0  0  0  0  0  0
   -5.4048    8.9482   -8.5810 O   0  0  0  0  0  0  0  0  0  0  0  0
  2  1  1  1  0  0  0
  2  3  1  0  0  0  0
  2  5  1  0  0  0  0
  3  4  1  0  0  0  0
  3 10  1  0  0  0  0
  5  6  1  0  0  0  0
  6  7  1  0  0  0  0
  7  8  1  0  0  0  0
  8  9  1  0  0  0  0
M  END
>  <CHROM.1>
-17.49312115,-71.07284231,-69.55424043,-171.47783147,176.87765942,-7.19641203
8.91316005,-6.29894081,-0.20105800,-0.42444002,1.92387180

>  <Name>
ligand

>  <RI>
0

>  <Rbt.Current_Directory>
/home/itssahil/PROJECTS/Mol_Feturizer/New_Systems/rnas/3D0U

>  <Rbt.Executable>
rbdock ($Id: //depot/dev/client3/rdock/2013.1/src/exe/rbdock.cxx#4 $)

>  <Rbt.Library>
libRbt.so (2013.1, Build901 2013/11/27)

>  <Rbt.Parameter_File>
/export/apps/rDock/src/rDock_2013.1_src/data/scripts/dock_solv.prm

>  <Rbt.Receptor>
prm/blind_docking_20.prm

>  <SCORE>
-3.75524

>  <SCORE.INTER>
-3.71763

>  <SCORE.INTER.CONST>
1

>  <SCORE.INTER.POLAR>
0

>  <SCORE.INTER.ROT>
5

>  <SCORE.INTER.SOLV>
4.71023

>  <SCORE.INTER.VDW>
-10.9818

>  <SCORE.INTER.norm>
-0.371763

>  <SCORE.INTRA>
-0.0376011

>  <SCORE.INTRA.DIHEDRAL>
0.48486

>  <SCORE.INTRA.DIHEDRAL.0>
2.22229

>  <SCORE.INTRA.POLAR>
0

>  <SCORE.INTRA.POLAR.0>
0

>  <SCORE.INTRA.REPUL>
0

>  <SCORE.INTRA.REPUL.0>
0

>  <SCORE.INTRA.SOLV>
-0.437279

>  <SCORE.INTRA.SOLV.lig_0>
-31.87

>  <SCORE.INTRA.VDW>
-0.0613914

>  <SCORE.INTRA.VDW.0>
-0.575321

>  <SCORE.INTRA.norm>
-0.00376011

>  <SCORE.RESTR>
0

>  <SCORE.RESTR.CAVITY>
0

>  <SCORE.RESTR.norm>
0

>  <SCORE.SYSTEM>
0

>  <SCORE.SYSTEM.CONST>
0

>  <SCORE.SYSTEM.DIHEDRAL>
0

>  <SCORE.SYSTEM.SOLV>
0

>  <SCORE.SYSTEM.norm>
0

>  <SCORE.heavy>
10

>  <SCORE.norm>
-0.375524

>  <RMSD>
53.293

$$$$
ligand
 OpenBabel11021811463D
libRbt.so/2013.1/901 2013/11/27
 10  9  0  0  0  0  0  0  0  0999 V2000
  -10.2780   10.4044   -3.7894 N   0  0  0  0  0  0  0  0  0  0  0  0
   -9.4441   10.5084   -4.9805 C   0  0  2  0  0  0  0  0  0  0  0  0
  -10.2588   10.2293   -6.2423 C   0  0  0  0  0  0  0  0  0  0  0  0
  -10.4429    9.0648   -6.6082 O   0  0  0  0  0  0  0  0  0  0  0  0
   -8.2418    9.5641   -4.8860 C   0  0  0  0  0  0  0  0  0  0  0  0
   -7.2875    9.6712   -6.0693 C   0  0  0  0  0  0  0  0  0  0  0  0
   -6.1503    8.6568   -5.9879 C   0  0  0  0  0  0  0  0  0  0  0  0
   -5.2681    8.6787   -7.2460 C   0  0  0  0  0  0  0  0  0  0  0  0
   -4.1987    7.6311   -7.2730 N   0  0  0  0  0  0  0  0  0  0  0  0
  -10.7572   11.1476   -6.9066 O   0  0  0  0  0  0  0  0  0  0  0  0
  2  1  1  1  0  0  0
  2  3  1  0  0  0  0
  2  5  1  0  0  0  0
  3  4  1  0  0  0  0
  3 10  1  0  0  0  0
  5  6  1  0  0  0  0
  6  7  1  0  0  0  0
  7  8  1  0  0  0  0
  8  9  1  0  0  0  0
M  END
>  <CHROM.1>
-83.78531637,-177.13255501,-176.36541820,174.60431128,-175.42789101,-8.26162101
9.55475386,-6.02406110,-2.87860077,0.34749790,-1.70452640

>  <Name>
ligand

>  <RI>
0

>  <Rbt.Current_Directory>
/home/itssahil/PROJECTS/Mol_Feturizer/New_Systems/rnas/3D0U

>  <Rbt.Executable>
rbdock ($Id: //depot/dev/client3/rdock/2013.1/src/exe/rbdock.cxx#4 $)

>  <Rbt.Library>
libRbt.so (2013.1, Build901 2013/11/27)

>  <Rbt.Parameter_File>
/export/apps/rDock/src/rDock_2013.1_src/data/scripts/dock_solv.prm

>  <Rbt.Receptor>
prm/blind_docking_20.prm

>  <SCORE>
-3.8082

>  <SCORE.INTER>
-2.90749

>  <SCORE.INTER.CONST>
1

>  <SCORE.INTER.POLAR>
0

>  <SCORE.INTER.ROT>
5

>  <SCORE.INTER.SOLV>
5.76733

>  <SCORE.INTER.VDW>
-10.7941

>  <SCORE.INTER.norm>
-0.290749

>  <SCORE.INTRA>
-0.900711

>  <SCORE.INTRA.DIHEDRAL>
-0.492266

>  <SCORE.INTRA.DIHEDRAL.0>
2.22229

>  <SCORE.INTRA.POLAR>
0

>  <SCORE.INTRA.POLAR.0>
0

>  <SCORE.INTRA.REPUL>
0

>  <SCORE.INTRA.REPUL.0>
0

>  <SCORE.INTRA.SOLV>
-1.61639

>  <SCORE.INTRA.SOLV.lig_0>
-31.87

>  <SCORE.INTRA.VDW>
0.153617

>  <SCORE.INTRA.VDW.0>
-0.575321

>  <SCORE.INTRA.norm>
-0.0900711

>  <SCORE.RESTR>
0

>  <SCORE.RESTR.CAVITY>
0

>  <SCORE.RESTR.norm>
0

>  <SCORE.SYSTEM>
0

>  <SCORE.SYSTEM.CONST>
0

>  <SCORE.SYSTEM.DIHEDRAL>
0

>  <SCORE.SYSTEM.SOLV>
0

>  <SCORE.SYSTEM.norm>
0

>  <SCORE.heavy>
10

>  <SCORE.norm>
-0.38082

>  <RMSD>
53.303

$$$$
ligand
 OpenBabel11021811463D
libRbt.so/2013.1/901 2013/11/27
 10  9  0  0  0  0  0  0  0  0999 V2000
   -6.2506    7.3604   -5.4855 N   0  0  0  0  0  0  0  0  0  0  0  0
   -6.5580    8.1735   -6.6558 C   0  0  2  0  0  0  0  0  0  0  0  0
   -5.2922    8.4802   -7.4542 C   0  0  0  0  0  0  0  0  0  0  0  0
   -5.3783    9.0558   -8.5428 O   0  0  0  0  0  0  0  0  0  0  0  0
   -7.2731    9.4651   -6.2472 C   0  0  0  0  0  0  0  0  0  0  0  0
   -8.7327    9.2582   -5.8612 C   0  0  0  0  0  0  0  0  0  0  0  0
   -9.4390   10.5740   -5.5470 C   0  0  0  0  0  0  0  0  0  0  0  0
  -10.9384   10.3724   -5.2770 C   0  0  0  0  0  0  0  0  0  0  0  0
  -11.6808   11.6252   -4.9292 N   0  0  0  0  0  0  0  0  0  0  0  0
   -4.1698    8.1779   -7.0281 O   0  0  0  0  0  0  0  0  0  0  0  0
  2  1  1  1  0  0  0
  2  3  1  0  0  0  0
  2  5  1  0  0  0  0
  3  4  1  0  0  0  0
  3 10  1  0  0  0  0
  5  6  1  0  0  0  0
  6  7  1  0  0  0  0
  7  8  1  0  0  0  0
  8  9  1  0  0  0  0
M  END
>  <CHROM.1>
173.45155084,-75.19205177,-176.31076861,175.07292058,178.57991688,-7.53249699
9.25516857,-6.32559491,0.02966837,-0.51929022,2.31089661

>  <Name>
ligand

>  <RI>
0

>  <Rbt.Current_Directory>
/home/itssahil/PROJECTS/Mol_Feturizer/New_Systems/rnas/3D0U

>  <Rbt.Executable>
rbdock ($Id: //depot/dev/client3/rdock/2013.1/src/exe/rbdock.cxx#4 $)

>  <Rbt.Library>
libRbt.so (2013.1, Build901 2013/11/27)

>  <Rbt.Parameter_File>
/export/apps/rDock/src/rDock_2013.1_src/data/scripts/dock_solv.prm

>  <Rbt.Receptor>
prm/blind_docking_20.prm

>  <SCORE>
-3.49687

>  <SCORE.INTER>
-3.04357

>  <SCORE.INTER.CONST>
1

>  <SCORE.INTER.POLAR>
0

>  <SCORE.INTER.ROT>
5

>  <SCORE.INTER.SOLV>
2.8921

>  <SCORE.INTER.VDW>
-9.92641

>  <SCORE.INTER.norm>
-0.304357

>  <SCORE.INTRA>
-0.453304

>  <SCORE.INTRA.DIHEDRAL>
0.303729

>  <SCORE.INTRA.DIHEDRAL.0>
2.22229

>  <SCORE.INTRA.POLAR>
0

>  <SCORE.INTRA.POLAR.0>
0

>  <SCORE.INTRA.REPUL>
0

>  <SCORE.INTRA.REPUL.0>
0

>  <SCORE.INTRA.SOLV>
-0.924021

>  <SCORE.INTRA.SOLV.lig_0>
-31.87

>  <SCORE.INTRA.VDW>
-0.143158

>  <SCORE.INTRA.VDW.0>
-0.575321

>  <SCORE.INTRA.norm>
-0.0453304

>  <SCORE.RESTR>
0

>  <SCORE.RESTR.CAVITY>
0

>  <SCORE.RESTR.norm>
0

>  <SCORE.SYSTEM>
0

>  <SCORE.SYSTEM.CONST>
0

>  <SCORE.SYSTEM.DIHEDRAL>
0

>  <SCORE.SYSTEM.SOLV>
0

>  <SCORE.SYSTEM.norm>
0

>  <SCORE.heavy>
10

>  <SCORE.norm>
-0.349687

>  <RMSD>
53.311

$$$$
ligand
 OpenBabel11021811463D
libRbt.so/2013.1/901 2013/11/27
 10  9  0  0  0  0  0  0  0  0999 V2000
   -9.0199    7.7765   -5.7867 N   0  0  0  0  0  0  0  0  0  0  0  0
   -8.6616    9.0871   -6.3149 C   0  0  2  0  0  0  0  0  0  0  0  0
   -7.1777    9.3762   -6.0952 C   0  0  0  0  0  0  0  0  0  0  0  0
   -6.7557    9.5830   -4.9537 O   0  0  0  0  0  0  0  0  0  0  0  0
   -9.5305   10.1816   -5.6877 C   0  0  0  0  0  0  0  0  0  0  0  0
  -10.9806   10.1518   -6.1552 C   0  0  0  0  0  0  0  0  0  0  0  0
  -11.8618   11.1156   -5.3655 C   0  0  0  0  0  0  0  0  0  0  0  0
  -11.4382   12.5791   -5.5662 C   0  0  0  0  0  0  0  0  0  0  0  0
  -12.1786   13.5625   -4.7139 N   0  0  0  0  0  0  0  0  0  0  0  0
   -6.3758    9.3940   -7.0383 O   0  0  0  0  0  0  0  0  0  0  0  0
  2  1  1  1  0  0  0
  2  3  1  0  0  0  0
  2  5  1  0  0  0  0
  3  4  1  0  0  0  0
  3 10  1  0  0  0  0
  5  6  1  0  0  0  0
  6  7  1  0  0  0  0
  7  8  1  0  0  0  0
  8  9  1  0  0  0  0
M  END
>  <CHROM.1>
-69.97614335,-70.77011191,171.62258867,63.52391096,-174.32301061,-9.35548282
10.27992289,-5.76565789,0.63262759,-0.03949998,-2.93801489

>  <Name>
ligand

>  <RI>
0

>  <Rbt.Current_Directory>
/home/itssahil/PROJECTS/Mol_Feturizer/New_Systems/rnas/3D0U

>  <Rbt.Executable>
rbdock ($Id: //depot/dev/client3/rdock/2013.1/src/exe/rbdock.cxx#4 $)

>  <Rbt.Library>
libRbt.so (2013.1, Build901 2013/11/27)

>  <Rbt.Parameter_File>
/export/apps/rDock/src/rDock_2013.1_src/data/scripts/dock_solv.prm

>  <Rbt.Receptor>
prm/blind_docking_20.prm

>  <SCORE>
-1.19965

>  <SCORE.INTER>
-1.51453

>  <SCORE.INTER.CONST>
1

>  <SCORE.INTER.POLAR>
0

>  <SCORE.INTER.ROT>
5

>  <SCORE.INTER.SOLV>
2.15686

>  <SCORE.INTER.VDW>
-8.66197

>  <SCORE.INTER.norm>
-0.151453

>  <SCORE.INTRA>
0.314878

>  <SCORE.INTRA.DIHEDRAL>
0.168085

>  <SCORE.INTRA.DIHEDRAL.0>
2.22229

>  <SCORE.INTRA.POLAR>
0

>  <SCORE.INTRA.POLAR.0>
0

>  <SCORE.INTRA.REPUL>
0

>  <SCORE.INTRA.REPUL.0>
0

>  <SCORE.INTRA.SOLV>
-0.558928

>  <SCORE.INTRA.SOLV.lig_0>
-31.87

>  <SCORE.INTRA.VDW>
0.5103

>  <SCORE.INTRA.VDW.0>
-0.575321

>  <SCORE.INTRA.norm>
0.0314878

>  <SCORE.RESTR>
0

>  <SCORE.RESTR.CAVITY>
0

>  <SCORE.RESTR.norm>
0

>  <SCORE.SYSTEM>
0

>  <SCORE.SYSTEM.CONST>
0

>  <SCORE.SYSTEM.DIHEDRAL>
0

>  <SCORE.SYSTEM.SOLV>
0

>  <SCORE.SYSTEM.norm>
0

>  <SCORE.heavy>
10

>  <SCORE.norm>
-0.119965

>  <RMSD>
53.506

$$$$
ligand
 OpenBabel11021811463D
libRbt.so/2013.1/901 2013/11/27
 10  9  0  0  0  0  0  0  0  0999 V2000
  -10.2752   11.6229   -5.0508 N   0  0  0  0  0  0  0  0  0  0  0  0
   -9.5399   10.6079   -5.7953 C   0  0  2  0  0  0  0  0  0  0  0  0
  -10.4614    9.8672   -6.7628 C   0  0  0  0  0  0  0  0  0  0  0  0
  -11.6805   10.0550   -6.7137 O   0  0  0  0  0  0  0  0  0  0  0  0
   -8.8483    9.6292   -4.8414 C   0  0  0  0  0  0  0  0  0  0  0  0
   -7.9023    8.6609   -5.5413 C   0  0  0  0  0  0  0  0  0  0  0  0
   -6.6848    9.3674   -6.1306 C   0  0  0  0  0  0  0  0  0  0  0  0
   -5.7472    8.3897   -6.8565 C   0  0  0  0  0  0  0  0  0  0  0  0
   -4.5001    9.0139   -7.4013 N   0  0  0  0  0  0  0  0  0  0  0  0
  -10.0133    9.0871   -7.6134 O   0  0  0  0  0  0  0  0  0  0  0  0
  2  1  1  1  0  0  0
  2  3  1  0  0  0  0
  2  5  1  0  0  0  0
  3  4  1  0  0  0  0
  3 10  1  0  0  0  0
  5  6  1  0  0  0  0
  6  7  1  0  0  0  0
  7  8  1  0  0  0  0
  8  9  1  0  0  0  0
M  END
>  <CHROM.1>
-8.64034330,-171.81761231,67.28790137,-178.99223934,-177.25436428,-8.59536599
9.61790951,-6.29205556,-2.90354453,0.18611639,-2.11961326

>  <Name>
ligand

>  <RI>
0

>  <Rbt.Current_Directory>
/home/itssahil/PROJECTS/Mol_Feturizer/New_Systems/rnas/3D0U

>  <Rbt.Executable>
rbdock ($Id: //depot/dev/client3/rdock/2013.1/src/exe/rbdock.cxx#4 $)

>  <Rbt.Library>
libRbt.so (2013.1, Build901 2013/11/27)

>  <Rbt.Parameter_File>
/export/apps/rDock/src/rDock_2013.1_src/data/scripts/dock_solv.prm

>  <Rbt.Receptor>
prm/blind_docking_20.prm

>  <SCORE>
-2.64466

>  <SCORE.INTER>
-2.02517

>  <SCORE.INTER.CONST>
1

>  <SCORE.INTER.POLAR>
0

>  <SCORE.INTER.ROT>
5

>  <SCORE.INTER.SOLV>
10.6939

>  <SCORE.INTER.VDW>
-11.8481

>  <SCORE.INTER.norm>
-0.202517

>  <SCORE.INTRA>
-0.619486

>  <SCORE.INTRA.DIHEDRAL>
-0.228813

>  <SCORE.INTRA.DIHEDRAL.0>
2.22229

>  <SCORE.INTRA.POLAR>
0

>  <SCORE.INTRA.POLAR.0>
0

>  <SCORE.INTRA.REPUL>
0

>  <SCORE.INTRA.REPUL.0>
0

>  <SCORE.INTRA.SOLV>
-1.31573

>  <SCORE.INTRA.SOLV.lig_0>
-31.87

>  <SCORE.INTRA.VDW>
0.152785

>  <SCORE.INTRA.VDW.0>
-0.575321

>  <SCORE.INTRA.norm>
-0.0619486

>  <SCORE.RESTR>
0

>  <SCORE.RESTR.CAVITY>
0

>  <SCORE.RESTR.norm>
0

>  <SCORE.SYSTEM>
0

>  <SCORE.SYSTEM.CONST>
0

>  <SCORE.SYSTEM.DIHEDRAL>
0

>  <SCORE.SYSTEM.SOLV>
0

>  <SCORE.SYSTEM.norm>
0

>  <SCORE.heavy>
10

>  <SCORE.norm>
-0.264466

>  <RMSD>
53.597

$$$$
ligand
 OpenBabel11021811463D
libRbt.so/2013.1/901 2013/11/27
 10  9  0  0  0  0  0  0  0  0999 V2000
  -10.2972   10.4955   -4.3140 N   0  0  0  0  0  0  0  0  0  0  0  0
   -9.4904   10.3328   -5.5173 C   0  0  2  0  0  0  0  0  0  0  0  0
  -10.3341    9.7913   -6.6701 C   0  0  0  0  0  0  0  0  0  0  0  0
  -11.5102   10.1471   -6.7890 O   0  0  0  0  0  0  0  0  0  0  0  0
   -8.2878    9.4238   -5.2460 C   0  0  0  0  0  0  0  0  0  0  0  0
   -7.2333    9.4630   -6.3455 C   0  0  0  0  0  0  0  0  0  0  0  0
   -6.1115    8.4565   -6.1060 C   0  0  0  0  0  0  0  0  0  0  0  0
   -5.1153    8.4157   -7.2755 C   0  0  0  0  0  0  0  0  0  0  0  0
   -4.0385    7.3845   -7.1384 N   0  0  0  0  0  0  0  0  0  0  0  0
   -9.8615    9.0093   -7.5055 O   0  0  0  0  0  0  0  0  0  0  0  0
  2  1  1  1  0  0  0
  2  3  1  0  0  0  0
  2  5  1  0  0  0  0
  3  4  1  0  0  0  0
  3 10  1  0  0  0  0
  5  6  1  0  0  0  0
  6  7  1  0  0  0  0
  7  8  1  0  0  0  0
  8  9  1  0  0  0  0
M  END
>  <CHROM.1>
35.86560643,-166.63134226,-174.89264889,175.13412890,-176.33034753,-8.25788043
9.28547596,-6.31493782,-2.88683573,0.27254357,-1.94379851

>  <Name>
ligand

>  <RI>
0

>  <Rbt.Current_Directory>
/home/itssahil/PROJECTS/Mol_Feturizer/New_Systems/rnas/3D0U

>  <Rbt.Executable>
rbdock ($Id: //depot/dev/client3/rdock/2013.1/src/exe/rbdock.cxx#4 $)

>  <Rbt.Library>
libRbt.so (2013.1, Build901 2013/11/27)

>  <Rbt.Parameter_File>
/export/apps/rDock/src/rDock_2013.1_src/data/scripts/dock_solv.prm

>  <Rbt.Receptor>
prm/blind_docking_20.prm

>  <SCORE>
-4.00762

>  <SCORE.INTER>
-3.84705

>  <SCORE.INTER.CONST>
1

>  <SCORE.INTER.POLAR>
0

>  <SCORE.INTER.ROT>
5

>  <SCORE.INTER.SOLV>
5.33157

>  <SCORE.INTER.VDW>
-11.2752

>  <SCORE.INTER.norm>
-0.384705

>  <SCORE.INTRA>
-0.16057

>  <SCORE.INTRA.DIHEDRAL>
0.143898

>  <SCORE.INTRA.DIHEDRAL.0>
2.22229

>  <SCORE.INTRA.POLAR>
0

>  <SCORE.INTRA.POLAR.0>
0

>  <SCORE.INTRA.REPUL>
0

>  <SCORE.INTRA.REPUL.0>
0

>  <SCORE.INTRA.SOLV>
-1.59038

>  <SCORE.INTRA.SOLV.lig_0>
-31.87

>  <SCORE.INTRA.VDW>
0.562674

>  <SCORE.INTRA.VDW.0>
-0.575321

>  <SCORE.INTRA.norm>
-0.016057

>  <SCORE.RESTR>
0

>  <SCORE.RESTR.CAVITY>
0

>  <SCORE.RESTR.norm>
0

>  <SCORE.SYSTEM>
0

>  <SCORE.SYSTEM.CONST>
0

>  <SCORE.SYSTEM.DIHEDRAL>
0

>  <SCORE.SYSTEM.SOLV>
0

>  <SCORE.SYSTEM.norm>
0

>  <SCORE.heavy>
10

>  <SCORE.norm>
-0.400762

>  <RMSD>
53.613

$$$$
ligand
 OpenBabel11021811463D
libRbt.so/2013.1/901 2013/11/27
 10  9  0  0  0  0  0  0  0  0999 V2000
  -10.2928   10.8865   -4.6038 N   0  0  0  0  0  0  0  0  0  0  0  0
   -9.4728   10.5024   -5.7463 C   0  0  2  0  0  0  0  0  0  0  0  0
  -10.3080    9.7702   -6.7951 C   0  0  0  0  0  0  0  0  0  0  0  0
   -9.7666    8.9618   -7.5549 O   0  0  0  0  0  0  0  0  0  0  0  0
   -8.2844    9.6460   -5.2985 C   0  0  0  0  0  0  0  0  0  0  0  0
   -7.2215    9.4667   -6.3758 C   0  0  0  0  0  0  0  0  0  0  0  0
   -5.9799    8.7527   -5.8489 C   0  0  0  0  0  0  0  0  0  0  0  0
   -4.9176    8.5623   -6.9430 C   0  0  0  0  0  0  0  0  0  0  0  0
   -5.3042    7.6006   -8.0234 N   0  0  0  0  0  0  0  0  0  0  0  0
  -11.5280    9.9559   -6.8952 O   0  0  0  0  0  0  0  0  0  0  0  0
  2  1  1  1  0  0  0
  2  3  1  0  0  0  0
  2  5  1  0  0  0  0
  3  4  1  0  0  0  0
  3 10  1  0  0  0  0
  5  6  1  0  0  0  0
  6  7  1  0  0  0  0
  7  8  1  0  0  0  0
  8  9  1  0  0  0  0
M  END
>  <CHROM.1>
-153.29793241,-167.14821419,173.18950429,179.43083028,-68.14657500,-8.33623838
9.39897037,-6.43056614,-2.84160362,0.22044181,-2.08975463

>  <Name>
ligand

>  <RI>
0

>  <Rbt.Current_Directory>
/home/itssahil/PROJECTS/Mol_Feturizer/New_Systems/rnas/3D0U

>  <Rbt.Executable>
rbdock ($Id: //depot/dev/client3/rdock/2013.1/src/exe/rbdock.cxx#4 $)

>  <Rbt.Library>
libRbt.so (2013.1, Build901 2013/11/27)

>  <Rbt.Parameter_File>
/export/apps/rDock/src/rDock_2013.1_src/data/scripts/dock_solv.prm

>  <Rbt.Receptor>
prm/blind_docking_20.prm

>  <SCORE>
-2.77733

>  <SCORE.INTER>
-3.28455

>  <SCORE.INTER.CONST>
1

>  <SCORE.INTER.POLAR>
0

>  <SCORE.INTER.ROT>
5

>  <SCORE.INTER.SOLV>
8.76091

>  <SCORE.INTER.VDW>
-12.0433

>  <SCORE.INTER.norm>
-0.328455

>  <SCORE.INTRA>
0.507223

>  <SCORE.INTRA.DIHEDRAL>
0.338259

>  <SCORE.INTRA.DIHEDRAL.0>
2.22229

>  <SCORE.INTRA.POLAR>
0

>  <SCORE.INTRA.POLAR.0>
0

>  <SCORE.INTRA.REPUL>
0

>  <SCORE.INTRA.REPUL.0>
0

>  <SCORE.INTRA.SOLV>
-0.81516

>  <SCORE.INTRA.SOLV.lig_0>
-31.87

>  <SCORE.INTRA.VDW>
0.745674

>  <SCORE.INTRA.VDW.0>
-0.575321

>  <SCORE.INTRA.norm>
0.0507223

>  <SCORE.RESTR>
0

>  <SCORE.RESTR.CAVITY>
0

>  <SCORE.RESTR.norm>
0

>  <SCORE.SYSTEM>
0

>  <SCORE.SYSTEM.CONST>
0

>  <SCORE.SYSTEM.DIHEDRAL>
0

>  <SCORE.SYSTEM.SOLV>
0

>  <SCORE.SYSTEM.norm>
0

>  <SCORE.heavy>
10

>  <SCORE.norm>
-0.277733

>  <RMSD>
53.644

$$$$
ligand
 OpenBabel11021811463D
libRbt.so/2013.1/901 2013/11/27
 10  9  0  0  0  0  0  0  0  0999 V2000
  -10.2975   10.4658   -4.2915 N   0  0  0  0  0  0  0  0  0  0  0  0
   -9.5071   10.3111   -5.5066 C   0  0  2  0  0  0  0  0  0  0  0  0
  -10.3721    9.8018   -6.6583 C   0  0  0  0  0  0  0  0  0  0  0  0
   -9.8815    9.0545   -7.5096 O   0  0  0  0  0  0  0  0  0  0  0  0
   -8.3155    9.3796   -5.2645 C   0  0  0  0  0  0  0  0  0  0  0  0
   -7.2546    9.4500   -6.3563 C   0  0  0  0  0  0  0  0  0  0  0  0
   -6.1498    8.4166   -6.1556 C   0  0  0  0  0  0  0  0  0  0  0  0
   -5.1502    8.4084   -7.3228 C   0  0  0  0  0  0  0  0  0  0  0  0
   -4.0843    7.3619   -7.2203 N   0  0  0  0  0  0  0  0  0  0  0  0
  -11.5677   10.1089   -6.7540 O   0  0  0  0  0  0  0  0  0  0  0  0
  2  1  1  1  0  0  0
  2  3  1  0  0  0  0
  2  5  1  0  0  0  0
  3  4  1  0  0  0  0
  3 10  1  0  0  0  0
  5  6  1  0  0  0  0
  6  7  1  0  0  0  0
  7  8  1  0  0  0  0
  8  9  1  0  0  0  0
M  END
>  <CHROM.1>
-146.65634808,-165.02526799,-174.49213067,174.98021298,-176.76836592,-8.28816186
9.26961375,-6.32788577,-2.87781789,0.27244627,-1.92991417

>  <Name>
ligand

>  <RI>
0

>  <Rbt.Current_Directory>
/home/itssahil/PROJECTS/Mol_Feturizer/New_Systems/rnas/3D0U

>  <Rbt.Executable>
rbdock ($Id: //depot/dev/client3/rdock/2013.1/src/exe/rbdock.cxx#4 $)

>  <Rbt.Library>
libRbt.so (2013.1, Build901 2013/11/27)

>  <Rbt.Parameter_File>
/export/apps/rDock/src/rDock_2013.1_src/data/scripts/dock_solv.prm

>  <Rbt.Receptor>
prm/blind_docking_20.prm

>  <SCORE>
-3.76268

>  <SCORE.INTER>
-3.8375

>  <SCORE.INTER.CONST>
1

>  <SCORE.INTER.POLAR>
0

>  <SCORE.INTER.ROT>
5

>  <SCORE.INTER.SOLV>
5.25858

>  <SCORE.INTER.VDW>
-11.2445

>  <SCORE.INTER.norm>
-0.38375

>  <SCORE.INTRA>
0.0748221

>  <SCORE.INTRA.DIHEDRAL>
0.380434

>  <SCORE.INTRA.DIHEDRAL.0>
2.22229

>  <SCORE.INTRA.POLAR>
0

>  <SCORE.INTRA.POLAR.0>
0

>  <SCORE.INTRA.REPUL>
0

>  <SCORE.INTRA.REPUL.0>
0

>  <SCORE.INTRA.SOLV>
-1.59139

>  <SCORE.INTRA.SOLV.lig_0>
-31.87

>  <SCORE.INTRA.VDW>
0.680302

>  <SCORE.INTRA.VDW.0>
-0.575321

>  <SCORE.INTRA.norm>
0.00748221

>  <SCORE.RESTR>
0

>  <SCORE.RESTR.CAVITY>
0

>  <SCORE.RESTR.norm>
0

>  <SCORE.SYSTEM>
0

>  <SCORE.SYSTEM.CONST>
0

>  <SCORE.SYSTEM.DIHEDRAL>
0

>  <SCORE.SYSTEM.SOLV>
0

>  <SCORE.SYSTEM.norm>
0

>  <SCORE.heavy>
10

>  <SCORE.norm>
-0.376268

>  <RMSD>
53.647

$$$$
ligand
 OpenBabel11021811463D
libRbt.so/2013.1/901 2013/11/27
 10  9  0  0  0  0  0  0  0  0999 V2000
   -9.5765    8.9967   -3.9788 N   0  0  0  0  0  0  0  0  0  0  0  0
   -8.9729    9.4697   -5.2186 C   0  0  2  0  0  0  0  0  0  0  0  0
   -9.8574    9.1342   -6.4181 C   0  0  0  0  0  0  0  0  0  0  0  0
  -10.3270   10.0443   -7.1074 O   0  0  0  0  0  0  0  0  0  0  0  0
   -7.5676    8.8866   -5.3956 C   0  0  0  0  0  0  0  0  0  0  0  0
   -6.7916    9.5054   -6.5520 C   0  0  0  0  0  0  0  0  0  0  0  0
   -5.3757    8.9469   -6.6618 C   0  0  0  0  0  0  0  0  0  0  0  0
   -5.3672    7.4936   -7.1613 C   0  0  0  0  0  0  0  0  0  0  0  0
   -4.0021    6.8998   -7.3212 N   0  0  0  0  0  0  0  0  0  0  0  0
  -10.1066    7.9623   -6.7302 O   0  0  0  0  0  0  0  0  0  0  0  0
  2  1  1  1  0  0  0
  2  3  1  0  0  0  0
  2  5  1  0  0  0  0
  3  4  1  0  0  0  0
  3 10  1  0  0  0  0
  5  6  1  0  0  0  0
  6  7  1  0  0  0  0
  7  8  1  0  0  0  0
  8  9  1  0  0  0  0
M  END
>  <CHROM.1>
117.89800685,-170.87772609,177.46457647,71.22215709,178.61197597,-7.82457029
8.73072174,-6.27830025,-2.87439672,0.22312813,-1.82115009

>  <Name>
ligand

>  <RI>
0

>  <Rbt.Current_Directory>
/home/itssahil/PROJECTS/Mol_Feturizer/New_Systems/rnas/3D0U

>  <Rbt.Executable>
rbdock ($Id: //depot/dev/client3/rdock/2013.1/src/exe/rbdock.cxx#4 $)

>  <Rbt.Library>
libRbt.so (2013.1, Build901 2013/11/27)

>  <Rbt.Parameter_File>
/export/apps/rDock/src/rDock_2013.1_src/data/scripts/dock_solv.prm

>  <Rbt.Receptor>
prm/blind_docking_20.prm

>  <SCORE>
-3.75524

>  <SCORE.INTER>
-3.1775

>  <SCORE.INTER.CONST>
1

>  <SCORE.INTER.POLAR>
0

>  <SCORE.INTER.ROT>
5

>  <SCORE.INTER.SOLV>
3.80449

>  <SCORE.INTER.VDW>
-10.3198

>  <SCORE.INTER.norm>
-0.31775

>  <SCORE.INTRA>
-0.577984

>  <SCORE.INTRA.DIHEDRAL>
0.116781

>  <SCORE.INTRA.DIHEDRAL.0>
2.22229

>  <SCORE.INTRA.POLAR>
0

>  <SCORE.INTRA.POLAR.0>
0

>  <SCORE.INTRA.REPUL>
0

>  <SCORE.INTRA.REPUL.0>
0

>  <SCORE.INTRA.SOLV>
-1.45241

>  <SCORE.INTRA.SOLV.lig_0>
-31.87

>  <SCORE.INTRA.VDW>
0.0898327

>  <SCORE.INTRA.VDW.0>
-0.575321

>  <SCORE.INTRA.norm>
-0.0577984

>  <SCORE.RESTR>
0.000243292

>  <SCORE.RESTR.CAVITY>
0.000243292

>  <SCORE.RESTR.norm>
2.43292e-05

>  <SCORE.SYSTEM>
0

>  <SCORE.SYSTEM.CONST>
0

>  <SCORE.SYSTEM.DIHEDRAL>
0

>  <SCORE.SYSTEM.SOLV>
0

>  <SCORE.SYSTEM.norm>
0

>  <SCORE.heavy>
10

>  <SCORE.norm>
-0.375524

>  <RMSD>
53.655

$$$$
ligand
 OpenBabel11021811463D
libRbt.so/2013.1/901 2013/11/27
 10  9  0  0  0  0  0  0  0  0999 V2000
   -7.9768    7.7377   -5.2640 N   0  0  0  0  0  0  0  0  0  0  0  0
   -7.8968    8.7719   -6.2883 C   0  0  2  0  0  0  0  0  0  0  0  0
   -6.4430    9.1435   -6.5753 C   0  0  0  0  0  0  0  0  0  0  0  0
   -6.0116    9.0843   -7.7304 O   0  0  0  0  0  0  0  0  0  0  0  0
   -8.7058   10.0062   -5.8782 C   0  0  0  0  0  0  0  0  0  0  0  0
  -10.2080    9.8446   -6.0772 C   0  0  0  0  0  0  0  0  0  0  0  0
  -10.9751   11.1219   -5.7468 C   0  0  0  0  0  0  0  0  0  0  0  0
  -12.4859   10.9626   -5.9791 C   0  0  0  0  0  0  0  0  0  0  0  0
  -13.2951   12.1813   -5.6607 N   0  0  0  0  0  0  0  0  0  0  0  0
   -5.6821    9.5208   -5.6745 O   0  0  0  0  0  0  0  0  0  0  0  0
  2  1  1  1  0  0  0
  2  3  1  0  0  0  0
  2  5  1  0  0  0  0
  3  4  1  0  0  0  0
  3 10  1  0  0  0  0
  5  6  1  0  0  0  0
  6  7  1  0  0  0  0
  7  8  1  0  0  0  0
  8  9  1  0  0  0  0
M  END
>  <CHROM.1>
125.02716077,-77.90614289,-176.22230646,178.73423937,179.51136783,-8.92400828
9.84001728,-6.09643418,0.27858650,-0.28562018,2.62759764

>  <Name>
ligand

>  <RI>
0

>  <Rbt.Current_Directory>
/home/itssahil/PROJECTS/Mol_Feturizer/New_Systems/rnas/3D0U

>  <Rbt.Executable>
rbdock ($Id: //depot/dev/client3/rdock/2013.1/src/exe/rbdock.cxx#4 $)

>  <Rbt.Library>
libRbt.so (2013.1, Build901 2013/11/27)

>  <Rbt.Parameter_File>
/export/apps/rDock/src/rDock_2013.1_src/data/scripts/dock_solv.prm

>  <Rbt.Receptor>
prm/blind_docking_20.prm

>  <SCORE>
-3.59199

>  <SCORE.INTER>
-3.02496

>  <SCORE.INTER.CONST>
1

>  <SCORE.INTER.POLAR>
0

>  <SCORE.INTER.ROT>
5

>  <SCORE.INTER.SOLV>
2.87567

>  <SCORE.INTER.VDW>
-9.90853

>  <SCORE.INTER.norm>
-0.302496

>  <SCORE.INTRA>
-0.567031

>  <SCORE.INTRA.DIHEDRAL>
0.527929

>  <SCORE.INTRA.DIHEDRAL.0>
2.22229

>  <SCORE.INTRA.POLAR>
0

>  <SCORE.INTRA.POLAR.0>
0

>  <SCORE.INTRA.REPUL>
0

>  <SCORE.INTRA.REPUL.0>
0

>  <SCORE.INTRA.SOLV>
-0.979352

>  <SCORE.INTRA.SOLV.lig_0>
-31.87

>  <SCORE.INTRA.VDW>
-0.341319

>  <SCORE.INTRA.VDW.0>
-0.575321

>  <SCORE.INTRA.norm>
-0.0567031

>  <SCORE.RESTR>
0

>  <SCORE.RESTR.CAVITY>
0

>  <SCORE.RESTR.norm>
0

>  <SCORE.SYSTEM>
0

>  <SCORE.SYSTEM.CONST>
0

>  <SCORE.SYSTEM.DIHEDRAL>
0

>  <SCORE.SYSTEM.SOLV>
0

>  <SCORE.SYSTEM.norm>
0

>  <SCORE.heavy>
10

>  <SCORE.norm>
-0.359199

>  <RMSD>
53.680

$$$$
ligand
 OpenBabel11021811463D
libRbt.so/2013.1/901 2013/11/27
 10  9  0  0  0  0  0  0  0  0999 V2000
   -7.9603    7.7337   -5.2531 N   0  0  0  0  0  0  0  0  0  0  0  0
   -7.8952    8.7601   -6.2863 C   0  0  2  0  0  0  0  0  0  0  0  0
   -6.4460    9.1352   -6.5913 C   0  0  0  0  0  0  0  0  0  0  0  0
   -6.0273    9.0719   -7.7509 O   0  0  0  0  0  0  0  0  0  0  0  0
   -8.7050    9.9943   -5.8777 C   0  0  0  0  0  0  0  0  0  0  0  0
  -10.2082    9.8265   -6.0635 C   0  0  0  0  0  0  0  0  0  0  0  0
  -10.9774   11.1012   -5.7283 C   0  0  0  0  0  0  0  0  0  0  0  0
  -12.4907   10.9318   -5.9358 C   0  0  0  0  0  0  0  0  0  0  0  0
  -13.3022   12.1470   -5.6096 N   0  0  0  0  0  0  0  0  0  0  0  0
   -5.6763    9.5194   -5.7009 O   0  0  0  0  0  0  0  0  0  0  0  0
  2  1  1  1  0  0  0
  2  3  1  0  0  0  0
  2  5  1  0  0  0  0
  3  4  1  0  0  0  0
  3 10  1  0  0  0  0
  5  6  1  0  0  0  0
  6  7  1  0  0  0  0
  7  8  1  0  0  0  0
  8  9  1  0  0  0  0
M  END
>  <CHROM.1>
125.21936840,-78.06896027,-176.51357490,179.22120332,179.41945415,-8.92495878
9.82475907,-6.08920202,0.26801128,-0.29388095,2.61712013

>  <Name>
ligand

>  <RI>
0

>  <Rbt.Current_Directory>
/home/itssahil/PROJECTS/Mol_Feturizer/New_Systems/rnas/3D0U

>  <Rbt.Executable>
rbdock ($Id: //depot/dev/client3/rdock/2013.1/src/exe/rbdock.cxx#4 $)

>  <Rbt.Library>
libRbt.so (2013.1, Build901 2013/11/27)

>  <Rbt.Parameter_File>
/export/apps/rDock/src/rDock_2013.1_src/data/scripts/dock_solv.prm

>  <Rbt.Receptor>
prm/blind_docking_20.prm

>  <SCORE>
-3.58551

>  <SCORE.INTER>
-3.02019

>  <SCORE.INTER.CONST>
1

>  <SCORE.INTER.POLAR>
0

>  <SCORE.INTER.ROT>
5

>  <SCORE.INTER.SOLV>
2.84621

>  <SCORE.INTER.VDW>
-9.89553

>  <SCORE.INTER.norm>
-0.302019

>  <SCORE.INTRA>
-0.565322

>  <SCORE.INTRA.DIHEDRAL>
0.535179

>  <SCORE.INTRA.DIHEDRAL.0>
2.22229

>  <SCORE.INTRA.POLAR>
0

>  <SCORE.INTRA.POLAR.0>
0

>  <SCORE.INTRA.REPUL>
0

>  <SCORE.INTRA.REPUL.0>
0

>  <SCORE.INTRA.SOLV>
-0.980089

>  <SCORE.INTRA.SOLV.lig_0>
-31.87

>  <SCORE.INTRA.VDW>
-0.342867

>  <SCORE.INTRA.VDW.0>
-0.575321

>  <SCORE.INTRA.norm>
-0.0565322

>  <SCORE.RESTR>
0

>  <SCORE.RESTR.CAVITY>
0

>  <SCORE.RESTR.norm>
0

>  <SCORE.SYSTEM>
0

>  <SCORE.SYSTEM.CONST>
0

>  <SCORE.SYSTEM.DIHEDRAL>
0

>  <SCORE.SYSTEM.SOLV>
0

>  <SCORE.SYSTEM.norm>
0

>  <SCORE.heavy>
10

>  <SCORE.norm>
-0.358551

>  <RMSD>
53.687

$$$$
ligand
 OpenBabel11021811463D
libRbt.so/2013.1/901 2013/11/27
 10  9  0  0  0  0  0  0  0  0999 V2000
   -7.9454    7.7445   -5.2249 N   0  0  0  0  0  0  0  0  0  0  0  0
   -7.8866    8.7579   -6.2711 C   0  0  2  0  0  0  0  0  0  0  0  0
   -6.4398    9.1385   -6.5807 C   0  0  0  0  0  0  0  0  0  0  0  0
   -6.0285    9.0901   -7.7436 O   0  0  0  0  0  0  0  0  0  0  0  0
   -8.7045    9.9921   -5.8783 C   0  0  0  0  0  0  0  0  0  0  0  0
  -10.2074    9.8078   -6.0500 C   0  0  0  0  0  0  0  0  0  0  0  0
  -10.9836   11.0884   -5.7562 C   0  0  0  0  0  0  0  0  0  0  0  0
  -12.4970   10.9010   -5.9472 C   0  0  0  0  0  0  0  0  0  0  0  0
  -13.3160   12.1185   -5.6494 N   0  0  0  0  0  0  0  0  0  0  0  0
   -5.6649    9.5124   -5.6904 O   0  0  0  0  0  0  0  0  0  0  0  0
  2  1  1  1  0  0  0
  2  3  1  0  0  0  0
  2  5  1  0  0  0  0
  3  4  1  0  0  0  0
  3 10  1  0  0  0  0
  5  6  1  0  0  0  0
  6  7  1  0  0  0  0
  7  8  1  0  0  0  0
  8  9  1  0  0  0  0
M  END
>  <CHROM.1>
126.74497964,-77.53546028,-175.47890026,179.31978391,178.95854732,-8.92348737
9.81793258,-6.08865190,0.25819285,-0.29317985,2.58660250

>  <Name>
ligand

>  <RI>
0

>  <Rbt.Current_Directory>
/home/itssahil/PROJECTS/Mol_Feturizer/New_Systems/rnas/3D0U

>  <Rbt.Executable>
rbdock ($Id: //depot/dev/client3/rdock/2013.1/src/exe/rbdock.cxx#4 $)

>  <Rbt.Library>
libRbt.so (2013.1, Build901 2013/11/27)

>  <Rbt.Parameter_File>
/export/apps/rDock/src/rDock_2013.1_src/data/scripts/dock_solv.prm

>  <Rbt.Receptor>
prm/blind_docking_20.prm

>  <SCORE>
-3.58416

>  <SCORE.INTER>
-3.00151

>  <SCORE.INTER.CONST>
1

>  <SCORE.INTER.POLAR>
0

>  <SCORE.INTER.ROT>
5

>  <SCORE.INTER.SOLV>
2.93291

>  <SCORE.INTER.VDW>
-9.91198

>  <SCORE.INTER.norm>
-0.300151

>  <SCORE.INTRA>
-0.582647

>  <SCORE.INTRA.DIHEDRAL>
0.503827

>  <SCORE.INTRA.DIHEDRAL.0>
2.22229

>  <SCORE.INTRA.POLAR>
0

>  <SCORE.INTRA.POLAR.0>
0

>  <SCORE.INTRA.REPUL>
0

>  <SCORE.INTRA.REPUL.0>
0

>  <SCORE.INTRA.SOLV>
-0.977005

>  <SCORE.INTRA.SOLV.lig_0>
-31.87

>  <SCORE.INTRA.VDW>
-0.346058

>  <SCORE.INTRA.VDW.0>
-0.575321

>  <SCORE.INTRA.norm>
-0.0582647

>  <SCORE.RESTR>
0

>  <SCORE.RESTR.CAVITY>
0

>  <SCORE.RESTR.norm>
0

>  <SCORE.SYSTEM>
0

>  <SCORE.SYSTEM.CONST>
0

>  <SCORE.SYSTEM.DIHEDRAL>
0

>  <SCORE.SYSTEM.SOLV>
0

>  <SCORE.SYSTEM.norm>
0

>  <SCORE.heavy>
10

>  <SCORE.norm>
-0.358416

>  <RMSD>
53.690

$$$$
ligand
 OpenBabel11021811463D
libRbt.so/2013.1/901 2013/11/27
 10  9  0  0  0  0  0  0  0  0999 V2000
   -7.9106    7.7251   -5.2474 N   0  0  0  0  0  0  0  0  0  0  0  0
   -7.8713    8.7341   -6.2989 C   0  0  2  0  0  0  0  0  0  0  0  0
   -6.4304    9.1086   -6.6414 C   0  0  0  0  0  0  0  0  0  0  0  0
   -5.6517    9.4370   -5.7415 O   0  0  0  0  0  0  0  0  0  0  0  0
   -8.6764    9.9725   -5.8936 C   0  0  0  0  0  0  0  0  0  0  0  0
  -10.1841    9.7860   -6.0134 C   0  0  0  0  0  0  0  0  0  0  0  0
  -10.9496   11.0770   -5.7370 C   0  0  0  0  0  0  0  0  0  0  0  0
  -12.4655   10.8963   -5.9128 C   0  0  0  0  0  0  0  0  0  0  0  0
  -13.2742   12.1242   -5.6302 N   0  0  0  0  0  0  0  0  0  0  0  0
   -6.0135    9.0768   -7.8068 O   0  0  0  0  0  0  0  0  0  0  0  0
  2  1  1  1  0  0  0
  2  3  1  0  0  0  0
  2  5  1  0  0  0  0
  3  4  1  0  0  0  0
  3 10  1  0  0  0  0
  5  6  1  0  0  0  0
  6  7  1  0  0  0  0
  7  8  1  0  0  0  0
  8  9  1  0  0  0  0
M  END
>  <CHROM.1>
-51.76002378,-76.73629666,-174.30395965,177.77337069,178.92923558,-8.89885754
9.79606629,-6.10224699,0.24563897,-0.31530858,2.55222087

>  <Name>
ligand

>  <RI>
0

>  <Rbt.Current_Directory>
/home/itssahil/PROJECTS/Mol_Feturizer/New_Systems/rnas/3D0U

>  <Rbt.Executable>
rbdock ($Id: //depot/dev/client3/rdock/2013.1/src/exe/rbdock.cxx#4 $)

>  <Rbt.Library>
libRbt.so (2013.1, Build901 2013/11/27)

>  <Rbt.Parameter_File>
/export/apps/rDock/src/rDock_2013.1_src/data/scripts/dock_solv.prm

>  <Rbt.Receptor>
prm/blind_docking_20.prm

>  <SCORE>
-3.57301

>  <SCORE.INTER>
-3.01933

>  <SCORE.INTER.CONST>
1

>  <SCORE.INTER.POLAR>
0

>  <SCORE.INTER.ROT>
5

>  <SCORE.INTER.SOLV>
2.82651

>  <SCORE.INTER.VDW>
-9.88839

>  <SCORE.INTER.norm>
-0.301933

>  <SCORE.INTRA>
-0.553678

>  <SCORE.INTRA.DIHEDRAL>
0.497592

>  <SCORE.INTRA.DIHEDRAL.0>
2.22229

>  <SCORE.INTRA.POLAR>
0

>  <SCORE.INTRA.POLAR.0>
0

>  <SCORE.INTRA.REPUL>
0

>  <SCORE.INTRA.REPUL.0>
0

>  <SCORE.INTRA.SOLV>
-0.9583

>  <SCORE.INTRA.SOLV.lig_0>
-31.87

>  <SCORE.INTRA.VDW>
-0.323324

>  <SCORE.INTRA.VDW.0>
-0.575321

>  <SCORE.INTRA.norm>
-0.0553678

>  <SCORE.RESTR>
0

>  <SCORE.RESTR.CAVITY>
0

>  <SCORE.RESTR.norm>
0

>  <SCORE.SYSTEM>
0

>  <SCORE.SYSTEM.CONST>
0

>  <SCORE.SYSTEM.DIHEDRAL>
0

>  <SCORE.SYSTEM.SOLV>
0

>  <SCORE.SYSTEM.norm>
0

>  <SCORE.heavy>
10

>  <SCORE.norm>
-0.357301

>  <RMSD>
53.695

$$$$
ligand
 OpenBabel11021811463D
libRbt.so/2013.1/901 2013/11/27
 10  9  0  0  0  0  0  0  0  0999 V2000
   -8.2288    7.8976   -5.2567 N   0  0  0  0  0  0  0  0  0  0  0  0
   -8.0828    8.9695   -6.2339 C   0  0  2  0  0  0  0  0  0  0  0  0
   -6.6178    9.3765   -6.3819 C   0  0  0  0  0  0  0  0  0  0  0  0
   -6.0427    9.2149   -7.4621 O   0  0  0  0  0  0  0  0  0  0  0  0
   -8.9489   10.1740   -5.8524 C   0  0  0  0  0  0  0  0  0  0  0  0
  -10.4358    9.9622   -6.1103 C   0  0  0  0  0  0  0  0  0  0  0  0
  -11.2575   11.2133   -5.8131 C   0  0  0  0  0  0  0  0  0  0  0  0
  -12.7570   10.9907   -6.0654 C   0  0  0  0  0  0  0  0  0  0  0  0
  -13.6218   12.1717   -5.7507 N   0  0  0  0  0  0  0  0  0  0  0  0
   -5.9894    9.8830   -5.4431 O   0  0  0  0  0  0  0  0  0  0  0  0
  2  1  1  1  0  0  0
  2  3  1  0  0  0  0
  2  5  1  0  0  0  0
  3  4  1  0  0  0  0
  3 10  1  0  0  0  0
  5  6  1  0  0  0  0
  6  7  1  0  0  0  0
  7  8  1  0  0  0  0
  8  9  1  0  0  0  0
M  END
>  <CHROM.1>
116.34097288,-74.54398197,-175.94536541,-179.59087716,178.21127523,-9.15362948
9.98907842,-6.04239079,0.30812003,-0.17803341,2.81556887

>  <Name>
ligand

>  <RI>
0

>  <Rbt.Current_Directory>
/home/itssahil/PROJECTS/Mol_Feturizer/New_Systems/rnas/3D0U

>  <Rbt.Executable>
rbdock ($Id: //depot/dev/client3/rdock/2013.1/src/exe/rbdock.cxx#4 $)

>  <Rbt.Library>
libRbt.so (2013.1, Build901 2013/11/27)

>  <Rbt.Parameter_File>
/export/apps/rDock/src/rDock_2013.1_src/data/scripts/dock_solv.prm

>  <Rbt.Receptor>
prm/blind_docking_20.prm

>  <SCORE>
-3.56704

>  <SCORE.INTER>
-2.90858

>  <SCORE.INTER.CONST>
1

>  <SCORE.INTER.POLAR>
0

>  <SCORE.INTER.ROT>
5

>  <SCORE.INTER.SOLV>
3.74897

>  <SCORE.INTER.VDW>
-10.122

>  <SCORE.INTER.norm>
-0.290858

>  <SCORE.INTRA>
-0.658458

>  <SCORE.INTRA.DIHEDRAL>
0.169026

>  <SCORE.INTRA.DIHEDRAL.0>
2.22229

>  <SCORE.INTRA.POLAR>
0

>  <SCORE.INTRA.POLAR.0>
0

>  <SCORE.INTRA.REPUL>
0

>  <SCORE.INTRA.REPUL.0>
0

>  <SCORE.INTRA.SOLV>
-0.938979

>  <SCORE.INTRA.SOLV.lig_0>
-31.87

>  <SCORE.INTRA.VDW>
-0.273481

>  <SCORE.INTRA.VDW.0>
-0.575321

>  <SCORE.INTRA.norm>
-0.0658458

>  <SCORE.RESTR>
0

>  <SCORE.RESTR.CAVITY>
0

>  <SCORE.RESTR.norm>
0

>  <SCORE.SYSTEM>
0

>  <SCORE.SYSTEM.CONST>
0

>  <SCORE.SYSTEM.DIHEDRAL>
0

>  <SCORE.SYSTEM.SOLV>
0

>  <SCORE.SYSTEM.norm>
0

>  <SCORE.heavy>
10

>  <SCORE.norm>
-0.356704

>  <RMSD>
53.710

$$$$
ligand
 OpenBabel11021811463D
libRbt.so/2013.1/901 2013/11/27
 10  9  0  0  0  0  0  0  0  0999 V2000
   -8.2771    7.8826   -5.3334 N   0  0  0  0  0  0  0  0  0  0  0  0
   -8.1025    8.9837   -6.2727 C   0  0  2  0  0  0  0  0  0  0  0  0
   -6.6312    9.3807   -6.3799 C   0  0  0  0  0  0  0  0  0  0  0  0
   -6.0289    9.2200   -7.4454 O   0  0  0  0  0  0  0  0  0  0  0  0
   -8.9645   10.1838   -5.8690 C   0  0  0  0  0  0  0  0  0  0  0  0
  -10.4514    9.9845   -6.1371 C   0  0  0  0  0  0  0  0  0  0  0  0
  -11.2668   11.2372   -5.8290 C   0  0  0  0  0  0  0  0  0  0  0  0
  -12.7640   11.0328   -6.1089 C   0  0  0  0  0  0  0  0  0  0  0  0
  -13.6254   12.2098   -5.7706 N   0  0  0  0  0  0  0  0  0  0  0  0
   -6.0242    9.8781   -5.4223 O   0  0  0  0  0  0  0  0  0  0  0  0
  2  1  1  1  0  0  0
  2  3  1  0  0  0  0
  2  5  1  0  0  0  0
  3  4  1  0  0  0  0
  3 10  1  0  0  0  0
  5  6  1  0  0  0  0
  6  7  1  0  0  0  0
  7  8  1  0  0  0  0
  8  9  1  0  0  0  0
M  END
>  <CHROM.1>
114.71819805,-73.44276979,-175.40861801,179.67242215,177.54159107,-9.16883024
10.00280712,-6.06135725,0.32467883,-0.15696829,2.87683918

>  <Name>
ligand

>  <RI>
0

>  <Rbt.Current_Directory>
/home/itssahil/PROJECTS/Mol_Feturizer/New_Systems/rnas/3D0U

>  <Rbt.Executable>
rbdock ($Id: //depot/dev/client3/rdock/2013.1/src/exe/rbdock.cxx#4 $)

>  <Rbt.Library>
libRbt.so (2013.1, Build901 2013/11/27)

>  <Rbt.Parameter_File>
/export/apps/rDock/src/rDock_2013.1_src/data/scripts/dock_solv.prm

>  <Rbt.Receptor>
prm/blind_docking_20.prm

>  <SCORE>
-3.52711

>  <SCORE.INTER>
-2.85324

>  <SCORE.INTER.CONST>
1

>  <SCORE.INTER.POLAR>
0

>  <SCORE.INTER.ROT>
5

>  <SCORE.INTER.SOLV>
3.81243

>  <SCORE.INTER.VDW>
-10.1063

>  <SCORE.INTER.norm>
-0.285324

>  <SCORE.INTRA>
-0.673865

>  <SCORE.INTRA.DIHEDRAL>
0.0879718

>  <SCORE.INTRA.DIHEDRAL.0>
2.22229

>  <SCORE.INTRA.POLAR>
0

>  <SCORE.INTRA.POLAR.0>
0

>  <SCORE.INTRA.REPUL>
0

>  <SCORE.INTRA.REPUL.0>
0

>  <SCORE.INTRA.SOLV>
-0.927085

>  <SCORE.INTRA.SOLV.lig_0>
-31.87

>  <SCORE.INTRA.VDW>
-0.254308

>  <SCORE.INTRA.VDW.0>
-0.575321

>  <SCORE.INTRA.norm>
-0.0673865

>  <SCORE.RESTR>
0

>  <SCORE.RESTR.CAVITY>
0

>  <SCORE.RESTR.norm>
0

>  <SCORE.SYSTEM>
0

>  <SCORE.SYSTEM.CONST>
0

>  <SCORE.SYSTEM.DIHEDRAL>
0

>  <SCORE.SYSTEM.SOLV>
0

>  <SCORE.SYSTEM.norm>
0

>  <SCORE.heavy>
10

>  <SCORE.norm>
-0.352711

>  <RMSD>
53.720

$$$$
ligand
 OpenBabel11021811463D
libRbt.so/2013.1/901 2013/11/27
 10  9  0  0  0  0  0  0  0  0999 V2000
   -9.8309   10.0528   -4.6446 N   0  0  0  0  0  0  0  0  0  0  0  0
   -9.3976   10.0237   -6.0362 C   0  0  2  0  0  0  0  0  0  0  0  0
  -10.5538    9.6427   -6.9592 C   0  0  0  0  0  0  0  0  0  0  0  0
  -11.6832   10.0927   -6.7450 O   0  0  0  0  0  0  0  0  0  0  0  0
   -8.2155    9.0665   -6.2171 C   0  0  0  0  0  0  0  0  0  0  0  0
   -6.9432    9.5295   -5.5176 C   0  0  0  0  0  0  0  0  0  0  0  0
   -5.7983    8.5342   -5.6830 C   0  0  0  0  0  0  0  0  0  0  0  0
   -5.3022    8.4636   -7.1359 C   0  0  0  0  0  0  0  0  0  0  0  0
   -4.1918    7.4861   -7.3662 N   0  0  0  0  0  0  0  0  0  0  0  0
  -10.3845    8.8996   -7.9349 O   0  0  0  0  0  0  0  0  0  0  0  0
  2  1  1  1  0  0  0
  2  3  1  0  0  0  0
  2  5  1  0  0  0  0
  3  4  1  0  0  0  0
  3 10  1  0  0  0  0
  5  6  1  0  0  0  0
  6  7  1  0  0  0  0
  7  8  1  0  0  0  0
  8  9  1  0  0  0  0
M  END
>  <CHROM.1>
39.89597572,-66.76104476,178.30504291,68.09378132,-179.07003130,-8.26730029
9.17546098,-6.44483064,-3.01487129,0.24512613,-1.97813112

>  <Name>
ligand

>  <RI>
0

>  <Rbt.Current_Directory>
/home/itssahil/PROJECTS/Mol_Feturizer/New_Systems/rnas/3D0U

>  <Rbt.Executable>
rbdock ($Id: //depot/dev/client3/rdock/2013.1/src/exe/rbdock.cxx#4 $)

>  <Rbt.Library>
libRbt.so (2013.1, Build901 2013/11/27)

>  <Rbt.Parameter_File>
/export/apps/rDock/src/rDock_2013.1_src/data/scripts/dock_solv.prm

>  <Rbt.Receptor>
prm/blind_docking_20.prm

>  <SCORE>
-4.8715

>  <SCORE.INTER>
-5.31864

>  <SCORE.INTER.CONST>
1

>  <SCORE.INTER.POLAR>
0

>  <SCORE.INTER.ROT>
5

>  <SCORE.INTER.SOLV>
5.7731

>  <SCORE.INTER.VDW>
-12.4035

>  <SCORE.INTER.norm>
-0.531864

>  <SCORE.INTRA>
0.447139

>  <SCORE.INTRA.DIHEDRAL>
-0.295273

>  <SCORE.INTRA.DIHEDRAL.0>
2.22229

>  <SCORE.INTRA.POLAR>
0

>  <SCORE.INTRA.POLAR.0>
0

>  <SCORE.INTRA.REPUL>
0

>  <SCORE.INTRA.REPUL.0>
0

>  <SCORE.INTRA.SOLV>
-0.593555

>  <SCORE.INTRA.SOLV.lig_0>
-31.87

>  <SCORE.INTRA.VDW>
0.891553

>  <SCORE.INTRA.VDW.0>
-0.575321

>  <SCORE.INTRA.norm>
0.0447139

>  <SCORE.RESTR>
0

>  <SCORE.RESTR.CAVITY>
0

>  <SCORE.RESTR.norm>
0

>  <SCORE.SYSTEM>
0

>  <SCORE.SYSTEM.CONST>
0

>  <SCORE.SYSTEM.DIHEDRAL>
0

>  <SCORE.SYSTEM.SOLV>
0

>  <SCORE.SYSTEM.norm>
0

>  <SCORE.heavy>
10

>  <SCORE.norm>
-0.48715

>  <RMSD>
53.755

$$$$
ligand
 OpenBabel11021811463D
libRbt.so/2013.1/901 2013/11/27
 10  9  0  0  0  0  0  0  0  0999 V2000
   -8.8708    7.9026   -5.7193 N   0  0  0  0  0  0  0  0  0  0  0  0
   -8.4947    9.2621   -6.0872 C   0  0  2  0  0  0  0  0  0  0  0  0
   -6.9895    9.3654   -6.3268 C   0  0  0  0  0  0  0  0  0  0  0  0
   -6.5325    9.1580   -7.4546 O   0  0  0  0  0  0  0  0  0  0  0  0
   -8.9475   10.2595   -5.0164 C   0  0  0  0  0  0  0  0  0  0  0  0
  -10.4584   10.3013   -4.8217 C   0  0  0  0  0  0  0  0  0  0  0  0
  -11.1727   10.9762   -5.9893 C   0  0  0  0  0  0  0  0  0  0  0  0
  -12.6871   11.0857   -5.7520 C   0  0  0  0  0  0  0  0  0  0  0  0
  -13.4177   11.9047   -6.7704 N   0  0  0  0  0  0  0  0  0  0  0  0
   -6.2089    9.6693   -5.4151 O   0  0  0  0  0  0  0  0  0  0  0  0
  2  1  1  1  0  0  0
  2  3  1  0  0  0  0
  2  5  1  0  0  0  0
  3  4  1  0  0  0  0
  3 10  1  0  0  0  0
  5  6  1  0  0  0  0
  6  7  1  0  0  0  0
  7  8  1  0  0  0  0
  8  9  1  0  0  0  0
M  END
>  <CHROM.1>
89.44061177,-61.84564666,-72.14839204,-176.81638498,171.94181655,-9.33381977
9.98651975,-5.94247979,0.06861667,-0.35267045,1.85208631

>  <Name>
ligand

>  <RI>
0

>  <Rbt.Current_Directory>
/home/itssahil/PROJECTS/Mol_Feturizer/New_Systems/rnas/3D0U

>  <Rbt.Executable>
rbdock ($Id: //depot/dev/client3/rdock/2013.1/src/exe/rbdock.cxx#4 $)

>  <Rbt.Library>
libRbt.so (2013.1, Build901 2013/11/27)

>  <Rbt.Parameter_File>
/export/apps/rDock/src/rDock_2013.1_src/data/scripts/dock_solv.prm

>  <Rbt.Receptor>
prm/blind_docking_40.prm

>  <SCORE>
-0.578763

>  <SCORE.INTER>
-0.791344

>  <SCORE.INTER.CONST>
1

>  <SCORE.INTER.POLAR>
0

>  <SCORE.INTER.ROT>
5

>  <SCORE.INTER.SOLV>
6.46654

>  <SCORE.INTER.VDW>
-9.61641

>  <SCORE.INTER.norm>
-0.0791344

>  <SCORE.INTRA>
0.212582

>  <SCORE.INTRA.DIHEDRAL>
0.185725

>  <SCORE.INTRA.DIHEDRAL.0>
2.22229

>  <SCORE.INTRA.POLAR>
0

>  <SCORE.INTRA.POLAR.0>
0

>  <SCORE.INTRA.REPUL>
0

>  <SCORE.INTRA.REPUL.0>
0

>  <SCORE.INTRA.SOLV>
-0.32336

>  <SCORE.INTRA.SOLV.lig_0>
-31.87

>  <SCORE.INTRA.VDW>
0.281399

>  <SCORE.INTRA.VDW.0>
-0.575321

>  <SCORE.INTRA.norm>
0.0212582

>  <SCORE.RESTR>
0

>  <SCORE.RESTR.CAVITY>
0

>  <SCORE.RESTR.norm>
0

>  <SCORE.SYSTEM>
0

>  <SCORE.SYSTEM.CONST>
0

>  <SCORE.SYSTEM.DIHEDRAL>
0

>  <SCORE.SYSTEM.SOLV>
0

>  <SCORE.SYSTEM.norm>
0

>  <SCORE.heavy>
10

>  <SCORE.norm>
-0.0578763

>  <RMSD>
53.756

$$$$
ligand
 OpenBabel11021811463D
libRbt.so/2013.1/901 2013/11/27
 10  9  0  0  0  0  0  0  0  0999 V2000
  -10.1755   11.1665   -4.7583 N   0  0  0  0  0  0  0  0  0  0  0  0
   -9.4985   10.3602   -5.7666 C   0  0  2  0  0  0  0  0  0  0  0  0
  -10.4934    9.8252   -6.7950 C   0  0  0  0  0  0  0  0  0  0  0  0
  -10.0924    9.1263   -7.7302 O   0  0  0  0  0  0  0  0  0  0  0  0
   -8.7191    9.2150   -5.1127 C   0  0  0  0  0  0  0  0  0  0  0  0
   -7.7335    8.5327   -6.0536 C   0  0  0  0  0  0  0  0  0  0  0  0
   -6.5690    9.4443   -6.4303 C   0  0  0  0  0  0  0  0  0  0  0  0
   -5.6246    8.7821   -7.4458 C   0  0  0  0  0  0  0  0  0  0  0  0
   -4.9433    7.5460   -6.9459 N   0  0  0  0  0  0  0  0  0  0  0  0
  -11.7052   10.0632   -6.7070 O   0  0  0  0  0  0  0  0  0  0  0  0
  2  1  1  1  0  0  0
  2  3  1  0  0  0  0
  2  5  1  0  0  0  0
  3  4  1  0  0  0  0
  3 10  1  0  0  0  0
  5  6  1  0  0  0  0
  6  7  1  0  0  0  0
  7  8  1  0  0  0  0
  8  9  1  0  0  0  0
M  END
>  <CHROM.1>
179.55097004,-166.48950631,68.18425849,-176.51115573,-62.94471183,-8.58684025
9.39865630,-6.39662370,-2.86806088,0.25271921,-2.07045473

>  <Name>
ligand

>  <RI>
0

>  <Rbt.Current_Directory>
/home/itssahil/PROJECTS/Mol_Feturizer/New_Systems/rnas/3D0U

>  <Rbt.Executable>
rbdock ($Id: //depot/dev/client3/rdock/2013.1/src/exe/rbdock.cxx#4 $)

>  <Rbt.Library>
libRbt.so (2013.1, Build901 2013/11/27)

>  <Rbt.Parameter_File>
/export/apps/rDock/src/rDock_2013.1_src/data/scripts/dock_solv.prm

>  <Rbt.Receptor>
prm/blind_docking_40.prm

>  <SCORE>
-3.57324

>  <SCORE.INTER>
-3.76386

>  <SCORE.INTER.CONST>
1

>  <SCORE.INTER.POLAR>
0

>  <SCORE.INTER.ROT>
5

>  <SCORE.INTER.SOLV>
6.26719

>  <SCORE.INTER.VDW>
-11.5316

>  <SCORE.INTER.norm>
-0.376386

>  <SCORE.INTRA>
0.190624

>  <SCORE.INTRA.DIHEDRAL>
0.287485

>  <SCORE.INTRA.DIHEDRAL.0>
2.22229

>  <SCORE.INTRA.POLAR>
0

>  <SCORE.INTRA.POLAR.0>
0

>  <SCORE.INTRA.REPUL>
0

>  <SCORE.INTRA.REPUL.0>
0

>  <SCORE.INTRA.SOLV>
-0.457085

>  <SCORE.INTRA.SOLV.lig_0>
-31.87

>  <SCORE.INTRA.VDW>
0.275424

>  <SCORE.INTRA.VDW.0>
-0.575321

>  <SCORE.INTRA.norm>
0.0190624

>  <SCORE.RESTR>
0

>  <SCORE.RESTR.CAVITY>
0

>  <SCORE.RESTR.norm>
0

>  <SCORE.SYSTEM>
0

>  <SCORE.SYSTEM.CONST>
0

>  <SCORE.SYSTEM.DIHEDRAL>
0

>  <SCORE.SYSTEM.SOLV>
0

>  <SCORE.SYSTEM.norm>
0

>  <SCORE.heavy>
10

>  <SCORE.norm>
-0.357324

>  <RMSD>
53.780

$$$$
ligand
 OpenBabel11021811463D
libRbt.so/2013.1/901 2013/11/27
 10  9  0  0  0  0  0  0  0  0999 V2000
   -9.5489    8.8801   -4.6197 N   0  0  0  0  0  0  0  0  0  0  0  0
   -9.2270    9.6724   -5.8004 C   0  0  2  0  0  0  0  0  0  0  0  0
  -10.4032    9.7011   -6.7748 C   0  0  0  0  0  0  0  0  0  0  0  0
  -11.2099   10.6347   -6.7348 O   0  0  0  0  0  0  0  0  0  0  0  0
   -7.9637    9.1400   -6.4838 C   0  0  0  0  0  0  0  0  0  0  0  0
   -6.6934    9.3546   -5.6700 C   0  0  0  0  0  0  0  0  0  0  0  0
   -5.4408    8.9316   -6.4322 C   0  0  0  0  0  0  0  0  0  0  0  0
   -5.3695    7.4083   -6.6223 C   0  0  0  0  0  0  0  0  0  0  0  0
   -4.1361    6.9266   -7.3211 N   0  0  0  0  0  0  0  0  0  0  0  0
  -10.5628    8.8127   -7.6222 O   0  0  0  0  0  0  0  0  0  0  0  0
  2  1  1  1  0  0  0
  2  3  1  0  0  0  0
  2  5  1  0  0  0  0
  3  4  1  0  0  0  0
  3 10  1  0  0  0  0
  5  6  1  0  0  0  0
  6  7  1  0  0  0  0
  7  8  1  0  0  0  0
  8  9  1  0  0  0  0
M  END
>  <CHROM.1>
94.47092951,-68.51540190,-174.70258380,-68.91159332,-177.88522681,-8.09310791
8.95227004,-6.42890033,-2.97117730,0.30341793,-2.00232903

>  <Name>
ligand

>  <RI>
0

>  <Rbt.Current_Directory>
/home/itssahil/PROJECTS/Mol_Feturizer/New_Systems/rnas/3D0U

>  <Rbt.Executable>
rbdock ($Id: //depot/dev/client3/rdock/2013.1/src/exe/rbdock.cxx#4 $)

>  <Rbt.Library>
libRbt.so (2013.1, Build901 2013/11/27)

>  <Rbt.Parameter_File>
/export/apps/rDock/src/rDock_2013.1_src/data/scripts/dock_solv.prm

>  <Rbt.Receptor>
prm/blind_docking_20.prm

>  <SCORE>
-4.17346

>  <SCORE.INTER>
-4.34539

>  <SCORE.INTER.CONST>
1

>  <SCORE.INTER.POLAR>
0

>  <SCORE.INTER.ROT>
5

>  <SCORE.INTER.SOLV>
3.91651

>  <SCORE.INTER.VDW>
-11.1358

>  <SCORE.INTER.norm>
-0.434539

>  <SCORE.INTRA>
0.171926

>  <SCORE.INTRA.DIHEDRAL>
0.0449116

>  <SCORE.INTRA.DIHEDRAL.0>
2.22229

>  <SCORE.INTRA.POLAR>
0

>  <SCORE.INTRA.POLAR.0>
0

>  <SCORE.INTRA.REPUL>
0

>  <SCORE.INTRA.REPUL.0>
0

>  <SCORE.INTRA.SOLV>
-0.69303

>  <SCORE.INTRA.SOLV.lig_0>
-31.87

>  <SCORE.INTRA.VDW>
0.495985

>  <SCORE.INTRA.VDW.0>
-0.575321

>  <SCORE.INTRA.norm>
0.0171926

>  <SCORE.RESTR>
0

>  <SCORE.RESTR.CAVITY>
0

>  <SCORE.RESTR.norm>
0

>  <SCORE.SYSTEM>
0

>  <SCORE.SYSTEM.CONST>
0

>  <SCORE.SYSTEM.DIHEDRAL>
0

>  <SCORE.SYSTEM.SOLV>
0

>  <SCORE.SYSTEM.norm>
0

>  <SCORE.heavy>
10

>  <SCORE.norm>
-0.417346

>  <RMSD>
53.788

$$$$
ligand
 OpenBabel11021811463D
libRbt.so/2013.1/901 2013/11/27
 10  9  0  0  0  0  0  0  0  0999 V2000
   -9.7590   10.6686   -4.6223 N   0  0  0  0  0  0  0  0  0  0  0  0
   -9.6113   10.2557   -6.0126 C   0  0  2  0  0  0  0  0  0  0  0  0
  -10.9717    9.9566   -6.6399 C   0  0  0  0  0  0  0  0  0  0  0  0
  -11.0457    9.1979   -7.6109 O   0  0  0  0  0  0  0  0  0  0  0  0
   -8.6800    9.0446   -6.1234 C   0  0  0  0  0  0  0  0  0  0  0  0
   -7.2045    9.4156   -6.2092 C   0  0  0  0  0  0  0  0  0  0  0  0
   -6.3181    8.2016   -6.4727 C   0  0  0  0  0  0  0  0  0  0  0  0
   -4.8930    8.6070   -6.8807 C   0  0  0  0  0  0  0  0  0  0  0  0
   -3.9887    7.4581   -7.2032 N   0  0  0  0  0  0  0  0  0  0  0  0
  -12.0145   10.4472   -6.1872 O   0  0  0  0  0  0  0  0  0  0  0  0
  2  1  1  1  0  0  0
  2  3  1  0  0  0  0
  2  5  1  0  0  0  0
  3  4  1  0  0  0  0
  3 10  1  0  0  0  0
  5  6  1  0  0  0  0
  6  7  1  0  0  0  0
  7  8  1  0  0  0  0
  8  9  1  0  0  0  0
M  END
>  <CHROM.1>
-156.03814825,-86.04677060,-173.69614295,166.72918689,-177.81025765,-8.49089659
9.32360498,-6.40966005,-2.89407196,0.21522002,-2.16999994

>  <Name>
ligand

>  <RI>
0

>  <Rbt.Current_Directory>
/home/itssahil/PROJECTS/Mol_Feturizer/New_Systems/rnas/3D0U

>  <Rbt.Executable>
rbdock ($Id: //depot/dev/client3/rdock/2013.1/src/exe/rbdock.cxx#4 $)

>  <Rbt.Library>
libRbt.so (2013.1, Build901 2013/11/27)

>  <Rbt.Parameter_File>
/export/apps/rDock/src/rDock_2013.1_src/data/scripts/dock_solv.prm

>  <Rbt.Receptor>
prm/blind_docking_20.prm

>  <SCORE>
-1.84249

>  <SCORE.INTER>
-2.7652

>  <SCORE.INTER.CONST>
1

>  <SCORE.INTER.POLAR>
0

>  <SCORE.INTER.ROT>
5

>  <SCORE.INTER.SOLV>
6.59151

>  <SCORE.INTER.VDW>
-10.974

>  <SCORE.INTER.norm>
-0.27652

>  <SCORE.INTRA>
0.922715

>  <SCORE.INTRA.DIHEDRAL>
2.51603

>  <SCORE.INTRA.DIHEDRAL.0>
2.22229

>  <SCORE.INTRA.POLAR>
0

>  <SCORE.INTRA.POLAR.0>
0

>  <SCORE.INTRA.REPUL>
0

>  <SCORE.INTRA.REPUL.0>
0

>  <SCORE.INTRA.SOLV>
-1.08198

>  <SCORE.INTRA.SOLV.lig_0>
-31.87

>  <SCORE.INTRA.VDW>
0.205691

>  <SCORE.INTRA.VDW.0>
-0.575321

>  <SCORE.INTRA.norm>
0.0922715

>  <SCORE.RESTR>
0

>  <SCORE.RESTR.CAVITY>
0

>  <SCORE.RESTR.norm>
0

>  <SCORE.SYSTEM>
0

>  <SCORE.SYSTEM.CONST>
0

>  <SCORE.SYSTEM.DIHEDRAL>
0

>  <SCORE.SYSTEM.SOLV>
0

>  <SCORE.SYSTEM.norm>
0

>  <SCORE.heavy>
10

>  <SCORE.norm>
-0.184249

>  <RMSD>
53.790

$$$$
ligand
 OpenBabel11021811463D
libRbt.so/2013.1/901 2013/11/27
 10  9  0  0  0  0  0  0  0  0999 V2000
   -9.8948   10.0462   -4.6522 N   0  0  0  0  0  0  0  0  0  0  0  0
   -9.4419   10.0021   -6.0372 C   0  0  2  0  0  0  0  0  0  0  0  0
  -10.5873    9.6205   -6.9733 C   0  0  0  0  0  0  0  0  0  0  0  0
  -10.3779    8.8534   -7.9175 O   0  0  0  0  0  0  0  0  0  0  0  0
   -8.2637    9.0357   -6.1929 C   0  0  0  0  0  0  0  0  0  0  0  0
   -6.9832    9.5226   -5.5253 C   0  0  0  0  0  0  0  0  0  0  0  0
   -5.8340    8.5319   -5.6887 C   0  0  0  0  0  0  0  0  0  0  0  0
   -5.3512    8.4454   -7.1451 C   0  0  0  0  0  0  0  0  0  0  0  0
   -4.2238    7.4861   -7.3698 N   0  0  0  0  0  0  0  0  0  0  0  0
  -11.7348   10.0520   -6.8004 O   0  0  0  0  0  0  0  0  0  0  0  0
  2  1  1  1  0  0  0
  2  3  1  0  0  0  0
  2  5  1  0  0  0  0
  3  4  1  0  0  0  0
  3 10  1  0  0  0  0
  5  6  1  0  0  0  0
  6  7  1  0  0  0  0
  7  8  1  0  0  0  0
  8  9  1  0  0  0  0
M  END
>  <CHROM.1>
-139.98232986,-69.02043377,179.49925465,68.75839758,-179.91561067,-8.30602324
9.15529699,-6.45136999,-3.01581036,0.24194593,-1.98158823

>  <Name>
ligand

>  <RI>
0

>  <Rbt.Current_Directory>
/home/itssahil/PROJECTS/Mol_Feturizer/New_Systems/rnas/3D0U

>  <Rbt.Executable>
rbdock ($Id: //depot/dev/client3/rdock/2013.1/src/exe/rbdock.cxx#4 $)

>  <Rbt.Library>
libRbt.so (2013.1, Build901 2013/11/27)

>  <Rbt.Parameter_File>
/export/apps/rDock/src/rDock_2013.1_src/data/scripts/dock_solv.prm

>  <Rbt.Receptor>
prm/blind_docking_20.prm

>  <SCORE>
-4.64375

>  <SCORE.INTER>
-5.28337

>  <SCORE.INTER.CONST>
1

>  <SCORE.INTER.POLAR>
0

>  <SCORE.INTER.ROT>
5

>  <SCORE.INTER.SOLV>
5.70685

>  <SCORE.INTER.VDW>
-12.3579

>  <SCORE.INTER.norm>
-0.528337

>  <SCORE.INTRA>
0.639616

>  <SCORE.INTRA.DIHEDRAL>
-0.0669073

>  <SCORE.INTRA.DIHEDRAL.0>
2.22229

>  <SCORE.INTRA.POLAR>
0

>  <SCORE.INTRA.POLAR.0>
0

>  <SCORE.INTRA.REPUL>
0

>  <SCORE.INTRA.REPUL.0>
0

>  <SCORE.INTRA.SOLV>
-0.640898

>  <SCORE.INTRA.SOLV.lig_0>
-31.87

>  <SCORE.INTRA.VDW>
0.993518

>  <SCORE.INTRA.VDW.0>
-0.575321

>  <SCORE.INTRA.norm>
0.0639616

>  <SCORE.RESTR>
0

>  <SCORE.RESTR.CAVITY>
0

>  <SCORE.RESTR.norm>
0

>  <SCORE.SYSTEM>
0

>  <SCORE.SYSTEM.CONST>
0

>  <SCORE.SYSTEM.DIHEDRAL>
0

>  <SCORE.SYSTEM.SOLV>
0

>  <SCORE.SYSTEM.norm>
0

>  <SCORE.heavy>
10

>  <SCORE.norm>
-0.464375

>  <RMSD>
53.794

$$$$
ligand
 OpenBabel11021811463D
libRbt.so/2013.1/901 2013/11/27
 10  9  0  0  0  0  0  0  0  0999 V2000
   -9.6876    7.5764   -4.8980 N   0  0  0  0  0  0  0  0  0  0  0  0
   -8.9789    8.7250   -5.4490 C   0  0  2  0  0  0  0  0  0  0  0  0
   -9.8325    9.4425   -6.4932 C   0  0  0  0  0  0  0  0  0  0  0  0
  -10.0974   10.6398   -6.3510 O   0  0  0  0  0  0  0  0  0  0  0  0
   -7.6326    8.2990   -6.0425 C   0  0  0  0  0  0  0  0  0  0  0  0
   -6.7796    9.4678   -6.5206 C   0  0  0  0  0  0  0  0  0  0  0  0
   -5.8066    9.0596   -7.6232 C   0  0  0  0  0  0  0  0  0  0  0  0
   -4.6253    8.2435   -7.0753 C   0  0  0  0  0  0  0  0  0  0  0  0
   -4.9966    6.8948   -6.5416 N   0  0  0  0  0  0  0  0  0  0  0  0
  -10.2577    8.8540   -7.4961 O   0  0  0  0  0  0  0  0  0  0  0  0
  2  1  1  6  0  0  0
  2  3  1  0  0  0  0
  2  5  1  0  0  0  0
  3  4  1  0  0  0  0
  3 10  1  0  0  0  0
  5  6  1  0  0  0  0
  6  7  1  0  0  0  0
  7  8  1  0  0  0  0
  8  9  1  0  0  0  0
M  END
>  <CHROM.1>
122.79153455,-174.61895638,-154.12907290,-74.40906629,66.96410810,-7.89819995
8.73900792,-6.46901531,3.01283254,0.25000111,-0.61369615

>  <Name>
ligand

>  <RI>
0

>  <Rbt.Current_Directory>
/home/itssahil/PROJECTS/Mol_Feturizer/New_Systems/rnas/3D0U

>  <Rbt.Executable>
rbdock ($Id: //depot/dev/client3/rdock/2013.1/src/exe/rbdock.cxx#4 $)

>  <Rbt.Library>
libRbt.so (2013.1, Build901 2013/11/27)

>  <Rbt.Parameter_File>
/export/apps/rDock/src/rDock_2013.1_src/data/scripts/dock_solv.prm

>  <Rbt.Receptor>
prm/blind_docking_20.prm

>  <SCORE>
-1.95337

>  <SCORE.INTER>
-3.67777

>  <SCORE.INTER.CONST>
1

>  <SCORE.INTER.POLAR>
0

>  <SCORE.INTER.ROT>
5

>  <SCORE.INTER.SOLV>
3.91068

>  <SCORE.INTER.VDW>
-10.6887

>  <SCORE.INTER.norm>
-0.367777

>  <SCORE.INTRA>
1.71918

>  <SCORE.INTRA.DIHEDRAL>
2.77247

>  <SCORE.INTRA.DIHEDRAL.0>
2.22229

>  <SCORE.INTRA.POLAR>
0

>  <SCORE.INTRA.POLAR.0>
0

>  <SCORE.INTRA.REPUL>
0

>  <SCORE.INTRA.REPUL.0>
0

>  <SCORE.INTRA.SOLV>
0.419311

>  <SCORE.INTRA.SOLV.lig_0>
-31.87

>  <SCORE.INTRA.VDW>
0.123287

>  <SCORE.INTRA.VDW.0>
-0.575321

>  <SCORE.INTRA.norm>
0.171918

>  <SCORE.RESTR>
0.00521741

>  <SCORE.RESTR.CAVITY>
0.00521741

>  <SCORE.RESTR.norm>
0.000521741

>  <SCORE.SYSTEM>
0

>  <SCORE.SYSTEM.CONST>
0

>  <SCORE.SYSTEM.DIHEDRAL>
0

>  <SCORE.SYSTEM.SOLV>
0

>  <SCORE.SYSTEM.norm>
0

>  <SCORE.heavy>
10

>  <SCORE.norm>
-0.195337

>  <RMSD>
53.813

$$$$
ligand
 OpenBabel11021811463D
libRbt.so/2013.1/901 2013/11/27
 10  9  0  0  0  0  0  0  0  0999 V2000
  -10.2831   11.0817   -4.8564 N   0  0  0  0  0  0  0  0  0  0  0  0
   -9.5264   10.3038   -5.8298 C   0  0  2  0  0  0  0  0  0  0  0  0
  -10.4428    9.7619   -6.9254 C   0  0  0  0  0  0  0  0  0  0  0  0
  -11.6485   10.0263   -6.9027 O   0  0  0  0  0  0  0  0  0  0  0  0
   -8.7645    9.1667   -5.1423 C   0  0  0  0  0  0  0  0  0  0  0  0
   -7.7332    8.4934   -6.0398 C   0  0  0  0  0  0  0  0  0  0  0  0
   -6.5824    9.4288   -6.3996 C   0  0  0  0  0  0  0  0  0  0  0  0
   -5.6154    8.7900   -7.4090 C   0  0  0  0  0  0  0  0  0  0  0  0
   -4.9307    7.5532   -6.9159 N   0  0  0  0  0  0  0  0  0  0  0  0
  -10.0027    9.0703   -7.8532 O   0  0  0  0  0  0  0  0  0  0  0  0
  2  1  1  1  0  0  0
  2  3  1  0  0  0  0
  2  5  1  0  0  0  0
  3  4  1  0  0  0  0
  3 10  1  0  0  0  0
  5  6  1  0  0  0  0
  6  7  1  0  0  0  0
  7  8  1  0  0  0  0
  8  9  1  0  0  0  0
M  END
>  <CHROM.1>
0.98206247,-168.05942914,66.57353129,-174.63073337,-62.12166363,-8.58282887
9.36037145,-6.45127872,-2.90649156,0.26930276,-2.02873486

>  <Name>
ligand

>  <RI>
0

>  <Rbt.Current_Directory>
/home/itssahil/PROJECTS/Mol_Feturizer/New_Systems/rnas/3D0U

>  <Rbt.Executable>
rbdock ($Id: //depot/dev/client3/rdock/2013.1/src/exe/rbdock.cxx#4 $)

>  <Rbt.Library>
libRbt.so (2013.1, Build901 2013/11/27)

>  <Rbt.Parameter_File>
/export/apps/rDock/src/rDock_2013.1_src/data/scripts/dock_solv.prm

>  <Rbt.Receptor>
prm/blind_docking_20.prm

>  <SCORE>
-3.72132

>  <SCORE.INTER>
-3.84591

>  <SCORE.INTER.CONST>
1

>  <SCORE.INTER.POLAR>
0

>  <SCORE.INTER.ROT>
5

>  <SCORE.INTER.SOLV>
5.99612

>  <SCORE.INTER.VDW>
-11.496

>  <SCORE.INTER.norm>
-0.384591

>  <SCORE.INTRA>
0.124587

>  <SCORE.INTRA.DIHEDRAL>
0.100918

>  <SCORE.INTRA.DIHEDRAL.0>
2.22229

>  <SCORE.INTRA.POLAR>
0

>  <SCORE.INTRA.POLAR.0>
0

>  <SCORE.INTRA.REPUL>
0

>  <SCORE.INTRA.REPUL.0>
0

>  <SCORE.INTRA.SOLV>
-0.447662

>  <SCORE.INTRA.SOLV.lig_0>
-31.87

>  <SCORE.INTRA.VDW>
0.297959

>  <SCORE.INTRA.VDW.0>
-0.575321

>  <SCORE.INTRA.norm>
0.0124587

>  <SCORE.RESTR>
0

>  <SCORE.RESTR.CAVITY>
0

>  <SCORE.RESTR.norm>
0

>  <SCORE.SYSTEM>
0

>  <SCORE.SYSTEM.CONST>
0

>  <SCORE.SYSTEM.DIHEDRAL>
0

>  <SCORE.SYSTEM.SOLV>
0

>  <SCORE.SYSTEM.norm>
0

>  <SCORE.heavy>
10

>  <SCORE.norm>
-0.372132

>  <RMSD>
53.831

$$$$
ligand
 OpenBabel11021811463D
libRbt.so/2013.1/901 2013/11/27
 10  9  0  0  0  0  0  0  0  0999 V2000
   -9.6463    8.3697   -4.8795 N   0  0  0  0  0  0  0  0  0  0  0  0
   -9.3113    9.4144   -5.8395 C   0  0  2  0  0  0  0  0  0  0  0  0
  -10.4178    9.5729   -6.8808 C   0  0  0  0  0  0  0  0  0  0  0  0
  -10.4221    8.8550   -7.8851 O   0  0  0  0  0  0  0  0  0  0  0  0
   -7.9659    9.1235   -6.5114 C   0  0  0  0  0  0  0  0  0  0  0  0
   -6.7767    9.2225   -5.5636 C   0  0  0  0  0  0  0  0  0  0  0  0
   -5.4567    8.8983   -6.2574 C   0  0  0  0  0  0  0  0  0  0  0  0
   -5.3735    7.4218   -6.6755 C   0  0  0  0  0  0  0  0  0  0  0  0
   -4.0812    7.0316   -7.3231 N   0  0  0  0  0  0  0  0  0  0  0  0
  -11.3281   10.3995   -6.7364 O   0  0  0  0  0  0  0  0  0  0  0  0
  2  1  1  1  0  0  0
  2  3  1  0  0  0  0
  2  5  1  0  0  0  0
  3  4  1  0  0  0  0
  3 10  1  0  0  0  0
  5  6  1  0  0  0  0
  6  7  1  0  0  0  0
  7  8  1  0  0  0  0
  8  9  1  0  0  0  0
M  END
>  <CHROM.1>
-85.82645671,-67.66533086,178.78715228,-67.29856711,-178.13205237,-8.11428279
8.83875779,-6.47758210,-3.05418660,0.29697602,-1.85231996

>  <Name>
ligand

>  <RI>
0

>  <Rbt.Current_Directory>
/home/itssahil/PROJECTS/Mol_Feturizer/New_Systems/rnas/3D0U

>  <Rbt.Executable>
rbdock ($Id: //depot/dev/client3/rdock/2013.1/src/exe/rbdock.cxx#4 $)

>  <Rbt.Library>
libRbt.so (2013.1, Build901 2013/11/27)

>  <Rbt.Parameter_File>
/export/apps/rDock/src/rDock_2013.1_src/data/scripts/dock_solv.prm

>  <Rbt.Receptor>
prm/blind_docking_20.prm

>  <SCORE>
-3.92297

>  <SCORE.INTER>
-4.0935

>  <SCORE.INTER.CONST>
1

>  <SCORE.INTER.POLAR>
0

>  <SCORE.INTER.ROT>
5

>  <SCORE.INTER.SOLV>
4.26064

>  <SCORE.INTER.VDW>
-11.0825

>  <SCORE.INTER.norm>
-0.40935

>  <SCORE.INTRA>
0.170524

>  <SCORE.INTRA.DIHEDRAL>
-0.291915

>  <SCORE.INTRA.DIHEDRAL.0>
2.22229

>  <SCORE.INTRA.POLAR>
0

>  <SCORE.INTRA.POLAR.0>
0

>  <SCORE.INTRA.REPUL>
0

>  <SCORE.INTRA.REPUL.0>
0

>  <SCORE.INTRA.SOLV>
-0.630391

>  <SCORE.INTRA.SOLV.lig_0>
-31.87

>  <SCORE.INTRA.VDW>
0.631677

>  <SCORE.INTRA.VDW.0>
-0.575321

>  <SCORE.INTRA.norm>
0.0170524

>  <SCORE.RESTR>
0

>  <SCORE.RESTR.CAVITY>
0

>  <SCORE.RESTR.norm>
0

>  <SCORE.SYSTEM>
0

>  <SCORE.SYSTEM.CONST>
0

>  <SCORE.SYSTEM.DIHEDRAL>
0

>  <SCORE.SYSTEM.SOLV>
0

>  <SCORE.SYSTEM.norm>
0

>  <SCORE.heavy>
10

>  <SCORE.norm>
-0.392297

>  <RMSD>
53.897

$$$$
ligand
 OpenBabel11021811463D
libRbt.so/2013.1/901 2013/11/27
 10  9  0  0  0  0  0  0  0  0999 V2000
  -10.3478   10.1977   -4.8480 N   0  0  0  0  0  0  0  0  0  0  0  0
   -9.4927    9.9125   -5.9937 C   0  0  2  0  0  0  0  0  0  0  0  0
  -10.1232    8.8513   -6.8937 C   0  0  0  0  0  0  0  0  0  0  0  0
  -10.4686    7.7674   -6.4144 O   0  0  0  0  0  0  0  0  0  0  0  0
   -8.0963    9.4810   -5.5351 C   0  0  0  0  0  0  0  0  0  0  0  0
   -7.1268    9.2324   -6.6842 C   0  0  0  0  0  0  0  0  0  0  0  0
   -5.8817    8.4726   -6.2352 C   0  0  0  0  0  0  0  0  0  0  0  0
   -4.9864    8.0822   -7.4217 C   0  0  0  0  0  0  0  0  0  0  0  0
   -3.8989    7.1096   -7.0855 N   0  0  0  0  0  0  0  0  0  0  0  0
  -10.3131    9.0562   -8.0998 O   0  0  0  0  0  0  0  0  0  0  0  0
  2  1  1  1  0  0  0
  2  3  1  0  0  0  0
  2  5  1  0  0  0  0
  3  4  1  0  0  0  0
  3 10  1  0  0  0  0
  5  6  1  0  0  0  0
  6  7  1  0  0  0  0
  7  8  1  0  0  0  0
  8  9  1  0  0  0  0
M  END
>  <CHROM.1>
-54.16184018,-177.16173473,-165.32296886,173.37938390,-168.48596519,-8.09919773
8.79668034,-6.54030495,-2.90734070,0.13328160,-2.20051784

>  <Name>
ligand

>  <RI>
0

>  <Rbt.Current_Directory>
/home/itssahil/PROJECTS/Mol_Feturizer/New_Systems/rnas/3D0U

>  <Rbt.Executable>
rbdock ($Id: //depot/dev/client3/rdock/2013.1/src/exe/rbdock.cxx#4 $)

>  <Rbt.Library>
libRbt.so (2013.1, Build901 2013/11/27)

>  <Rbt.Parameter_File>
/export/apps/rDock/src/rDock_2013.1_src/data/scripts/dock_solv.prm

>  <Rbt.Receptor>
prm/blind_docking_20.prm

>  <SCORE>
-5.32164

>  <SCORE.INTER>
-4.69658

>  <SCORE.INTER.CONST>
1

>  <SCORE.INTER.POLAR>
0

>  <SCORE.INTER.ROT>
5

>  <SCORE.INTER.SOLV>
5.27952

>  <SCORE.INTER.VDW>
-11.8242

>  <SCORE.INTER.norm>
-0.469658

>  <SCORE.INTRA>
-0.626178

>  <SCORE.INTRA.DIHEDRAL>
0.818278

>  <SCORE.INTRA.DIHEDRAL.0>
2.22229

>  <SCORE.INTRA.POLAR>
0

>  <SCORE.INTRA.POLAR.0>
0

>  <SCORE.INTRA.REPUL>
0

>  <SCORE.INTRA.REPUL.0>
0

>  <SCORE.INTRA.SOLV>
-1.59746

>  <SCORE.INTRA.SOLV.lig_0>
-31.87

>  <SCORE.INTRA.VDW>
-0.236587

>  <SCORE.INTRA.VDW.0>
-0.575321

>  <SCORE.INTRA.norm>
-0.0626178

>  <SCORE.RESTR>
0.00112242

>  <SCORE.RESTR.CAVITY>
0.00112242

>  <SCORE.RESTR.norm>
0.000112242

>  <SCORE.SYSTEM>
0

>  <SCORE.SYSTEM.CONST>
0

>  <SCORE.SYSTEM.DIHEDRAL>
0

>  <SCORE.SYSTEM.SOLV>
0

>  <SCORE.SYSTEM.norm>
0

>  <SCORE.heavy>
10

>  <SCORE.norm>
-0.532164

>  <RMSD>
53.917

$$$$
ligand
 OpenBabel11021811463D
libRbt.so/2013.1/901 2013/11/27
 10  9  0  0  0  0  0  0  0  0999 V2000
  -10.3270   10.1572   -4.8381 N   0  0  0  0  0  0  0  0  0  0  0  0
   -9.4709    9.8895   -5.9872 C   0  0  2  0  0  0  0  0  0  0  0  0
  -10.0944    8.8326   -6.8972 C   0  0  0  0  0  0  0  0  0  0  0  0
  -10.2631    9.0774   -8.0953 O   0  0  0  0  0  0  0  0  0  0  0  0
   -8.0710    9.4637   -5.5341 C   0  0  0  0  0  0  0  0  0  0  0  0
   -7.1024    9.2274   -6.6866 C   0  0  0  0  0  0  0  0  0  0  0  0
   -5.8448    8.4864   -6.2413 C   0  0  0  0  0  0  0  0  0  0  0  0
   -5.0021    8.0130   -7.4362 C   0  0  0  0  0  0  0  0  0  0  0  0
   -3.9246    7.0337   -7.0871 N   0  0  0  0  0  0  0  0  0  0  0  0
  -10.4247    7.7205   -6.4648 O   0  0  0  0  0  0  0  0  0  0  0  0
  2  1  1  1  0  0  0
  2  3  1  0  0  0  0
  2  5  1  0  0  0  0
  3  4  1  0  0  0  0
  3 10  1  0  0  0  0
  5  6  1  0  0  0  0
  6  7  1  0  0  0  0
  7  8  1  0  0  0  0
  8  9  1  0  0  0  0
M  END
>  <CHROM.1>
125.52789060,-177.41746402,-165.97090095,169.00996134,-167.37445625,-8.07753504
8.77081463,-6.54657082,-2.89993580,0.13713000,-2.20964177

>  <Name>
ligand

>  <RI>
0

>  <Rbt.Current_Directory>
/home/itssahil/PROJECTS/Mol_Feturizer/New_Systems/rnas/3D0U

>  <Rbt.Executable>
rbdock ($Id: //depot/dev/client3/rdock/2013.1/src/exe/rbdock.cxx#4 $)

>  <Rbt.Library>
libRbt.so (2013.1, Build901 2013/11/27)

>  <Rbt.Parameter_File>
/export/apps/rDock/src/rDock_2013.1_src/data/scripts/dock_solv.prm

>  <Rbt.Receptor>
prm/blind_docking_20.prm

>  <SCORE>
-5.35895

>  <SCORE.INTER>
-4.86381

>  <SCORE.INTER.CONST>
1

>  <SCORE.INTER.POLAR>
0

>  <SCORE.INTER.ROT>
5

>  <SCORE.INTER.SOLV>
5.07104

>  <SCORE.INTER.VDW>
-11.8662

>  <SCORE.INTER.norm>
-0.486381

>  <SCORE.INTRA>
-0.495139

>  <SCORE.INTRA.DIHEDRAL>
1.13288

>  <SCORE.INTRA.DIHEDRAL.0>
2.22229

>  <SCORE.INTRA.POLAR>
0

>  <SCORE.INTRA.POLAR.0>
0

>  <SCORE.INTRA.REPUL>
0

>  <SCORE.INTRA.REPUL.0>
0

>  <SCORE.INTRA.SOLV>
-1.60899

>  <SCORE.INTRA.SOLV.lig_0>
-31.87

>  <SCORE.INTRA.VDW>
-0.257087

>  <SCORE.INTRA.VDW.0>
-0.575321

>  <SCORE.INTRA.norm>
-0.0495139

>  <SCORE.RESTR>
0

>  <SCORE.RESTR.CAVITY>
0

>  <SCORE.RESTR.norm>
0

>  <SCORE.SYSTEM>
0

>  <SCORE.SYSTEM.CONST>
0

>  <SCORE.SYSTEM.DIHEDRAL>
0

>  <SCORE.SYSTEM.SOLV>
0

>  <SCORE.SYSTEM.norm>
0

>  <SCORE.heavy>
10

>  <SCORE.norm>
-0.535895

>  <RMSD>
53.923

$$$$
ligand
 OpenBabel11021811463D
libRbt.so/2013.1/901 2013/11/27
 10  9  0  0  0  0  0  0  0  0999 V2000
  -10.3368   10.1555   -4.8246 N   0  0  0  0  0  0  0  0  0  0  0  0
   -9.4820    9.8872   -5.9746 C   0  0  2  0  0  0  0  0  0  0  0  0
  -10.1081    8.8321   -6.8848 C   0  0  0  0  0  0  0  0  0  0  0  0
  -10.2832    9.0803   -8.0813 O   0  0  0  0  0  0  0  0  0  0  0  0
   -8.0825    9.4587   -5.5230 C   0  0  0  0  0  0  0  0  0  0  0  0
   -7.1118    9.2334   -6.6759 C   0  0  0  0  0  0  0  0  0  0  0  0
   -5.8656    8.4678   -6.2404 C   0  0  0  0  0  0  0  0  0  0  0  0
   -5.0057    8.0378   -7.4394 C   0  0  0  0  0  0  0  0  0  0  0  0
   -3.9185    7.0638   -7.1065 N   0  0  0  0  0  0  0  0  0  0  0  0
  -10.4342    7.7180   -6.4543 O   0  0  0  0  0  0  0  0  0  0  0  0
  2  1  1  1  0  0  0
  2  3  1  0  0  0  0
  2  5  1  0  0  0  0
  3  4  1  0  0  0  0
  3 10  1  0  0  0  0
  5  6  1  0  0  0  0
  6  7  1  0  0  0  0
  7  8  1  0  0  0  0
  8  9  1  0  0  0  0
M  END
>  <CHROM.1>
125.18920692,-176.91786882,-164.94960764,170.41763143,-168.75445414,-8.08792932
8.77413120,-6.54022425,-2.89991608,0.13331961,-2.20398246

>  <Name>
ligand

>  <RI>
0

>  <Rbt.Current_Directory>
/home/itssahil/PROJECTS/Mol_Feturizer/New_Systems/rnas/3D0U

>  <Rbt.Executable>
rbdock ($Id: //depot/dev/client3/rdock/2013.1/src/exe/rbdock.cxx#4 $)

>  <Rbt.Library>
libRbt.so (2013.1, Build901 2013/11/27)

>  <Rbt.Parameter_File>
/export/apps/rDock/src/rDock_2013.1_src/data/scripts/dock_solv.prm

>  <Rbt.Receptor>
prm/blind_docking_20.prm

>  <SCORE>
-5.38803

>  <SCORE.INTER>
-4.82809

>  <SCORE.INTER.CONST>
1

>  <SCORE.INTER.POLAR>
0

>  <SCORE.INTER.ROT>
5

>  <SCORE.INTER.SOLV>
5.1116

>  <SCORE.INTER.VDW>
-11.8559

>  <SCORE.INTER.norm>
-0.482809

>  <SCORE.INTRA>
-0.559941

>  <SCORE.INTRA.DIHEDRAL>
1.02433

>  <SCORE.INTRA.DIHEDRAL.0>
2.22229

>  <SCORE.INTRA.POLAR>
0

>  <SCORE.INTRA.POLAR.0>
0

>  <SCORE.INTRA.REPUL>
0

>  <SCORE.INTRA.REPUL.0>
0

>  <SCORE.INTRA.SOLV>
-1.61095

>  <SCORE.INTRA.SOLV.lig_0>
-31.87

>  <SCORE.INTRA.VDW>
-0.266631

>  <SCORE.INTRA.VDW.0>
-0.575321

>  <SCORE.INTRA.norm>
-0.0559941

>  <SCORE.RESTR>
0

>  <SCORE.RESTR.CAVITY>
0

>  <SCORE.RESTR.norm>
0

>  <SCORE.SYSTEM>
0

>  <SCORE.SYSTEM.CONST>
0

>  <SCORE.SYSTEM.DIHEDRAL>
0

>  <SCORE.SYSTEM.SOLV>
0

>  <SCORE.SYSTEM.norm>
0

>  <SCORE.heavy>
10

>  <SCORE.norm>
-0.538803

>  <RMSD>
53.924

$$$$
ligand
 OpenBabel11021811463D
libRbt.so/2013.1/901 2013/11/27
 10  9  0  0  0  0  0  0  0  0999 V2000
   -9.4021    9.8391   -4.7798 N   0  0  0  0  0  0  0  0  0  0  0  0
   -9.0666    9.4069   -6.1310 C   0  0  2  0  0  0  0  0  0  0  0  0
  -10.2214    8.6262   -6.7561 C   0  0  0  0  0  0  0  0  0  0  0  0
  -10.8142    9.0876   -7.7356 O   0  0  0  0  0  0  0  0  0  0  0  0
   -7.7805    8.5749   -6.1315 C   0  0  0  0  0  0  0  0  0  0  0  0
   -6.5118    9.4129   -6.0296 C   0  0  0  0  0  0  0  0  0  0  0  0
   -5.2485    8.5639   -6.1400 C   0  0  0  0  0  0  0  0  0  0  0  0
   -5.1243    7.8931   -7.5171 C   0  0  0  0  0  0  0  0  0  0  0  0
   -3.9863    6.9276   -7.6372 N   0  0  0  0  0  0  0  0  0  0  0  0
  -10.5728    7.5252   -6.3120 O   0  0  0  0  0  0  0  0  0  0  0  0
  2  1  1  1  0  0  0
  2  3  1  0  0  0  0
  2  5  1  0  0  0  0
  3  4  1  0  0  0  0
  3 10  1  0  0  0  0
  5  6  1  0  0  0  0
  6  7  1  0  0  0  0
  7  8  1  0  0  0  0
  8  9  1  0  0  0  0
M  END
>  <CHROM.1>
114.55631325,-78.18948539,-175.62572986,64.13133443,-173.57634437,-7.90997062
8.57154361,-6.53059918,-2.95327454,0.06336815,-2.28853141

>  <Name>
ligand

>  <RI>
0

>  <Rbt.Current_Directory>
/home/itssahil/PROJECTS/Mol_Feturizer/New_Systems/rnas/3D0U

>  <Rbt.Executable>
rbdock ($Id: //depot/dev/client3/rdock/2013.1/src/exe/rbdock.cxx#4 $)

>  <Rbt.Library>
libRbt.so (2013.1, Build901 2013/11/27)

>  <Rbt.Parameter_File>
/export/apps/rDock/src/rDock_2013.1_src/data/scripts/dock_solv.prm

>  <Rbt.Receptor>
prm/blind_docking_20.prm

>  <SCORE>
-3.58599

>  <SCORE.INTER>
-3.98727

>  <SCORE.INTER.CONST>
1

>  <SCORE.INTER.POLAR>
0

>  <SCORE.INTER.ROT>
5

>  <SCORE.INTER.SOLV>
6.01174

>  <SCORE.INTER.VDW>
-11.5954

>  <SCORE.INTER.norm>
-0.398727

>  <SCORE.INTRA>
0.401286

>  <SCORE.INTRA.DIHEDRAL>
0.818569

>  <SCORE.INTRA.DIHEDRAL.0>
2.22229

>  <SCORE.INTRA.POLAR>
0

>  <SCORE.INTRA.POLAR.0>
0

>  <SCORE.INTRA.REPUL>
0

>  <SCORE.INTRA.REPUL.0>
0

>  <SCORE.INTRA.SOLV>
-0.729747

>  <SCORE.INTRA.SOLV.lig_0>
-31.87

>  <SCORE.INTRA.VDW>
0.356875

>  <SCORE.INTRA.VDW.0>
-0.575321

>  <SCORE.INTRA.norm>
0.0401286

>  <SCORE.RESTR>
0

>  <SCORE.RESTR.CAVITY>
0

>  <SCORE.RESTR.norm>
0

>  <SCORE.SYSTEM>
0

>  <SCORE.SYSTEM.CONST>
0

>  <SCORE.SYSTEM.DIHEDRAL>
0

>  <SCORE.SYSTEM.SOLV>
0

>  <SCORE.SYSTEM.norm>
0

>  <SCORE.heavy>
10

>  <SCORE.norm>
-0.358599

>  <RMSD>
53.930

$$$$
ligand
 OpenBabel11021811463D
libRbt.so/2013.1/901 2013/11/27
 10  9  0  0  0  0  0  0  0  0999 V2000
  -10.3138   10.1594   -4.8109 N   0  0  0  0  0  0  0  0  0  0  0  0
   -9.4830    9.8640   -5.9718 C   0  0  2  0  0  0  0  0  0  0  0  0
  -10.1323    8.7949   -6.8489 C   0  0  0  0  0  0  0  0  0  0  0  0
  -10.4420    7.7050   -6.3591 O   0  0  0  0  0  0  0  0  0  0  0  0
   -8.0772    9.4363   -5.5390 C   0  0  0  0  0  0  0  0  0  0  0  0
   -7.1397    9.1521   -6.7062 C   0  0  0  0  0  0  0  0  0  0  0  0
   -5.8563    8.4572   -6.2602 C   0  0  0  0  0  0  0  0  0  0  0  0
   -5.0201    7.9709   -7.4544 C   0  0  0  0  0  0  0  0  0  0  0  0
   -3.9178    7.0232   -7.0958 N   0  0  0  0  0  0  0  0  0  0  0  0
  -10.3726    8.9991   -8.0461 O   0  0  0  0  0  0  0  0  0  0  0  0
  2  1  1  1  0  0  0
  2  3  1  0  0  0  0
  2  5  1  0  0  0  0
  3  4  1  0  0  0  0
  3 10  1  0  0  0  0
  5  6  1  0  0  0  0
  6  7  1  0  0  0  0
  7  8  1  0  0  0  0
  8  9  1  0  0  0  0
M  END
>  <CHROM.1>
-55.66853659,-178.24139777,-168.09812260,170.80467024,-166.98388487,-8.10150141
8.73648366,-6.52775138,-2.89351909,0.12807882,-2.21780238

>  <Name>
ligand

>  <RI>
0

>  <Rbt.Current_Directory>
/home/itssahil/PROJECTS/Mol_Feturizer/New_Systems/rnas/3D0U

>  <Rbt.Executable>
rbdock ($Id: //depot/dev/client3/rdock/2013.1/src/exe/rbdock.cxx#4 $)

>  <Rbt.Library>
libRbt.so (2013.1, Build901 2013/11/27)

>  <Rbt.Parameter_File>
/export/apps/rDock/src/rDock_2013.1_src/data/scripts/dock_solv.prm

>  <Rbt.Receptor>
prm/blind_docking_20.prm

>  <SCORE>
-5.29184

>  <SCORE.INTER>
-4.6927

>  <SCORE.INTER.CONST>
1

>  <SCORE.INTER.POLAR>
0

>  <SCORE.INTER.ROT>
5

>  <SCORE.INTER.SOLV>
5.09031

>  <SCORE.INTER.VDW>
-11.7586

>  <SCORE.INTER.norm>
-0.46927

>  <SCORE.INTRA>
-0.599142

>  <SCORE.INTRA.DIHEDRAL>
0.80912

>  <SCORE.INTRA.DIHEDRAL.0>
2.22229

>  <SCORE.INTRA.POLAR>
0

>  <SCORE.INTRA.POLAR.0>
0

>  <SCORE.INTRA.REPUL>
0

>  <SCORE.INTRA.REPUL.0>
0

>  <SCORE.INTRA.SOLV>
-1.59644

>  <SCORE.INTRA.SOLV.lig_0>
-31.87

>  <SCORE.INTRA.VDW>
-0.205483

>  <SCORE.INTRA.VDW.0>
-0.575321

>  <SCORE.INTRA.norm>
-0.0599142

>  <SCORE.RESTR>
0

>  <SCORE.RESTR.CAVITY>
0

>  <SCORE.RESTR.norm>
0

>  <SCORE.SYSTEM>
0

>  <SCORE.SYSTEM.CONST>
0

>  <SCORE.SYSTEM.DIHEDRAL>
0

>  <SCORE.SYSTEM.SOLV>
0

>  <SCORE.SYSTEM.norm>
0

>  <SCORE.heavy>
10

>  <SCORE.norm>
-0.529184

>  <RMSD>
53.947

$$$$
ligand
 OpenBabel11021811463D
libRbt.so/2013.1/901 2013/11/27
 10  9  0  0  0  0  0  0  0  0999 V2000
  -10.5282   10.1364   -4.8982 N   0  0  0  0  0  0  0  0  0  0  0  0
   -9.6185    9.8678   -6.0053 C   0  0  2  0  0  0  0  0  0  0  0  0
  -10.1523    8.7413   -6.8884 C   0  0  0  0  0  0  0  0  0  0  0  0
  -10.3224    7.6159   -6.4106 O   0  0  0  0  0  0  0  0  0  0  0  0
   -8.2151    9.5383   -5.4874 C   0  0  0  0  0  0  0  0  0  0  0  0
   -7.2112    9.2390   -6.5941 C   0  0  0  0  0  0  0  0  0  0  0  0
   -5.8038    9.0092   -6.0506 C   0  0  0  0  0  0  0  0  0  0  0  0
   -4.8066    8.6567   -7.1656 C   0  0  0  0  0  0  0  0  0  0  0  0
   -5.0686    7.3468   -7.8417 N   0  0  0  0  0  0  0  0  0  0  0  0
  -10.4361    8.9318   -8.0784 O   0  0  0  0  0  0  0  0  0  0  0  0
  2  1  1  1  0  0  0
  2  3  1  0  0  0  0
  2  5  1  0  0  0  0
  3  4  1  0  0  0  0
  3 10  1  0  0  0  0
  5  6  1  0  0  0  0
  6  7  1  0  0  0  0
  7  8  1  0  0  0  0
  8  9  1  0  0  0  0
M  END
>  <CHROM.1>
-61.31390387,179.70870008,176.07522227,177.88360060,-65.79550061,-8.23921425
8.88614760,-6.56059276,-2.93294818,0.02732563,-2.24453958

>  <Name>
ligand

>  <RI>
0

>  <Rbt.Current_Directory>
/home/itssahil/PROJECTS/Mol_Feturizer/New_Systems/rnas/3D0U

>  <Rbt.Executable>
rbdock ($Id: //depot/dev/client3/rdock/2013.1/src/exe/rbdock.cxx#4 $)

>  <Rbt.Library>
libRbt.so (2013.1, Build901 2013/11/27)

>  <Rbt.Parameter_File>
/export/apps/rDock/src/rDock_2013.1_src/data/scripts/dock_solv.prm

>  <Rbt.Receptor>
prm/blind_docking_20.prm

>  <SCORE>
-5.90798

>  <SCORE.INTER>
-5.1641

>  <SCORE.INTER.CONST>
1

>  <SCORE.INTER.POLAR>
0

>  <SCORE.INTER.ROT>
5

>  <SCORE.INTER.SOLV>
7.31774

>  <SCORE.INTER.VDW>
-12.8153

>  <SCORE.INTER.norm>
-0.51641

>  <SCORE.INTRA>
-0.743877

>  <SCORE.INTRA.DIHEDRAL>
-0.538767

>  <SCORE.INTRA.DIHEDRAL.0>
2.22229

>  <SCORE.INTRA.POLAR>
0

>  <SCORE.INTRA.POLAR.0>
0

>  <SCORE.INTRA.REPUL>
0

>  <SCORE.INTRA.REPUL.0>
0

>  <SCORE.INTRA.SOLV>
-0.791794

>  <SCORE.INTRA.SOLV.lig_0>
-31.87

>  <SCORE.INTRA.VDW>
-0.0785958

>  <SCORE.INTRA.VDW.0>
-0.575321

>  <SCORE.INTRA.norm>
-0.0743877

>  <SCORE.RESTR>
0

>  <SCORE.RESTR.CAVITY>
0

>  <SCORE.RESTR.norm>
0

>  <SCORE.SYSTEM>
0

>  <SCORE.SYSTEM.CONST>
0

>  <SCORE.SYSTEM.DIHEDRAL>
0

>  <SCORE.SYSTEM.SOLV>
0

>  <SCORE.SYSTEM.norm>
0

>  <SCORE.heavy>
10

>  <SCORE.norm>
-0.590798

>  <RMSD>
53.947

$$$$
ligand
 OpenBabel11021811463D
libRbt.so/2013.1/901 2013/11/27
 10  9  0  0  0  0  0  0  0  0999 V2000
  -10.3582   10.1420   -4.8754 N   0  0  0  0  0  0  0  0  0  0  0  0
   -9.4934    9.8656   -6.0160 C   0  0  2  0  0  0  0  0  0  0  0  0
  -10.1057    8.7949   -6.9174 C   0  0  0  0  0  0  0  0  0  0  0  0
  -10.3388    9.0510   -8.1023 O   0  0  0  0  0  0  0  0  0  0  0  0
   -8.0942    9.4525   -5.5492 C   0  0  0  0  0  0  0  0  0  0  0  0
   -7.1111    9.2296   -6.6920 C   0  0  0  0  0  0  0  0  0  0  0  0
   -5.8716    8.4593   -6.2456 C   0  0  0  0  0  0  0  0  0  0  0  0
   -4.9876    8.0519   -7.4349 C   0  0  0  0  0  0  0  0  0  0  0  0
   -3.9183    7.0581   -7.1023 N   0  0  0  0  0  0  0  0  0  0  0  0
  -10.3632    7.6612   -6.4918 O   0  0  0  0  0  0  0  0  0  0  0  0
  2  1  1  1  0  0  0
  2  3  1  0  0  0  0
  2  5  1  0  0  0  0
  3  4  1  0  0  0  0
  3 10  1  0  0  0  0
  5  6  1  0  0  0  0
  6  7  1  0  0  0  0
  7  8  1  0  0  0  0
  8  9  1  0  0  0  0
M  END
>  <CHROM.1>
121.39995529,-176.49514343,-164.07484716,171.33867919,-167.83152660,-8.08905017
8.75685455,-6.56235283,-2.90710665,0.13156732,-2.22062707

>  <Name>
ligand

>  <RI>
0

>  <Rbt.Current_Directory>
/home/itssahil/PROJECTS/Mol_Feturizer/New_Systems/rnas/3D0U

>  <Rbt.Executable>
rbdock ($Id: //depot/dev/client3/rdock/2013.1/src/exe/rbdock.cxx#4 $)

>  <Rbt.Library>
libRbt.so (2013.1, Build901 2013/11/27)

>  <Rbt.Parameter_File>
/export/apps/rDock/src/rDock_2013.1_src/data/scripts/dock_solv.prm

>  <Rbt.Receptor>
prm/blind_docking_20.prm

>  <SCORE>
-5.39021

>  <SCORE.INTER>
-4.9027

>  <SCORE.INTER.CONST>
1

>  <SCORE.INTER.POLAR>
0

>  <SCORE.INTER.ROT>
5

>  <SCORE.INTER.SOLV>
5.1076

>  <SCORE.INTER.VDW>
-11.9043

>  <SCORE.INTER.norm>
-0.49027

>  <SCORE.INTRA>
-0.489829

>  <SCORE.INTRA.DIHEDRAL>
1.15125

>  <SCORE.INTRA.DIHEDRAL.0>
2.22229

>  <SCORE.INTRA.POLAR>
0

>  <SCORE.INTRA.POLAR.0>
0

>  <SCORE.INTRA.REPUL>
0

>  <SCORE.INTRA.REPUL.0>
0

>  <SCORE.INTRA.SOLV>
-1.61091

>  <SCORE.INTRA.SOLV.lig_0>
-31.87

>  <SCORE.INTRA.VDW>
-0.26

>  <SCORE.INTRA.VDW.0>
-0.575321

>  <SCORE.INTRA.norm>
-0.0489829

>  <SCORE.RESTR>
0.00232094

>  <SCORE.RESTR.CAVITY>
0.00232094

>  <SCORE.RESTR.norm>
0.000232094

>  <SCORE.SYSTEM>
0

>  <SCORE.SYSTEM.CONST>
0

>  <SCORE.SYSTEM.DIHEDRAL>
0

>  <SCORE.SYSTEM.SOLV>
0

>  <SCORE.SYSTEM.norm>
0

>  <SCORE.heavy>
10

>  <SCORE.norm>
-0.539021

>  <RMSD>
53.947

$$$$
ligand
 OpenBabel11021811463D
libRbt.so/2013.1/901 2013/11/27
 10  9  0  0  0  0  0  0  0  0999 V2000
  -10.3114   10.0896   -4.8006 N   0  0  0  0  0  0  0  0  0  0  0  0
   -9.4594    9.8418   -5.9573 C   0  0  2  0  0  0  0  0  0  0  0  0
  -10.0949    8.8144   -6.8923 C   0  0  0  0  0  0  0  0  0  0  0  0
  -10.4414    7.7150   -6.4506 O   0  0  0  0  0  0  0  0  0  0  0  0
   -8.0635    9.3903   -5.5168 C   0  0  0  0  0  0  0  0  0  0  0  0
   -7.1043    9.1543   -6.6772 C   0  0  0  0  0  0  0  0  0  0  0  0
   -5.8497    8.4004   -6.2454 C   0  0  0  0  0  0  0  0  0  0  0  0
   -4.9953    7.9684   -7.4475 C   0  0  0  0  0  0  0  0  0  0  0  0
   -3.9010    7.0017   -7.1162 N   0  0  0  0  0  0  0  0  0  0  0  0
  -10.2879    9.0622   -8.0899 O   0  0  0  0  0  0  0  0  0  0  0  0
  2  1  1  1  0  0  0
  2  3  1  0  0  0  0
  2  5  1  0  0  0  0
  3  4  1  0  0  0  0
  3 10  1  0  0  0  0
  5  6  1  0  0  0  0
  6  7  1  0  0  0  0
  7  8  1  0  0  0  0
  8  9  1  0  0  0  0
M  END
>  <CHROM.1>
-54.24457634,-178.20804613,-166.46523541,170.86748849,-168.61311193,-8.07656380
8.72507403,-6.53922514,-2.90035940,0.14443811,-2.17290122

>  <Name>
ligand

>  <RI>
0

>  <Rbt.Current_Directory>
/home/itssahil/PROJECTS/Mol_Feturizer/New_Systems/rnas/3D0U

>  <Rbt.Executable>
rbdock ($Id: //depot/dev/client3/rdock/2013.1/src/exe/rbdock.cxx#4 $)

>  <Rbt.Library>
libRbt.so (2013.1, Build901 2013/11/27)

>  <Rbt.Parameter_File>
/export/apps/rDock/src/rDock_2013.1_src/data/scripts/dock_solv.prm

>  <Rbt.Receptor>
prm/blind_docking_20.prm

>  <SCORE>
-5.35058

>  <SCORE.INTER>
-4.7529

>  <SCORE.INTER.CONST>
1

>  <SCORE.INTER.POLAR>
0

>  <SCORE.INTER.ROT>
5

>  <SCORE.INTER.SOLV>
4.95362

>  <SCORE.INTER.VDW>
-11.7531

>  <SCORE.INTER.norm>
-0.47529

>  <SCORE.INTRA>
-0.599587

>  <SCORE.INTRA.DIHEDRAL>
0.828389

>  <SCORE.INTRA.DIHEDRAL.0>
2.22229

>  <SCORE.INTRA.POLAR>
0

>  <SCORE.INTRA.POLAR.0>
0

>  <SCORE.INTRA.REPUL>
0

>  <SCORE.INTRA.REPUL.0>
0

>  <SCORE.INTRA.SOLV>
-1.59813

>  <SCORE.INTRA.SOLV.lig_0>
-31.87

>  <SCORE.INTRA.VDW>
-0.214717

>  <SCORE.INTRA.VDW.0>
-0.575321

>  <SCORE.INTRA.norm>
-0.0599587

>  <SCORE.RESTR>
0.00190848

>  <SCORE.RESTR.CAVITY>
0.00190848

>  <SCORE.RESTR.norm>
0.000190848

>  <SCORE.SYSTEM>
0

>  <SCORE.SYSTEM.CONST>
0

>  <SCORE.SYSTEM.DIHEDRAL>
0

>  <SCORE.SYSTEM.SOLV>
0

>  <SCORE.SYSTEM.norm>
0

>  <SCORE.heavy>
10

>  <SCORE.norm>
-0.535058

>  <RMSD>
53.947

$$$$
ligand
 OpenBabel11021811463D
libRbt.so/2013.1/901 2013/11/27
 10  9  0  0  0  0  0  0  0  0999 V2000
  -10.3045   10.0917   -4.8047 N   0  0  0  0  0  0  0  0  0  0  0  0
   -9.4549    9.8451   -5.9634 C   0  0  2  0  0  0  0  0  0  0  0  0
  -10.0928    8.8192   -6.8986 C   0  0  0  0  0  0  0  0  0  0  0  0
  -10.4379    7.7190   -6.4579 O   0  0  0  0  0  0  0  0  0  0  0  0
   -8.0583    9.3924   -5.5264 C   0  0  0  0  0  0  0  0  0  0  0  0
   -7.0977    9.1704   -6.6883 C   0  0  0  0  0  0  0  0  0  0  0  0
   -5.8516    8.3963   -6.2677 C   0  0  0  0  0  0  0  0  0  0  0  0
   -5.0034    7.9701   -7.4762 C   0  0  0  0  0  0  0  0  0  0  0  0
   -3.9108    6.9977   -7.1562 N   0  0  0  0  0  0  0  0  0  0  0  0
  -10.2889    9.0691   -8.0952 O   0  0  0  0  0  0  0  0  0  0  0  0
  2  1  1  1  0  0  0
  2  3  1  0  0  0  0
  2  5  1  0  0  0  0
  3  4  1  0  0  0  0
  3 10  1  0  0  0  0
  5  6  1  0  0  0  0
  6  7  1  0  0  0  0
  7  8  1  0  0  0  0
  8  9  1  0  0  0  0
M  END
>  <CHROM.1>
-54.29997859,-177.65970090,-165.57966153,170.39912264,-169.24126379,-8.07581814
8.72841520,-6.55324388,-2.89520107,0.14266052,-2.17348044

>  <Name>
ligand

>  <RI>
0

>  <Rbt.Current_Directory>
/home/itssahil/PROJECTS/Mol_Feturizer/New_Systems/rnas/3D0U

>  <Rbt.Executable>
rbdock ($Id: //depot/dev/client3/rdock/2013.1/src/exe/rbdock.cxx#4 $)

>  <Rbt.Library>
libRbt.so (2013.1, Build901 2013/11/27)

>  <Rbt.Parameter_File>
/export/apps/rDock/src/rDock_2013.1_src/data/scripts/dock_solv.prm

>  <Rbt.Receptor>
prm/blind_docking_20.prm

>  <SCORE>
-5.3216

>  <SCORE.INTER>
-4.75347

>  <SCORE.INTER.CONST>
1

>  <SCORE.INTER.POLAR>
0

>  <SCORE.INTER.ROT>
5

>  <SCORE.INTER.SOLV>
4.98841

>  <SCORE.INTER.VDW>
-11.7651

>  <SCORE.INTER.norm>
-0.475347

>  <SCORE.INTRA>
-0.568132

>  <SCORE.INTRA.DIHEDRAL>
0.916763

>  <SCORE.INTRA.DIHEDRAL.0>
2.22229

>  <SCORE.INTRA.POLAR>
0

>  <SCORE.INTRA.POLAR.0>
0

>  <SCORE.INTRA.REPUL>
0

>  <SCORE.INTRA.REPUL.0>
0

>  <SCORE.INTRA.SOLV>
-1.59879

>  <SCORE.INTRA.SOLV.lig_0>
-31.87

>  <SCORE.INTRA.VDW>
-0.227117

>  <SCORE.INTRA.VDW.0>
-0.575321

>  <SCORE.INTRA.norm>
-0.0568132

>  <SCORE.RESTR>
0

>  <SCORE.RESTR.CAVITY>
0

>  <SCORE.RESTR.norm>
0

>  <SCORE.SYSTEM>
0

>  <SCORE.SYSTEM.CONST>
0

>  <SCORE.SYSTEM.DIHEDRAL>
0

>  <SCORE.SYSTEM.SOLV>
0

>  <SCORE.SYSTEM.norm>
0

>  <SCORE.heavy>
10

>  <SCORE.norm>
-0.53216

>  <RMSD>
53.951

$$$$
ligand
 OpenBabel11021811463D
libRbt.so/2013.1/901 2013/11/27
 10  9  0  0  0  0  0  0  0  0999 V2000
  -10.5196   10.1669   -4.9167 N   0  0  0  0  0  0  0  0  0  0  0  0
   -9.6162    9.8821   -6.0247 C   0  0  2  0  0  0  0  0  0  0  0  0
  -10.1589    8.7483   -6.8929 C   0  0  0  0  0  0  0  0  0  0  0  0
  -10.3935    8.9496   -8.0881 O   0  0  0  0  0  0  0  0  0  0  0  0
   -8.2119    9.5520   -5.5095 C   0  0  0  0  0  0  0  0  0  0  0  0
   -7.2261    9.1913   -6.6142 C   0  0  0  0  0  0  0  0  0  0  0  0
   -5.8116    8.9828   -6.0805 C   0  0  0  0  0  0  0  0  0  0  0  0
   -4.8186    8.6373   -7.2013 C   0  0  0  0  0  0  0  0  0  0  0  0
   -5.0741    7.3247   -7.8747 N   0  0  0  0  0  0  0  0  0  0  0  0
  -10.3576    7.6174   -6.4298 O   0  0  0  0  0  0  0  0  0  0  0  0
  2  1  1  1  0  0  0
  2  3  1  0  0  0  0
  2  5  1  0  0  0  0
  3  4  1  0  0  0  0
  3 10  1  0  0  0  0
  5  6  1  0  0  0  0
  6  7  1  0  0  0  0
  7  8  1  0  0  0  0
  8  9  1  0  0  0  0
M  END
>  <CHROM.1>
120.29402150,177.80623281,175.20478454,-179.25689805,-65.40698993,-8.24154618
8.88315266,-6.58186758,-2.92189833,0.02860853,-2.25162906

>  <Name>
ligand

>  <RI>
0

>  <Rbt.Current_Directory>
/home/itssahil/PROJECTS/Mol_Feturizer/New_Systems/rnas/3D0U

>  <Rbt.Executable>
rbdock ($Id: //depot/dev/client3/rdock/2013.1/src/exe/rbdock.cxx#4 $)

>  <Rbt.Library>
libRbt.so (2013.1, Build901 2013/11/27)

>  <Rbt.Parameter_File>
/export/apps/rDock/src/rDock_2013.1_src/data/scripts/dock_solv.prm

>  <Rbt.Receptor>
prm/blind_docking_20.prm

>  <SCORE>
-5.96687

>  <SCORE.INTER>
-5.23241

>  <SCORE.INTER.CONST>
1

>  <SCORE.INTER.POLAR>
0

>  <SCORE.INTER.ROT>
5

>  <SCORE.INTER.SOLV>
7.468

>  <SCORE.INTER.VDW>
-12.9109

>  <SCORE.INTER.norm>
-0.523241

>  <SCORE.INTRA>
-0.73446

>  <SCORE.INTRA.DIHEDRAL>
-0.512794

>  <SCORE.INTRA.DIHEDRAL.0>
2.22229

>  <SCORE.INTRA.POLAR>
0

>  <SCORE.INTRA.POLAR.0>
0

>  <SCORE.INTRA.REPUL>
0

>  <SCORE.INTRA.REPUL.0>
0

>  <SCORE.INTRA.SOLV>
-0.813092

>  <SCORE.INTRA.SOLV.lig_0>
-31.87

>  <SCORE.INTRA.VDW>
-0.0715167

>  <SCORE.INTRA.VDW.0>
-0.575321

>  <SCORE.INTRA.norm>
-0.073446

>  <SCORE.RESTR>
0

>  <SCORE.RESTR.CAVITY>
0

>  <SCORE.RESTR.norm>
0

>  <SCORE.SYSTEM>
0

>  <SCORE.SYSTEM.CONST>
0

>  <SCORE.SYSTEM.DIHEDRAL>
0

>  <SCORE.SYSTEM.SOLV>
0

>  <SCORE.SYSTEM.norm>
0

>  <SCORE.heavy>
10

>  <SCORE.norm>
-0.596687

>  <RMSD>
53.961

$$$$
ligand
 OpenBabel11021811463D
libRbt.so/2013.1/901 2013/11/27
 10  9  0  0  0  0  0  0  0  0999 V2000
  -10.5946    7.8445   -5.0805 N   0  0  0  0  0  0  0  0  0  0  0  0
   -9.7427    8.9356   -5.5376 C   0  0  2  0  0  0  0  0  0  0  0  0
  -10.2510    9.5065   -6.8603 C   0  0  0  0  0  0  0  0  0  0  0  0
  -10.5689   10.6971   -6.9324 O   0  0  0  0  0  0  0  0  0  0  0  0
   -8.2883    8.4724   -5.6650 C   0  0  0  0  0  0  0  0  0  0  0  0
   -7.3087    9.6068   -5.9405 C   0  0  0  0  0  0  0  0  0  0  0  0
   -5.8623    9.1225   -5.9866 C   0  0  0  0  0  0  0  0  0  0  0  0
   -5.5929    8.2295   -7.2080 C   0  0  0  0  0  0  0  0  0  0  0  0
   -4.2259    7.6197   -7.2421 N   0  0  0  0  0  0  0  0  0  0  0  0
  -10.3393    8.8044   -7.8763 O   0  0  0  0  0  0  0  0  0  0  0  0
  2  1  1  6  0  0  0
  2  3  1  0  0  0  0
  2  5  1  0  0  0  0
  3  4  1  0  0  0  0
  3 10  1  0  0  0  0
  5  6  1  0  0  0  0
  6  7  1  0  0  0  0
  7  8  1  0  0  0  0
  8  9  1  0  0  0  0
M  END
>  <CHROM.1>
120.57947699,-171.54525535,176.91082295,68.25596959,-174.61582858,-8.29990152
8.89919745,-6.46045266,3.08678726,0.19007849,-1.00470287

>  <Name>
ligand

>  <RI>
0

>  <Rbt.Current_Directory>
/home/itssahil/PROJECTS/Mol_Feturizer/New_Systems/rnas/3D0U

>  <Rbt.Executable>
rbdock ($Id: //depot/dev/client3/rdock/2013.1/src/exe/rbdock.cxx#4 $)

>  <Rbt.Library>
libRbt.so (2013.1, Build901 2013/11/27)

>  <Rbt.Parameter_File>
/export/apps/rDock/src/rDock_2013.1_src/data/scripts/dock_solv.prm

>  <Rbt.Receptor>
prm/blind_docking_20.prm

>  <SCORE>
-5.06081

>  <SCORE.INTER>
-4.50992

>  <SCORE.INTER.CONST>
1

>  <SCORE.INTER.POLAR>
0

>  <SCORE.INTER.ROT>
5

>  <SCORE.INTER.SOLV>
6.08406

>  <SCORE.INTER.VDW>
-11.968

>  <SCORE.INTER.norm>
-0.450992

>  <SCORE.INTRA>
-0.550896

>  <SCORE.INTRA.DIHEDRAL>
-0.0486379

>  <SCORE.INTRA.DIHEDRAL.0>
2.22229

>  <SCORE.INTRA.POLAR>
0

>  <SCORE.INTRA.POLAR.0>
0

>  <SCORE.INTRA.REPUL>
0

>  <SCORE.INTRA.REPUL.0>
0

>  <SCORE.INTRA.SOLV>
-1.3919

>  <SCORE.INTRA.SOLV.lig_0>
-31.87

>  <SCORE.INTRA.VDW>
0.169372

>  <SCORE.INTRA.VDW.0>
-0.575321

>  <SCORE.INTRA.norm>
-0.0550896

>  <SCORE.RESTR>
0

>  <SCORE.RESTR.CAVITY>
0

>  <SCORE.RESTR.norm>
0

>  <SCORE.SYSTEM>
0

>  <SCORE.SYSTEM.CONST>
0

>  <SCORE.SYSTEM.DIHEDRAL>
0

>  <SCORE.SYSTEM.SOLV>
0

>  <SCORE.SYSTEM.norm>
0

>  <SCORE.heavy>
10

>  <SCORE.norm>
-0.506081

>  <RMSD>
53.961

$$$$
ligand
 OpenBabel11021811463D
libRbt.so/2013.1/901 2013/11/27
 10  9  0  0  0  0  0  0  0  0999 V2000
   -9.8993    7.5223   -5.5104 N   0  0  0  0  0  0  0  0  0  0  0  0
   -9.7844    8.9743   -5.5704 C   0  0  2  0  0  0  0  0  0  0  0  0
  -10.3287    9.5099   -6.8936 C   0  0  0  0  0  0  0  0  0  0  0  0
  -10.7732   10.6600   -6.9531 O   0  0  0  0  0  0  0  0  0  0  0  0
   -8.3323    9.4134   -5.3589 C   0  0  0  0  0  0  0  0  0  0  0  0
   -7.3657    8.8410   -6.3887 C   0  0  0  0  0  0  0  0  0  0  0  0
   -5.9269    9.2844   -6.1394 C   0  0  0  0  0  0  0  0  0  0  0  0
   -4.9662    8.7526   -7.2145 C   0  0  0  0  0  0  0  0  0  0  0  0
   -4.8158    7.2631   -7.2311 N   0  0  0  0  0  0  0  0  0  0  0  0
  -10.3224    8.8205   -7.9219 O   0  0  0  0  0  0  0  0  0  0  0  0
  2  1  1  6  0  0  0
  2  3  1  0  0  0  0
  2  5  1  0  0  0  0
  3  4  1  0  0  0  0
  3 10  1  0  0  0  0
  5  6  1  0  0  0  0
  6  7  1  0  0  0  0
  7  8  1  0  0  0  0
  8  9  1  0  0  0  0
M  END
>  <CHROM.1>
153.30196750,59.24225731,-179.32277990,-177.59831220,-65.37146461,-8.27532549
8.91880924,-6.54535167,3.01149783,0.16874684,-0.74659551

>  <Name>
ligand

>  <RI>
0

>  <Rbt.Current_Directory>
/home/itssahil/PROJECTS/Mol_Feturizer/New_Systems/rnas/3D0U

>  <Rbt.Executable>
rbdock ($Id: //depot/dev/client3/rdock/2013.1/src/exe/rbdock.cxx#4 $)

>  <Rbt.Library>
libRbt.so (2013.1, Build901 2013/11/27)

>  <Rbt.Parameter_File>
/export/apps/rDock/src/rDock_2013.1_src/data/scripts/dock_solv.prm

>  <Rbt.Receptor>
prm/blind_docking_20.prm

>  <SCORE>
-5.17271

>  <SCORE.INTER>
-4.81356

>  <SCORE.INTER.CONST>
1

>  <SCORE.INTER.POLAR>
0

>  <SCORE.INTER.ROT>
5

>  <SCORE.INTER.SOLV>
6.22182

>  <SCORE.INTER.VDW>
-12.2163

>  <SCORE.INTER.norm>
-0.481356

>  <SCORE.INTRA>
-0.359149

>  <SCORE.INTRA.DIHEDRAL>
-0.637917

>  <SCORE.INTRA.DIHEDRAL.0>
2.22229

>  <SCORE.INTRA.POLAR>
0

>  <SCORE.INTRA.POLAR.0>
0

>  <SCORE.INTRA.REPUL>
0

>  <SCORE.INTRA.REPUL.0>
0

>  <SCORE.INTRA.SOLV>
0.0897676

>  <SCORE.INTRA.SOLV.lig_0>
-31.87

>  <SCORE.INTRA.VDW>
-0.085074

>  <SCORE.INTRA.VDW.0>
-0.575321

>  <SCORE.INTRA.norm>
-0.0359149

>  <SCORE.RESTR>
0

>  <SCORE.RESTR.CAVITY>
0

>  <SCORE.RESTR.norm>
0

>  <SCORE.SYSTEM>
0

>  <SCORE.SYSTEM.CONST>
0

>  <SCORE.SYSTEM.DIHEDRAL>
0

>  <SCORE.SYSTEM.SOLV>
0

>  <SCORE.SYSTEM.norm>
0

>  <SCORE.heavy>
10

>  <SCORE.norm>
-0.517271

>  <RMSD>
53.979

$$$$
ligand
 OpenBabel11021811463D
libRbt.so/2013.1/901 2013/11/27
 10  9  0  0  0  0  0  0  0  0999 V2000
   -9.0914    7.9379   -5.4549 N   0  0  0  0  0  0  0  0  0  0  0  0
   -8.6937    9.0869   -6.2592 C   0  0  2  0  0  0  0  0  0  0  0  0
   -7.2049    9.3833   -6.0875 C   0  0  0  0  0  0  0  0  0  0  0  0
   -6.7546    9.6314   -4.9651 O   0  0  0  0  0  0  0  0  0  0  0  0
   -9.5396   10.3146   -5.9080 C   0  0  0  0  0  0  0  0  0  0  0  0
  -11.0015   10.1858   -6.3188 C   0  0  0  0  0  0  0  0  0  0  0  0
  -11.8064   11.4400   -5.9900 C   0  0  0  0  0  0  0  0  0  0  0  0
  -13.2904   11.2845   -6.3580 C   0  0  0  0  0  0  0  0  0  0  0  0
  -14.1296   12.4923   -6.0775 N   0  0  0  0  0  0  0  0  0  0  0  0
   -6.4269    9.3666   -7.0504 O   0  0  0  0  0  0  0  0  0  0  0  0
  2  1  1  1  0  0  0
  2  3  1  0  0  0  0
  2  5  1  0  0  0  0
  3  4  1  0  0  0  0
  3 10  1  0  0  0  0
  5  6  1  0  0  0  0
  6  7  1  0  0  0  0
  7  8  1  0  0  0  0
  8  9  1  0  0  0  0
M  END
>  <CHROM.1>
-58.72882446,-67.96004483,-178.40100766,-177.84984061,-179.11997742,-9.74866776
10.11288257,-6.04383461,0.38985882,-0.06153985,2.93053423

>  <Name>
ligand

>  <RI>
0

>  <Rbt.Current_Directory>
/home/itssahil/PROJECTS/Mol_Feturizer/New_Systems/rnas/3D0U

>  <Rbt.Executable>
rbdock ($Id: //depot/dev/client3/rdock/2013.1/src/exe/rbdock.cxx#4 $)

>  <Rbt.Library>
libRbt.so (2013.1, Build901 2013/11/27)

>  <Rbt.Parameter_File>
/export/apps/rDock/src/rDock_2013.1_src/data/scripts/dock_solv.prm

>  <Rbt.Receptor>
prm/blind_docking_40.prm

>  <SCORE>
-3.4226

>  <SCORE.INTER>
-2.54849

>  <SCORE.INTER.CONST>
1

>  <SCORE.INTER.POLAR>
0

>  <SCORE.INTER.ROT>
5

>  <SCORE.INTER.SOLV>
4.90588

>  <SCORE.INTER.VDW>
-10.2676

>  <SCORE.INTER.norm>
-0.254849

>  <SCORE.INTRA>
-0.874104

>  <SCORE.INTRA.DIHEDRAL>
-0.449492

>  <SCORE.INTRA.DIHEDRAL.0>
2.22229

>  <SCORE.INTRA.POLAR>
0

>  <SCORE.INTRA.POLAR.0>
0

>  <SCORE.INTRA.REPUL>
0

>  <SCORE.INTRA.REPUL.0>
0

>  <SCORE.INTRA.SOLV>
-0.827724

>  <SCORE.INTRA.SOLV.lig_0>
-31.87

>  <SCORE.INTRA.VDW>
-0.235496

>  <SCORE.INTRA.VDW.0>
-0.575321

>  <SCORE.INTRA.norm>
-0.0874104

>  <SCORE.RESTR>
0

>  <SCORE.RESTR.CAVITY>
0

>  <SCORE.RESTR.norm>
0

>  <SCORE.SYSTEM>
0

>  <SCORE.SYSTEM.CONST>
0

>  <SCORE.SYSTEM.DIHEDRAL>
0

>  <SCORE.SYSTEM.SOLV>
0

>  <SCORE.SYSTEM.norm>
0

>  <SCORE.heavy>
10

>  <SCORE.norm>
-0.34226

>  <RMSD>
54.003

$$$$
ligand
 OpenBabel11021811463D
libRbt.so/2013.1/901 2013/11/27
 10  9  0  0  0  0  0  0  0  0999 V2000
  -11.8684   11.1075   -4.2419 N   0  0  0  0  0  0  0  0  0  0  0  0
  -11.5537   11.4050   -5.6339 C   0  0  2  0  0  0  0  0  0  0  0  0
  -12.8286   11.5315   -6.4660 C   0  0  0  0  0  0  0  0  0  0  0  0
  -13.0891   12.5980   -7.0304 O   0  0  0  0  0  0  0  0  0  0  0  0
  -10.6219   10.3397   -6.2197 C   0  0  0  0  0  0  0  0  0  0  0  0
   -9.2277   10.3438   -5.6047 C   0  0  0  0  0  0  0  0  0  0  0  0
   -8.3307    9.2619   -6.1996 C   0  0  0  0  0  0  0  0  0  0  0  0
   -6.8797    9.3825   -5.7080 C   0  0  0  0  0  0  0  0  0  0  0  0
   -5.9505    8.3435   -6.2544 N   0  0  0  0  0  0  0  0  0  0  0  0
  -13.6081   10.5795   -6.6036 O   0  0  0  0  0  0  0  0  0  0  0  0
  2  1  1  1  0  0  0
  2  3  1  0  0  0  0
  2  5  1  0  0  0  0
  3  4  1  0  0  0  0
  3 10  1  0  0  0  0
  5  6  1  0  0  0  0
  6  7  1  0  0  0  0
  7  8  1  0  0  0  0
  8  9  1  0  0  0  0
M  END
>  <CHROM.1>
118.75936961,-67.40287076,179.38919396,172.78681168,179.79579260,-10.43579336
10.49880990,-6.01525564,-3.13471656,0.40550811,-1.71169594

>  <Name>
ligand

>  <RI>
0

>  <Rbt.Current_Directory>
/home/itssahil/PROJECTS/Mol_Feturizer/New_Systems/rnas/3D0U

>  <Rbt.Executable>
rbdock ($Id: //depot/dev/client3/rdock/2013.1/src/exe/rbdock.cxx#4 $)

>  <Rbt.Library>
libRbt.so (2013.1, Build901 2013/11/27)

>  <Rbt.Parameter_File>
/export/apps/rDock/src/rDock_2013.1_src/data/scripts/dock_solv.prm

>  <Rbt.Receptor>
prm/blind_docking_20.prm

>  <SCORE>
-2.83998

>  <SCORE.INTER>
-2.03666

>  <SCORE.INTER.CONST>
1

>  <SCORE.INTER.POLAR>
0

>  <SCORE.INTER.ROT>
5

>  <SCORE.INTER.SOLV>
4.2938

>  <SCORE.INTER.VDW>
-9.72237

>  <SCORE.INTER.norm>
-0.203666

>  <SCORE.INTRA>
-0.803323

>  <SCORE.INTRA.DIHEDRAL>
-0.29594

>  <SCORE.INTRA.DIHEDRAL.0>
2.22229

>  <SCORE.INTRA.POLAR>
0

>  <SCORE.INTRA.POLAR.0>
0

>  <SCORE.INTRA.REPUL>
0

>  <SCORE.INTRA.REPUL.0>
0

>  <SCORE.INTRA.SOLV>
-0.82263

>  <SCORE.INTRA.SOLV.lig_0>
-31.87

>  <SCORE.INTRA.VDW>
-0.244038

>  <SCORE.INTRA.VDW.0>
-0.575321

>  <SCORE.INTRA.norm>
-0.0803323

>  <SCORE.RESTR>
0

>  <SCORE.RESTR.CAVITY>
0

>  <SCORE.RESTR.norm>
0

>  <SCORE.SYSTEM>
0

>  <SCORE.SYSTEM.CONST>
0

>  <SCORE.SYSTEM.DIHEDRAL>
0

>  <SCORE.SYSTEM.SOLV>
0

>  <SCORE.SYSTEM.norm>
0

>  <SCORE.heavy>
10

>  <SCORE.norm>
-0.283998

>  <RMSD>
54.150

$$$$
ligand
 OpenBabel11021811463D
libRbt.so/2013.1/901 2013/11/27
 10  9  0  0  0  0  0  0  0  0999 V2000
   -7.5765    9.0438   -6.6233 N   0  0  0  0  0  0  0  0  0  0  0  0
   -8.8548    9.0971   -5.9247 C   0  0  2  0  0  0  0  0  0  0  0  0
   -9.9578    8.4438   -6.7558 C   0  0  0  0  0  0  0  0  0  0  0  0
  -10.3306    8.9752   -7.8058 O   0  0  0  0  0  0  0  0  0  0  0  0
   -9.2203   10.5417   -5.5703 C   0  0  0  0  0  0  0  0  0  0  0  0
  -10.3796   10.6540   -4.5875 C   0  0  0  0  0  0  0  0  0  0  0  0
  -10.7694   12.1046   -4.3175 C   0  0  0  0  0  0  0  0  0  0  0  0
  -11.4999   12.7364   -5.5129 C   0  0  0  0  0  0  0  0  0  0  0  0
  -12.8282   12.1202   -5.8253 N   0  0  0  0  0  0  0  0  0  0  0  0
  -10.4828    7.3774   -6.4095 O   0  0  0  0  0  0  0  0  0  0  0  0
  2  1  1  6  0  0  0
  2  3  1  0  0  0  0
  2  5  1  0  0  0  0
  3  4  1  0  0  0  0
  3 10  1  0  0  0  0
  5  6  1  0  0  0  0
  6  7  1  0  0  0  0
  7  8  1  0  0  0  0
  8  9  1  0  0  0  0
M  END
>  <CHROM.1>
-67.96191693,-167.60942666,-176.73888498,72.95777128,64.97544740,-10.20888877
10.08626094,-5.95429922,-1.04277184,-0.26588116,0.54054443

>  <Name>
ligand

>  <RI>
0

>  <Rbt.Current_Directory>
/home/itssahil/PROJECTS/Mol_Feturizer/New_Systems/rnas/3D0U

>  <Rbt.Executable>
rbdock ($Id: //depot/dev/client3/rdock/2013.1/src/exe/rbdock.cxx#4 $)

>  <Rbt.Library>
libRbt.so (2013.1, Build901 2013/11/27)

>  <Rbt.Parameter_File>
/export/apps/rDock/src/rDock_2013.1_src/data/scripts/dock_solv.prm

>  <Rbt.Receptor>
prm/blind_docking_20.prm

>  <SCORE>
0.496098

>  <SCORE.INTER>
0.30377

>  <SCORE.INTER.CONST>
1

>  <SCORE.INTER.POLAR>
0

>  <SCORE.INTER.ROT>
5

>  <SCORE.INTER.SOLV>
6.3981

>  <SCORE.INTER.VDW>
-8.86352

>  <SCORE.INTER.norm>
0.030377

>  <SCORE.INTRA>
0.192328

>  <SCORE.INTRA.DIHEDRAL>
0.625484

>  <SCORE.INTRA.DIHEDRAL.0>
2.22229

>  <SCORE.INTRA.POLAR>
0

>  <SCORE.INTRA.POLAR.0>
0

>  <SCORE.INTRA.REPUL>
0

>  <SCORE.INTRA.REPUL.0>
0

>  <SCORE.INTRA.SOLV>
-0.334127

>  <SCORE.INTRA.SOLV.lig_0>
-31.87

>  <SCORE.INTRA.VDW>
0.04665

>  <SCORE.INTRA.VDW.0>
-0.575321

>  <SCORE.INTRA.norm>
0.0192328

>  <SCORE.RESTR>
0

>  <SCORE.RESTR.CAVITY>
0

>  <SCORE.RESTR.norm>
0

>  <SCORE.SYSTEM>
0

>  <SCORE.SYSTEM.CONST>
0

>  <SCORE.SYSTEM.DIHEDRAL>
0

>  <SCORE.SYSTEM.SOLV>
0

>  <SCORE.SYSTEM.norm>
0

>  <SCORE.heavy>
10

>  <SCORE.norm>
0.0496098

>  <RMSD>
54.177

$$$$
ligand
 OpenBabel11021811463D
libRbt.so/2013.1/901 2013/11/27
 10  9  0  0  0  0  0  0  0  0999 V2000
  -10.7875   11.6262   -5.3774 N   0  0  0  0  0  0  0  0  0  0  0  0
  -11.3904   10.6825   -6.3107 C   0  0  2  0  0  0  0  0  0  0  0  0
  -12.9124   10.6824   -6.1788 C   0  0  0  0  0  0  0  0  0  0  0  0
  -13.4311   10.7793   -5.0628 O   0  0  0  0  0  0  0  0  0  0  0  0
  -10.8235    9.2749   -6.1020 C   0  0  0  0  0  0  0  0  0  0  0  0
   -9.3751    9.1277   -6.5522 C   0  0  0  0  0  0  0  0  0  0  0  0
   -8.3984    9.7817   -5.5788 C   0  0  0  0  0  0  0  0  0  0  0  0
   -6.9351    9.5231   -5.9708 C   0  0  0  0  0  0  0  0  0  0  0  0
   -6.5372    8.0797   -5.9684 N   0  0  0  0  0  0  0  0  0  0  0  0
  -13.6475   10.6021   -7.1718 O   0  0  0  0  0  0  0  0  0  0  0  0
  2  1  1  1  0  0  0
  2  3  1  0  0  0  0
  2  5  1  0  0  0  0
  3  4  1  0  0  0  0
  3 10  1  0  0  0  0
  5  6  1  0  0  0  0
  6  7  1  0  0  0  0
  7  8  1  0  0  0  0
  8  9  1  0  0  0  0
M  END
>  <CHROM.1>
-38.67096787,-70.69122089,74.86614581,174.91542648,-61.90093199,-10.46895394
10.02060104,-6.02579794,-2.91806528,0.20606632,-2.49521136

>  <Name>
ligand

>  <RI>
0

>  <Rbt.Current_Directory>
/home/itssahil/PROJECTS/Mol_Feturizer/New_Systems/rnas/3D0U

>  <Rbt.Executable>
rbdock ($Id: //depot/dev/client3/rdock/2013.1/src/exe/rbdock.cxx#4 $)

>  <Rbt.Library>
libRbt.so (2013.1, Build901 2013/11/27)

>  <Rbt.Parameter_File>
/export/apps/rDock/src/rDock_2013.1_src/data/scripts/dock_solv.prm

>  <Rbt.Receptor>
prm/blind_docking_20.prm

>  <SCORE>
-1.73078

>  <SCORE.INTER>
-2.70056

>  <SCORE.INTER.CONST>
1

>  <SCORE.INTER.POLAR>
0

>  <SCORE.INTER.ROT>
5

>  <SCORE.INTER.SOLV>
4.64679

>  <SCORE.INTER.VDW>
-10.2826

>  <SCORE.INTER.norm>
-0.270056

>  <SCORE.INTRA>
0.969777

>  <SCORE.INTRA.DIHEDRAL>
0.745771

>  <SCORE.INTRA.DIHEDRAL.0>
2.22229

>  <SCORE.INTRA.POLAR>
0

>  <SCORE.INTRA.POLAR.0>
0

>  <SCORE.INTRA.REPUL>
0

>  <SCORE.INTRA.REPUL.0>
0

>  <SCORE.INTRA.SOLV>
1.30423

>  <SCORE.INTRA.SOLV.lig_0>
-31.87

>  <SCORE.INTRA.VDW>
-0.0552237

>  <SCORE.INTRA.VDW.0>
-0.575321

>  <SCORE.INTRA.norm>
0.0969777

>  <SCORE.RESTR>
0

>  <SCORE.RESTR.CAVITY>
0

>  <SCORE.RESTR.norm>
0

>  <SCORE.SYSTEM>
0

>  <SCORE.SYSTEM.CONST>
0

>  <SCORE.SYSTEM.DIHEDRAL>
0

>  <SCORE.SYSTEM.SOLV>
0

>  <SCORE.SYSTEM.norm>
0

>  <SCORE.heavy>
10

>  <SCORE.norm>
-0.173078

>  <RMSD>
54.434

$$$$
ligand
 OpenBabel11021811463D
libRbt.so/2013.1/901 2013/11/27
 10  9  0  0  0  0  0  0  0  0999 V2000
  -11.8247   11.5558   -4.3592 N   0  0  0  0  0  0  0  0  0  0  0  0
  -11.8453   11.4520   -5.8131 C   0  0  2  0  0  0  0  0  0  0  0  0
  -13.2798   11.3868   -6.3346 C   0  0  0  0  0  0  0  0  0  0  0  0
  -14.0896   12.2612   -6.0126 O   0  0  0  0  0  0  0  0  0  0  0  0
  -11.0373   10.2383   -6.2825 C   0  0  0  0  0  0  0  0  0  0  0  0
   -9.5844   10.2582   -5.8232 C   0  0  0  0  0  0  0  0  0  0  0  0
   -8.8172    9.0207   -6.2803 C   0  0  0  0  0  0  0  0  0  0  0  0
   -7.3499    9.0521   -5.8245 C   0  0  0  0  0  0  0  0  0  0  0  0
   -6.5519    7.8475   -6.2167 N   0  0  0  0  0  0  0  0  0  0  0  0
  -13.6522   10.4803   -7.0911 O   0  0  0  0  0  0  0  0  0  0  0  0
  2  1  1  1  0  0  0
  2  3  1  0  0  0  0
  2  5  1  0  0  0  0
  3  4  1  0  0  0  0
  3 10  1  0  0  0  0
  5  6  1  0  0  0  0
  6  7  1  0  0  0  0
  7  8  1  0  0  0  0
  8  9  1  0  0  0  0
M  END
>  <CHROM.1>
53.83264231,-57.76827275,178.68569763,179.51010236,178.66264842,-10.84662487
10.36129894,-6.01594493,-2.85980418,0.35907020,-2.27904931

>  <Name>
ligand

>  <RI>
0

>  <Rbt.Current_Directory>
/home/itssahil/PROJECTS/Mol_Feturizer/New_Systems/rnas/3D0U

>  <Rbt.Executable>
rbdock ($Id: //depot/dev/client3/rdock/2013.1/src/exe/rbdock.cxx#4 $)

>  <Rbt.Library>
libRbt.so (2013.1, Build901 2013/11/27)

>  <Rbt.Parameter_File>
/export/apps/rDock/src/rDock_2013.1_src/data/scripts/dock_solv.prm

>  <Rbt.Receptor>
prm/blind_docking_20.prm

>  <SCORE>
-2.46233

>  <SCORE.INTER>
-2.30917

>  <SCORE.INTER.CONST>
1

>  <SCORE.INTER.POLAR>
0

>  <SCORE.INTER.ROT>
5

>  <SCORE.INTER.SOLV>
2.57719

>  <SCORE.INTER.VDW>
-9.33184

>  <SCORE.INTER.norm>
-0.230917

>  <SCORE.INTRA>
-0.15358

>  <SCORE.INTRA.DIHEDRAL>
-0.725664

>  <SCORE.INTRA.DIHEDRAL.0>
2.22229

>  <SCORE.INTRA.POLAR>
0

>  <SCORE.INTRA.POLAR.0>
0

>  <SCORE.INTRA.REPUL>
0

>  <SCORE.INTRA.REPUL.0>
0

>  <SCORE.INTRA.SOLV>
-0.689379

>  <SCORE.INTRA.SOLV.lig_0>
-31.87

>  <SCORE.INTRA.VDW>
0.553942

>  <SCORE.INTRA.VDW.0>
-0.575321

>  <SCORE.INTRA.norm>
-0.015358

>  <SCORE.RESTR>
0.000414179

>  <SCORE.RESTR.CAVITY>
0.000414179

>  <SCORE.RESTR.norm>
4.14179e-05

>  <SCORE.SYSTEM>
0

>  <SCORE.SYSTEM.CONST>
0

>  <SCORE.SYSTEM.DIHEDRAL>
0

>  <SCORE.SYSTEM.SOLV>
0

>  <SCORE.SYSTEM.norm>
0

>  <SCORE.heavy>
10

>  <SCORE.norm>
-0.246233

>  <RMSD>
54.489

$$$$
ligand
 OpenBabel11021811463D
libRbt.so/2013.1/901 2013/11/27
 10  9  0  0  0  0  0  0  0  0999 V2000
  -11.5339   11.9950   -5.0682 N   0  0  0  0  0  0  0  0  0  0  0  0
  -11.8336   11.0458   -6.1332 C   0  0  2  0  0  0  0  0  0  0  0  0
  -13.3046   10.6346   -6.0990 C   0  0  0  0  0  0  0  0  0  0  0  0
  -13.7901   10.1802   -5.0590 O   0  0  0  0  0  0  0  0  0  0  0  0
  -10.9208    9.8193   -6.0404 C   0  0  0  0  0  0  0  0  0  0  0  0
   -9.4360   10.1621   -6.0463 C   0  0  0  0  0  0  0  0  0  0  0  0
   -8.5556    8.9158   -6.0703 C   0  0  0  0  0  0  0  0  0  0  0  0
   -7.0596    9.2678   -6.0762 C   0  0  0  0  0  0  0  0  0  0  0  0
   -6.1436    8.0850   -6.1345 N   0  0  0  0  0  0  0  0  0  0  0  0
  -14.0344   10.7601   -7.0912 O   0  0  0  0  0  0  0  0  0  0  0  0
  2  1  1  1  0  0  0
  2  3  1  0  0  0  0
  2  5  1  0  0  0  0
  3  4  1  0  0  0  0
  3 10  1  0  0  0  0
  5  6  1  0  0  0  0
  6  7  1  0  0  0  0
  7  8  1  0  0  0  0
  8  9  1  0  0  0  0
M  END
>  <CHROM.1>
-54.38467750,-55.44943982,-175.22947661,179.99240011,-178.53098578,-10.70649523
10.08262211,-5.98177951,-2.86219250,0.12938783,-2.67349215

>  <Name>
ligand

>  <RI>
0

>  <Rbt.Current_Directory>
/home/itssahil/PROJECTS/Mol_Feturizer/New_Systems/rnas/3D0U

>  <Rbt.Executable>
rbdock ($Id: //depot/dev/client3/rdock/2013.1/src/exe/rbdock.cxx#4 $)

>  <Rbt.Library>
libRbt.so (2013.1, Build901 2013/11/27)

>  <Rbt.Parameter_File>
/export/apps/rDock/src/rDock_2013.1_src/data/scripts/dock_solv.prm

>  <Rbt.Receptor>
prm/blind_docking_20.prm

>  <SCORE>
-3.48174

>  <SCORE.INTER>
-2.73986

>  <SCORE.INTER.CONST>
1

>  <SCORE.INTER.POLAR>
0

>  <SCORE.INTER.ROT>
5

>  <SCORE.INTER.SOLV>
4.04389

>  <SCORE.INTER.VDW>
-10.1079

>  <SCORE.INTER.norm>
-0.273986

>  <SCORE.INTRA>
-0.741883

>  <SCORE.INTRA.DIHEDRAL>
-0.560465

>  <SCORE.INTRA.DIHEDRAL.0>
2.22229

>  <SCORE.INTRA.POLAR>
0

>  <SCORE.INTRA.POLAR.0>
0

>  <SCORE.INTRA.REPUL>
0

>  <SCORE.INTRA.REPUL.0>
0

>  <SCORE.INTRA.SOLV>
-0.681518

>  <SCORE.INTRA.SOLV.lig_0>
-31.87

>  <SCORE.INTRA.VDW>
-0.120892

>  <SCORE.INTRA.VDW.0>
-0.575321

>  <SCORE.INTRA.norm>
-0.0741883

>  <SCORE.RESTR>
0

>  <SCORE.RESTR.CAVITY>
0

>  <SCORE.RESTR.norm>
0

>  <SCORE.SYSTEM>
0

>  <SCORE.SYSTEM.CONST>
0

>  <SCORE.SYSTEM.DIHEDRAL>
0

>  <SCORE.SYSTEM.SOLV>
0

>  <SCORE.SYSTEM.norm>
0

>  <SCORE.heavy>
10

>  <SCORE.norm>
-0.348174

>  <RMSD>
54.526

$$$$
ligand
 OpenBabel11021811463D
libRbt.so/2013.1/901 2013/11/27
 10  9  0  0  0  0  0  0  0  0999 V2000
  -11.5897   11.8962   -4.8700 N   0  0  0  0  0  0  0  0  0  0  0  0
  -11.8584   11.0428   -6.0210 C   0  0  2  0  0  0  0  0  0  0  0  0
  -13.3280   10.6274   -6.0602 C   0  0  0  0  0  0  0  0  0  0  0  0
  -13.9994   10.8434   -7.0734 O   0  0  0  0  0  0  0  0  0  0  0  0
  -10.9432    9.8146   -6.0119 C   0  0  0  0  0  0  0  0  0  0  0  0
   -9.4589   10.1600   -6.0067 C   0  0  0  0  0  0  0  0  0  0  0  0
   -8.5763    8.9158   -6.0497 C   0  0  0  0  0  0  0  0  0  0  0  0
   -7.0812    9.2710   -6.0695 C   0  0  0  0  0  0  0  0  0  0  0  0
   -6.1634    8.0904   -6.1434 N   0  0  0  0  0  0  0  0  0  0  0  0
  -13.8657   10.0607   -5.0997 O   0  0  0  0  0  0  0  0  0  0  0  0
  2  1  1  1  0  0  0
  2  3  1  0  0  0  0
  2  5  1  0  0  0  0
  3  4  1  0  0  0  0
  3 10  1  0  0  0  0
  5  6  1  0  0  0  0
  6  7  1  0  0  0  0
  7  8  1  0  0  0  0
  8  9  1  0  0  0  0
M  END
>  <CHROM.1>
125.30642574,-57.77900752,-177.89123944,178.98272171,-178.67014279,-10.73158572
10.06802731,-5.94248223,-2.87174801,0.14142884,-2.60582789

>  <Name>
ligand

>  <RI>
0

>  <Rbt.Current_Directory>
/home/itssahil/PROJECTS/Mol_Feturizer/New_Systems/rnas/3D0U

>  <Rbt.Executable>
rbdock ($Id: //depot/dev/client3/rdock/2013.1/src/exe/rbdock.cxx#4 $)

>  <Rbt.Library>
libRbt.so (2013.1, Build901 2013/11/27)

>  <Rbt.Parameter_File>
/export/apps/rDock/src/rDock_2013.1_src/data/scripts/dock_solv.prm

>  <Rbt.Receptor>
prm/blind_docking_20.prm

>  <SCORE>
-3.53032

>  <SCORE.INTER>
-2.64442

>  <SCORE.INTER.CONST>
1

>  <SCORE.INTER.POLAR>
0

>  <SCORE.INTER.ROT>
5

>  <SCORE.INTER.SOLV>
3.81294

>  <SCORE.INTER.VDW>
-9.96726

>  <SCORE.INTER.norm>
-0.264442

>  <SCORE.INTRA>
-0.8859

>  <SCORE.INTRA.DIHEDRAL>
-0.706696

>  <SCORE.INTRA.DIHEDRAL.0>
2.22229

>  <SCORE.INTRA.POLAR>
0

>  <SCORE.INTRA.POLAR.0>
0

>  <SCORE.INTRA.REPUL>
0

>  <SCORE.INTRA.REPUL.0>
0

>  <SCORE.INTRA.SOLV>
-0.711647

>  <SCORE.INTRA.SOLV.lig_0>
-31.87

>  <SCORE.INTRA.VDW>
-0.176728

>  <SCORE.INTRA.VDW.0>
-0.575321

>  <SCORE.INTRA.norm>
-0.08859

>  <SCORE.RESTR>
0

>  <SCORE.RESTR.CAVITY>
0

>  <SCORE.RESTR.norm>
0

>  <SCORE.SYSTEM>
0

>  <SCORE.SYSTEM.CONST>
0

>  <SCORE.SYSTEM.DIHEDRAL>
0

>  <SCORE.SYSTEM.SOLV>
0

>  <SCORE.SYSTEM.norm>
0

>  <SCORE.heavy>
10

>  <SCORE.norm>
-0.353032

>  <RMSD>
54.529

$$$$
ligand
 OpenBabel11021811463D
libRbt.so/2013.1/901 2013/11/27
 10  9  0  0  0  0  0  0  0  0999 V2000
  -11.6023   11.9456   -4.9473 N   0  0  0  0  0  0  0  0  0  0  0  0
  -11.8728   11.0577   -6.0714 C   0  0  2  0  0  0  0  0  0  0  0  0
  -13.3420   10.6399   -6.0948 C   0  0  0  0  0  0  0  0  0  0  0  0
  -14.0292   10.8702   -7.0941 O   0  0  0  0  0  0  0  0  0  0  0  0
  -10.9562    9.8313   -6.0276 C   0  0  0  0  0  0  0  0  0  0  0  0
   -9.4726   10.1788   -6.0107 C   0  0  0  0  0  0  0  0  0  0  0  0
   -8.5878    8.9359   -6.0458 C   0  0  0  0  0  0  0  0  0  0  0  0
   -7.0932    9.2934   -6.0602 C   0  0  0  0  0  0  0  0  0  0  0  0
   -6.1729    8.1136   -6.1118 N   0  0  0  0  0  0  0  0  0  0  0  0
  -13.8639   10.0571   -5.1352 O   0  0  0  0  0  0  0  0  0  0  0  0
  2  1  1  1  0  0  0
  2  3  1  0  0  0  0
  2  5  1  0  0  0  0
  3  4  1  0  0  0  0
  3 10  1  0  0  0  0
  5  6  1  0  0  0  0
  6  7  1  0  0  0  0
  7  8  1  0  0  0  0
  8  9  1  0  0  0  0
M  END
>  <CHROM.1>
122.58411661,-56.73429164,-176.80463763,178.73186586,-179.27538834,-10.74446746
10.08803717,-5.96161796,-2.86759828,0.13046628,-2.67408210

>  <Name>
ligand

>  <RI>
0

>  <Rbt.Current_Directory>
/home/itssahil/PROJECTS/Mol_Feturizer/New_Systems/rnas/3D0U

>  <Rbt.Executable>
rbdock ($Id: //depot/dev/client3/rdock/2013.1/src/exe/rbdock.cxx#4 $)

>  <Rbt.Library>
libRbt.so (2013.1, Build901 2013/11/27)

>  <Rbt.Parameter_File>
/export/apps/rDock/src/rDock_2013.1_src/data/scripts/dock_solv.prm

>  <Rbt.Receptor>
prm/blind_docking_20.prm

>  <SCORE>
-3.50289

>  <SCORE.INTER>
-2.67063

>  <SCORE.INTER.CONST>
1

>  <SCORE.INTER.POLAR>
0

>  <SCORE.INTER.ROT>
5

>  <SCORE.INTER.SOLV>
3.88266

>  <SCORE.INTER.VDW>
-10.008

>  <SCORE.INTER.norm>
-0.267063

>  <SCORE.INTRA>
-0.832257

>  <SCORE.INTRA.DIHEDRAL>
-0.659608

>  <SCORE.INTRA.DIHEDRAL.0>
2.22229

>  <SCORE.INTRA.POLAR>
0

>  <SCORE.INTRA.POLAR.0>
0

>  <SCORE.INTRA.REPUL>
0

>  <SCORE.INTRA.REPUL.0>
0

>  <SCORE.INTRA.SOLV>
-0.704534

>  <SCORE.INTRA.SOLV.lig_0>
-31.87

>  <SCORE.INTRA.VDW>
-0.150187

>  <SCORE.INTRA.VDW.0>
-0.575321

>  <SCORE.INTRA.norm>
-0.0832257

>  <SCORE.RESTR>
0

>  <SCORE.RESTR.CAVITY>
0

>  <SCORE.RESTR.norm>
0

>  <SCORE.SYSTEM>
0

>  <SCORE.SYSTEM.CONST>
0

>  <SCORE.SYSTEM.DIHEDRAL>
0

>  <SCORE.SYSTEM.SOLV>
0

>  <SCORE.SYSTEM.norm>
0

>  <SCORE.heavy>
10

>  <SCORE.norm>
-0.350289

>  <RMSD>
54.536

$$$$
ligand
 OpenBabel11021811463D
libRbt.so/2013.1/901 2013/11/27
 10  9  0  0  0  0  0  0  0  0999 V2000
  -11.9589   12.0376   -4.7808 N   0  0  0  0  0  0  0  0  0  0  0  0
  -12.1675   11.4423   -6.0950 C   0  0  2  0  0  0  0  0  0  0  0  0
  -13.4493   10.6114   -6.1198 C   0  0  0  0  0  0  0  0  0  0  0  0
  -13.8433   10.0611   -5.0874 O   0  0  0  0  0  0  0  0  0  0  0  0
  -10.9591   10.5954   -6.5058 C   0  0  0  0  0  0  0  0  0  0  0  0
  -10.6434    9.4690   -5.5291 C   0  0  0  0  0  0  0  0  0  0  0  0
   -9.4207    8.6612   -5.9549 C   0  0  0  0  0  0  0  0  0  0  0  0
   -8.1206    9.4692   -5.8180 C   0  0  0  0  0  0  0  0  0  0  0  0
   -6.8832    8.7272   -6.2180 N   0  0  0  0  0  0  0  0  0  0  0  0
  -14.1187   10.4859   -7.1537 O   0  0  0  0  0  0  0  0  0  0  0  0
  2  1  1  1  0  0  0
  2  3  1  0  0  0  0
  2  5  1  0  0  0  0
  3  4  1  0  0  0  0
  3 10  1  0  0  0  0
  5  6  1  0  0  0  0
  6  7  1  0  0  0  0
  7  8  1  0  0  0  0
  8  9  1  0  0  0  0
M  END
>  <CHROM.1>
-29.82242883,58.51689413,-178.99525885,69.68002231,179.83806175,-11.19594977
10.14355842,-5.92782735,-2.87438829,0.14891522,-2.64199081

>  <Name>
ligand

>  <RI>
0

>  <Rbt.Current_Directory>
/home/itssahil/PROJECTS/Mol_Feturizer/New_Systems/rnas/3D0U

>  <Rbt.Executable>
rbdock ($Id: //depot/dev/client3/rdock/2013.1/src/exe/rbdock.cxx#4 $)

>  <Rbt.Library>
libRbt.so (2013.1, Build901 2013/11/27)

>  <Rbt.Parameter_File>
/export/apps/rDock/src/rDock_2013.1_src/data/scripts/dock_solv.prm

>  <Rbt.Receptor>
prm/blind_docking_20.prm

>  <SCORE>
-2.59596

>  <SCORE.INTER>
-2.54779

>  <SCORE.INTER.CONST>
1

>  <SCORE.INTER.POLAR>
0

>  <SCORE.INTER.ROT>
5

>  <SCORE.INTER.SOLV>
4.00787

>  <SCORE.INTER.VDW>
-9.96781

>  <SCORE.INTER.norm>
-0.254779

>  <SCORE.INTRA>
-0.0481747

>  <SCORE.INTRA.DIHEDRAL>
-0.313517

>  <SCORE.INTRA.DIHEDRAL.0>
2.22229

>  <SCORE.INTRA.POLAR>
0

>  <SCORE.INTRA.POLAR.0>
0

>  <SCORE.INTRA.REPUL>
0

>  <SCORE.INTRA.REPUL.0>
0

>  <SCORE.INTRA.SOLV>
-0.507448

>  <SCORE.INTRA.SOLV.lig_0>
-31.87

>  <SCORE.INTRA.VDW>
0.362308

>  <SCORE.INTRA.VDW.0>
-0.575321

>  <SCORE.INTRA.norm>
-0.00481747

>  <SCORE.RESTR>
0

>  <SCORE.RESTR.CAVITY>
0

>  <SCORE.RESTR.norm>
0

>  <SCORE.SYSTEM>
0

>  <SCORE.SYSTEM.CONST>
0

>  <SCORE.SYSTEM.DIHEDRAL>
0

>  <SCORE.SYSTEM.SOLV>
0

>  <SCORE.SYSTEM.norm>
0

>  <SCORE.heavy>
10

>  <SCORE.norm>
-0.259596

>  <RMSD>
54.765

$$$$
ligand
 OpenBabel11021811463D
libRbt.so/2013.1/901 2013/11/27
 10  9  0  0  0  0  0  0  0  0999 V2000
  -12.6006   11.0309   -4.4386 N   0  0  0  0  0  0  0  0  0  0  0  0
  -12.2985   11.3219   -5.8347 C   0  0  2  0  0  0  0  0  0  0  0  0
  -13.5793   11.4075   -6.6632 C   0  0  0  0  0  0  0  0  0  0  0  0
  -14.2053   10.3781   -6.9323 O   0  0  0  0  0  0  0  0  0  0  0  0
  -11.3422   10.2746   -6.4132 C   0  0  0  0  0  0  0  0  0  0  0  0
   -9.9516   10.3086   -5.7909 C   0  0  0  0  0  0  0  0  0  0  0  0
   -9.0602    9.1824   -6.3068 C   0  0  0  0  0  0  0  0  0  0  0  0
   -7.6473    9.2451   -5.7055 C   0  0  0  0  0  0  0  0  0  0  0  0
   -6.7481    8.1198   -6.1139 N   0  0  0  0  0  0  0  0  0  0  0  0
  -14.0193   12.4933   -7.0633 O   0  0  0  0  0  0  0  0  0  0  0  0
  2  1  1  1  0  0  0
  2  3  1  0  0  0  0
  2  5  1  0  0  0  0
  3  4  1  0  0  0  0
  3 10  1  0  0  0  0
  5  6  1  0  0  0  0
  6  7  1  0  0  0  0
  7  8  1  0  0  0  0
  8  9  1  0  0  0  0
M  END
>  <CHROM.1>
-72.78458661,-66.65825050,175.35523675,178.40480158,176.69326574,-11.18560102
10.38457626,-6.14527322,-3.05787736,0.41118794,-1.98071494

>  <Name>
ligand

>  <RI>
0

>  <Rbt.Current_Directory>
/home/itssahil/PROJECTS/Mol_Feturizer/New_Systems/rnas/3D0U

>  <Rbt.Executable>
rbdock ($Id: //depot/dev/client3/rdock/2013.1/src/exe/rbdock.cxx#4 $)

>  <Rbt.Library>
libRbt.so (2013.1, Build901 2013/11/27)

>  <Rbt.Parameter_File>
/export/apps/rDock/src/rDock_2013.1_src/data/scripts/dock_solv.prm

>  <Rbt.Receptor>
prm/blind_docking_40.prm

>  <SCORE>
-4.15862

>  <SCORE.INTER>
-3.45922

>  <SCORE.INTER.CONST>
1

>  <SCORE.INTER.POLAR>
0

>  <SCORE.INTER.ROT>
5

>  <SCORE.INTER.SOLV>
3.43319

>  <SCORE.INTER.VDW>
-10.3839

>  <SCORE.INTER.norm>
-0.345922

>  <SCORE.INTRA>
-0.699407

>  <SCORE.INTRA.DIHEDRAL>
-0.43759

>  <SCORE.INTRA.DIHEDRAL.0>
2.22229

>  <SCORE.INTRA.POLAR>
0

>  <SCORE.INTRA.POLAR.0>
0

>  <SCORE.INTRA.REPUL>
0

>  <SCORE.INTRA.REPUL.0>
0

>  <SCORE.INTRA.SOLV>
-0.783953

>  <SCORE.INTRA.SOLV.lig_0>
-31.87

>  <SCORE.INTRA.VDW>
-0.0886352

>  <SCORE.INTRA.VDW.0>
-0.575321

>  <SCORE.INTRA.norm>
-0.0699407

>  <SCORE.RESTR>
0

>  <SCORE.RESTR.CAVITY>
0

>  <SCORE.RESTR.norm>
0

>  <SCORE.SYSTEM>
0

>  <SCORE.SYSTEM.CONST>
0

>  <SCORE.SYSTEM.DIHEDRAL>
0

>  <SCORE.SYSTEM.SOLV>
0

>  <SCORE.SYSTEM.norm>
0

>  <SCORE.heavy>
10

>  <SCORE.norm>
-0.415862

>  <RMSD>
54.767

$$$$
ligand
 OpenBabel11021811463D
libRbt.so/2013.1/901 2013/11/27
 10  9  0  0  0  0  0  0  0  0999 V2000
  -12.5687   11.2268   -4.4521 N   0  0  0  0  0  0  0  0  0  0  0  0
  -12.3143   11.4078   -5.8761 C   0  0  2  0  0  0  0  0  0  0  0  0
  -13.6229   11.4425   -6.6635 C   0  0  0  0  0  0  0  0  0  0  0  0
  -14.1883   10.3859   -6.9600 O   0  0  0  0  0  0  0  0  0  0  0  0
  -11.3864   10.3102   -6.4059 C   0  0  0  0  0  0  0  0  0  0  0  0
   -9.9872   10.3510   -5.8033 C   0  0  0  0  0  0  0  0  0  0  0  0
   -9.1208    9.1870   -6.2760 C   0  0  0  0  0  0  0  0  0  0  0  0
   -7.7033    9.2476   -5.6853 C   0  0  0  0  0  0  0  0  0  0  0  0
   -6.8181    8.1052   -6.0765 N   0  0  0  0  0  0  0  0  0  0  0  0
  -14.1452   12.5125   -7.0029 O   0  0  0  0  0  0  0  0  0  0  0  0
  2  1  1  1  0  0  0
  2  3  1  0  0  0  0
  2  5  1  0  0  0  0
  3  4  1  0  0  0  0
  3 10  1  0  0  0  0
  5  6  1  0  0  0  0
  6  7  1  0  0  0  0
  7  8  1  0  0  0  0
  8  9  1  0  0  0  0
M  END
>  <CHROM.1>
-80.85558943,-64.81947217,175.90981842,178.96068673,178.04876566,-11.22640458
10.42499017,-6.13845848,-2.99465028,0.40498666,-2.13611982

>  <Name>
ligand

>  <RI>
0

>  <Rbt.Current_Directory>
/home/itssahil/PROJECTS/Mol_Feturizer/New_Systems/rnas/3D0U

>  <Rbt.Executable>
rbdock ($Id: //depot/dev/client3/rdock/2013.1/src/exe/rbdock.cxx#4 $)

>  <Rbt.Library>
libRbt.so (2013.1, Build901 2013/11/27)

>  <Rbt.Parameter_File>
/export/apps/rDock/src/rDock_2013.1_src/data/scripts/dock_solv.prm

>  <Rbt.Receptor>
prm/blind_docking_40.prm

>  <SCORE>
-4.17026

>  <SCORE.INTER>
-3.54413

>  <SCORE.INTER.CONST>
1

>  <SCORE.INTER.POLAR>
0

>  <SCORE.INTER.ROT>
5

>  <SCORE.INTER.SOLV>
3.20654

>  <SCORE.INTER.VDW>
-10.3649

>  <SCORE.INTER.norm>
-0.354413

>  <SCORE.INTRA>
-0.626125

>  <SCORE.INTRA.DIHEDRAL>
-0.584321

>  <SCORE.INTRA.DIHEDRAL.0>
2.22229

>  <SCORE.INTRA.POLAR>
0

>  <SCORE.INTRA.POLAR.0>
0

>  <SCORE.INTRA.REPUL>
0

>  <SCORE.INTRA.REPUL.0>
0

>  <SCORE.INTRA.SOLV>
-0.766509

>  <SCORE.INTRA.SOLV.lig_0>
-31.87

>  <SCORE.INTRA.VDW>
0.0492898

>  <SCORE.INTRA.VDW.0>
-0.575321

>  <SCORE.INTRA.norm>
-0.0626125

>  <SCORE.RESTR>
0

>  <SCORE.RESTR.CAVITY>
0

>  <SCORE.RESTR.norm>
0

>  <SCORE.SYSTEM>
0

>  <SCORE.SYSTEM.CONST>
0

>  <SCORE.SYSTEM.DIHEDRAL>
0

>  <SCORE.SYSTEM.SOLV>
0

>  <SCORE.SYSTEM.norm>
0

>  <SCORE.heavy>
10

>  <SCORE.norm>
-0.417026

>  <RMSD>
54.767

$$$$
ligand
 OpenBabel11021811463D
libRbt.so/2013.1/901 2013/11/27
 10  9  0  0  0  0  0  0  0  0999 V2000
  -12.3549   12.6380   -5.2038 N   0  0  0  0  0  0  0  0  0  0  0  0
  -12.2006   11.5477   -6.1591 C   0  0  2  0  0  0  0  0  0  0  0  0
  -13.4639   10.6907   -6.2167 C   0  0  0  0  0  0  0  0  0  0  0  0
  -14.0658   10.5567   -7.2861 O   0  0  0  0  0  0  0  0  0  0  0  0
  -10.9760   10.6941   -5.8159 C   0  0  0  0  0  0  0  0  0  0  0  0
  -10.6708    9.6204   -6.8534 C   0  0  0  0  0  0  0  0  0  0  0  0
   -9.6570    8.5987   -6.3461 C   0  0  0  0  0  0  0  0  0  0  0  0
   -8.2742    9.2271   -6.1121 C   0  0  0  0  0  0  0  0  0  0  0  0
   -7.2203    8.2612   -5.6671 N   0  0  0  0  0  0  0  0  0  0  0  0
  -13.8967   10.1085   -5.2133 O   0  0  0  0  0  0  0  0  0  0  0  0
  2  1  1  1  0  0  0
  2  3  1  0  0  0  0
  2  5  1  0  0  0  0
  3  4  1  0  0  0  0
  3 10  1  0  0  0  0
  5  6  1  0  0  0  0
  6  7  1  0  0  0  0
  7  8  1  0  0  0  0
  8  9  1  0  0  0  0
M  END
>  <CHROM.1>
121.20514324,-174.11711310,-167.21755342,-65.69004989,-177.60002880,-11.31618978
10.18134767,-6.08972483,-2.77122833,0.18396972,-2.72891974

>  <Name>
ligand

>  <RI>
0

>  <Rbt.Current_Directory>
/home/itssahil/PROJECTS/Mol_Feturizer/New_Systems/rnas/3D0U

>  <Rbt.Executable>
rbdock ($Id: //depot/dev/client3/rdock/2013.1/src/exe/rbdock.cxx#4 $)

>  <Rbt.Library>
libRbt.so (2013.1, Build901 2013/11/27)

>  <Rbt.Parameter_File>
/export/apps/rDock/src/rDock_2013.1_src/data/scripts/dock_solv.prm

>  <Rbt.Receptor>
prm/blind_docking_20.prm

>  <SCORE>
-4.14929

>  <SCORE.INTER>
-3.85528

>  <SCORE.INTER.CONST>
1

>  <SCORE.INTER.POLAR>
0

>  <SCORE.INTER.ROT>
5

>  <SCORE.INTER.SOLV>
2.7637

>  <SCORE.INTER.VDW>
-10.4248

>  <SCORE.INTER.norm>
-0.385528

>  <SCORE.INTRA>
-0.294008

>  <SCORE.INTRA.DIHEDRAL>
0.197709

>  <SCORE.INTRA.DIHEDRAL.0>
2.22229

>  <SCORE.INTRA.POLAR>
0

>  <SCORE.INTRA.POLAR.0>
0

>  <SCORE.INTRA.REPUL>
0

>  <SCORE.INTRA.REPUL.0>
0

>  <SCORE.INTRA.SOLV>
-1.42562

>  <SCORE.INTRA.SOLV.lig_0>
-31.87

>  <SCORE.INTRA.VDW>
0.31995

>  <SCORE.INTRA.VDW.0>
-0.575321

>  <SCORE.INTRA.norm>
-0.0294008

>  <SCORE.RESTR>
0

>  <SCORE.RESTR.CAVITY>
0

>  <SCORE.RESTR.norm>
0

>  <SCORE.SYSTEM>
0

>  <SCORE.SYSTEM.CONST>
0

>  <SCORE.SYSTEM.DIHEDRAL>
0

>  <SCORE.SYSTEM.SOLV>
0

>  <SCORE.SYSTEM.norm>
0

>  <SCORE.heavy>
10

>  <SCORE.norm>
-0.414929

>  <RMSD>
54.907

$$$$
ligand
 OpenBabel11021811463D
libRbt.so/2013.1/901 2013/11/27
 10  9  0  0  0  0  0  0  0  0999 V2000
  -12.3665   12.6510   -5.2503 N   0  0  0  0  0  0  0  0  0  0  0  0
  -12.2090   11.5530   -6.1962 C   0  0  2  0  0  0  0  0  0  0  0  0
  -13.4603   10.6772   -6.2280 C   0  0  0  0  0  0  0  0  0  0  0  0
  -13.8422   10.1159   -5.1969 O   0  0  0  0  0  0  0  0  0  0  0  0
  -10.9676   10.7208   -5.8603 C   0  0  0  0  0  0  0  0  0  0  0  0
  -10.6670    9.6332   -6.8846 C   0  0  0  0  0  0  0  0  0  0  0  0
   -9.6635    8.6091   -6.3619 C   0  0  0  0  0  0  0  0  0  0  0  0
   -8.2754    9.2279   -6.1336 C   0  0  0  0  0  0  0  0  0  0  0  0
   -7.2282    8.2559   -5.6860 N   0  0  0  0  0  0  0  0  0  0  0  0
  -14.1171   10.5254   -7.2664 O   0  0  0  0  0  0  0  0  0  0  0  0
  2  1  1  1  0  0  0
  2  3  1  0  0  0  0
  2  5  1  0  0  0  0
  3  4  1  0  0  0  0
  3 10  1  0  0  0  0
  5  6  1  0  0  0  0
  6  7  1  0  0  0  0
  7  8  1  0  0  0  0
  8  9  1  0  0  0  0
M  END
>  <CHROM.1>
-59.61802600,-174.59044132,-165.46086143,-65.87321637,-177.06232377,-11.31780946
10.18378800,-6.10773506,-2.76761173,0.17573481,-2.74644032

>  <Name>
ligand

>  <RI>
0

>  <Rbt.Current_Directory>
/home/itssahil/PROJECTS/Mol_Feturizer/New_Systems/rnas/3D0U

>  <Rbt.Executable>
rbdock ($Id: //depot/dev/client3/rdock/2013.1/src/exe/rbdock.cxx#4 $)

>  <Rbt.Library>
libRbt.so (2013.1, Build901 2013/11/27)

>  <Rbt.Parameter_File>
/export/apps/rDock/src/rDock_2013.1_src/data/scripts/dock_solv.prm

>  <Rbt.Receptor>
prm/blind_docking_20.prm

>  <SCORE>
-4.1493

>  <SCORE.INTER>
-3.98412

>  <SCORE.INTER.CONST>
1

>  <SCORE.INTER.POLAR>
0

>  <SCORE.INTER.ROT>
5

>  <SCORE.INTER.SOLV>
2.85037

>  <SCORE.INTER.VDW>
-10.5395

>  <SCORE.INTER.norm>
-0.398412

>  <SCORE.INTRA>
-0.165184

>  <SCORE.INTRA.DIHEDRAL>
0.380939

>  <SCORE.INTRA.DIHEDRAL.0>
2.22229

>  <SCORE.INTRA.POLAR>
0

>  <SCORE.INTRA.POLAR.0>
0

>  <SCORE.INTRA.REPUL>
0

>  <SCORE.INTRA.REPUL.0>
0

>  <SCORE.INTRA.SOLV>
-1.41767

>  <SCORE.INTRA.SOLV.lig_0>
-31.87

>  <SCORE.INTRA.VDW>
0.353181

>  <SCORE.INTRA.VDW.0>
-0.575321

>  <SCORE.INTRA.norm>
-0.0165184

>  <SCORE.RESTR>
0

>  <SCORE.RESTR.CAVITY>
0

>  <SCORE.RESTR.norm>
0

>  <SCORE.SYSTEM>
0

>  <SCORE.SYSTEM.CONST>
0

>  <SCORE.SYSTEM.DIHEDRAL>
0

>  <SCORE.SYSTEM.SOLV>
0

>  <SCORE.SYSTEM.norm>
0

>  <SCORE.heavy>
10

>  <SCORE.norm>
-0.41493

>  <RMSD>
54.916

$$$$
ligand
 OpenBabel11021811463D
libRbt.so/2013.1/901 2013/11/27
 10  9  0  0  0  0  0  0  0  0999 V2000
  -16.6455   43.0430  -14.3924 N   0  0  0  0  0  0  0  0  0  0  0  0
  -16.6497   42.5164  -15.7517 C   0  0  2  0  0  0  0  0  0  0  0  0
  -16.9351   43.6240  -16.7644 C   0  0  0  0  0  0  0  0  0  0  0  0
  -16.4151   43.5807  -17.8832 O   0  0  0  0  0  0  0  0  0  0  0  0
  -17.6625   41.3756  -15.8892 C   0  0  0  0  0  0  0  0  0  0  0  0
  -17.2982   40.1357  -15.0815 C   0  0  0  0  0  0  0  0  0  0  0  0
  -18.2838   38.9919  -15.3030 C   0  0  0  0  0  0  0  0  0  0  0  0
  -17.9074   37.7423  -14.4915 C   0  0  0  0  0  0  0  0  0  0  0  0
  -18.7966   36.5602  -14.7231 N   0  0  0  0  0  0  0  0  0  0  0  0
  -17.6933   44.5654  -16.4966 O   0  0  0  0  0  0  0  0  0  0  0  0
  2  1  1  1  0  0  0
  2  3  1  0  0  0  0
  2  5  1  0  0  0  0
  3  4  1  0  0  0  0
  3 10  1  0  0  0  0
  5  6  1  0  0  0  0
  6  7  1  0  0  0  0
  7  8  1  0  0  0  0
  8  9  1  0  0  0  0
M  END
>  <CHROM.1>
146.91133588,-66.40721071,-176.72993581,179.71385032,-176.89227897,-17.43076978
41.25012269,-15.70420515,-0.63236788,1.31091746,1.92605520

>  <Name>
ligand

>  <RI>
0

>  <Rbt.Current_Directory>
/home/itssahil/PROJECTS/Mol_Feturizer/New_Systems/rnas/3D0U

>  <Rbt.Executable>
rbdock ($Id: //depot/dev/client3/rdock/2013.1/src/exe/rbdock.cxx#4 $)

>  <Rbt.Library>
libRbt.so (2013.1, Build901 2013/11/27)

>  <Rbt.Parameter_File>
/export/apps/rDock/src/rDock_2013.1_src/data/scripts/dock_solv.prm

>  <Rbt.Receptor>
prm/blind_docking_80.prm

>  <SCORE>
-4.03176

>  <SCORE.INTER>
-3.09356

>  <SCORE.INTER.CONST>
1

>  <SCORE.INTER.POLAR>
0

>  <SCORE.INTER.ROT>
5

>  <SCORE.INTER.SOLV>
15.0875

>  <SCORE.INTER.VDW>
-14.0249

>  <SCORE.INTER.norm>
-0.309356

>  <SCORE.INTRA>
-0.938204

>  <SCORE.INTRA.DIHEDRAL>
-0.5211

>  <SCORE.INTRA.DIHEDRAL.0>
2.22229

>  <SCORE.INTRA.POLAR>
0

>  <SCORE.INTRA.POLAR.0>
0

>  <SCORE.INTRA.REPUL>
0

>  <SCORE.INTRA.REPUL.0>
0

>  <SCORE.INTRA.SOLV>
-0.815179

>  <SCORE.INTRA.SOLV.lig_0>
-31.87

>  <SCORE.INTRA.VDW>
-0.270064

>  <SCORE.INTRA.VDW.0>
-0.575321

>  <SCORE.INTRA.norm>
-0.0938204

>  <SCORE.RESTR>
0

>  <SCORE.RESTR.CAVITY>
0

>  <SCORE.RESTR.norm>
0

>  <SCORE.SYSTEM>
0

>  <SCORE.SYSTEM.CONST>
0

>  <SCORE.SYSTEM.DIHEDRAL>
0

>  <SCORE.SYSTEM.SOLV>
0

>  <SCORE.SYSTEM.norm>
0

>  <SCORE.heavy>
10

>  <SCORE.norm>
-0.403176

>  <RMSD>
56.157

$$$$
ligand
 OpenBabel11021811463D
libRbt.so/2013.1/901 2013/11/27
 10  9  0  0  0  0  0  0  0  0999 V2000
  -16.9912   42.0327  -15.6342 N   0  0  0  0  0  0  0  0  0  0  0  0
  -17.9447   40.9335  -15.7218 C   0  0  2  0  0  0  0  0  0  0  0  0
  -19.3403   41.3874  -15.2972 C   0  0  0  0  0  0  0  0  0  0  0  0
  -19.5015   42.5188  -14.8304 O   0  0  0  0  0  0  0  0  0  0  0  0
  -17.4782   39.7414  -14.8807 C   0  0  0  0  0  0  0  0  0  0  0  0
  -18.2968   38.4764  -15.1086 C   0  0  0  0  0  0  0  0  0  0  0  0
  -17.9656   37.3838  -14.0960 C   0  0  0  0  0  0  0  0  0  0  0  0
  -18.9269   36.1895  -14.2026 C   0  0  0  0  0  0  0  0  0  0  0  0
  -18.7804   35.1750  -13.1112 N   0  0  0  0  0  0  0  0  0  0  0  0
  -20.3266   40.6498  -15.4238 O   0  0  0  0  0  0  0  0  0  0  0  0
  2  1  1  1  0  0  0
  2  3  1  0  0  0  0
  2  5  1  0  0  0  0
  3  4  1  0  0  0  0
  3 10  1  0  0  0  0
  5  6  1  0  0  0  0
  6  7  1  0  0  0  0
  7  8  1  0  0  0  0
  8  9  1  0  0  0  0
M  END
>  <CHROM.1>
-6.51906908,-170.19581269,-170.33224533,171.92705219,-171.61265045,-18.58654895
39.47048965,-14.82603719,-1.58885112,-0.10394483,2.87296762

>  <Name>
ligand

>  <RI>
0

>  <Rbt.Current_Directory>
/home/itssahil/PROJECTS/Mol_Feturizer/New_Systems/rnas/3D0U

>  <Rbt.Executable>
rbdock ($Id: //depot/dev/client3/rdock/2013.1/src/exe/rbdock.cxx#4 $)

>  <Rbt.Library>
libRbt.so (2013.1, Build901 2013/11/27)

>  <Rbt.Parameter_File>
/export/apps/rDock/src/rDock_2013.1_src/data/scripts/dock_solv.prm

>  <Rbt.Receptor>
prm/blind_docking_80.prm

>  <SCORE>
-5.91533

>  <SCORE.INTER>
-5.41192

>  <SCORE.INTER.CONST>
1

>  <SCORE.INTER.POLAR>
0

>  <SCORE.INTER.ROT>
5

>  <SCORE.INTER.SOLV>
16.6929

>  <SCORE.INTER.VDW>
-16.1056

>  <SCORE.INTER.norm>
-0.541192

>  <SCORE.INTRA>
-0.503412

>  <SCORE.INTRA.DIHEDRAL>
0.539456

>  <SCORE.INTRA.DIHEDRAL.0>
2.22229

>  <SCORE.INTRA.POLAR>
0

>  <SCORE.INTRA.POLAR.0>
0

>  <SCORE.INTRA.REPUL>
0

>  <SCORE.INTRA.REPUL.0>
0

>  <SCORE.INTRA.SOLV>
-1.5778

>  <SCORE.INTRA.SOLV.lig_0>
-31.87

>  <SCORE.INTRA.VDW>
0.0157618

>  <SCORE.INTRA.VDW.0>
-0.575321

>  <SCORE.INTRA.norm>
-0.0503412

>  <SCORE.RESTR>
0

>  <SCORE.RESTR.CAVITY>
0

>  <SCORE.RESTR.norm>
0

>  <SCORE.SYSTEM>
0

>  <SCORE.SYSTEM.CONST>
0

>  <SCORE.SYSTEM.DIHEDRAL>
0

>  <SCORE.SYSTEM.SOLV>
0

>  <SCORE.SYSTEM.norm>
0

>  <SCORE.heavy>
10

>  <SCORE.norm>
-0.591533

>  <RMSD>
56.451

$$$$
