@<TRIPOS>MOLECULE
3D0U_rdock.pdb
 3478 3896 0 0 0
SMALL
GASTEIGER

@<TRIPOS>ATOM
      1  P         34.7390   58.9320   20.4120 P.3     1  G1          0.1280
      2  C5'       35.6660   60.7810   18.7530 C.3     1  G1          0.1795
      3  O5'       35.9380   59.7600   19.7200 O.3     1  G1         -0.3259
      4  C4'       36.9150   61.2510   18.0130 C.3     1  G1          0.1772
      5  O4'       37.9130   61.7840   18.9240 O.3     1  G1         -0.3307
      6  C3'       37.6530   60.1660   17.2450 C.3     1  G1          0.1860
      7  O3'       37.0620   60.0050   15.9660 O.3     1  G1         -0.3112
      8  C2'       39.0640   60.7380   17.1370 C.3     1  G1          0.2309
      9  O2'       39.1720   61.7160   16.1190 O.3     1  G1         -0.2156
     10  C1'       39.2130   61.3940   18.5020 C.3     1  G1          0.2408
     11  N1        43.2290   58.6220   20.1300 N.ar    1  G1         -0.1709
     12  C2        43.0840   59.3090   18.9460 C.ar    1  G1          0.2606
     13  N2        44.1350   59.2500   18.1100 N.pl3   1  G1         -0.0859
     14  N3        41.9920   60.0060   18.6060 N.ar    1  G1         -0.1918
     15  C4        41.0400   59.9530   19.5740 C.ar    1  G1          0.1723
     16  C5        41.1000   59.2910   20.7820 C.ar    1  G1          0.1748
     17  C6        42.2580   58.5620   21.1260 C.ar    1  G1          0.3023
     18  O6        42.4730   57.9170   22.1620 O.2     1  G1         -0.2633
     19  N7        39.9300   59.4660   21.5020 N.ar    1  G1         -0.2173
     20  C8        39.1930   60.2200   20.7320 C.ar    1  G1          0.1817
     21  N9        39.7960   60.5520   19.5440 N.ar    1  G1         -0.2693
     22  OP1       35.3590   57.6380   20.7920 O.3     1  G1         -0.1955
     23  OP2       33.6250   58.6640   19.4440 O.co2   1  G1         -0.7863
     24  P         36.7970   58.5240   15.4230 P.3     2  G2          0.2141
     25  C5'       39.0270   58.5870   14.0640 C.3     2  G2          0.1812
     26  O5'       38.2820   58.0030   15.1250 O.3     2  G2         -0.3114
     27  C4'       40.4410   58.0390   14.0350 C.3     2  G2          0.1773
     28  O4'       41.1360   58.3940   15.2540 O.3     2  G2         -0.3307
     29  C3'       40.5690   56.5280   14.0390 C.3     2  G2          0.1860
     30  O3'       40.2980   55.9930   12.7610 O.3     2  G2         -0.3112
     31  C2'       42.0420   56.4100   14.3900 C.3     2  G2          0.2309
     32  O2'       42.8640   56.8930   13.3460 O.3     2  G2         -0.2156
     33  C1'       42.1060   57.3990   15.5390 C.3     2  G2          0.2408
     34  N1        43.8770   54.6020   19.4360 N.ar    2  G2         -0.1709
     35  C2        44.4720   54.8970   18.2270 C.ar    2  G2          0.2606
     36  N2        45.6960   54.3870   18.0330 N.pl3   2  G2         -0.0859
     37  N3        43.9160   55.6420   17.2720 N.ar    2  G2         -0.1918
     38  C4        42.6820   56.0760   17.6300 C.ar    2  G2          0.1723
     39  C5        42.0030   55.8380   18.8050 C.ar    2  G2          0.1748
     40  C6        42.6090   55.0470   19.8110 C.ar    2  G2          0.3023
     41  O6        42.1450   54.7390   20.9160 O.2     2  G2         -0.2633
     42  N7        40.7640   56.4600   18.7910 N.ar    2  G2         -0.2173
     43  C8        40.7140   57.0480   17.6270 C.ar    2  G2          0.1817
     44  N9        41.8410   56.8560   16.8670 N.ar    2  G2         -0.2693
     45  OP1       36.0740   58.6620   14.1340 O.2     2  G2         -0.5172
     46  OP2       36.2290   57.7190   16.5420 O.co2   2  G2         -0.4373
     47  P         39.7400   54.4980   12.6600 P.3     3  A3          0.2141
     48  C5'       42.1040   53.3850   12.4250 C.3     3  A3          0.1812
     49  O5'       40.9410   53.5910   13.2170 O.3     3  A3         -0.3114
     50  C4'       43.0830   52.4760   13.1400 C.3     3  A3          0.1773
     51  O4'       43.4070   53.0390   14.4290 O.3     3  A3         -0.3307
     52  C3'       42.5690   51.1030   13.5360 C.3     3  A3          0.1860
     53  O3'       42.5160   50.2280   12.4230 O.3     3  A3         -0.3112
     54  C2'       43.6730   50.7040   14.5060 C.3     3  A3          0.2309
     55  O2'       44.8930   50.4110   13.8540 O.3     3  A3         -0.2156
     56  C1'       43.8220   51.9980   15.2920 C.3     3  A3          0.2408
     57  N1        43.4040   50.4900   20.1750 N.ar    3  A3         -0.2040
     58  C2        44.3520   50.2950   19.2480 C.ar    3  A3          0.2016
     59  N3        44.3950   50.7200   17.9840 N.ar    3  A3         -0.2048
     60  C4        43.2990   51.4320   17.6910 C.ar    3  A3          0.1692
     61  C5        42.2440   51.7210   18.5310 C.ar    3  A3          0.1518
     62  C6        42.3140   51.2140   19.8430 C.ar    3  A3          0.1919
     63  N6        41.3680   51.4140   20.7650 N.pl3   3  A3         -0.1054
     64  N7        41.2980   52.4850   17.8760 N.ar    3  A3         -0.2193
     65  C8        41.7930   52.6350   16.6680 C.ar    3  A3          0.1816
     66  N9        43.0010   52.0250   16.4930 N.ar    3  A3         -0.2693
     67  OP1       39.5340   54.2500   11.2130 O.2     3  A3         -0.5172
     68  OP2       38.6180   54.3510   13.6150 O.co2   3  A3         -0.4373
     69  P         41.3730   49.1090   12.3370 P.3     4  C4          0.2141
     70  C5'       43.0810   47.2680   13.0380 C.3     4  C4          0.1812
     71  O5'       41.8990   47.9870   13.3560 O.3     4  C4         -0.3114
     72  C4'       43.6510   46.5490   14.2450 C.3     4  C4          0.1773
     73  O4'       43.9100   47.5060   15.2960 O.3     4  C4         -0.3307
     74  C3'       42.7310   45.5340   14.9000 C.3     4  C4          0.1860
     75  O3'       42.8050   44.2860   14.2400 O.3     4  C4         -0.3112
     76  C2'       43.3390   45.4330   16.2950 C.3     4  C4          0.2309
     77  O2'       44.4810   44.5980   16.3580 O.3     4  C4         -0.2156
     78  C1'       43.6940   46.8920   16.5550 C.3     4  C4          0.2420
     79  N1        42.5550   47.5410   17.2310 N.ar    4  C4         -0.2535
     80  C2        42.3980   47.3300   18.5990 C.ar    4  C4          0.3532
     81  O2        43.2300   46.6280   19.1880 O.2     4  C4         -0.2443
     82  N3        41.3490   47.9070   19.2340 N.ar    4  C4         -0.1739
     83  C4        40.4890   48.6530   18.5380 C.ar    4  C4          0.1759
     84  N4        39.4670   49.2010   19.2010 N.pl3   4  C4         -0.1070
     85  C5        40.6330   48.8730   17.1350 C.ar    4  C4          0.0566
     86  C6        41.6710   48.2980   16.5240 C.ar    4  C4          0.0850
     87  OP1       41.4080   48.5890   10.9520 O.2     4  C4         -0.5172
     88  OP2       40.1060   49.6680   12.8630 O.co2   4  C4         -0.4373
     89  P         41.5250   43.3290   14.2210 P.3     5  G5          0.2141
     90  C5'       41.8460   41.8850   16.3980 C.3     5  G5          0.1812
     91  O5'       41.2250   43.0010   15.7680 O.3     5  G5         -0.3114
     92  C4'       41.7980   41.9670   17.9160 C.3     5  G5          0.1773
     93  O4'       41.8620   43.3490   18.3580 O.3     5  G5         -0.3307
     94  C3'       40.5320   41.4970   18.6170 C.3     5  G5          0.1860
     95  O3'       40.3790   40.0800   18.6040 O.3     5  G5         -0.3112
     96  C2'       40.8550   42.0140   20.0140 C.3     5  G5          0.2309
     97  O2'       41.8880   41.2770   20.6400 O.3     5  G5         -0.2156
     98  C1'       41.3240   43.4280   19.6700 C.3     5  G5          0.2408
     99  N1        37.8800   45.6910   22.6140 N.ar    5  G5         -0.1709
    100  C2        38.8560   44.7770   22.9420 C.ar    5  G5          0.2606
    101  N2        38.9310   44.4060   24.2290 N.pl3   5  G5         -0.0859
    102  N3        39.7070   44.2560   22.0680 N.ar    5  G5         -0.1918
    103  C4        39.4990   44.7330   20.8190 C.ar    5  G5          0.1723
    104  C5        38.5590   45.6430   20.3900 C.ar    5  G5          0.1748
    105  C6        37.6620   46.1890   21.3310 C.ar    5  G5          0.3023
    106  O6        36.7650   47.0120   21.1250 O.2     5  G5         -0.2633
    107  N7        38.6740   45.8740   19.0250 N.ar    5  G5         -0.2173
    108  C8        39.6690   45.1040   18.6670 C.ar    5  G5          0.1817
    109  N9        40.2190   44.3860   19.7060 N.ar    5  G5         -0.2693
    110  OP1       41.9630   42.0950   13.5290 O.2     5  G5         -0.5172
    111  OP2       40.3830   44.1150   13.6930 O.co2   5  G5         -0.4373
    112  P         38.9070   39.4420   18.6980 P.3     6  G6          0.2141
    113  C5'       39.1670   39.1020   21.2740 C.3     6  G6          0.1812
    114  O5'       38.4810   39.7440   20.2130 O.3     6  G6         -0.3114
    115  C4'       38.5800   39.5230   22.6070 C.3     6  G6          0.1773
    116  O4'       38.5330   40.9690   22.6650 O.3     6  G6         -0.3307
    117  C3'       37.1350   39.1160   22.8400 C.3     6  G6          0.1860
    118  O3'       37.0700   37.7800   23.3240 O.3     6  G6         -0.3112
    119  C2'       36.7010   40.1230   23.9000 C.3     6  G6          0.2309
    120  O2'       37.1510   39.7590   25.1890 O.3     6  G6         -0.2156
    121  C1'       37.4310   41.3820   23.4480 C.3     6  G6          0.2408
    122  N1        33.6560   44.7520   23.5290 N.ar    6  G6         -0.1709
    123  C2        34.1800   43.9920   24.5430 C.ar    6  G6          0.2606
    124  N2        33.6280   44.1500   25.7520 N.pl3   6  G6         -0.0859
    125  N3        35.1780   43.1340   24.3950 N.ar    6  G6         -0.1918
    126  C4        35.6150   43.1040   23.1200 C.ar    6  G6          0.1723
    127  C5        35.1630   43.8180   22.0370 C.ar    6  G6          0.1748
    128  C6        34.0950   44.7280   22.2110 C.ar    6  G6          0.3023
    129  O6        33.5490   45.4580   21.3670 O.2     6  G6         -0.2633
    130  N7        35.8870   43.4890   20.9010 N.ar    6  G6         -0.2173
    131  C8        36.7440   42.5940   21.3180 C.ar    6  G6          0.1817
    132  N9        36.6310   42.3110   22.6570 N.ar    6  G6         -0.2693
    133  OP1       39.0600   37.9790   18.5260 O.3     6  G6         -0.4373
    134  OP2       37.9950   40.2010   17.7990 O.co2   6  G6         -0.5172
    135  P         35.8040   36.8660   22.9560 P.3     7  A7          0.2141
    136  C5'       35.0980   37.2860   25.4190 C.3     7  A7          0.1812
    137  O5'       34.7390   37.3510   24.0470 O.3     7  A7         -0.3114
    138  C4'       33.9990   37.8750   26.2840 C.3     7  A7          0.1773
    139  O4'       33.9300   39.3130   26.1140 O.3     7  A7         -0.3307
    140  C3'       32.6100   37.3860   25.9340 C.3     7  A7          0.1860
    141  O3'       32.3920   36.1600   26.6160 O.3     7  A7         -0.3112
    142  C2'       31.7390   38.5140   26.4800 C.3     7  A7          0.2309
    143  O2'       31.5020   38.3640   27.8680 O.3     7  A7         -0.2156
    144  C1'       32.5950   39.7560   26.2360 C.3     7  A7          0.2408
    145  N1        30.0750   43.7810   24.1440 N.ar    7  A7         -0.2040
    146  C2        30.0760   43.2710   25.3810 C.ar    7  A7          0.2016
    147  N3        30.7460   42.2240   25.8660 N.ar    7  A7         -0.2048
    148  C4        31.5030   41.6550   24.9160 C.ar    7  A7          0.1692
    149  C5        31.6070   42.0650   23.6000 C.ar    7  A7          0.1518
    150  C6        30.8480   43.1870   23.2120 C.ar    7  A7          0.1919
    151  N6        30.8570   43.6810   21.9720 N.pl3   7  A7         -0.1054
    152  N7        32.4770   41.2480   22.9000 N.ar    7  A7         -0.2193
    153  C8        32.8770   40.3740   23.7980 C.ar    7  A7          0.1816
    154  N9        32.3230   40.5510   25.0360 N.ar    7  A7         -0.2693
    155  OP1       36.1600   35.4620   23.2740 O.3     7  A7         -0.4373
    156  OP2       35.3210   37.2280   21.6000 O.co2   7  A7         -0.5172
    157  P         31.1080   35.2690   26.2780 P.3     8  G8          0.2141
    158  C5'       28.6290   35.8400   26.7190 C.3     8  G8          0.1812
    159  O5'       29.9450   36.2890   26.6370 O.3     8  G8         -0.3114
    160  C4'       27.8950   36.7820   27.6400 C.3     8  G8          0.1773
    161  O4'       28.1470   38.1510   27.2370 O.3     8  G8         -0.3307
    162  C3'       26.3910   36.6380   27.6250 C.3     8  G8          0.1860
    163  O3'       25.9570   36.9980   28.9090 O.3     8  G8         -0.3112
    164  C2'       25.9580   37.6460   26.5650 C.3     8  G8          0.2309
    165  O2'       24.6220   38.0780   26.7470 O.3     8  G8         -0.2156
    166  C1'       26.9340   38.7740   26.8650 C.3     8  G8          0.2408
    167  N1        29.5000   39.4230   22.4960 N.ar    8  G8         -0.1709
    168  C2        29.5080   38.3510   23.3540 C.ar    8  G8          0.2606
    169  N2        30.2990   37.3270   23.0060 N.pl3   8  G8         -0.0859
    170  N3        28.7970   38.2860   24.4750 N.ar    8  G8         -0.1918
    171  C4        28.0560   39.4020   24.6720 C.ar    8  G8          0.1723
    172  C5        27.9790   40.5190   23.8730 C.ar    8  G8          0.1748
    173  C6        28.7430   40.5710   22.6860 C.ar    8  G8          0.3023
    174  O6        28.7990   41.4790   21.8550 O.2     8  G8         -0.2633
    175  N7        27.1070   41.4530   24.4150 N.ar    8  G8         -0.2173
    176  C8        26.6820   40.8930   25.5130 C.ar    8  G8          0.1817
    177  N9        27.2100   39.6460   25.7320 N.ar    8  G8         -0.2693
    178  OP1       31.0500   34.1700   27.2690 O.3     8  G8         -0.4373
    179  OP2       31.0780   34.9940   24.8200 O.co2   8  G8         -0.5172
    180  P         25.2930   35.8250   29.7490 P.3     9  G9          0.2141
    181  C5'       23.4200   34.4160   28.8370 C.3     9  G9          0.1812
    182  O5'       23.9950   35.6610   28.8620 O.3     9  G9         -0.3114
    183  C4'       23.0230   34.1180   27.4180 C.3     9  G9          0.1773
    184  O4'       24.0940   34.3970   26.4700 O.3     9  G9         -0.3307
    185  C3'       22.6880   32.6470   27.3020 C.3     9  G9          0.1860
    186  O3'       21.4380   32.5590   26.6460 O.3     9  G9         -0.3112
    187  C2'       23.8930   32.1140   26.5380 C.3     9  G9          0.2309
    188  O2'       23.6140   30.9320   25.8270 O.3     9  G9         -0.2156
    189  C1'       24.1570   33.2880   25.6060 C.3     9  G9          0.2408
    190  N1        27.4500   35.3250   22.2650 N.ar    9  G9         -0.1709
    191  C2        26.2490   35.8180   22.7070 C.ar    9  G9          0.2606
    192  N2        25.8780   36.9970   22.1870 N.pl3   9  G9         -0.0859
    193  N3        25.4660   35.2090   23.5870 N.ar    9  G9         -0.1918
    194  C4        25.9980   34.0390   24.0030 C.ar    9  G9          0.1723
    195  C5        27.1910   33.4620   23.6230 C.ar    9  G9          0.1748
    196  C6        28.0130   34.1240   22.6780 C.ar    9  G9          0.3023
    197  O6        29.1100   33.7660   22.2190 O.2     9  G9         -0.2633
    198  N7        27.3830   32.2490   24.2750 N.ar    9  G9         -0.2173
    199  C8        26.3190   32.1220   25.0220 C.ar    9  G9          0.1817
    200  N9        25.4360   33.1700   24.9130 N.ar    9  G9         -0.2693
    201  OP1       24.8210   36.3030   31.0760 O.3     9  G9         -0.4373
    202  OP2       26.1490   34.6290   29.5810 O.co2   9  G9         -0.5172
    203  P         20.2210   31.9500   27.4800 P.3    10  C10         0.2141
    204  C5'       19.4370   29.5490   26.7190 C.3    10  C10         0.1812
    205  O5'       20.4840   30.4160   27.0920 O.3    10  C10        -0.3114
    206  C4'       19.7680   28.8730   25.4060 C.3    10  C10         0.1773
    207  O4'       18.6680   27.9890   25.0800 O.3    10  C10        -0.3307
    208  C3'       19.8860   29.8350   24.2330 C.3    10  C10         0.1860
    209  O3'       20.6230   29.2620   23.1650 O.3    10  C10        -0.3112
    210  C2'       18.4330   29.9680   23.8080 C.3    10  C10         0.2309
    211  O2'       18.3260   30.3000   22.4380 O.3    10  C10        -0.2156
    212  C1'       17.9050   28.5500   24.0250 C.3    10  C10         0.2420
    213  N1        16.4320   28.5330   24.3410 N.ar   10  C10        -0.2535
    214  C2        15.9770   28.8550   25.6320 C.ar   10  C10         0.3532
    215  O2        16.7900   29.1380   26.5180 O.2    10  C10        -0.2443
    216  N3        14.6450   28.8470   25.8870 N.ar   10  C10        -0.1739
    217  C4        13.7830   28.5380   24.9160 C.ar   10  C10         0.1759
    218  N4        12.4810   28.5470   25.2310 N.pl3  10  C10        -0.1070
    219  C5        14.2200   28.2110   23.5920 C.ar   10  C10         0.0566
    220  C6        15.5380   28.2230   23.3510 C.ar   10  C10         0.0850
    221  OP1       18.9370   32.4310   26.9080 O.2    10  C10        -0.5172
    222  OP2       20.4920   32.1390   28.9270 O.co2  10  C10        -0.4373
    223  P         21.8460   30.0400   22.4870 P.3    11  G11         0.2141
    224  C5'       20.9660   32.4910   22.7460 C.3    11  G11         0.1812
    225  O5'       21.1870   31.3720   21.8960 O.3    11  G11        -0.3114
    226  C4'       21.3090   33.7830   22.0300 C.3    11  G11         0.1773
    227  O4'       22.6410   34.2190   22.3950 O.3    11  G11        -0.3307
    228  C3'       21.3360   33.6870   20.5160 C.3    11  G11         0.1860
    229  O3'       20.0240   33.8550   20.0170 O.3    11  G11        -0.3112
    230  C2'       22.2040   34.8950   20.1950 C.3    11  G11         0.2309
    231  O2'       21.5180   36.1160   20.3870 O.3    11  G11        -0.2156
    232  C1'       23.2820   34.7610   21.2590 C.3    11  G11         0.2408
    233  N1        27.2140   33.7920   18.1590 N.ar   11  G11        -0.1709
    234  C2        26.3870   34.8830   18.1800 C.ar   11  G11         0.2606
    235  N2        26.6450   35.8290   17.2630 N.pl3  11  G11        -0.0859
    236  N3        25.3830   35.0360   19.0350 N.ar   11  G11        -0.1918
    237  C4        25.2780   33.9900   19.8850 C.ar   11  G11         0.1723
    238  C5        26.0560   32.8640   19.9440 C.ar   11  G11         0.1748
    239  C6        27.1200   32.7090   19.0270 C.ar   11  G11         0.3023
    240  O6        27.9240   31.7640   18.9320 O.2    11  G11        -0.2633
    241  N7        25.6260   32.0230   20.9620 N.ar   11  G11        -0.2173
    242  C8        24.6120   32.6410   21.4920 C.ar   11  G11         0.1817
    243  N9        24.3470   33.8430   20.8910 N.ar   11  G11        -0.2693
    244  OP1       22.3530   29.2380   21.3490 O.2    11  G11        -0.5172
    245  OP2       22.7570   30.4310   23.5790 O.co2  11  G11        -0.4373
    246  P         19.6220   33.2260   18.6090 P.3    12  C12         0.2141
    247  C5'       19.9280   35.4590   17.3560 C.3    12  C12         0.1812
    248  O5'       20.3740   34.1470   17.5510 O.3    12  C12        -0.3114
    249  C4'       20.7750   36.0810   16.2730 C.3    12  C12         0.1773
    250  O4'       22.1600   36.0430   16.6890 O.3    12  C12        -0.3307
    251  C3'       20.7900   35.3220   14.9640 C.3    12  C12         0.1860
    252  O3'       19.6510   35.6650   14.2010 O.3    12  C12        -0.3112
    253  C2'       22.0650   35.8830   14.3500 C.3    12  C12         0.2309
    254  O2'       21.8960   37.2080   13.8760 O.3    12  C12        -0.2156
    255  C1'       22.9940   35.8960   15.5570 C.3    12  C12         0.2420
    256  N1        23.7790   34.6540   15.7290 N.ar   12  C12        -0.2535
    257  C2        24.8710   34.3950   14.9020 C.ar   12  C12         0.3532
    258  O2        25.1770   35.2040   14.0300 O.2    12  C12        -0.2443
    259  N3        25.5770   33.2590   15.0690 N.ar   12  C12        -0.1739
    260  C4        25.2250   32.4060   16.0230 C.ar   12  C12         0.1759
    261  N4        25.9580   31.3000   16.1490 N.pl3  12  C12        -0.1070
    262  C5        24.1190   32.6490   16.8870 C.ar   12  C12         0.0566
    263  C6        23.4270   33.7770   16.7080 C.ar   12  C12         0.0850
    264  OP1       18.1650   33.4090   18.4430 O.2    12  C12        -0.5172
    265  OP2       20.2310   31.8820   18.5290 O.co2  12  C12        -0.4373
    266  P         18.9460   34.5380   13.3090 P.3    13  G13         0.2141
    267  C5'       19.9520   35.3090   11.0550 C.3    13  G13         0.1812
    268  O5'       19.9470   34.3350   12.0780 O.3    13  G13        -0.3114
    269  C4'       21.2230   35.2340   10.2440 C.3    13  G13         0.1773
    270  O4'       22.3660   35.1400   11.1210 O.3    13  G13        -0.3307
    271  C3'       21.3770   33.9890    9.4010 C.3    13  G13         0.1860
    272  O3'       20.5870   34.1480    8.2530 O.3    13  G13        -0.3112
    273  C2'       22.8490   34.1240    9.0680 C.3    13  G13         0.2309
    274  O2'       23.0590   35.2250    8.2170 O.3    13  G13        -0.2156
    275  C1'       23.4070   34.4630   10.4390 C.3    13  G13         0.2408
    276  N1        26.6090   30.5550   10.8830 N.ar   13  G13        -0.1709
    277  C2        26.5550   31.5430    9.9300 C.ar   13  G13         0.2606
    278  N2        27.4800   31.4830    8.9660 N.pl3  13  G13        -0.0859
    279  N3        25.6630   32.5250    9.9160 N.ar   13  G13        -0.1918
    280  C4        24.8110   32.4320   10.9580 C.ar   13  G13         0.1723
    281  C5        24.7690   31.4900   11.9560 C.ar   13  G13         0.1748
    282  C6        25.7260   30.4490   11.9590 C.ar   13  G13         0.3023
    283  O6        25.8400   29.5240   12.7780 O.2    13  G13        -0.2633
    284  N7        23.7310   31.7490   12.8420 N.ar   13  G13        -0.2173
    285  C8        23.1730   32.8240   12.3620 C.ar   13  G13         0.1817
    286  N9        23.7790   33.2920   11.2200 N.ar   13  G13        -0.2693
    287  OP1       17.6910   35.1390   12.7930 O.2    13  G13        -0.5172
    288  OP2       18.9260   33.2800   14.1030 O.co2  13  G13        -0.4373
    289  P         20.0500   32.8800    7.4420 P.3    14  C14         0.2141
    290  C5'       21.9390   33.1540    5.6620 C.3    14  C14         0.1812
    291  O5'       21.3700   32.3660    6.6950 O.3    14  C14        -0.3114
    292  C4'       23.2490   32.5460    5.2010 C.3    14  C14         0.1773
    293  O4'       24.1580   32.4440    6.3240 O.3    14  C14        -0.3307
    294  C3'       23.1720   31.1110    4.7020 C.3    14  C14         0.1860
    295  O3'       22.6720   31.0750    3.3730 O.3    14  C14        -0.3112
    296  C2'       24.6410   30.7090    4.8050 C.3    14  C14         0.2309
    297  O2'       25.4680   31.3170    3.8350 O.3    14  C14        -0.2156
    298  C1'       24.9740   31.3000    6.1670 C.3    14  C14         0.2420
    299  N1        24.6800   30.3990    7.2940 N.ar   14  C14        -0.2535
    300  C2        25.5100   29.3010    7.5350 C.ar   14  C14         0.3532
    301  O2        26.4720   29.1070    6.7860 O.2    14  C14        -0.2443
    302  N3        25.2430   28.4750    8.5710 N.ar   14  C14        -0.1739
    303  C4        24.1920   28.7420    9.3450 C.ar   14  C14         0.1759
    304  N4        23.9500   27.9200   10.3660 N.pl3  14  C14        -0.1070
    305  C5        23.3360   29.8590    9.1170 C.ar   14  C14         0.0566
    306  C6        23.6100   30.6590    8.0840 C.ar   14  C14         0.0850
    307  OP1       19.1100   33.4270    6.4280 O.2    14  C14        -0.5172
    308  OP2       19.6290   31.8310    8.4090 O.co2  14  C14        -0.4373
    309  P         21.8290   29.8120    2.8510 P.3    15  C15         0.2141
    310  C5'       23.9890   28.9260    1.7130 C.3    15  C15         0.1812
    311  O5'       22.9950   28.7290    2.6930 O.3    15  C15        -0.3114
    312  C4'       24.9470   27.7670    1.7990 C.3    15  C15         0.1773
    313  O4'       25.4460   27.7300    3.1500 O.3    15  C15        -0.3307
    314  C3'       24.3170   26.3960    1.6570 C.3    15  C15         0.1860
    315  O3'       24.1480   26.0550    0.2980 O.3    15  C15        -0.3112
    316  C2'       25.3860   25.5300    2.3080 C.3    15  C15         0.2309
    317  O2'       26.5240   25.3770    1.4880 O.3    15  C15        -0.2156
    318  C1'       25.7830   26.4000    3.4850 C.3    15  C15         0.2420
    319  N1        25.1180   26.0580    4.7500 N.ar   15  C15        -0.2535
    320  C2        25.5050   24.8910    5.4020 C.ar   15  C15         0.3532
    321  O2        26.3740   24.2000    4.8660 O.2    15  C15        -0.2443
    322  N3        24.9180   24.5560    6.5790 N.ar   15  C15        -0.1739
    323  C4        23.9820   25.3640    7.0880 C.ar   15  C15         0.1759
    324  N4        23.4190   25.0150    8.2490 N.pl3  15  C15        -0.1070
    325  C5        23.5740   26.5680    6.4340 C.ar   15  C15         0.0566
    326  C6        24.1620   26.8760    5.2730 C.ar   15  C15         0.0850
    327  OP1       21.2820   30.1860    1.5210 O.2    15  C15        -0.5172
    328  OP2       20.9040   29.3080    3.8910 O.co2  15  C15        -0.4373
    329  P         23.0170   24.9910   -0.0670 P.3    16  C16         0.2141
    330  C5'       24.8430   23.0960    0.1090 C.3    16  C16         0.1812
    331  O5'       23.5980   23.6250    0.5500 O.3    16  C16        -0.3114
    332  C4'       25.1070   21.7050    0.6610 C.3    16  C16         0.1773
    333  O4'       25.5490   21.7610    2.0410 O.3    16  C16        -0.3307
    334  C3'       23.8910   20.8000    0.7070 C.3    16  C16         0.1860
    335  O3'       23.7500   20.1750   -0.5410 O.3    16  C16        -0.3112
    336  C2'       24.3220   19.7910    1.7610 C.3    16  C16         0.2309
    337  O2'       25.3140   18.9180    1.2780 O.3    16  C16        -0.2156
    338  C1'       24.9850   20.6930    2.7790 C.3    16  C16         0.2420
    339  N1        24.0570   21.2460    3.7810 N.ar   16  C16        -0.2535
    340  C2        23.7920   20.5440    4.9600 C.ar   16  C16         0.3532
    341  O2        24.3310   19.4510    5.1550 O.2    16  C16        -0.2443
    342  N3        22.9460   21.0820    5.8700 N.ar   16  C16        -0.1739
    343  C4        22.3840   22.2620    5.6330 C.ar   16  C16         0.1759
    344  N4        21.5610   22.7560    6.5570 N.pl3  16  C16        -0.1070
    345  C5        22.6420   22.9910    4.4390 C.ar   16  C16         0.0566
    346  C6        23.4790   22.4520    3.5480 C.ar   16  C16         0.0850
    347  OP1       22.9410   24.8890   -1.5430 O.2    16  C16        -0.5172
    348  OP2       21.7960   25.3540    0.6830 O.co2  16  C16        -0.4373
    349  P         22.3180   19.7050   -1.0570 P.3    17  G17         0.2141
    350  C5'       22.2640   17.6530    0.5600 C.3    17  G17         0.1812
    351  O5'       21.6860   18.8870    0.1630 O.3    17  G17        -0.3114
    352  C4'       21.5450   17.1440    1.7860 C.3    17  G17         0.1773
    353  O4'       21.7770   18.0690    2.8650 O.3    17  G17        -0.3307
    354  C3'       20.0400   17.1160    1.6470 C.3    17  G17         0.1860
    355  O3'       19.6820   15.8560    1.1150 O.3    17  G17        -0.3112
    356  C2'       19.6050   17.2210    3.0980 C.3    17  G17         0.2309
    357  O2'       19.7320   15.9710    3.7410 O.3    17  G17        -0.2156
    358  C1'       20.6290   18.1870    3.6760 C.3    17  G17         0.2408
    359  N1        18.4270   22.0850    6.1770 N.ar   17  G17        -0.1709
    360  C2        18.5920   20.7810    6.5840 C.ar   17  G17         0.2606
    361  N2        18.1120   20.4870    7.8020 N.pl3  17  G17        -0.0859
    362  N3        19.1820   19.8350    5.8590 N.ar   17  G17        -0.1918
    363  C4        19.6040   20.3100    4.6650 C.ar   17  G17         0.1723
    364  C5        19.4850   21.5890    4.1750 C.ar   17  G17         0.1748
    365  C6        18.8570   22.5850    4.9510 C.ar   17  G17         0.3023
    366  O6        18.6750   23.7770    4.6560 O.2    17  G17        -0.2633
    367  N7        20.0420   21.6880    2.9120 N.ar   17  G17        -0.2173
    368  C8        20.4790   20.4870    2.6590 C.ar   17  G17         0.1817
    369  N9        20.2440   19.5950    3.6730 N.ar   17  G17        -0.2693
    370  OP1       22.6160   18.7660   -2.1700 O.2    17  G17        -0.5172
    371  OP2       21.4600   20.8990   -1.2450 O.co2  17  G17        -0.4373
    372  P         18.4400   15.7030    0.1190 P.3    18  A18         0.2141
    373  C5'       18.1850   13.1640    0.6780 C.3    18  A18         0.1812
    374  O5'       17.6320   14.4600    0.7210 O.3    18  A18        -0.3114
    375  C4'       17.9140   12.4590    1.9910 C.3    18  A18         0.1773
    376  O4'       18.4300   13.2530    3.0880 O.3    18  A18        -0.3307
    377  C3'       16.4590   12.2920    2.3890 C.3    18  A18         0.1860
    378  O3'       15.8400   11.2700    1.6230 O.3    18  A18        -0.3112
    379  C2'       16.7140   11.8180    3.8090 C.3    18  A18         0.2309
    380  O2'       17.2730   10.5240    3.8140 O.3    18  A18        -0.2156
    381  C1'       17.7750   12.8130    4.2610 C.3    18  A18         0.2408
    382  N1        15.8810   14.5730    8.6730 N.ar   18  A18        -0.2040
    383  C2        16.4130   13.3990    8.3220 C.ar   18  A18         0.2016
    384  N3        16.8950   13.0050    7.1470 N.ar   18  A18        -0.2048
    385  C4        16.7870   13.9880    6.2490 C.ar   18  A18         0.1692
    386  C5        16.2630   15.2460    6.4540 C.ar   18  A18         0.1518
    387  C6        15.7900   15.5390    7.7430 C.ar   18  A18         0.1919
    388  N6        15.2610   16.7110    8.0920 N.pl3  18  A18        -0.1054
    389  N7        16.3210   15.9870    5.2920 N.ar   18  A18        -0.2193
    390  C8        16.8720   15.1690    4.4190 C.ar   18  A18         0.1816
    391  N9        17.1780   13.9480    4.9370 N.ar   18  A18        -0.2693
    392  OP1       19.0410   15.3540   -1.1970 O.2    18  A18        -0.5172
    393  OP2       17.5180   16.8490    0.3240 O.co2  18  A18        -0.4373
    394  P         14.2950   11.3500    1.1970 P.3    19  G19         0.2141
    395  C5'       13.3100   10.8810    3.5680 C.3    19  G19         0.1812
    396  O5'       13.5070   11.7900    2.5150 O.3    19  G19        -0.3114
    397  C4'       12.7680   11.5970    4.7910 C.3    19  G19         0.1773
    398  O4'       13.6280   12.7100    5.1440 O.3    19  G19        -0.3307
    399  C3'       11.4170   12.2520    4.6040 C.3    19  G19         0.1860
    400  O3'       10.4020   11.2780    4.7040 O.3    19  G19        -0.3112
    401  C2'       11.4310   13.1730    5.8140 C.3    19  G19         0.2309
    402  O2'       11.2690   12.4590    7.0120 O.3    19  G19        -0.2156
    403  C1'       12.8510   13.7210    5.7530 C.3    19  G19         0.2408
    404  N1        11.6560   18.6320    5.5160 N.ar   19  G19        -0.1709
    405  C2        11.4060   17.7230    6.5120 C.ar   19  G19         0.2606
    406  N2        10.7470   18.1790    7.5920 N.pl3  19  G19        -0.0859
    407  N3        11.7740   16.4520    6.4540 N.ar   19  G19        -0.1918
    408  C4        12.4230   16.1680    5.3050 C.ar   19  G19         0.1723
    409  C5        12.7190   17.0010    4.2600 C.ar   19  G19         0.1748
    410  C6        12.3210   18.3470    4.3300 C.ar   19  G19         0.3023
    411  O6        12.5030   19.2310    3.4840 O.2    19  G19        -0.2633
    412  N7        13.3930   16.3280    3.2560 N.ar   19  G19        -0.2173
    413  C8        13.4920   15.1090    3.7140 C.ar   19  G19         0.1817
    414  N9        12.9310   14.9420    4.9570 N.ar   19  G19        -0.2693
    415  OP1       13.8930    9.9790    0.8250 O.3    19  G19        -0.4373
    416  OP2       14.1380   12.4450    0.2150 O.co2  19  G19        -0.5172
    417  P          8.9690   11.4580    4.0060 P.3    20  A20         0.2141
    418  C5'        7.9230   12.0840    6.2820 C.3    20  A20         0.1812
    419  O5'        8.2400   12.5080    4.9720 O.3    20  A20        -0.3114
    420  C4'        7.4420   13.2190    7.1670 C.3    20  A20         0.1773
    421  O4'        8.4640   14.2360    7.2740 O.3    20  A20        -0.3307
    422  C3'        6.2220   13.9730    6.6710 C.3    20  A20         0.1860
    423  O3'        5.0390   13.3000    7.0490 O.3    20  A20        -0.3112
    424  C2'        6.3530   15.2620    7.4640 C.3    20  A20         0.2309
    425  O2'        5.9740   15.0850    8.8130 O.3    20  A20        -0.2156
    426  C1'        7.8510   15.5090    7.3640 C.3    20  A20         0.2408
    427  N1         8.1050   20.1680    5.1370 N.ar   20  A20        -0.2040
    428  C2         7.6610   19.7850    6.3370 C.ar   20  A20         0.2016
    429  N3         7.6200   18.5620    6.8670 N.ar   20  A20        -0.2048
    430  C4         8.1050   17.6520    6.0080 C.ar   20  A20         0.1692
    431  C5         8.5930   17.8980    4.7440 C.ar   20  A20         0.1518
    432  C6         8.5860   19.2280    4.3010 C.ar   20  A20         0.1919
    433  N6         9.0390   19.5820    3.0960 N.pl3  20  A20        -0.1054
    434  N7         9.0130   16.7290    4.1400 N.ar   20  A20        -0.2193
    435  C8         8.7740   15.8070    5.0390 C.ar   20  A20         0.1816
    436  N9         8.2250   16.2910    6.1890 N.ar   20  A20        -0.2693
    437  OP1        8.2850   10.1510    4.1200 O.3    20  A20        -0.4373
    438  OP2        9.1500   12.0540    2.6650 O.co2  20  A20        -0.5172
    439  P          3.7320   13.4690    6.1450 P.3    21  U21         0.2141
    440  C5'        3.0180   15.6670    7.4230 C.3    21  U21         0.1812
    441  O5'        3.4300   15.0430    6.2100 O.3    21  U21        -0.3114
    442  C4'        2.9000   17.1720    7.2460 C.3    21  U21         0.1773
    443  O4'        4.2020   17.7220    6.9370 O.3    21  U21        -0.3307
    444  C3'        2.0500   17.6650    6.0810 C.3    21  U21         0.1860
    445  O3'        0.6620   17.6560    6.3870 O.3    21  U21        -0.3112
    446  C2'        2.5480   19.0970    5.9840 C.3    21  U21         0.2309
    447  O2'        2.0230   19.8930    7.0240 O.3    21  U21        -0.2156
    448  C1'        4.0460   18.8960    6.1610 C.3    21  U21         0.2420
    449  N1         4.6990   18.6890    4.8580 N.ar   21  U21        -0.2534
    450  C2         5.1050   19.7780    4.1330 C.ar   21  U21         0.3546
    451  O2         4.9560   20.9150    4.5370 O.2    21  U21        -0.2443
    452  N3         5.6880   19.4920    2.9260 N.ar   21  U21        -0.1530
    453  C4         5.8950   18.2400    2.3850 C.ar   21  U21         0.2846
    454  O4         6.4330   18.1150    1.2930 O.2    21  U21        -0.2650
    455  C5         5.4390   17.1540    3.2010 C.ar   21  U21         0.0814
    456  C6         4.8680   17.4130    4.3820 C.ar   21  U21         0.0870
    457  OP1        2.6420   12.7470    6.8400 O.3    21  U21        -0.4373
    458  OP2        4.0880   13.1340    4.7440 O.co2  21  U21        -0.5172
    459  P         -0.4110   17.4580    5.2140 P.3    22  G22         0.2141
    460  C5'       -0.1970   20.0430    4.7670 C.3    22  G22         0.1812
    461  O5'       -0.1940   18.7230    4.2580 O.3    22  G22        -0.3114
    462  C4'        0.2240   20.9890    3.6640 C.3    22  G22         0.1773
    463  O4'        1.5960   20.7260    3.2910 O.3    22  G22        -0.3307
    464  C3'       -0.5450   20.8170    2.3690 C.3    22  G22         0.1860
    465  O3'       -1.7520   21.5560    2.4570 O.3    22  G22        -0.3112
    466  C2'        0.4300   21.4370    1.3780 C.3    22  G22         0.2309
    467  O2'        0.4200   22.8470    1.4450 O.3    22  G22        -0.2156
    468  C1'        1.7660   20.9300    1.9020 C.3    22  G22         0.2408
    469  N1         4.5980   18.6330   -1.6620 N.ar   22  G22        -0.1709
    470  C2         4.4630   19.9660   -1.3920 C.ar   22  G22         0.2606
    471  N2         5.1750   20.7790   -2.1810 N.pl3  22  G22        -0.0859
    472  N3         3.6940   20.4640   -0.4330 N.ar   22  G22        -0.1918
    473  C4         3.0600   19.4890    0.2510 C.ar   22  G22         0.1723
    474  C5         3.1310   18.1310    0.0580 C.ar   22  G22         0.1748
    475  C6         3.9550   17.6180   -0.9690 C.ar   22  G22         0.3023
    476  O6         4.1540   16.4350   -1.2930 O.2    22  G22        -0.2633
    477  N7         2.3220   17.4630    0.9680 N.ar   22  G22        -0.2173
    478  C8         1.7880   18.4120    1.6840 C.ar   22  G22         0.1817
    479  N9         2.1870   19.6690    1.3020 N.ar   22  G22        -0.2693
    480  OP1       -1.7440   17.4910    5.8580 O.3    22  G22        -0.4373
    481  OP2       -0.0130   16.2880    4.4000 O.co2  22  G22        -0.5172
    482  P         -3.0770   21.0720    1.7080 P.3    23  A23         0.2141
    483  C5'       -4.3190   18.7700    1.8930 C.3    23  A23         0.1812
    484  O5'       -3.1060   19.5030    2.0010 O.3    23  A23        -0.3114
    485  C4'       -4.0310   17.3700    1.3900 C.3    23  A23         0.1773
    486  O4'       -3.3750   17.4600    0.0950 O.3    23  A23        -0.3307
    487  C3'       -3.0890   16.5710    2.2810 C.3    23  A23         0.1860
    488  O3'       -3.4820   15.2160    2.3320 O.3    23  A23        -0.3112
    489  C2'       -1.7680   16.6870    1.5360 C.3    23  A23         0.2309
    490  O2'       -0.8980   15.6090    1.8050 O.3    23  A23        -0.2156
    491  C1'       -2.2620   16.6020    0.1030 C.3    23  A23         0.2408
    492  N1         1.3080   15.3350   -3.3920 N.ar   23  A23        -0.2040
    493  C2         0.4930   14.5980   -2.6330 C.ar   23  A23         0.2016
    494  N3        -0.4180   14.9870   -1.7390 N.ar   23  A23        -0.2048
    495  C4        -0.4580   16.3200   -1.6510 C.ar   23  A23         0.1692
    496  C5         0.3160   17.2100   -2.3640 C.ar   23  A23         0.1518
    497  C6         1.2430   16.6740   -3.2750 C.ar   23  A23         0.1919
    498  N6         2.0530   17.4240   -4.0240 N.pl3  23  A23        -0.1054
    499  N7        -0.0020   18.5070   -2.0180 N.ar   23  A23        -0.2193
    500  C8        -0.9480   18.3750   -1.1140 C.ar   23  A23         0.1816
    501  N9        -1.2740   17.0790   -0.8490 N.ar   23  A23        -0.2693
    502  OP1       -2.8450   21.2730    0.2570 O.2    23  A23        -0.5172
    503  OP2       -4.2320   21.6960    2.3980 O.co2  23  A23        -0.4373
    504  P         -4.7670   14.7300    3.1490 P.3    24  G24         0.2141
    505  C5'       -6.2030   13.3320    1.4190 C.3    24  G24         0.1812
    506  O5'       -5.1140   13.3970    2.3360 O.3    24  G24        -0.3114
    507  C4'       -5.9560   14.0480    0.1070 C.3    24  G24         0.1773
    508  O4'       -4.9710   13.3280   -0.6860 O.3    24  G24        -0.3307
    509  C3'       -7.1990   14.0870   -0.7700 C.3    24  G24         0.1860
    510  O3'       -7.1190   15.1820   -1.6580 O.3    24  G24        -0.3112
    511  C2'       -7.0110   12.7870   -1.5310 C.3    24  G24         0.2309
    512  O2'       -7.8450   12.6730   -2.6630 O.3    24  G24        -0.2156
    513  C1'       -5.5650   13.0250   -1.9320 C.3    24  G24         0.2408
    514  N1        -2.2530   11.2040   -5.3940 N.ar   24  G24        -0.1709
    515  C2        -2.5560   12.5090   -5.0990 C.ar   24  G24         0.2606
    516  N2        -1.8910   13.4240   -5.8220 N.pl3  24  G24        -0.0859
    517  N3        -3.4380   12.8820   -4.1710 N.ar   24  G24        -0.1918
    518  C4        -4.0040   11.8190   -3.5530 C.ar   24  G24         0.1723
    519  C5        -3.7600   10.4830   -3.7820 C.ar   24  G24         0.1748
    520  C6        -2.8200   10.1020   -4.7690 C.ar   24  G24         0.3023
    521  O6        -2.4710    8.9630   -5.1110 O.2    24  G24        -0.2633
    522  N7        -4.5350    9.6940   -2.9430 N.ar   24  G24        -0.2173
    523  C8        -5.2210   10.5480   -2.2350 C.ar   24  G24         0.1817
    524  N9        -4.9480   11.8570   -2.5470 N.ar   24  G24        -0.2693
    525  OP1       -5.8350   15.7380    2.9760 O.2    24  G24        -0.5172
    526  OP2       -4.3680   14.3120    4.5130 O.co2  24  G24        -0.4373
    527  P         -8.4380   15.7800   -2.3350 P.3    25  U25         0.2141
    528  C5'       -8.2060   18.0220   -0.9810 C.3    25  U25         0.1812
    529  O5'       -8.1910   17.3600   -2.2460 O.3    25  U25        -0.3114
    530  C4'       -7.4120   19.3100   -1.0730 C.3    25  U25         0.1773
    531  O4'       -6.0130   19.0230   -0.8320 O.3    25  U25        -0.3307
    532  C3'       -7.4300   19.9540   -2.4490 C.3    25  U25         0.1860
    533  O3'       -8.5470   20.8250   -2.5730 O.3    25  U25        -0.3112
    534  C2'       -6.1170   20.7300   -2.4510 C.3    25  U25         0.2309
    535  O2'       -6.2090   21.9290   -1.7130 O.3    25  U25        -0.2156
    536  C1'       -5.1960   19.7860   -1.6990 C.3    25  U25         0.2420
    537  N1        -4.4540   18.8760   -2.5880 N.ar   25  U25        -0.2534
    538  C2        -3.4840   19.3980   -3.4130 C.ar   25  U25         0.3546
    539  O2        -3.2070   20.5770   -3.4500 O.2    25  U25        -0.2443
    540  N3        -2.8370   18.4920   -4.2060 N.ar   25  U25        -0.1530
    541  C4        -3.0720   17.1370   -4.2450 C.ar   25  U25         0.2846
    542  O4        -2.4160   16.4420   -5.0070 O.2    25  U25        -0.2650
    543  C5        -4.0990   16.6640   -3.3540 C.ar   25  U25         0.0814
    544  C6        -4.7430   17.5340   -2.5720 C.ar   25  U25         0.0870
    545  OP1       -9.5760   15.4240   -1.4600 O.3    25  U25        -0.4373
    546  OP2       -8.4140   15.4220   -3.7720 O.co2  25  U25        -0.5172
    547  P         -9.2250   21.0180   -4.0110 P.3    26  A26         0.2141
    548  C5'       -7.9920   23.2550   -4.5890 C.3    26  A26         0.1812
    549  O5'       -8.1600   21.8700   -4.8560 O.3    26  A26        -0.3114
    550  C4'       -6.8570   23.8240   -5.4160 C.3    26  A26         0.1773
    551  O4'       -5.6470   23.0990   -5.1060 O.3    26  A26        -0.3307
    552  C3'       -7.0050   23.6360   -6.9120 C.3    26  A26         0.1860
    553  O3'       -7.7760   24.6760   -7.4690 O.3    26  A26        -0.3112
    554  C2'       -5.5650   23.7330   -7.3870 C.3    26  A26         0.2309
    555  O2'       -5.1230   25.0640   -7.5120 O.3    26  A26        -0.2156
    556  C1'       -4.8330   23.0170   -6.2600 C.3    26  A26         0.2408
    557  N1        -2.3860   19.6720   -9.2820 N.ar   26  A26        -0.2040
    558  C2        -2.3240   21.0080   -9.1800 C.ar   26  A26         0.2016
    559  N3        -2.9920   21.8260   -8.3640 N.ar   26  A26        -0.2048
    560  C4        -3.8140   21.1250   -7.5720 C.ar   26  A26         0.1692
    561  C5        -3.9910   19.7570   -7.5570 C.ar   26  A26         0.1518
    562  C6        -3.2290   19.0000   -8.4670 C.ar   26  A26         0.1919
    563  N6        -3.3010   17.6670   -8.5550 N.pl3  26  A26        -0.1054
    564  N7        -4.9250   19.3990   -6.6010 N.ar   26  A26        -0.2193
    565  C8        -5.2940   20.5410   -6.0650 C.ar   26  A26         0.1816
    566  N9        -4.6530   21.6180   -6.6050 N.ar   26  A26        -0.2693
    567  OP1      -10.4330   21.8430   -3.7860 O.3    26  A26        -0.4373
    568  OP2       -9.3470   19.6870   -4.6450 O.co2  26  A26        -0.5172
    569  P         -8.9480   24.2650   -8.4710 P.3    27  G27         0.2141
    570  C5'       -7.3090   24.4450  -10.4790 C.3    27  G27         0.1812
    571  O5'       -8.1410   23.6140   -9.6950 O.3    27  G27        -0.3114
    572  C4'       -6.3080   23.6410  -11.2880 C.3    27  G27         0.1773
    573  O4'       -5.5070   22.8260  -10.4010 O.3    27  G27        -0.3307
    574  C3'       -6.8800   22.6430  -12.2840 C.3    27  G27         0.1860
    575  O3'       -7.1810   23.2890  -13.4980 O.3    27  G27        -0.3112
    576  C2'       -5.6890   21.7180  -12.4830 C.3    27  G27         0.2309
    577  O2'       -4.6960   22.2810  -13.3140 O.3    27  G27        -0.2156
    578  C1'       -5.2010   21.6040  -11.0480 C.3    27  G27         0.2408
    579  N1        -5.8850   16.6210  -10.9700 N.ar   27  G27        -0.1709
    580  C2        -5.0700   17.3850  -11.7770 C.ar   27  G27         0.2606
    581  N2        -4.3320   16.7410  -12.6970 N.pl3  27  G27        -0.0859
    582  N3        -4.9820   18.7050  -11.6890 N.ar   27  G27        -0.1918
    583  C4        -5.7860   19.1960  -10.7160 C.ar   27  G27         0.1723
    584  C5        -6.6310   18.5270   -9.8620 C.ar   27  G27         0.1748
    585  C6        -6.7170   17.1210   -9.9630 C.ar   27  G27         0.3023
    586  O6        -7.4190   16.3620   -9.2770 O.2    27  G27        -0.2633
    587  N7        -7.2860   19.4080   -9.0060 N.ar   27  G27        -0.2173
    588  C8        -6.8240   20.5780   -9.3620 C.ar   27  G27         0.1817
    589  N9        -5.9070   20.5180  -10.3870 N.ar   27  G27        -0.2693
    590  OP1       -9.6000   25.4990   -8.9680 O.2    27  G27        -0.5172
    591  OP2       -9.7620   23.2520   -7.7560 O.co2  27  G27        -0.4373
    592  P         -8.5220   22.9340  -14.2890 P.3    28  G28         0.2141
    593  C5'       -7.1470   21.4920  -15.9650 C.3    28  G28         0.1812
    594  O5'       -8.1680   21.5390  -14.9780 O.3    28  G28        -0.3114
    595  C4'       -6.8150   20.0460  -16.2870 C.3    28  G28         0.1773
    596  O4'       -6.4050   19.3670  -15.0760 O.3    28  G28        -0.3307
    597  C3'       -7.9750   19.1950  -16.7710 C.3    28  G28         0.1860
    598  O3'       -8.2190   19.4180  -18.1560 O.3    28  G28        -0.3112
    599  C2'       -7.3870   17.8180  -16.5350 C.3    28  G28         0.2309
    600  O2'       -6.3440   17.5620  -17.4510 O.3    28  G28        -0.2156
    601  C1'       -6.7820   18.0120  -15.1590 C.3    28  G28         0.2408
    602  N1        -9.5830   14.5870  -12.6670 N.ar   28  G28        -0.1709
    603  C2        -8.8170   14.4300  -13.7970 C.ar   28  G28         0.2606
    604  N2        -8.7920   13.2010  -14.3320 N.pl3  28  G28        -0.0859
    605  N3        -8.1180   15.3990  -14.3680 N.ar   28  G28        -0.1918
    606  C4        -8.2600   16.5650  -13.7040 C.ar   28  G28         0.1723
    607  C5        -8.9990   16.8240  -12.5740 C.ar   28  G28         0.1748
    608  C6        -9.7360   15.7820  -11.9730 C.ar   28  G28         0.3023
    609  O6       -10.4510   15.8320  -10.9590 O.2    28  G28        -0.2633
    610  N7        -8.8810   18.1560  -12.2050 N.ar   28  G28        -0.2173
    611  C8        -8.0860   18.6670  -13.1060 C.ar   28  G28         0.1817
    612  N9        -7.6760   17.7580  -14.0480 N.ar   28  G28        -0.2693
    613  OP1       -8.6370   23.9380  -15.3730 O.2    28  G28        -0.5172
    614  OP2       -9.6110   22.7260  -13.3010 O.co2  28  G28        -0.4373
    615  P         -9.7300   19.6200  -18.6540 P.3    29  C29         0.2141
    616  C5'       -9.6040   17.2110  -19.6430 C.3    29  C29         0.1812
    617  O5'      -10.2460   18.1140  -18.7690 O.3    29  C29        -0.3114
    618  C4'      -10.0520   15.7980  -19.3250 C.3    29  C29         0.1773
    619  O4'       -9.6230   15.4500  -17.9840 O.3    29  C29        -0.3307
    620  C3'      -11.5570   15.5640  -19.2920 C.3    29  C29         0.1860
    621  O3'      -12.0760   15.4080  -20.5980 O.3    29  C29        -0.3112
    622  C2'      -11.5750   14.2460  -18.5350 C.3    29  C29         0.2309
    623  O2'      -11.1220   13.1790  -19.3410 O.3    29  C29        -0.2156
    624  C1'      -10.5580   14.5420  -17.4350 C.3    29  C29         0.2420
    625  N1       -11.1770   15.1690  -16.2490 N.ar   29  C29        -0.2535
    626  C2       -11.8960   14.3670  -15.3680 C.ar   29  C29         0.3532
    627  O2       -11.9810   13.1640  -15.6140 O.2    29  C29        -0.2443
    628  N3       -12.4730   14.9180  -14.2780 N.ar   29  C29        -0.1739
    629  C4       -12.3400   16.2230  -14.0710 C.ar   29  C29         0.1759
    630  N4       -12.9220   16.7390  -12.9870 N.pl3  29  C29        -0.1070
    631  C5       -11.6110   17.0610  -14.9610 C.ar   29  C29         0.0566
    632  C6       -11.0490   16.5020  -16.0330 C.ar   29  C29         0.0850
    633  OP1       -9.6770   20.2260  -20.0050 O.2    29  C29        -0.5172
    634  OP2      -10.5220   20.2560  -17.5720 O.co2  29  C29        -0.4373
    635  P        -13.5210   15.9850  -20.9780 P.3    30  U30         0.2141
    636  C5'      -14.4810   13.5910  -20.5200 C.3    30  U30         0.1812
    637  O5'      -14.4970   14.9770  -20.2050 O.3    30  U30        -0.3114
    638  C4'      -15.3900   12.7920  -19.6010 C.3    30  U30         0.1773
    639  O4'      -14.8040   12.7010  -18.2780 O.3    30  U30        -0.3307
    640  C3'      -16.7600   13.3960  -19.3410 C.3    30  U30         0.1860
    641  O3'      -17.6460   13.0870  -20.4050 O.3    30  U30        -0.3112
    642  C2'      -17.1320   12.6830  -18.0440 C.3    30  U30         0.2309
    643  O2'      -17.4340   11.3150  -18.2180 O.3    30  U30        -0.2156
    644  C1'      -15.8160   12.7860  -17.2960 C.3    30  U30         0.2420
    645  N1       -15.6720   14.0680  -16.5740 N.ar   30  U30        -0.2534
    646  C2       -16.1210   14.1470  -15.2740 C.ar   30  U30         0.3546
    647  O2       -16.6270   13.2090  -14.6940 O.2    30  U30        -0.2443
    648  N3       -15.9560   15.3640  -14.6690 N.ar   30  U30        -0.1530
    649  C4       -15.3950   16.4900  -15.2340 C.ar   30  U30         0.2846
    650  O4       -15.3120   17.5150  -14.5680 O.2    30  U30        -0.2650
    651  C5       -14.9520   16.3340  -16.5970 C.ar   30  U30         0.0814
    652  C6       -15.1030   15.1520  -17.2080 C.ar   30  U30         0.0870
    653  OP1      -13.6810   15.8090  -22.4370 O.2    30  U30        -0.5172
    654  OP2      -13.6900   17.3420  -20.4070 O.co2  30  U30        -0.4373
    655  P        -18.8760   14.0560  -20.7370 P.3    31  G31         0.2141
    656  C5'      -20.4450   12.3900  -19.4400 C.3    31  G31         0.1812
    657  O5'      -19.9350   13.7010  -19.5930 O.3    31  G31        -0.3114
    658  C4'      -21.1930   12.2840  -18.1270 C.3    31  G31         0.1773
    659  O4'      -20.2550   12.3890  -17.0330 O.3    31  G31        -0.3307
    660  C3'      -22.1840   13.3900  -17.8170 C.3    31  G31         0.1860
    661  O3'      -23.3840   13.1710  -18.5260 O.3    31  G31        -0.3112
    662  C2'      -22.3720   13.1210  -16.3310 C.3    31  G31         0.2309
    663  O2'      -23.0980   11.9360  -16.0690 O.3    31  G31        -0.2156
    664  C1'      -20.9280   12.9140  -15.9050 C.3    31  G31         0.2408
    665  N1       -20.1980   16.3260  -12.2080 N.ar   31  G31        -0.1709
    666  C2       -20.9420   15.1730  -12.1900 C.ar   31  G31         0.2606
    667  N2       -21.5720   14.9010  -11.0380 N.pl3  31  G31        -0.0859
    668  N3       -21.0600   14.3440  -13.2200 N.ar   31  G31        -0.1918
    669  C4       -20.3620   14.7800  -14.2920 C.ar   31  G31         0.1723
    670  C5       -19.5930   15.9110  -14.4060 C.ar   31  G31         0.1748
    671  C6       -19.4720   16.7780  -13.3000 C.ar   31  G31         0.3023
    672  O6       -18.8290   17.8310  -13.2210 O.2    31  G31        -0.2633
    673  N7       -19.0370   16.0040  -15.6720 N.ar   31  G31        -0.2173
    674  C8       -19.4740   14.9440  -16.2900 C.ar   31  G31         0.1817
    675  N9       -20.2820   14.1560  -15.5130 N.ar   31  G31        -0.2693
    676  OP1      -19.4130   13.6180  -22.0450 O.2    31  G31        -0.5172
    677  OP2      -18.4800   15.4670  -20.5290 O.co2  31  G31        -0.4373
    678  P        -24.3510   14.3780  -18.9450 P.3    32  U32         0.2141
    679  C5'      -25.8090   13.8100  -16.8880 C.3    32  U32         0.1812
    680  O5'      -25.0600   14.7880  -17.5720 O.3    32  U32        -0.3114
    681  C4'      -26.1540   14.2960  -15.4970 C.3    32  U32         0.1773
    682  O4'      -24.9490   14.4980  -14.7200 O.3    32  U32        -0.3307
    683  C3'      -26.8080   15.6590  -15.4590 C.3    32  U32         0.1860
    684  O3'      -28.1770   15.5370  -15.7740 O.3    32  U32        -0.3112
    685  C2'      -26.5800   16.0480  -14.0020 C.3    32  U32         0.2309
    686  O2'      -27.4600   15.3790  -13.1270 O.3    32  U32        -0.2156
    687  C1'      -25.1620   15.5410  -13.7880 C.3    32  U32         0.2420
    688  N1       -24.1420   16.5770  -14.0400 N.ar   32  U32        -0.2534
    689  C2       -23.8170   17.4630  -13.0360 C.ar   32  U32         0.3546
    690  O2       -24.3390   17.4410  -11.9350 O.2    32  U32        -0.2443
    691  N3       -22.8580   18.3870  -13.3680 N.ar   32  U32        -0.1530
    692  C4       -22.2090   18.5020  -14.5830 C.ar   32  U32         0.2846
    693  O4       -21.3690   19.3790  -14.7440 O.2    32  U32        -0.2650
    694  C5       -22.6000   17.5370  -15.5760 C.ar   32  U32         0.0814
    695  C6       -23.5340   16.6290  -15.2740 C.ar   32  U32         0.0870
    696  OP1      -25.3430   13.7850  -19.8750 O.2    32  U32        -0.5172
    697  OP2      -23.5360   15.5380  -19.3740 O.co2  32  U32        -0.4373
    698  P        -28.9930   16.8680  -16.1110 P.3    33  C33         0.2141
    699  C5'      -28.8630   19.1580  -14.7840 C.3    33  C33         0.1812
    700  O5'      -28.7970   17.7380  -14.7810 O.3    33  C33        -0.3114
    701  C4'      -28.5270   19.6560  -13.3900 C.3    33  C33         0.1773
    702  O4'      -27.1660   19.2800  -13.0650 O.3    33  C33        -0.3307
    703  C3'      -28.5560   21.1620  -13.1890 C.3    33  C33         0.1860
    704  O3'      -29.8800   21.6020  -12.9000 O.3    33  C33        -0.3112
    705  C2'      -27.6320   21.3260  -11.9850 C.3    33  C33         0.2309
    706  O2'      -28.2700   21.0310  -10.7590 O.3    33  C33        -0.2156
    707  C1'      -26.5550   20.2930  -12.2890 C.3    33  C33         0.2420
    708  N1       -25.4530   20.8700  -13.0830 N.ar   33  C33        -0.2535
    709  C2       -24.5870   21.7770  -12.4760 C.ar   33  C33         0.3532
    710  O2       -24.7730   22.0550  -11.2870 O.2    33  C33        -0.2443
    711  N3       -23.5770   22.3190  -13.2000 N.ar   33  C33        -0.1739
    712  C4       -23.4330   21.9760  -14.4830 C.ar   33  C33         0.1759
    713  N4       -22.4270   22.5240  -15.1740 N.pl3  33  C33        -0.1070
    714  C5       -24.3120   21.0510  -15.1180 C.ar   33  C33         0.0566
    715  C6       -25.3000   20.5270  -14.3890 C.ar   33  C33         0.0850
    716  OP1      -30.4020   16.4390  -16.2500 O.3    33  C33        -0.4373
    717  OP2      -28.3200   17.6000  -17.2100 O.co2  33  C33        -0.5172
    718  P        -30.3280   23.0860  -13.3080 P.3    34  C34         0.2141
    719  C5'      -29.7740   23.9020  -10.9040 C.3    34  C34         0.1812
    720  O5'      -29.4970   23.9990  -12.2870 O.3    34  C34        -0.3114
    721  C4'      -28.8790   24.8540  -10.1350 C.3    34  C34         0.1773
    722  O4'      -27.5010   24.4750  -10.3480 O.3    34  C34        -0.3307
    723  C3'      -28.9270   26.3160  -10.5560 C.3    34  C34         0.1860
    724  O3'      -29.9880   26.9630   -9.8760 O.3    34  C34        -0.3112
    725  C2'      -27.5850   26.8230  -10.0450 C.3    34  C34         0.2309
    726  O2'      -27.5910   27.0780   -8.6510 O.3    34  C34        -0.2156
    727  C1'      -26.6850   25.6310  -10.3340 C.3    34  C34         0.2420
    728  N1       -25.9510   25.7230  -11.6190 N.ar   34  C34        -0.2535
    729  C2       -24.8550   26.5720  -11.6770 C.ar   34  C34         0.3532
    730  O2       -24.5720   27.2080  -10.6590 O.2    34  C34        -0.2443
    731  N3       -24.1500   26.6750  -12.8270 N.ar   34  C34        -0.1739
    732  C4       -24.5210   25.9540  -13.8820 C.ar   34  C34         0.1759
    733  N4       -23.8030   26.0820  -14.9980 N.pl3  34  C34        -0.1070
    734  C5       -25.6400   25.0710  -13.8440 C.ar   34  C34         0.0566
    735  C6       -26.3240   24.9860  -12.7000 C.ar   34  C34         0.0850
    736  OP1      -31.7620   23.2100  -12.9580 O.3    34  C34        -0.4373
    737  OP2      -29.8700   23.3640  -14.6930 O.co2  34  C34        -0.5172
    738  P        -30.7400   28.2350  -10.4880 P.3    35  C35         0.2141
    739  C5'      -28.5550   29.5350  -10.0640 C.3    35  C35         0.1812
    740  O5'      -29.9380   29.4490   -9.8180 O.3    35  C35        -0.3114
    741  C4'      -27.9100   30.7260   -9.3890 C.3    35  C35         0.1773
    742  O4'      -26.4810   30.5360   -9.4950 O.3    35  C35        -0.3307
    743  C3'      -28.2280   32.0840  -10.0060 C.3    35  C35         0.1860
    744  O3'      -28.9280   32.8890   -9.0540 O.3    35  C35        -0.3112
    745  C2'      -26.8650   32.6950  -10.3180 C.3    35  C35         0.2309
    746  O2'      -26.4290   33.5540   -9.2830 O.3    35  C35        -0.2156
    747  C1'      -25.9280   31.4980  -10.3620 C.3    35  C35         0.2420
    748  N1       -25.7190   30.9150  -11.7190 N.ar   35  C35        -0.2535
    749  C2       -24.6610   31.3970  -12.4950 C.ar   35  C35         0.3532
    750  O2       -23.9500   32.2920  -12.0200 O.2    35  C35        -0.2443
    751  N3       -24.4480   30.8820  -13.7340 N.ar   35  C35        -0.1739
    752  C4       -25.2530   29.9200  -14.1940 C.ar   35  C35         0.1759
    753  N4       -25.0210   29.4290  -15.4190 N.pl3  35  C35        -0.1070
    754  C5       -26.3380   29.4170  -13.4140 C.ar   35  C35         0.0566
    755  C6       -26.5330   29.9340  -12.1950 C.ar   35  C35         0.0850
    756  OP1      -32.1000   28.2190   -9.9000 O.3    35  C35        -0.4373
    757  OP2      -30.5630   28.2640  -11.9610 O.co2  35  C35        -0.5172
    758  P        -30.2530   33.7080   -9.4470 P.3    36  A36         0.2141
    759  C5'      -28.8890   35.7750  -10.2400 C.3    36  A36         0.1812
    760  O5'      -29.7400   34.7000  -10.5830 O.3    36  A36        -0.3114
    761  C4'      -28.2200   36.2190  -11.5170 C.3    36  A36         0.1773
    762  O4'      -27.9510   35.0060  -12.2640 O.3    36  A36        -0.3307
    763  C3'      -29.0760   37.1060  -12.4210 C.3    36  A36         0.1860
    764  O3'      -28.2810   38.1480  -12.9910 O.3    36  A36        -0.3112
    765  C2'      -29.5930   36.1310  -13.4810 C.3    36  A36         0.2309
    766  O2'      -29.8500   36.7530  -14.7270 O.3    36  A36        -0.2156
    767  C1'      -28.4230   35.1540  -13.5830 C.3    36  A36         0.2408
    768  N1       -27.3780   31.3000  -16.8670 N.ar   36  A36        -0.2040
    769  C2       -26.7590   32.4610  -16.6270 C.ar   36  A36         0.2016
    770  N3       -27.0760   33.4190  -15.7560 N.ar   36  A36        -0.2048
    771  C4       -28.1810   33.0980  -15.0670 C.ar   36  A36         0.1692
    772  C5       -28.9260   31.9420  -15.2010 C.ar   36  A36         0.1518
    773  C6       -28.4890   30.9980  -16.1570 C.ar   36  A36         0.1919
    774  N6       -29.1150   29.8350  -16.3950 N.pl3  36  A36        -0.1054
    775  N7       -30.0000   31.9610  -14.3240 N.ar   36  A36        -0.2193
    776  C8       -29.8860   33.1050  -13.6860 C.ar   36  A36         0.1816
    777  N9       -28.8100   33.8420  -14.0890 N.ar   36  A36        -0.2693
    778  OP1      -30.6210   34.5130   -8.2610 O.3    36  A36        -0.4373
    779  OP2      -31.2420   32.7830  -10.0420 O.co2  36  A36        -0.5172
    780  P        -28.8180   39.6530  -13.0570 P.3    37  U37         0.2141
    781  C5'      -26.4140   40.5980  -12.5450 C.3    37  U37         0.1812
    782  O5'      -27.5060   40.4750  -13.4450 O.3    37  U37        -0.3114
    783  C4'      -25.1270   40.5350  -13.3400 C.3    37  U37         0.1773
    784  O4'      -25.1320   39.2760  -14.0500 O.3    37  U37        -0.3307
    785  C3'      -24.9530   41.6190  -14.4040 C.3    37  U37         0.1860
    786  O3'      -23.6290   42.1390  -14.3680 O.3    37  U37        -0.3112
    787  C2'      -25.2430   40.8860  -15.7140 C.3    37  U37         0.2309
    788  O2'      -24.5250   41.3940  -16.8230 O.3    37  U37        -0.2156
    789  C1'      -24.7270   39.5010  -15.3750 C.3    37  U37         0.2420
    790  N1       -25.3140   38.4520  -16.2180 N.ar   37  U37        -0.2534
    791  C2       -24.6230   38.0610  -17.3360 C.ar   37  U37         0.3546
    792  O2       -23.5560   38.5530  -17.6400 O.2    37  U37        -0.2443
    793  N3       -25.2240   37.0800  -18.0810 N.ar   37  U37        -0.1530
    794  C4       -26.4360   36.4730  -17.8180 C.ar   37  U37         0.2846
    795  O4       -26.8590   35.6030  -18.5770 O.2    37  U37        -0.2650
    796  C5       -27.1000   36.9400  -16.6260 C.ar   37  U37         0.0814
    797  C6       -26.5260   37.8960  -15.8820 C.ar   37  U37         0.0870
    798  OP1      -29.2460   40.0460  -11.6910 O.3    37  U37        -0.4373
    799  OP2      -29.7260   39.7600  -14.2240 O.co2  37  U37        -0.5172
    800  P        -23.1970   43.2550  -13.3000 P.3    38  C38         0.2141
    801  C5'      -21.2850   41.6980  -12.5430 C.3    38  C38         0.1812
    802  O5'      -22.4680   42.3860  -12.1800 O.3    38  C38        -0.3114
    803  C4'      -21.2640   40.3310  -11.8950 C.3    38  C38         0.1773
    804  O4'      -22.2870   39.5100  -12.4890 O.3    38  C38        -0.3307
    805  C3'      -19.9900   39.5300  -12.0980 C.3    38  C38         0.1860
    806  O3'      -19.1340   39.8060  -11.0090 O.3    38  C38        -0.3112
    807  C2'      -20.4710   38.0830  -12.0460 C.3    38  C38         0.2309
    808  O2'      -20.0960   37.4540  -10.8390 O.3    38  C38        -0.2156
    809  C1'      -21.9930   38.1920  -12.1000 C.3    38  C38         0.2420
    810  N1       -22.6210   37.2930  -13.0800 N.ar   38  C38        -0.2535
    811  C2       -22.1150   37.2540  -14.3760 C.ar   38  C38         0.3532
    812  O2       -21.1500   37.9790  -14.6490 O.2    38  C38        -0.2443
    813  N3       -22.6980   36.4240  -15.2780 N.ar   38  C38        -0.1739
    814  C4       -23.7390   35.6710  -14.9120 C.ar   38  C38         0.1759
    815  N4       -24.2950   34.8610  -15.8200 N.pl3  38  C38        -0.1070
    816  C5       -24.2630   35.7080  -13.5880 C.ar   38  C38         0.0566
    817  C6       -23.6830   36.5270  -12.7100 C.ar   38  C38         0.0850
    818  OP1      -24.3900   43.8460  -12.6570 O.3    38  C38        -0.4373
    819  OP2      -22.2000   44.1170  -13.9760 O.co2  38  C38        -0.5172
    820  P        -17.6590   40.3750  -11.2500 P.3    39  A39         0.2141
    821  C5'      -16.7560   37.9420  -10.9840 C.3    39  A39         0.1812
    822  O5'      -16.8790   39.0930  -11.7970 O.3    39  A39        -0.3114
    823  C4'      -15.3770   37.3590  -11.1980 C.3    39  A39         0.1773
    824  O4'      -15.2540   36.9190  -12.5750 O.3    39  A39        -0.3307
    825  C3'      -14.2480   38.3580  -10.9610 C.3    39  A39         0.1860
    826  O3'      -13.2120   37.7520  -10.2220 O.3    39  A39        -0.3112
    827  C2'      -13.7460   38.6520  -12.3630 C.3    39  A39         0.2309
    828  O2'      -12.3670   38.9450  -12.3600 O.3    39  A39        -0.2156
    829  C1'      -13.9800   37.3050  -13.0260 C.3    39  A39         0.2408
    830  N1       -12.2660   35.3210  -17.4590 N.ar   39  A39        -0.2040
    831  C2       -12.0730   34.9630  -16.1890 C.ar   39  A39         0.2016
    832  N3       -12.5470   35.5190  -15.0760 N.ar   39  A39        -0.2048
    833  C4       -13.3150   36.5760  -15.3620 C.ar   39  A39         0.1692
    834  C5       -13.6060   37.0670  -16.6140 C.ar   39  A39         0.1518
    835  C6       -13.0420   36.3920  -17.7100 C.ar   39  A39         0.1919
    836  N6       -13.2430   36.7680  -18.9760 N.pl3  39  A39        -0.1054
    837  N7       -14.4300   38.1740  -16.5300 N.ar   39  A39        -0.2193
    838  C8       -14.6160   38.3250  -15.2410 C.ar   39  A39         0.1816
    839  N9       -13.9760   37.3930  -14.4780 N.ar   39  A39        -0.2693
    840  OP1      -17.1280   40.7400   -9.9180 O.3    39  A39        -0.4373
    841  OP2      -17.6880   41.3780  -12.3400 O.co2  39  A39        -0.5172
    842  P        -13.3400   37.4790   -8.6530 P.3    40  G40         0.2141
    843  C5'      -10.9360   36.4880   -8.6190 C.3    40  G40         0.1812
    844  O5'      -11.8100   37.5290   -8.1990 O.3    40  G40        -0.3114
    845  C4'       -9.4950   36.9470   -8.5550 C.3    40  G40         0.1773
    846  O4'       -9.2910   37.9670   -9.5690 O.3    40  G40        -0.3307
    847  C3'       -9.1040   37.5500   -7.2120 C.3    40  G40         0.1860
    848  O3'       -7.7910   37.1510   -6.8360 O.3    40  G40        -0.3112
    849  C2'       -9.2040   39.0410   -7.5060 C.3    40  G40         0.2309
    850  O2'       -8.3810   39.8450   -6.6870 O.3    40  G40        -0.2156
    851  C1'       -8.7720   39.1260   -8.9660 C.3    40  G40         0.2408
    852  N1        -8.3050   44.0590   -9.9660 N.ar   40  G40        -0.1709
    853  C2        -7.4180   43.1980   -9.3690 C.ar   40  G40         0.2606
    854  N2        -6.2510   43.7300   -8.9790 N.pl3  40  G40        -0.0859
    855  N3        -7.6540   41.9110   -9.1640 N.ar   40  G40        -0.1918
    856  C4        -8.8730   41.5540   -9.6180 C.ar   40  G40         0.1723
    857  C5        -9.8290   42.3310  -10.2270 C.ar   40  G40         0.1748
    858  C6        -9.5640   43.7040  -10.4370 C.ar   40  G40         0.3023
    859  O6       -10.2880   44.5610  -10.9610 O.2    40  G40        -0.2633
    860  N7       -10.9490   41.5740  -10.5400 N.ar   40  G40        -0.2173
    861  C8       -10.6490   40.3750  -10.1210 C.ar   40  G40         0.1817
    862  N9        -9.3990   40.2920   -9.5600 N.ar   40  G40        -0.2693
    863  OP1      -13.8080   36.0800   -8.4840 O.2    40  G40        -0.5172
    864  OP2      -14.0400   38.6230   -8.0210 O.co2  40  G40        -0.4373
    865  P         -7.4350   36.7910   -5.3130 P.3    41  G41         0.2141
    866  C5'       -8.3050   38.0230   -3.1860 C.3    41  G41         0.1812
    867  O5'       -7.8030   38.1260   -4.5120 O.3    41  G41        -0.3114
    868  C4'       -7.9940   39.2720   -2.3830 C.3    41  G41         0.1773
    869  O4'       -6.5870   39.5880   -2.5140 O.3    41  G41        -0.3307
    870  C3'       -8.6520   40.5580   -2.8530 C.3    41  G41         0.1860
    871  O3'      -10.0070   40.6140   -2.4430 O.3    41  G41        -0.3112
    872  C2'       -7.7860   41.5610   -2.1050 C.3    41  G41         0.2309
    873  O2'       -7.9940   41.4980   -0.7100 O.3    41  G41        -0.2156
    874  C1'       -6.4130   40.9910   -2.4270 C.3    41  G41         0.2408
    875  N1        -4.3500   44.9030   -4.8940 N.ar   41  G41        -0.1709
    876  C2        -4.7920   44.8240   -3.5970 C.ar   41  G41         0.2606
    877  N2        -4.6710   45.9330   -2.8550 N.pl3  41  G41        -0.0859
    878  N3        -5.3180   43.7340   -3.0590 N.ar   41  G41        -0.1918
    879  C4        -5.3660   42.7170   -3.9450 C.ar   41  G41         0.1723
    880  C5        -4.9520   42.6950   -5.2560 C.ar   41  G41         0.1748
    881  C6        -4.3920   43.8610   -5.8150 C.ar   41  G41         0.3023
    882  O6        -3.9650   44.0270   -6.9640 O.2    41  G41        -0.2633
    883  N7        -5.1740   41.4480   -5.8260 N.ar   41  G41        -0.2173
    884  C8        -5.7110   40.7540   -4.8600 C.ar   41  G41         0.1817
    885  N9        -5.8570   41.4620   -3.6900 N.ar   41  G41        -0.2693
    886  OP1       -5.9670   36.6240   -5.2590 O.2    41  G41        -0.5172
    887  OP2       -8.3140   35.6980   -4.8430 O.co2  41  G41        -0.4373
    888  P        -11.0540   41.4880   -3.2820 P.3    42  G42         0.2141
    889  C5'      -10.6760   43.4870   -1.5820 C.3    42  G42         0.1812
    890  O5'      -10.6080   42.9920   -2.9240 O.3    42  G42        -0.3114
    891  C4'      -10.4420   44.9890   -1.5110 C.3    42  G42         0.1773
    892  O4'       -9.0290   45.2930   -1.6350 O.3    42  G42        -0.3307
    893  C3'      -11.0720   45.8140   -2.6240 C.3    42  G42         0.1860
    894  O3'      -12.4440   46.0600   -2.3720 O.3    42  G42        -0.3112
    895  C2'      -10.2530   47.0910   -2.5120 C.3    42  G42         0.2309
    896  O2'      -10.5510   47.8150   -1.3410 O.3    42  G42        -0.2156
    897  C1'       -8.8650   46.4900   -2.3820 C.3    42  G42         0.2408
    898  N1        -6.3980   48.3030   -6.4580 N.ar   42  G42        -0.1709
    899  C2        -6.8150   48.9640   -5.3300 C.ar   42  G42         0.2606
    900  N2        -6.5360   50.2740   -5.2900 N.pl3  42  G42        -0.0859
    901  N3        -7.4540   48.3890   -4.3180 N.ar   42  G42        -0.1918
    902  C4        -7.6470   47.0680   -4.5350 C.ar   42  G42         0.1723
    903  C5        -7.2680   46.3210   -5.6260 C.ar   42  G42         0.1748
    904  C6        -6.5870   46.9480   -6.6900 C.ar   42  G42         0.3023
    905  O6        -6.1730   46.4410   -7.7370 O.2    42  G42        -0.2633
    906  N7        -7.6500   44.9960   -5.4750 N.ar   42  G42        -0.2173
    907  C8        -8.2430   44.9670   -4.3120 C.ar   42  G42         0.1817
    908  N9        -8.2760   46.1880   -3.6830 N.ar   42  G42        -0.2693
    909  OP1      -12.3870   41.2200   -2.6970 O.3    42  G42        -0.4373
    910  OP2      -10.8490   41.2480   -4.7300 O.co2  42  G42        -0.5172
    911  P        -13.4610   46.3310   -3.5820 P.3    43  G43         0.2141
    912  C5'      -12.9430   48.8920   -3.7170 C.3    43  G43         0.1812
    913  O5'      -12.8310   47.6090   -4.3270 O.3    43  G43        -0.3114
    914  C4'      -12.2960   50.0040   -4.5280 C.3    43  G43         0.1773
    915  O4'      -10.8670   49.7730   -4.6460 O.3    43  G43        -0.3307
    916  C3'      -12.7540   50.1420   -5.9720 C.3    43  G43         0.1860
    917  O3'      -14.0090   50.8050   -6.0790 O.3    43  G43        -0.3112
    918  C2'      -11.6090   50.9770   -6.5460 C.3    43  G43         0.2309
    919  O2'      -11.6830   52.3570   -6.2390 O.3    43  G43        -0.2156
    920  C1'      -10.4050   50.3140   -5.8740 C.3    43  G43         0.2408
    921  N1        -7.8490   49.2090  -10.1130 N.ar   43  G43        -0.1709
    922  C2        -8.1450   50.4270   -9.5610 C.ar   43  G43         0.2606
    923  N2        -7.6990   51.4940  -10.2350 N.pl3  43  G43        -0.0859
    924  N3        -8.8230   50.5930   -8.4350 N.ar   43  G43        -0.1918
    925  C4        -9.1890   49.4110   -7.8960 C.ar   43  G43         0.1723
    926  C5        -8.9470   48.1440   -8.3660 C.ar   43  G43         0.1748
    927  C6        -8.2210   47.9880   -9.5680 C.ar   43  G43         0.3023
    928  O6        -7.9060   46.9440  -10.1480 O.2    43  G43        -0.2633
    929  N7        -9.4950   47.1900   -7.5180 N.ar   43  G43        -0.2173
    930  C8       -10.0510   47.8900   -6.5670 C.ar   43  G43         0.1817
    931  N9        -9.8950   49.2460   -6.7280 N.ar   43  G43        -0.2693
    932  OP1      -14.7360   46.7160   -2.9350 O.3    43  G43        -0.4373
    933  OP2      -13.4390   45.1770   -4.5160 O.co2  43  G43        -0.5172
    934  P        -14.9600   50.5400   -7.3470 P.3    44  A44         0.2141
    935  C5'      -13.6510   52.5170   -8.3550 C.3    44  A44         0.1812
    936  O5'      -14.1450   51.2090   -8.5430 O.3    44  A44        -0.3114
    937  C4'      -13.0850   53.0270   -9.6600 C.3    44  A44         0.1773
    938  O4'      -11.6760   52.7020   -9.7580 O.3    44  A44        -0.3307
    939  C3'      -13.7010   52.3900  -10.8940 C.3    44  A44         0.1860
    940  O3'      -14.9500   52.9910  -11.2080 O.3    44  A44        -0.3112
    941  C2'      -12.6230   52.7260  -11.9140 C.3    44  A44         0.2309
    942  O2'      -12.6290   54.0910  -12.2780 O.3    44  A44        -0.2156
    943  C1'      -11.3840   52.3640  -11.0990 C.3    44  A44         0.2408
    944  N1        -9.2200   48.5560  -13.7750 N.ar   44  A44        -0.2040
    945  C2        -9.2400   49.8810  -13.9600 C.ar   44  A44         0.2016
    946  N3        -9.8230   50.8210  -13.2160 N.ar   44  A44        -0.2048
    947  C4       -10.4500   50.2730  -12.1620 C.ar   44  A44         0.1692
    948  C5       -10.5190   48.9330  -11.8380 C.ar   44  A44         0.1518
    949  C6        -9.8600   48.0380  -12.7050 C.ar   44  A44         0.1919
    950  N6        -9.8360   46.7140  -12.5200 N.pl3  44  A44        -0.1054
    951  N7       -11.2550   48.7490  -10.6780 N.ar   44  A44        -0.2193
    952  C8       -11.6110   49.9630  -10.3310 C.ar   44  A44         0.1816
    953  N9       -11.1520   50.9300  -11.1800 N.ar   44  A44        -0.2693
    954  OP1      -16.2100   51.3030   -7.1310 O.3    44  A44        -0.4373
    955  OP2      -15.0330   49.0850   -7.6030 O.co2  44  A44        -0.5172
    956  P        -15.7960   52.4640  -12.4610 P.3    45  G45         0.2141
    957  C5'      -15.2050   52.5360  -14.9810 C.3    45  G45         0.1812
    958  O5'      -14.8220   52.8560  -13.6660 O.3    45  G45        -0.3114
    959  C4'      -14.0120   52.6880  -15.8930 C.3    45  G45         0.1773
    960  O4'      -12.8180   52.3080  -15.1630 O.3    45  G45        -0.3307
    961  C3'      -14.0380   51.7740  -17.1080 C.3    45  G45         0.1860
    962  O3'      -14.7260   52.3890  -18.1760 O.3    45  G45        -0.3112
    963  C2'      -12.5550   51.6640  -17.3960 C.3    45  G45         0.2309
    964  O2'      -12.0560   52.8790  -17.9110 O.3    45  G45        -0.2156
    965  C1'      -12.0440   51.4390  -15.9770 C.3    45  G45         0.2408
    966  N1       -10.8050   46.5510  -16.7770 N.ar   45  G45        -0.1709
    967  C2       -10.4610   47.6680  -17.4960 C.ar   45  G45         0.2606
    968  N2        -9.6860   47.4620  -18.5710 N.pl3  45  G45        -0.0859
    969  N3       -10.8480   48.8980  -17.1870 N.ar   45  G45        -0.1918
    970  C4       -11.6230   48.9240  -16.0790 C.ar   45  G45         0.1723
    971  C5       -12.0200   47.8650  -15.2950 C.ar   45  G45         0.1748
    972  C6       -11.5990   46.5560  -15.6370 C.ar   45  G45         0.3023
    973  O6       -11.8440   45.4840  -15.0660 O.2    45  G45        -0.2633
    974  N7       -12.8110   48.3080  -14.2440 N.ar   45  G45        -0.2173
    975  C8       -12.8750   49.6000  -14.4140 C.ar   45  G45         0.1817
    976  N9       -12.1770   50.0520  -15.5090 N.ar   45  G45        -0.2693
    977  OP1      -17.0270   53.2760  -12.5660 O.2    45  G45        -0.5172
    978  OP2      -15.9320   50.9920  -12.3800 O.co2  45  G45        -0.4373
    979  P        -16.2640   52.0300  -18.4420 P.3    46  G46         0.2141
    980  C5'      -15.3230   49.6810  -19.1010 C.3    46  G46         0.1812
    981  O5'      -16.1740   50.7680  -19.4260 O.3    46  G46        -0.3114
    982  C4'      -14.5890   49.1930  -20.3380 C.3    46  G46         0.1773
    983  O4'      -13.2340   48.7950  -19.9880 O.3    46  G46        -0.3307
    984  C3'      -15.2180   47.9880  -21.0280 C.3    46  G46         0.1860
    985  O3'      -16.0320   48.4310  -22.1040 O.3    46  G46        -0.3112
    986  C2'      -13.9940   47.2090  -21.5080 C.3    46  G46         0.2309
    987  O2'      -13.4550   47.7330  -22.7060 O.3    46  G46        -0.2156
    988  C1'      -13.0410   47.4380  -20.3380 C.3    46  G46         0.2408
    989  N1       -12.6400   42.8690  -18.1390 N.ar   46  G46        -0.1709
    990  C2       -12.1520   43.2990  -19.3530 C.ar   46  G46         0.2606
    991  N2       -11.4700   42.4080  -20.0900 N.pl3  46  G46        -0.0859
    992  N3       -12.3190   44.5250  -19.8250 N.ar   46  G46        -0.1918
    993  C4       -13.0250   45.2950  -18.9700 C.ar   46  G46         0.1723
    994  C5       -13.5500   44.9590  -17.7440 C.ar   46  G46         0.1748
    995  C6       -13.3690   43.6530  -17.2490 C.ar   46  G46         0.3023
    996  O6       -13.7750   43.1860  -16.1750 O.2    46  G46        -0.2633
    997  N7       -14.2080   46.0370  -17.1740 N.ar   46  G46        -0.2173
    998  C8       -14.0700   46.9870  -18.0550 C.ar   46  G46         0.1817
    999  N9       -13.3600   46.6120  -19.1720 N.ar   46  G46        -0.2693
   1000  OP1      -16.8390   53.1750  -19.1860 O.2    46  G46        -0.5172
   1001  OP2      -16.8860   51.5830  -17.1710 O.co2  46  G46        -0.4373
   1002  P        -16.9280   47.4050  -22.9450 P.3    47  A47         0.2141
   1003  C5'      -16.2320   45.6200  -24.6570 C.3    47  A47         0.1812
   1004  O5'      -15.8130   46.5110  -23.6570 O.3    47  A47        -0.3114
   1005  C4'      -15.1390   44.6340  -24.9880 C.3    47  A47         0.1773
   1006  O4'      -14.1380   44.5910  -23.9440 O.3    47  A47        -0.3307
   1007  C3'      -15.6780   43.2220  -25.0650 C.3    47  A47         0.1860
   1008  O3'      -16.2060   43.0220  -26.3570 O.3    47  A47        -0.3112
   1009  C2'      -14.4440   42.3850  -24.7580 C.3    47  A47         0.2309
   1010  O2'      -13.5860   42.2650  -25.8710 O.3    47  A47        -0.2156
   1011  C1'      -13.7930   43.2400  -23.6750 C.3    47  A47         0.2408
   1012  N1       -14.2470   39.6190  -20.0280 N.ar   47  A47        -0.2040
   1013  C2       -13.7610   39.5760  -21.2700 C.ar   47  A47         0.2016
   1014  N3       -13.6700   40.5510  -22.1700 N.ar   47  A47        -0.2048
   1015  C4       -14.1570   41.6980  -21.6790 C.ar   47  A47         0.1692
   1016  C5       -14.6900   41.8960  -20.4200 C.ar   47  A47         0.1518
   1017  C6       -14.7280   40.7850  -19.5600 C.ar   47  A47         0.1919
   1018  N6       -15.2160   40.8300  -18.3180 N.pl3  47  A47        -0.1054
   1019  N7       -15.0930   43.2110  -20.2570 N.ar   47  A47        -0.2193
   1020  C8       -14.8000   43.7700  -21.4100 C.ar   47  A47         0.1816
   1021  N9       -14.2320   42.9160  -22.3170 N.ar   47  A47        -0.2693
   1022  OP1      -17.6360   48.1740  -23.9950 O.2    47  A47        -0.5172
   1023  OP2      -17.7210   46.5730  -22.0110 O.co2  47  A47        -0.4373
   1024  P        -17.7700   42.7180  -26.4310 P.3    48  A48         0.2141
   1025  C5'      -16.6850   40.3770  -26.5980 C.3    48  A48         0.1812
   1026  O5'      -17.7660   41.1540  -26.0950 O.3    48  A48        -0.3114
   1027  C4'      -16.5620   39.0760  -25.8390 C.3    48  A48         0.1773
   1028  O4'      -15.9090   39.3180  -24.5720 O.3    48  A48        -0.3307
   1029  C3'      -17.8870   38.4380  -25.4680 C.3    48  A48         0.1860
   1030  O3'      -18.3840   37.6860  -26.5730 O.3    48  A48        -0.3112
   1031  C2'      -17.4490   37.5500  -24.3100 C.3    48  A48         0.2309
   1032  O2'      -16.8000   36.3750  -24.7530 O.3    48  A48        -0.2156
   1033  C1'      -16.4550   38.4590  -23.5910 C.3    48  A48         0.2408
   1034  N1       -17.9910   38.8540  -18.6840 N.ar   48  A48        -0.2040
   1035  C2       -17.3960   37.8610  -19.3550 C.ar   48  A48         0.2016
   1036  N3       -17.0180   37.8160  -20.6310 N.ar   48  A48        -0.2048
   1037  C4       -17.3130   38.9660  -21.2530 C.ar   48  A48         0.1692
   1038  C5       -17.9200   40.0750  -20.6960 C.ar   48  A48         0.1518
   1039  C6       -18.2730   40.0010  -19.3370 C.ar   48  A48         0.1919
   1040  N6       -18.8680   41.0050  -18.6820 N.pl3  48  A48        -0.1054
   1041  N7       -18.0660   41.0770  -21.6320 N.ar   48  A48        -0.2193
   1042  C8       -17.5510   40.5610  -22.7220 C.ar   48  A48         0.1816
   1043  N9       -17.0770   39.2900  -22.5670 N.ar   48  A48        -0.2693
   1044  OP1      -18.2160   42.8760  -27.8360 O.2    48  A48        -0.5172
   1045  OP2      -18.4280   43.4670  -25.3280 O.co2  48  A48        -0.4373
   1046  P        -19.8610   37.9530  -27.1460 P.3    49  U49         0.2141
   1047  C5'      -20.6240   36.6180  -25.1060 C.3    49  U49         0.1812
   1048  O5'      -20.6820   36.7460  -26.5040 O.3    49  U49        -0.3114
   1049  C4'      -21.3920   35.4110  -24.6280 C.3    49  U49         0.1773
   1050  O4'      -21.4590   35.5230  -23.1890 O.3    49  U49        -0.3307
   1051  C3'      -22.8460   35.3330  -25.0550 C.3    49  U49         0.1860
   1052  O3'      -23.3240   34.0270  -24.7760 O.3    49  U49        -0.3112
   1053  C2'      -23.4750   36.3460  -24.1070 C.3    49  U49         0.2309
   1054  O2'      -24.8410   36.0820  -23.8660 O.3    49  U49        -0.2156
   1055  C1'      -22.6850   36.1130  -22.8230 C.3    49  U49         0.2420
   1056  N1       -22.3970   37.3590  -22.0790 N.ar   49  U49        -0.2534
   1057  C2       -22.8090   37.4610  -20.7690 C.ar   49  U49         0.3546
   1058  O2       -23.3980   36.5720  -20.1820 O.2    49  U49        -0.2443
   1059  N3       -22.5110   38.6470  -20.1550 N.ar   49  U49        -0.1530
   1060  C4       -21.8520   39.7250  -20.7050 C.ar   49  U49         0.2846
   1061  O4       -21.6560   40.7270  -20.0200 O.2    49  U49        -0.2650
   1062  C5       -21.4520   39.5430  -22.0780 C.ar   49  U49         0.0814
   1063  C6       -21.7340   38.3910  -22.7020 C.ar   49  U49         0.0870
   1064  OP1      -19.8220   37.7860  -28.6170 O.2    49  U49        -0.5172
   1065  OP2      -20.3740   39.2130  -26.5580 O.co2  49  U49        -0.4373
   1066  P        -24.5110   33.3550  -25.6130 P.3    50  C50         0.2141
   1067  C5'      -22.5500   32.0850  -26.7010 C.3    50  C50         0.1812
   1068  O5'      -23.8320   31.9950  -26.1040 O.3    50  C50        -0.3114
   1069  C4'      -21.6720   30.9150  -26.3120 C.3    50  C50         0.1773
   1070  O4'      -21.7420   29.9280  -27.3670 O.3    50  C50        -0.3307
   1071  C3'      -20.1940   31.2620  -26.2580 C.3    50  C50         0.1860
   1072  O3'      -19.4420   30.2320  -25.6200 O.3    50  C50        -0.3112
   1073  C2'      -19.8680   31.3500  -27.7460 C.3    50  C50         0.2309
   1074  O2'      -18.4970   31.1170  -28.0200 O.3    50  C50        -0.2156
   1075  C1'      -20.7520   30.2420  -28.3340 C.3    50  C50         0.2420
   1076  N1       -21.4160   30.6480  -29.6190 N.ar   50  C50        -0.2535
   1077  C2       -21.6070   29.7030  -30.6430 C.ar   50  C50         0.3532
   1078  O2       -21.2330   28.5320  -30.4720 O.2    50  C50        -0.2443
   1079  N3       -22.2070   30.1020  -31.7970 N.ar   50  C50        -0.1739
   1080  C4       -22.6000   31.3720  -31.9500 C.ar   50  C50         0.1759
   1081  N4       -23.1850   31.7140  -33.1050 N.pl3  50  C50        -0.1070
   1082  C5       -22.4100   32.3470  -30.9230 C.ar   50  C50         0.0566
   1083  C6       -21.8190   31.9450  -29.7890 C.ar   50  C50         0.0850
   1084  OP1      -24.7580   34.2290  -26.7830 O.2    50  C50        -0.5172
   1085  OP2      -25.6050   32.9940  -24.6760 O.co2  50  C50        -0.4373
   1086  P        -19.5920   29.9930  -24.0450 P.3    51  G51         0.2141
   1087  C5'      -18.1150   32.1760  -24.2100 C.3    51  G51         0.1812
   1088  O5'      -18.6530   31.1280  -23.4140 O.3    51  G51        -0.3114
   1089  C4'      -17.7480   33.3700  -23.3490 C.3    51  G51         0.1773
   1090  O4'      -18.9140   34.2150  -23.1950 O.3    51  G51        -0.3307
   1091  C3'      -17.3340   33.0650  -21.9150 C.3    51  G51         0.1860
   1092  O3'      -15.9620   32.7070  -21.8140 O.3    51  G51        -0.3112
   1093  C2'      -17.5800   34.4140  -21.2580 C.3    51  G51         0.2309
   1094  O2'      -16.5700   35.3440  -21.5850 O.3    51  G51        -0.2156
   1095  C1'      -18.8940   34.8200  -21.9140 C.3    51  G51         0.2408
   1096  N1       -21.7630   35.4570  -17.7570 N.ar   51  G51        -0.1709
   1097  C2       -20.6460   36.1500  -18.1540 C.ar   51  G51         0.2606
   1098  N2       -20.2380   37.1350  -17.3400 N.pl3  51  G51        -0.0859
   1099  N3       -19.9730   35.8940  -19.2680 N.ar   51  G51        -0.1918
   1100  C4       -20.5190   34.8720  -19.9670 C.ar   51  G51         0.1723
   1101  C5       -21.6280   34.1230  -19.6550 C.ar   51  G51         0.1748
   1102  C6       -22.3370   34.4030  -18.4660 C.ar   51  G51         0.3023
   1103  O6       -23.3510   33.8380  -18.0330 O.2    51  G51        -0.2633
   1104  N7       -21.8670   33.1640  -20.6270 N.ar   51  G51        -0.2173
   1105  C8       -20.9120   33.3470  -21.4940 C.ar   51  G51         0.1817
   1106  N9       -20.0590   34.3680  -21.1610 N.ar   51  G51        -0.2693
   1107  OP1      -18.9530   28.6970  -23.7210 O.2    51  G51        -0.5172
   1108  OP2      -21.0130   30.2250  -23.6820 O.co2  51  G51        -0.4373
   1109  P        -15.5170   31.6500  -20.6950 P.3    52  G52         0.2141
   1110  C5'      -15.0880   33.5420  -18.9440 C.3    52  G52         0.1812
   1111  O5'      -15.8130   32.3890  -19.3100 O.3    52  G52        -0.3114
   1112  C4'      -15.7000   34.1340  -17.6950 C.3    52  G52         0.1773
   1113  O4'      -17.0760   34.5000  -17.9680 O.3    52  G52        -0.3307
   1114  C3'      -15.8490   33.1700  -16.5330 C.3    52  G52         0.1860
   1115  O3'      -14.6120   32.9700  -15.8560 O.3    52  G52        -0.3112
   1116  C2'      -16.8680   33.9400  -15.6990 C.3    52  G52         0.2309
   1117  O2'      -16.3240   35.1140  -15.1270 O.3    52  G52        -0.2156
   1118  C1'      -17.8550   34.3250  -16.7940 C.3    52  G52         0.2408
   1119  N1       -22.0450   31.9370  -15.1080 N.ar   52  G52        -0.1709
   1120  C2       -21.2870   32.9010  -14.4950 C.ar   52  G52         0.2606
   1121  N2       -21.6980   33.2730  -13.2760 N.pl3  52  G52        -0.0859
   1122  N3       -20.2060   33.4610  -15.0260 N.ar   52  G52        -0.1918
   1123  C4       -19.9390   32.9620  -16.2530 C.ar   52  G52         0.1723
   1124  C5       -20.6320   32.0040  -16.9470 C.ar   52  G52         0.1748
   1125  C6       -21.7780   31.4190  -16.3700 C.ar   52  G52         0.3023
   1126  O6       -22.5130   30.5470  -16.8570 O.2    52  G52        -0.2633
   1127  N7       -20.0490   31.7650  -18.1770 N.ar   52  G52        -0.2173
   1128  C8       -19.0250   32.5700  -18.2020 C.ar   52  G52         0.1817
   1129  N9       -18.8910   33.3280  -17.0660 N.ar   52  G52        -0.2693
   1130  OP1      -14.0540   31.4700  -20.8140 O.2    52  G52        -0.5172
   1131  OP2      -16.4140   30.4770  -20.7930 O.co2  52  G52        -0.4373
   1132  P        -14.3340   31.5610  -15.1410 P.3    53  G53         0.2141
   1133  C5'      -15.0720   32.6220  -12.8980 C.3    53  G53         0.1812
   1134  O5'      -15.3140   31.6440  -13.8830 O.3    53  G53        -0.3114
   1135  C4'      -16.2150   32.6020  -11.9160 C.3    53  G53         0.1773
   1136  O4'      -17.4400   32.7580  -12.6640 O.3    53  G53        -0.3307
   1137  C3'      -16.4360   31.2680  -11.2360 C.3    53  G53         0.1860
   1138  O3'      -15.5460   31.0740  -10.1650 O.3    53  G53        -0.3112
   1139  C2'      -17.8680   31.4370  -10.7580 C.3    53  G53         0.2309
   1140  O2'      -17.9690   32.3610   -9.6970 O.3    53  G53        -0.2156
   1141  C1'      -18.4740   32.0360  -12.0170 C.3    53  G53         0.2408
   1142  N1       -22.1120   28.6020  -12.8450 N.ar   53  G53        -0.1709
   1143  C2       -21.9130   29.4280  -11.7620 C.ar   53  G53         0.2606
   1144  N2       -22.8060   29.3280  -10.7660 N.pl3  53  G53        -0.0859
   1145  N3       -20.9110   30.2940  -11.6580 N.ar   53  G53        -0.1918
   1146  C4       -20.1140   30.2620  -12.7480 C.ar   53  G53         0.1723
   1147  C5       -20.2240   29.4790  -13.8750 C.ar   53  G53         0.1748
   1148  C6       -21.2960   28.5620  -13.9750 C.ar   53  G53         0.3023
   1149  O6       -21.5530   27.7800  -14.9050 O.2    53  G53        -0.2633
   1150  N7       -19.1940   29.7520  -14.7680 N.ar   53  G53        -0.2173
   1151  C8       -18.4970   30.6810  -14.1690 C.ar   53  G53         0.1817
   1152  N9       -18.9990   31.0370  -12.9400 N.ar   53  G53        -0.2693
   1153  OP1      -12.9510   31.5750  -14.6130 O.3    53  G53        -0.4373
   1154  OP2      -14.7660   30.4720  -16.0550 O.co2  53  G53        -0.5172
   1155  P        -15.0300   29.5810   -9.9160 P.3    54  G54         0.2141
   1156  C5'      -16.7270   29.0920   -8.0270 C.3    54  G54         0.1812
   1157  O5'      -16.3330   28.8310   -9.3560 O.3    54  G54        -0.3114
   1158  C4'      -18.1440   28.6300   -7.7520 C.3    54  G54         0.1773
   1159  O4'      -18.9960   28.9150   -8.8860 O.3    54  G54        -0.3307
   1160  C3'      -18.3040   27.1370   -7.5680 C.3    54  G54         0.1860
   1161  O3'      -17.9310   26.7840   -6.2580 O.3    54  G54        -0.3112
   1162  C2'      -19.8050   27.0060   -7.7630 C.3    54  G54         0.2309
   1163  O2'      -20.5230   27.4830   -6.6490 O.3    54  G54        -0.2156
   1164  C1'      -20.0180   27.9400   -8.9460 C.3    54  G54         0.2408
   1165  N1       -21.9810   24.3930  -12.0040 N.ar   54  G54        -0.1709
   1166  C2       -22.3800   24.7800  -10.7470 C.ar   54  G54         0.2606
   1167  N2       -23.4400   24.1500  -10.2210 N.pl3  54  G54        -0.0859
   1168  N3       -21.7820   25.7250  -10.0380 N.ar   54  G54        -0.1918
   1169  C4       -20.7370   26.2650  -10.7000 C.ar   54  G54         0.1723
   1170  C5       -20.2620   25.9520  -11.9470 C.ar   54  G54         0.1748
   1171  C6       -20.9040   24.9440  -12.6940 C.ar   54  G54         0.3023
   1172  O6       -20.6080   24.5410  -13.8260 O.2    54  G54        -0.2633
   1173  N7       -19.1640   26.7380  -12.2690 N.ar   54  G54        -0.2173
   1174  C8       -18.9990   27.4980  -11.2210 C.ar   54  G54         0.1817
   1175  N9       -19.9210   27.2650  -10.2330 N.ar   54  G54        -0.2693
   1176  OP1      -14.0310   29.6600   -8.8250 O.3    54  G54        -0.4373
   1177  OP2      -14.6550   28.9880  -11.2260 O.co2  54  G54        -0.5172
   1178  P        -17.2690   25.3530   -5.9990 P.3    55  A55         0.2141
   1179  C5'      -19.6320   24.7210   -5.1800 C.3    55  A55         0.1812
   1180  O5'      -18.5650   24.4020   -6.0590 O.3    55  A55        -0.3114
   1181  C4'      -20.7570   23.7010   -5.2020 C.3    55  A55         0.1773
   1182  O4'      -21.5250   23.8550   -6.4160 O.3    55  A55        -0.3307
   1183  C3'      -20.3510   22.2360   -5.1960 C.3    55  A55         0.1860
   1184  O3'      -20.1960   21.7680   -3.8720 O.3    55  A55        -0.3112
   1185  C2'      -21.5720   21.5770   -5.8230 C.3    55  A55         0.2309
   1186  O2'      -22.6430   21.4730   -4.9080 O.3    55  A55        -0.2156
   1187  C1'      -21.9350   22.5900   -6.8950 C.3    55  A55         0.2408
   1188  N1       -21.9220   20.0870  -11.3800 N.ar   55  A55        -0.2040
   1189  C2       -22.7230   20.0100  -10.3160 C.ar   55  A55         0.2016
   1190  N3       -22.6770   20.6870   -9.1720 N.ar   55  A55        -0.2048
   1191  C4       -21.6480   21.5400   -9.1800 C.ar   55  A55         0.1692
   1192  C5       -20.7350   21.7290  -10.1940 C.ar   55  A55         0.1518
   1193  C6       -20.8970   20.9540  -11.3530 C.ar   55  A55         0.1919
   1194  N6       -20.0890   21.0310  -12.4160 N.pl3  55  A55        -0.1054
   1195  N7       -19.8060   22.6900   -9.8400 N.ar   55  A55        -0.2193
   1196  C8       -20.1740   23.0550   -8.6330 C.ar   55  A55         0.1816
   1197  N9       -21.2770   22.3970   -8.1770 N.ar   55  A55        -0.2693
   1198  OP1      -16.7600   25.3570   -4.6060 O.3    55  A55        -0.4373
   1199  OP2      -16.3190   25.0630   -7.1050 O.co2  55  A55        -0.5172
   1200  P        -19.1910   20.5570   -3.6120 P.3    56  C56         0.2141
   1201  C5'      -21.2470   18.9430   -3.5350 C.3    56  C56         0.1812
   1202  O5'      -20.0160   19.2940   -4.1530 O.3    56  C56        -0.3114
   1203  C4'      -21.9170   17.7690   -4.2330 C.3    56  C56         0.1773
   1204  O4'      -22.4580   18.2180   -5.4990 O.3    56  C56        -0.3307
   1205  C3'      -21.0110   16.6050   -4.6130 C.3    56  C56         0.1860
   1206  O3'      -20.8070   15.6960   -3.5280 O.3    56  C56        -0.3112
   1207  C2'      -21.8100   15.9780   -5.7540 C.3    56  C56         0.2309
   1208  O2'      -22.9220   15.2270   -5.3120 O.3    56  C56        -0.2156
   1209  C1'      -22.2790   17.2270   -6.4860 C.3    56  C56         0.2420
   1210  N1       -21.2730   17.7160   -7.4600 N.ar   56  C56        -0.2535
   1211  C2       -21.3270   17.2580   -8.7820 C.ar   56  C56         0.3532
   1212  O2       -22.2270   16.4640   -9.0950 O.2    56  C56        -0.2443
   1213  N3       -20.4040   17.6910   -9.6760 N.ar   56  C56        -0.1739
   1214  C4       -19.4640   18.5440   -9.2790 C.ar   56  C56         0.1759
   1215  N4       -18.5740   18.9570  -10.1850 N.pl3  56  C56        -0.1070
   1216  C5       -19.3920   19.0180   -7.9330 C.ar   56  C56         0.0566
   1217  C6       -20.3070   18.5850   -7.0590 C.ar   56  C56         0.0850
   1218  OP1      -19.0540   20.4200   -2.1430 O.3    56  C56        -0.4373
   1219  OP2      -17.9910   20.7730   -4.4610 O.co2  56  C56        -0.5172
   1220  P        -19.4050   14.9230   -3.4510 P.3    57  G57         0.2141
   1221  C5'      -20.5250   12.7540   -4.4410 C.3    57  G57         0.1812
   1222  O5'      -19.5490   13.7720   -4.5550 O.3    57  G57        -0.3114
   1223  C4'      -20.5180   11.8880   -5.6870 C.3    57  G57         0.1773
   1224  O4'      -20.9010   12.6800   -6.8380 O.3    57  G57        -0.3307
   1225  C3'      -19.1710   11.3300   -6.1230 C.3    57  G57         0.1860
   1226  O3'      -18.7640   10.2310   -5.3210 O.3    57  G57        -0.3112
   1227  C2'      -19.5400   10.8800   -7.5290 C.3    57  G57         0.2309
   1228  O2'      -20.3940    9.7520   -7.5230 O.3    57  G57        -0.2156
   1229  C1'      -20.3340   12.0920   -7.9970 C.3    57  G57         0.2408
   1230  N1       -17.9200   13.1820  -12.3200 N.ar   57  G57        -0.1709
   1231  C2       -18.6100   12.0500  -11.9720 C.ar   57  G57         0.2606
   1232  N2       -18.6590   11.0820  -12.9050 N.pl3  57  G57        -0.0859
   1233  N3       -19.2080   11.8780  -10.8010 N.ar   57  G57        -0.1918
   1234  C4       -19.0440   12.9530   -9.9980 C.ar   57  G57         0.1723
   1235  C5       -18.3690   14.1220  -10.2580 C.ar   57  G57         0.1748
   1236  C6       -17.7430   14.2920  -11.5120 C.ar   57  G57         0.3023
   1237  O6       -17.0990   15.2580  -11.9410 O.2    57  G57        -0.2633
   1238  N7       -18.4380   14.9780   -9.1700 N.ar   57  G57        -0.2173
   1239  C8       -19.1380   14.3170   -8.2900 C.ar   57  G57         0.1817
   1240  N9       -19.5360   13.0780   -8.7210 N.ar   57  G57        -0.2693
   1241  OP1      -19.3280   14.2920   -2.1170 O.3    57  G57        -0.4373
   1242  OP2      -18.3300   15.8360   -3.9120 O.co2  57  G57        -0.5172
   1243  P        -17.2180    9.8100   -5.2510 P.3    58  G58         0.2141
   1244  C5'      -17.4740    8.1480   -7.2590 C.3    58  G58         0.1812
   1245  O5'      -16.8790    9.3120   -6.7290 O.3    58  G58        -0.3114
   1246  C4'      -16.9060    7.9280   -8.6390 C.3    58  G58         0.1773
   1247  O4'      -17.3390    9.0050   -9.5020 O.3    58  G58        -0.3307
   1248  C3'      -15.3940    8.0250   -8.7050 C.3    58  G58         0.1860
   1249  O3'      -14.8100    6.8030   -8.3290 O.3    58  G58        -0.3112
   1250  C2'      -15.2100    8.2610  -10.1930 C.3    58  G58         0.2309
   1251  O2'      -15.4150    7.0750  -10.9260 O.3    58  G58        -0.2156
   1252  C1'      -16.3320    9.2540  -10.4630 C.3    58  G58         0.2408
   1253  N1       -13.9090   13.0890  -12.7090 N.ar   58  G58        -0.1709
   1254  C2       -14.1890   11.8260  -13.1700 C.ar   58  G58         0.2606
   1255  N2       -13.7640   11.5440  -14.4050 N.pl3  58  G58        -0.0859
   1256  N3       -14.8400   10.8990  -12.4810 N.ar   58  G58        -0.1918
   1257  C4       -15.1930   11.3520  -11.2590 C.ar   58  G58         0.1723
   1258  C5       -14.9640   12.5850  -10.6980 C.ar   58  G58         0.1748
   1259  C6       -14.2690   13.5660  -11.4520 C.ar   58  G58         0.3023
   1260  O6       -13.9630   14.7250  -11.1350 O.2    58  G58        -0.2633
   1261  N7       -15.4960   12.6320   -9.4170 N.ar   58  G58        -0.2173
   1262  C8       -16.0240   11.4530   -9.2320 C.ar   58  G58         0.1817
   1263  N9       -15.8780   10.6270  -10.3160 N.ar   58  G58        -0.2693
   1264  OP1      -17.1550    8.6660   -4.3110 O.3    58  G58        -0.4373
   1265  OP2      -16.3700   11.0010   -5.0230 O.co2  58  G58        -0.5172
   1266  P        -13.3390    6.7780   -7.7010 P.3    59  C59         0.2141
   1267  C5'      -12.1210    6.1920   -9.9320 C.3    59  C59         0.1812
   1268  O5'      -12.4070    7.1650   -8.9460 O.3    59  C59        -0.3114
   1269  C4'      -11.4270    6.7920  -11.1390 C.3    59  C59         0.1773
   1270  O4'      -12.1960    7.9090  -11.6490 O.3    59  C59        -0.3307
   1271  C3'      -10.0630    7.4020  -10.8830 C.3    59  C59         0.1860
   1272  O3'       -9.0760    6.3970  -10.8350 O.3    59  C59        -0.3112
   1273  C2'       -9.9190    8.2570  -12.1360 C.3    59  C59         0.2309
   1274  O2'       -9.6280    7.4970  -13.2910 O.3    59  C59        -0.2156
   1275  C1'      -11.3180    8.8540  -12.2340 C.3    59  C59         0.2420
   1276  N1       -11.4120   10.1230  -11.4710 N.ar   59  C59        -0.2535
   1277  C2       -10.8760   11.2980  -12.0170 C.ar   59  C59         0.3532
   1278  O2       -10.3490   11.2460  -13.1340 O.2    59  C59        -0.2443
   1279  N3       -10.9540   12.4520  -11.3070 N.ar   59  C59        -0.1739
   1280  C4       -11.5390   12.4440  -10.1060 C.ar   59  C59         0.1759
   1281  N4       -11.6090   13.5940   -9.4290 N.pl3  59  C59        -0.1070
   1282  C5       -12.0850   11.2570   -9.5350 C.ar   59  C59         0.0566
   1283  C6       -12.0000   10.1270  -10.2420 C.ar   59  C59         0.0850
   1284  OP1      -13.0820    5.3750   -7.2990 O.2    59  C59        -0.5172
   1285  OP2      -13.2200    7.8490   -6.6890 O.co2  59  C59        -0.4373
   1286  P         -7.8160    6.5700   -9.8650 P.3    60  U60         0.2141
   1287  C5'       -6.5280    7.6810  -11.8320 C.3    60  U60         0.1812
   1288  O5'       -7.0450    7.8040  -10.5250 O.3    60  U60        -0.3114
   1289  C4'       -6.0460    9.0270  -12.3510 C.3    60  U60         0.1773
   1290  O4'       -7.1500    9.9710  -12.3660 O.3    60  U60        -0.3307
   1291  C3'       -4.9580    9.7400  -11.5520 C.3    60  U60         0.1860
   1292  O3'       -3.6730    9.2540  -11.9190 O.3    60  U60        -0.3112
   1293  C2'       -5.1290   11.1430  -12.1040 C.3    60  U60         0.2309
   1294  O2'       -4.5890   11.2020  -13.4110 O.3    60  U60        -0.2156
   1295  C1'       -6.6510   11.2750  -12.1430 C.3    60  U60         0.2420
   1296  N1        -7.2620   11.7710  -10.8800 N.ar   60  U60        -0.2534
   1297  C2        -7.3940   13.1270  -10.6820 C.ar   60  U60         0.3546
   1298  O2        -7.0250   13.9480  -11.5010 O.2    60  U60        -0.2443
   1299  N3        -7.9710   13.4900   -9.4890 N.ar   60  U60        -0.1530
   1300  C4        -8.4210   12.6420   -8.4960 C.ar   60  U60         0.2846
   1301  O4        -8.9180   13.1030   -7.4730 O.2    60  U60        -0.2650
   1302  C5        -8.2520   11.2410   -8.7810 C.ar   60  U60         0.0814
   1303  C6        -7.6920   10.8650   -9.9360 C.ar   60  U60         0.0870
   1304  OP1       -6.9880    5.3530  -10.0090 O.2    60  U60        -0.5172
   1305  OP2       -8.2970    6.9730   -8.5180 O.co2  60  U60        -0.4373
   1306  P         -2.4680    9.2040  -10.8680 P.3    61  G61         0.2141
   1307  C5'       -1.8620   11.7110  -11.3660 C.3    61  G61         0.1812
   1308  O5'       -2.3170   10.7370  -10.4380 O.3    61  G61        -0.3114
   1309  C4'       -1.9420   13.0960  -10.7480 C.3    61  G61         0.1773
   1310  O4'       -3.3300   13.4840  -10.5670 O.3    61  G61        -0.3307
   1311  C3'       -1.3570   13.2430   -9.3500 C.3    61  G61         0.1860
   1312  O3'        0.0620   13.3440   -9.4020 O.3    61  G61        -0.3112
   1313  C2'       -2.0010   14.5720   -8.9890 C.3    61  G61         0.2309
   1314  O2'       -1.4710   15.6100   -9.7850 O.3    61  G61        -0.2156
   1315  C1'       -3.4370   14.3090   -9.4210 C.3    61  G61         0.2408
   1316  N1        -6.6500   14.6440   -5.4650 N.ar   61  G61        -0.1709
   1317  C2        -6.0860   15.6470   -6.2220 C.ar   61  G61         0.2606
   1318  N2        -6.4240   16.8910   -5.8770 N.pl3  61  G61        -0.0859
   1319  N3        -5.2520   15.4620   -7.2370 N.ar   61  G61        -0.1918
   1320  C4        -5.0270   14.1470   -7.4440 C.ar   61  G61         0.1723
   1321  C5        -5.5410   13.0760   -6.7480 C.ar   61  G61         0.1748
   1322  C6        -6.4190   13.2900   -5.6700 C.ar   61  G61         0.3023
   1323  O6        -6.9550   12.4400   -4.9520 O.2    61  G61        -0.2633
   1324  N7        -5.0690   11.8850   -7.2600 N.ar   61  G61        -0.2173
   1325  C8        -4.2940   12.2480   -8.2450 C.ar   61  G61         0.1817
   1326  N9        -4.2200   13.6060   -8.4160 N.ar   61  G61        -0.2693
   1327  OP1       -1.2620    8.8180  -11.6380 O.2    61  G61        -0.5172
   1328  OP2       -2.8880    8.4430   -9.6630 O.co2  61  G61        -0.4373
   1329  P          0.9630   13.0370   -8.1100 P.3    62  A62         0.2141
   1330  C5'        1.8150   15.2990   -6.9340 C.3    62  A62         0.1812
   1331  O5'        0.7760   14.3380   -7.1820 O.3    62  A62        -0.3114
   1332  C4'        2.1110   16.1920   -8.1290 C.3    62  A62         0.1773
   1333  O4'        0.9000   16.8490   -8.5660 O.3    62  A62        -0.3307
   1334  C3'        3.0750   17.3340   -7.8440 C.3    62  A62         0.1860
   1335  O3'        4.3970   16.8940   -8.0960 O.3    62  A62        -0.3112
   1336  C2'        2.6340   18.4060   -8.8380 C.3    62  A62         0.2309
   1337  O2'        3.0890   18.1540  -10.1540 O.3    62  A62        -0.2156
   1338  C1'        1.1280   18.2270   -8.7780 C.3    62  A62         0.2408
   1339  N1         0.0770   22.8020   -6.7400 N.ar   62  A62        -0.2040
   1340  C2         0.7880   22.4450   -7.8120 C.ar   62  A62         0.2016
   1341  N3         1.0240   21.2270   -8.2850 N.ar   62  A62        -0.2048
   1342  C4         0.4280   20.3020   -7.5210 C.ar   62  A62         0.1692
   1343  C5        -0.3380   20.5090   -6.3940 C.ar   62  A62         0.1518
   1344  C6        -0.5120   21.8450   -5.9960 C.ar   62  A62         0.1919
   1345  N6        -1.2260   22.2070   -4.9240 N.pl3  62  A62        -0.1054
   1346  N7        -0.7920   19.3100   -5.8730 N.ar   62  A62        -0.2193
   1347  C8        -0.2920   18.4120   -6.6870 C.ar   62  A62         0.1816
   1348  N9         0.4560   18.9450   -7.7020 N.ar   62  A62        -0.2693
   1349  OP1        2.3450   12.9740   -8.6380 O.2    62  A62        -0.5172
   1350  OP2        0.3970   11.9100   -7.3350 O.co2  62  A62        -0.4373
   1351  P          5.5020   17.0750   -6.9600 P.3    63  A63         0.2141
   1352  C5'        6.1160   19.2980   -8.1200 C.3    63  A63         0.1812
   1353  O5'        5.7020   18.6620   -6.9210 O.3    63  A63        -0.3114
   1354  C4'        6.0090   20.8040   -8.0030 C.3    63  A63         0.1773
   1355  O4'        4.6220   21.1990   -7.9200 O.3    63  A63        -0.3307
   1356  C3'        6.6330   21.3970   -6.7550 C.3    63  A63         0.1860
   1357  O3'        8.0000   21.6090   -7.0010 O.3    63  A63        -0.3112
   1358  C2'        5.9150   22.7320   -6.7040 C.3    63  A63         0.2309
   1359  O2'        6.4060   23.6000   -7.7100 O.3    63  A63        -0.2156
   1360  C1'        4.4990   22.3020   -7.0480 C.3    63  A63         0.2408
   1361  N1         1.1670   23.6220   -3.3610 N.ar   63  A63        -0.2040
   1362  C2         1.8170   24.3420   -4.2780 C.ar   63  A63         0.2016
   1363  N3         2.6800   23.9390   -5.2110 N.ar   63  A63        -0.2048
   1364  C4         2.8590   22.6140   -5.1460 C.ar   63  A63         0.1692
   1365  C5         2.2640   21.7430   -4.2600 C.ar   63  A63         0.1518
   1366  C6         1.3760   22.2910   -3.3220 C.ar   63  A63         0.1919
   1367  N6         0.7300   21.5610   -2.4070 N.pl3  63  A63        -0.1054
   1368  N7         2.6890   20.4540   -4.4920 N.ar   63  A63        -0.2193
   1369  C8         3.5230   20.5660   -5.5010 C.ar   63  A63         0.1816
   1370  N9         3.6750   21.8480   -5.9390 N.ar   63  A63        -0.2693
   1371  OP1        6.7260   16.4460   -7.5050 O.2    63  A63        -0.5172
   1372  OP2        4.9420   16.6590   -5.6510 O.co2  63  A63        -0.4373
   1373  P          8.9840   21.9420   -5.7880 P.3    64  A64         0.2141
   1374  C5'        8.8100   24.5160   -6.0970 C.3    64  A64         0.1812
   1375  O5'        8.5080   23.3890   -5.2910 O.3    64  A64        -0.3114
   1376  C4'        8.2650   25.7820   -5.4740 C.3    64  A64         0.1773
   1377  O4'        6.8240   25.6900   -5.3850 O.3    64  A64        -0.3307
   1378  C3'        8.6950   26.0360   -4.0410 C.3    64  A64         0.1860
   1379  O3'       10.0070   26.5980   -3.9920 O.3    64  A64        -0.3112
   1380  C2'        7.6280   27.0450   -3.6310 C.3    64  A64         0.2309
   1381  O2'        7.8700   28.3170   -4.1960 O.3    64  A64        -0.2156
   1382  C1'        6.3810   26.4430   -4.2710 C.3    64  A64         0.2408
   1383  N1         2.6770   25.9550   -0.7220 N.ar   64  A64        -0.2040
   1384  C2         3.1480   27.0160   -1.3820 C.ar   64  A64         0.2016
   1385  N3         4.1150   27.0820   -2.2960 N.ar   64  A64        -0.2048
   1386  C4         4.6340   25.8720   -2.5210 C.ar   64  A64         0.1692
   1387  C5         4.2580   24.6900   -1.9210 C.ar   64  A64         0.1518
   1388  C6         3.2230   24.7470   -0.9700 C.ar   64  A64         0.1919
   1389  N6         2.7620   23.6740   -0.3140 N.pl3  64  A64        -0.1054
   1390  N7         5.0140   23.6420   -2.4040 N.ar   64  A64        -0.2193
   1391  C8         5.8200   24.2030   -3.2750 C.ar   64  A64         0.1816
   1392  N9         5.6440   25.5490   -3.3920 N.ar   64  A64        -0.2693
   1393  OP1       10.3190   22.0440   -6.4320 O.2    64  A64        -0.5172
   1394  OP2        8.7350   21.0040   -4.6610 O.co2  64  A64        -0.4373
   1395  P         10.8330   26.5510   -2.6190 P.3    65  G65         0.2141
   1396  C5'        9.9310   28.9570   -2.2700 C.3    65  G65         0.1812
   1397  O5'       10.1080   27.6690   -1.7490 O.3    65  G65        -0.3114
   1398  C4'        9.0340   29.6930   -1.3050 C.3    65  G65         0.1773
   1399  O4'        7.6870   29.1840   -1.4380 O.3    65  G65        -0.3307
   1400  C3'        9.3680   29.4440    0.1540 C.3    65  G65         0.1860
   1401  O3'       10.4780   30.2580    0.5500 O.3    65  G65        -0.3112
   1402  C2'        8.0400   29.8380    0.7970 C.3    65  G65         0.2309
   1403  O2'        7.8720   31.2360    0.8930 O.3    65  G65        -0.2156
   1404  C1'        7.0400   29.2240   -0.1850 C.3    65  G65         0.2408
   1405  N1         3.8340   26.1190    2.2300 N.ar   65  G65        -0.1709
   1406  C2         3.7420   27.4790    2.0430 C.ar   65  G65         0.2606
   1407  N2         2.6680   28.0820    2.5720 N.pl3  65  G65        -0.0859
   1408  N3         4.6440   28.1950    1.3840 N.ar   65  G65        -0.1918
   1409  C4         5.6550   27.4220    0.9250 C.ar   65  G65         0.1723
   1410  C5         5.8340   26.0660    1.0630 C.ar   65  G65         0.1748
   1411  C6         4.8720   25.3130    1.7660 C.ar   65  G65         0.3023
   1412  O6         4.8740   24.0920    1.9840 O.2    65  G65        -0.2633
   1413  N7         7.0000   25.6500    0.4470 N.ar   65  G65        -0.2173
   1414  C8         7.5060   26.7470   -0.0440 C.ar   65  G65         0.1817
   1415  N9         6.7380   27.8580    0.2040 N.ar   65  G65        -0.2693
   1416  OP1       12.2310   26.9490   -2.9190 O.2    65  G65        -0.5172
   1417  OP2       10.5600   25.2780   -1.9110 O.co2  65  G65        -0.4373
   1418  P         11.2740   30.0180    1.9230 P.3    66  G66         0.2141
   1419  C5'       10.3700   29.9180    4.3000 C.3    66  G66         0.1812
   1420  O5'       10.1060   30.2610    2.9760 O.3    66  G66        -0.3114
   1421  C4'        9.0990   29.5490    5.0180 C.3    66  G66         0.1773
   1422  O4'        8.0890   29.0450    4.1070 O.3    66  G66        -0.3307
   1423  C3'        9.3340   28.3940    5.9560 C.3    66  G66         0.1860
   1424  O3'       10.0110   28.8830    7.1010 O.3    66  G66        -0.3112
   1425  C2'        7.8910   27.9510    6.1620 C.3    66  G66         0.2309
   1426  O2'        7.1440   28.8910    6.8980 O.3    66  G66        -0.2156
   1427  C1'        7.4450   27.9300    4.7010 C.3    66  G66         0.2408
   1428  N1         7.4990   22.8520    4.6970 N.ar   66  G66        -0.1709
   1429  C2         6.8210   23.7160    5.5250 C.ar   66  G66         0.2606
   1430  N2         6.0610   23.1670    6.4850 N.pl3  66  G66        -0.0859
   1431  N3         6.8820   25.0360    5.4250 N.ar   66  G66        -0.1918
   1432  C4         7.6850   25.4280    4.4100 C.ar   66  G66         0.1723
   1433  C5         8.3970   24.6480    3.5320 C.ar   66  G66         0.1748
   1434  C6         8.3300   23.2470    3.6480 C.ar   66  G66         0.3023
   1435  O6         8.9080   22.4090    2.9410 O.2    66  G66        -0.2633
   1436  N7         9.1050   25.4250    2.6300 N.ar   66  G66        -0.2173
   1437  C8         8.8100   26.6490    2.9820 C.ar   66  G66         0.1817
   1438  N9         7.9460   26.7260    4.0490 N.ar   66  G66        -0.2693
   1439  OP1       12.2900   31.0880    2.0500 O.2    66  G66        -0.5172
   1440  OP2       11.6990   28.6080    2.0610 O.co2  66  G66        -0.4373
   1441  P         11.4930   28.3440    7.3960 P.3    67  C67         0.2141
   1442  C5'       10.0060   26.8820    8.9140 C.3    67  C67         0.1812
   1443  O5'       11.1440   26.9410    8.0760 O.3    67  C67        -0.3114
   1444  C4'        9.7450   25.4660    9.3760 C.3    67  C67         0.1773
   1445  O4'        9.0770   24.7190    8.3360 O.3    67  C67        -0.3307
   1446  C3'       10.9920   24.6510    9.6650 C.3    67  C67         0.1860
   1447  O3'       11.4240   24.9600   10.9650 O.3    67  C67        -0.3112
   1448  C2'       10.4350   23.2370    9.5860 C.3    67  C67         0.2309
   1449  O2'        9.7050   22.8770   10.7410 O.3    67  C67        -0.2156
   1450  C1'        9.4990   23.3710    8.3930 C.3    67  C67         0.2420
   1451  N1        10.2190   23.0900    7.1520 N.ar   67  C67        -0.2535
   1452  C2        10.5170   21.7650    6.8440 C.ar   67  C67         0.3532
   1453  O2        10.1560   20.8770    7.6270 O.2    67  C67        -0.2443
   1454  N3        11.1880   21.5040    5.6970 N.ar   67  C67        -0.1739
   1455  C4        11.5540   22.5080    4.8950 C.ar   67  C67         0.1759
   1456  N4        12.2180   22.2030    3.7740 N.pl3  67  C67        -0.1070
   1457  C5        11.2530   23.8680    5.2060 C.ar   67  C67         0.0566
   1458  C6        10.5890   24.1140    6.3370 C.ar   67  C67         0.0850
   1459  OP1       12.0980   29.2400    8.4050 O.3    67  C67        -0.4373
   1460  OP2       12.2100   28.0860    6.1250 O.co2  67  C67        -0.5172
   1461  P         12.8930   24.5910   11.4490 P.3    68  G68         0.2141
   1462  C5'       12.5570   22.0360   11.5640 C.3    68  G68         0.1812
   1463  O5'       13.1220   23.1270   10.8640 O.3    68  G68        -0.3114
   1464  C4'       13.1300   20.7540   11.0090 C.3    68  G68         0.1773
   1465  O4'       12.7260   20.6320    9.6290 O.3    68  G68        -0.3307
   1466  C3'       14.6460   20.7030   10.9830 C.3    68  G68         0.1860
   1467  O3'       15.0560   20.1290   12.2010 O.3    68  G68        -0.3112
   1468  C2'       14.8710   19.7030    9.8690 C.3    68  G68         0.2309
   1469  O2'       14.6420   18.3980   10.3600 O.3    68  G68        -0.2156
   1470  C1'       13.7720   20.0670    8.8810 C.3    68  G68         0.2408
   1471  N1        15.6990   21.0310    4.2940 N.ar   68  G68        -0.1709
   1472  C2        15.5090   19.8250    4.9170 C.ar   68  G68         0.2606
   1473  N2        15.8790   18.7360    4.2260 N.pl3  68  G68        -0.0859
   1474  N3        14.9910   19.6890    6.1250 N.ar   68  G68        -0.1918
   1475  C4        14.6760   20.8810    6.6680 C.ar   68  G68         0.1723
   1476  C5        14.8250   22.1320    6.1290 C.ar   68  G68         0.1748
   1477  C6        15.3740   22.2640    4.8420 C.ar   68  G68         0.3023
   1478  O6        15.5810   23.3030    4.2040 O.2    68  G68        -0.2633
   1479  N7        14.3810   23.1040    7.0090 N.ar   68  G68        -0.2173
   1480  C8        13.9730   22.4330    8.0520 C.ar   68  G68         0.1817
   1481  N9        14.1330   21.0790    7.9120 N.ar   68  G68        -0.2693
   1482  OP1       12.7780   24.4880   12.9230 O.3    68  G68        -0.4373
   1483  OP2       13.8790   25.4830   10.7930 O.co2  68  G68        -0.5172
   1484  P         16.3490   20.6380   12.9820 P.3    69  A69         0.2141
   1485  C5'       16.2630   18.3670   14.2200 C.3    69  A69         0.1812
   1486  O5'       17.0070   19.2430   13.3960 O.3    69  A69        -0.3114
   1487  C4'       16.7390   16.9330   14.0670 C.3    69  A69         0.1773
   1488  O4'       16.3410   16.4330   12.7700 O.3    69  A69        -0.3307
   1489  C3'       18.2460   16.7340   14.1240 C.3    69  A69         0.1860
   1490  O3'       18.6470   16.5550   15.4750 O.3    69  A69        -0.3112
   1491  C2'       18.4080   15.4430   13.3290 C.3    69  A69         0.2309
   1492  O2'       18.0860   14.3000   14.0960 O.3    69  A69        -0.2156
   1493  C1'       17.3580   15.6110   12.2380 C.3    69  A69         0.2408
   1494  N1        19.8120   14.7830    7.8250 N.ar   69  A69        -0.2040
   1495  C2        19.4940   13.9830    8.8490 C.ar   69  A69         0.2016
   1496  N3        18.8530   14.2740    9.9760 N.ar   69  A69        -0.2048
   1497  C4        18.5150   15.5650    9.9990 C.ar   69  A69         0.1692
   1498  C5        18.7660   16.5140    9.0320 C.ar   69  A69         0.1518
   1499  C6        19.4570   16.0790    7.8830 C.ar   69  A69         0.1919
   1500  N6        19.7740   16.8750    6.8560 N.pl3  69  A69        -0.1054
   1501  N7        18.2580   17.7460    9.4100 N.ar   69  A69        -0.2193
   1502  C8        17.7190   17.5130   10.5850 C.ar   69  A69         0.1816
   1503  N9        17.8440   16.2140   10.9990 N.ar   69  A69        -0.2693
   1504  OP1       15.8750   21.3500   14.1960 O.3    69  A69        -0.4373
   1505  OP2       17.2760   21.3010   12.0330 O.co2  69  A69        -0.5172
   1506  P         20.0340   17.1550   15.9880 P.3    70  G70         0.2141
   1507  C5'       21.3180   15.1440   14.9060 C.3    70  G70         0.1812
   1508  O5'       21.0870   16.5440   14.9460 O.3    70  G70        -0.3114
   1509  C4'       22.2990   14.7820   13.8030 C.3    70  G70         0.1773
   1510  O4'       21.6200   14.7620   12.5170 O.3    70  G70        -0.3307
   1511  C3'       23.4550   15.7540   13.6080 C.3    70  G70         0.1860
   1512  O3'       24.5050   15.4760   14.5250 O.3    70  G70        -0.3112
   1513  C2'       23.8490   15.4290   12.1710 C.3    70  G70         0.2309
   1514  O2'       24.5650   14.2170   12.0530 O.3    70  G70        -0.2156
   1515  C1'       22.4710   15.3120   11.5260 C.3    70  G70         0.2408
   1516  N1        22.6080   18.9950    8.0270 N.ar   70  G70        -0.1709
   1517  C2        23.2190   17.7710    8.0160 C.ar   70  G70         0.2606
   1518  N2        23.9660   17.4990    6.9370 N.pl3  70  G70        -0.0859
   1519  N3        23.1070   16.8770    8.9890 N.ar   70  G70        -0.1918
   1520  C4        22.3160   17.3230    9.9970 C.ar   70  G70         0.1723
   1521  C5        21.6650   18.5250   10.0950 C.ar   70  G70         0.1748
   1522  C6        21.7950   19.4630    9.0460 C.ar   70  G70         0.3023
   1523  O6        21.2890   20.5870    8.9540 O.2    70  G70        -0.2633
   1524  N7        20.9560   18.6030   11.2830 N.ar   70  G70        -0.2173
   1525  C8        21.1820   17.4620   11.8710 C.ar   70  G70         0.1817
   1526  N9        21.9950   16.6350   11.1450 N.ar   70  G70        -0.2693
   1527  OP1       20.2860   16.5380   17.3090 O.3    70  G70        -0.4373
   1528  OP2       20.0040   18.6310   15.8370 O.co2  70  G70        -0.5172
   1529  P         25.5750   16.6070   14.9210 P.3    71  G71         0.2141
   1530  C5'       27.2480   16.0220   13.0100 C.3    71  G71         0.1812
   1531  O5'       26.3280   16.9550   13.5500 O.3    71  G71        -0.3114
   1532  C4'       27.7290   16.4420   11.6360 C.3    71  G71         0.1773
   1533  O4'       26.5990   16.6140   10.7520 O.3    71  G71        -0.3307
   1534  C3'       28.4300   17.7860   11.5600 C.3    71  G71         0.1860
   1535  O3'       29.7770   17.6820   11.9970 O.3    71  G71        -0.3112
   1536  C2'       28.3480   18.0110   10.0580 C.3    71  G71         0.2309
   1537  O2'       29.2100   17.1580    9.3330 O.3    71  G71        -0.2156
   1538  C1'       26.8930   17.6320    9.8200 C.3    71  G71         0.2408
   1539  N1        25.2930   22.1470    8.1260 N.ar   71  G71        -0.1709
   1540  C2        26.1670   21.2490    7.5490 C.ar   71  G71         0.2606
   1541  N2        26.6860   21.6090    6.3610 N.pl3  71  G71        -0.0859
   1542  N3        26.5100   20.0810    8.0900 N.ar   71  G71        -0.1918
   1543  C4        25.8980   19.8830    9.2800 C.ar   71  G71         0.1723
   1544  C5        25.0180   20.7120    9.9410 C.ar   71  G71         0.1748
   1545  C6        24.6610   21.9510    9.3530 C.ar   71  G71         0.3023
   1546  O6        23.8910   22.8130    9.8010 O.2    71  G71        -0.2633
   1547  N7        24.6170   20.1430   11.1440 N.ar   71  G71        -0.2173
   1548  C8        25.2540   19.0000   11.1870 C.ar   71  G71         0.1817
   1549  N9        26.0420   18.7770   10.0850 N.ar   71  G71        -0.2693
   1550  OP1       26.5430   15.9400   15.8160 O.3    71  G71        -0.4373
   1551  OP2       24.8650   17.8250   15.3650 O.co2  71  G71        -0.5172
   1552  P         30.5360   18.9560   12.6070 P.3    72  G72         0.2141
   1553  C5'       31.6510   19.7330   10.3620 C.3    72  G72         0.1812
   1554  O5'       30.7010   19.9840   11.3850 O.3    72  G72        -0.3114
   1555  C4'       31.5140   20.7330    9.2300 C.3    72  G72         0.1773
   1556  O4'       30.1300   20.7960    8.8070 O.3    72  G72        -0.3307
   1557  C3'       31.8160   22.1840    9.5680 C.3    72  G72         0.1860
   1558  O3'       33.2100   22.4560    9.6430 O.3    72  G72        -0.3112
   1559  C2'       31.1830   22.8490    8.3520 C.3    72  G72         0.2309
   1560  O2'       31.9520   22.6650    7.1800 O.3    72  G72        -0.2156
   1561  C1'       29.8560   22.0900    8.2930 C.3    72  G72         0.2408
   1562  N1        26.7170   26.0710    8.9390 N.ar   72  G72        -0.1709
   1563  C2        27.5780   25.8000    7.9000 C.ar   72  G72         0.2606
   1564  N2        27.6070   26.7060    6.9080 N.pl3  72  G72        -0.0859
   1565  N3        28.3530   24.7180    7.8340 N.ar   72  G72        -0.1918
   1566  C4        28.1950   23.9130    8.9100 C.ar   72  G72         0.1723
   1567  C5        27.3600   24.0950    9.9910 C.ar   72  G72         0.1748
   1568  C6        26.5390   25.2490   10.0520 C.ar   72  G72         0.3023
   1569  O6        25.7320   25.5710   10.9430 O.2    72  G72        -0.2633
   1570  N7        27.4830   23.0420   10.8890 N.ar   72  G72        -0.2173
   1571  C8        28.3790   22.2610   10.3430 C.ar   72  G72         0.1817
   1572  N9        28.8480   22.7220    9.1360 N.ar   72  G72        -0.2693
   1573  OP1       31.8620   18.4360   13.0040 O.2    72  G72        -0.5172
   1574  OP2       29.6540   19.6260   13.5950 O.co2  72  G72        -0.4373
   1575  P         33.7490   23.6120   10.6210 P.3    73  C73         0.2141
   1576  C5'       33.8450   25.3890    8.7270 C.3    73  C73         0.1812
   1577  O5'       33.2470   24.9760    9.9410 O.3    73  C73        -0.3114
   1578  C4'       33.1250   26.5720    8.1050 C.3    73  C73         0.1773
   1579  O4'       31.6970   26.3280    8.0220 O.3    73  C73        -0.3307
   1580  C3'       33.2010   27.8890    8.8560 C.3    73  C73         0.1860
   1581  O3'       34.4450   28.5040    8.6120 O.3    73  C73        -0.3112
   1582  C2'       32.0810   28.6410    8.1480 C.3    73  C73         0.2309
   1583  O2'       32.4540   29.0280    6.8370 O.3    73  C73        -0.2156
   1584  C1'       31.0040   27.5590    8.1110 C.3    73  C73         0.2420
   1585  N1        30.1920   27.5150    9.3500 N.ar   73  C73        -0.2535
   1586  C2        29.2010   28.4710    9.5690 C.ar   73  C73         0.3532
   1587  O2        29.0300   29.3360    8.7060 O.2    73  C73        -0.2443
   1588  N3        28.4650   28.4270   10.7080 N.ar   73  C73        -0.1739
   1589  C4        28.7030   27.4670   11.6020 C.ar   73  C73         0.1759
   1590  N4        27.9730   27.4360   12.7210 N.pl3  73  C73        -0.1070
   1591  C5        29.7100   26.4830   11.3940 C.ar   73  C73         0.0566
   1592  C6        30.4270   26.5450   10.2690 C.ar   73  C73         0.0850
   1593  OP1       35.2270   23.5490   10.5530 O.2    73  C73        -0.5172
   1594  OP2       33.0740   23.4870   11.9330 O.co2  73  C73        -0.4373
   1595  P         35.1280   29.4380    9.7140 P.3    74  G74         0.2141
   1596  C5'       34.1280   31.4080    8.3460 C.3    74  G74         0.1812
   1597  O5'       34.2360   30.7650    9.6130 O.3    74  G74        -0.3114
   1598  C4'       33.1120   32.5340    8.3900 C.3    74  G74         0.1773
   1599  O4'       31.7890   31.9830    8.5990 O.3    74  G74        -0.3307
   1600  C3'       33.2700   33.5180    9.5330 C.3    74  G74         0.1860
   1601  O3'       34.2490   34.4880    9.1940 O.3    74  G74        -0.3112
   1602  C2'       31.8750   34.1270    9.5590 C.3    74  G74         0.2309
   1603  O2'       31.6790   35.0550    8.5100 O.3    74  G74        -0.2156
   1604  C1'       31.0040   32.8970    9.3340 C.3    74  G74         0.2408
   1605  N1        27.7270   32.8460   13.2250 N.ar   74  G74        -0.1709
   1606  C2        27.7970   33.7100   12.1580 C.ar   74  G74         0.2606
   1607  N2        26.8720   34.6850   12.1290 N.pl3  74  G74        -0.0859
   1608  N3        28.7050   33.6310   11.1900 N.ar   74  G74        -0.1918
   1609  C4        29.5450   32.5880   11.3840 C.ar   74  G74         0.1723
   1610  C5        29.5560   31.6740   12.4150 C.ar   74  G74         0.1748
   1611  C6        28.5860   31.7740   13.4420 C.ar   74  G74         0.3023
   1612  O6        28.4350   31.0490   14.4380 O.2    74  G74        -0.2633
   1613  N7        30.5890   30.7580   12.2480 N.ar   74  G74        -0.2173
   1614  C8        31.1740   31.1330   11.1400 C.ar   74  G74         0.1817
   1615  N9        30.5920   32.2350   10.5650 N.ar   74  G74        -0.2693
   1616  OP1       36.4870   29.7370    9.2010 O.2    74  G74        -0.5172
   1617  OP2       34.9440   28.8330   11.0620 O.co2  74  G74        -0.4373
   1618  P         34.9140   35.4160   10.3170 P.3    75  C75         0.2141
   1619  C5'       33.5300   36.6980   12.1690 C.3    75  C75         0.1812
   1620  O5'       33.6420   36.2340   10.8360 O.3    75  C75        -0.3114
   1621  C4'       32.0640   36.9970   12.4170 C.3    75  C75         0.1773
   1622  O4'       31.3400   35.7430   12.4780 O.3    75  C75        -0.3307
   1623  C3'       31.7130   37.7080   13.7130 C.3    75  C75         0.1860
   1624  O3'       31.8260   39.1180   13.5300 O.3    75  C75        -0.3112
   1625  C2'       30.2430   37.3410   13.8270 C.3    75  C75         0.2309
   1626  O2'       29.4810   38.1990   13.0000 O.3    75  C75        -0.2156
   1627  C1'       30.1970   35.9130   13.2830 C.3    75  C75         0.2420
   1628  N1        30.2140   34.8590   14.3210 N.ar   75  C75        -0.2535
   1629  C2        29.1810   34.8140   15.2610 C.ar   75  C75         0.3532
   1630  O2        28.2850   35.6650   15.2020 O.2    75  C75        -0.2443
   1631  N3        29.1920   33.8450   16.2100 N.ar   75  C75        -0.1739
   1632  C4        30.1860   32.9560   16.2260 C.ar   75  C75         0.1759
   1633  N4        30.1590   32.0210   17.1790 N.pl3  75  C75        -0.1070
   1634  C5        31.2460   32.9810   15.2710 C.ar   75  C75         0.0566
   1635  C6        31.2200   33.9420   14.3440 C.ar   75  C75         0.0850
   1636  OP1       35.7980   36.3590    9.5900 O.2    75  C75        -0.5172
   1637  OP2       35.4360   34.5740   11.4250 O.co2  75  C75        -0.4373
   1638  P         32.4810   40.0430   14.6630 P.3    76  C76         0.2141
   1639  C5'       30.0760   40.8450   15.2820 C.3    76  C76         0.1812
   1640  O5'       31.2880   40.2410   15.7050 O.3    76  C76        -0.3114
   1641  C4'       29.1750   41.0540   16.4820 C.3    76  C76         0.1773
   1642  O4'       28.6940   39.7640   16.9490 O.3    76  C76        -0.3307
   1643  C3'       29.8760   41.7030   17.6660 C.3    76  C76         0.1860
   1644  O3'       28.9960   42.5650   18.3320 O.3    76  C76        -0.3112
   1645  C2'       30.1930   40.5060   18.5500 C.3    76  C76         0.2309
   1646  O2'       30.3050   40.8510   19.9180 O.3    76  C76        -0.2156
   1647  C1'       28.9600   39.6420   18.3280 C.3    76  C76         0.2420
   1648  N1        29.2110   38.2220   18.6800 N.ar   76  C76        -0.2535
   1649  C2        28.4700   37.5960   19.6930 C.ar   76  C76         0.3532
   1650  O2        27.5860   38.2210   20.2870 O.2    76  C76        -0.2443
   1651  N3        28.7360   36.3040   20.0010 N.ar   76  C76        -0.1739
   1652  C4        29.6940   35.6500   19.3450 C.ar   76  C76         0.1759
   1653  N4        29.9210   34.3800   19.6800 N.pl3  76  C76        -0.1070
   1654  C5        30.4640   36.2670   18.3190 C.ar   76  C76         0.0566
   1655  C6        30.1930   37.5440   18.0250 C.ar   76  C76         0.0850
   1656  OP1       32.7820   41.3420   14.0220 O.2    76  C76        -0.5172
   1657  OP2       33.5390   39.2680   15.3560 O.co2  76  C76        -0.4373
   1658  P         28.7560   44.0500   17.8100 P.3    77  G77         0.2141
   1659  C5'       27.9060   44.8160   15.4710 C.3    77  G77         0.1812
   1660  O5'       27.8480   43.8620   16.5150 O.3    77  G77        -0.3114
   1661  C4'       26.6580   44.6680   14.6360 C.3    77  G77         0.1773
   1662  O4'       25.5140   44.9390   15.4840 O.3    77  G77        -0.3307
   1663  C3'       26.5490   45.6060   13.4390 C.3    77  G77         0.1860
   1664  O3'       26.2570   44.8410   12.2680 O.3    77  G77        -0.3112
   1665  C2'       25.3910   46.5210   13.8140 C.3    77  G77         0.2309
   1666  O2'       24.6180   46.9060   12.7000 O.3    77  G77        -0.2156
   1667  C1'       24.5690   45.5810   14.6710 C.3    77  G77         0.2408
   1668  N1        20.4740   45.1680   17.6320 N.ar   77  G77        -0.1709
   1669  C2        21.2300   44.1740   17.0560 C.ar   77  G77         0.2606
   1670  N2        20.8440   42.9140   17.2950 N.pl3  77  G77        -0.0859
   1671  N3        22.2930   44.3980   16.2990 N.ar   77  G77        -0.1918
   1672  C4        22.5360   45.7200   16.1670 C.ar   77  G77         0.1723
   1673  C5        21.8450   46.7800   16.6980 C.ar   77  G77         0.1748
   1674  C6        20.7170   46.5340   17.5010 C.ar   77  G77         0.3023
   1675  O6        19.9860   47.3690   18.0540 O.2    77  G77        -0.2633
   1676  N7        22.4130   47.9860   16.3280 N.ar   77  G77        -0.2173
   1677  C8        23.4260   47.6350   15.5900 C.ar   77  G77         0.1817
   1678  N9        23.5610   46.2790   15.4500 N.ar   77  G77        -0.2693
   1679  OP1       30.0580   44.6340   17.4020 O.2    77  G77        -0.5172
   1680  OP2       28.0230   44.8870   18.7830 O.co2  77  G77        -0.4373
   1681  P         27.4100   43.9910   11.5570 P.3    78  A78         0.2141
   1682  C5'       26.6210   41.5420   12.0820 C.3    78  A78         0.1812
   1683  O5'       27.4620   42.6430   12.4180 O.3    78  A78        -0.3114
   1684  C4'       26.8070   40.3950   13.0560 C.3    78  A78         0.1773
   1685  O4'       26.3260   40.7910   14.3590 O.3    78  A78        -0.3307
   1686  C3'       25.9860   39.1580   12.7600 C.3    78  A78         0.1860
   1687  O3'       26.6430   38.3860   11.7730 O.3    78  A78        -0.3112
   1688  C2'       26.0150   38.4750   14.1250 C.3    78  A78         0.2309
   1689  O2'       27.1880   37.7130   14.3340 O.3    78  A78        -0.2156
   1690  C1'       25.9620   39.6500   15.1020 C.3    78  A78         0.2408
   1691  N1        22.6680   38.2780   18.7790 N.ar   78  A78        -0.2040
   1692  C2        23.9450   37.9600   18.5560 C.ar   78  A78         0.2016
   1693  N3        24.7440   38.3640   17.5730 N.ar   78  A78        -0.2048
   1694  C4        24.1020   39.2010   16.7470 C.ar   78  A78         0.1692
   1695  C5        22.7920   39.6160   16.8440 C.ar   78  A78         0.1518
   1696  C6        22.0500   39.1120   17.9280 C.ar   78  A78         0.1919
   1697  N6        20.7730   39.4150   18.1680 N.pl3  78  A78        -0.1054
   1698  N7        22.4800   40.4760   15.8030 N.ar   78  A78        -0.2193
   1699  C8        23.5930   40.5520   15.1070 C.ar   78  A78         0.1816
   1700  N9        24.6150   39.8120   15.6290 N.ar   78  A78        -0.2693
   1701  OP1       28.7010   44.6730   11.7900 O.3    78  A78        -0.4373
   1702  OP2       26.9440   43.6770   10.1850 O.co2  78  A78        -0.5172
   1703  P         26.0020   38.2210   10.3170 P.3    79  A79         0.2141
   1704  C5'       23.4380   38.6450   10.0900 C.3    79  A79         0.1812
   1705  O5'       24.4860   37.8900   10.6780 O.3    79  A79        -0.3114
   1706  C4'       22.2760   38.6980   11.0600 C.3    79  A79         0.1773
   1707  O4'       22.6520   39.5600   12.1630 O.3    79  A79        -0.3307
   1708  C3'       20.9880   39.3280   10.5580 C.3    79  A79         0.1860
   1709  O3'       20.2320   38.4240    9.7620 O.3    79  A79        -0.3112
   1710  C2'       20.3170   39.5960   11.8950 C.3    79  A79         0.2309
   1711  O2'       19.9210   38.3940   12.5220 O.3    79  A79        -0.2156
   1712  C1'       21.4860   40.1800   12.6770 C.3    79  A79         0.2408
   1713  N1        19.7330   44.8020   14.1370 N.ar   79  A79        -0.2040
   1714  C2        19.3200   43.5620   14.4170 C.ar   79  A79         0.2016
   1715  N3        19.8180   42.3950   14.0130 N.ar   79  A79        -0.2048
   1716  C4        20.8750   42.5890   13.2080 C.ar   79  A79         0.1692
   1717  C5        21.4180   43.8020   12.8310 C.ar   79  A79         0.1518
   1718  C6        20.8020   44.9620   13.3340 C.ar   79  A79         0.1919
   1719  N6        21.2290   46.1970   13.0520 N.pl3  79  A79        -0.1054
   1720  N7        22.5060   43.6190   11.9980 N.ar   79  A79        -0.2193
   1721  C8        22.5960   42.3140   11.8900 C.ar   79  A79         0.1816
   1722  N9        21.6420   41.6300   12.5880 N.ar   79  A79        -0.2693
   1723  OP1       26.6560   37.0420    9.7040 O.3    79  A79        -0.4373
   1724  OP2       25.9870   39.5160    9.6050 O.co2  79  A79        -0.5172
   1725  P         19.4100   39.0130    8.5160 P.3    80  G80         0.2141
   1726  C5'       17.2520   38.7870    9.9360 C.3    80  G80         0.1812
   1727  O5'       18.1290   39.6540    9.2290 O.3    80  G80        -0.3114
   1728  C4'       16.2610   39.5450   10.8020 C.3    80  G80         0.1773
   1729  O4'       16.9710   40.2780   11.8260 O.3    80  G80        -0.3307
   1730  C3'       15.4490   40.6220   10.1070 C.3    80  G80         0.1860
   1731  O3'       14.3690   40.0310    9.4210 O.3    80  G80        -0.3112
   1732  C2'       14.9850   41.4270   11.3180 C.3    80  G80         0.2309
   1733  O2'       13.9910   40.7720   12.0790 O.3    80  G80        -0.2156
   1734  C1'       16.2810   41.4770   12.1150 C.3    80  G80         0.2408
   1735  N1        16.9550   46.4670   12.5390 N.ar   80  G80        -0.1709
   1736  C2        16.0230   45.6540   13.1420 C.ar   80  G80         0.2606
   1737  N2        15.1410   46.2380   13.9670 N.pl3  80  G80        -0.0859
   1738  N3        15.9550   44.3440   12.9530 N.ar   80  G80        -0.1918
   1739  C4        16.9060   43.9090   12.0960 C.ar   80  G80         0.1723
   1740  C5        17.8750   44.6340   11.4460 C.ar   80  G80         0.1748
   1741  C6        17.9420   46.0270   11.6550 C.ar   80  G80         0.3023
   1742  O6        18.7470   46.8270   11.1580 O.2    80  G80        -0.2633
   1743  N7        18.6600   43.8080   10.6540 N.ar   80  G80        -0.2173
   1744  C8        18.1530   42.6190   10.8380 C.ar   80  G80         0.1817
   1745  N9        17.0890   42.6100   11.7030 N.ar   80  G80        -0.2693
   1746  OP1       18.9460   37.8680    7.7080 O.2    80  G80        -0.5172
   1747  OP2       20.2180   40.0640    7.8550 O.co2  80  G80        -0.4373
   1748  P         13.8840   40.6100    8.0140 P.3    81  C81         0.2141
   1749  C5'       12.0240   41.9640    9.3400 C.3    81  C81         0.1812
   1750  O5'       13.0620   41.9470    8.3580 O.3    81  C81        -0.3114
   1751  C4'       11.7410   43.3710    9.8410 C.3    81  C81         0.1773
   1752  O4'       12.9100   43.9300   10.5030 O.3    81  C81        -0.3307
   1753  C3'       11.4840   44.4390    8.7900 C.3    81  C81         0.1860
   1754  O3'       10.2240   44.2980    8.1170 O.3    81  C81        -0.3112
   1755  C2'       11.5030   45.6400    9.7280 C.3    81  C81         0.2309
   1756  O2'       10.3560   45.6710   10.5460 O.3    81  C81        -0.2156
   1757  C1'       12.7260   45.3370   10.5940 C.3    81  C81         0.2420
   1758  N1        13.9220   46.1220   10.1370 N.ar   81  C81        -0.2535
   1759  C2        14.0610   47.4800   10.5160 C.ar   81  C81         0.3532
   1760  O2        13.2140   48.0160   11.2440 O.2    81  C81        -0.2443
   1761  N3        15.1270   48.1980   10.0870 N.ar   81  C81        -0.1739
   1762  C4        16.0250   47.6100    9.3090 C.ar   81  C81         0.1759
   1763  N4        17.0600   48.3490    8.9080 N.pl3  81  C81        -0.1070
   1764  C5        15.9040   46.2390    8.9130 C.ar   81  C81         0.0566
   1765  C6        14.8490   45.5340    9.3360 C.ar   81  C81         0.0850
   1766  OP1       12.9800   39.5690    7.4760 O.3    81  C81        -0.4373
   1767  OP2       15.0720   41.0680    7.2530 O.co2  81  C81        -0.5172
   1768  P          9.9280   45.1200    6.7600 P.3    82  G82         0.2141
   1769  C5'        8.9650   47.1980    8.0340 C.3    82  G82         0.1812
   1770  O5'        9.9710   46.6550    7.1980 O.3    82  G82        -0.3114
   1771  C4'        9.3180   48.6360    8.3480 C.3    82  G82         0.1773
   1772  O4'       10.6880   48.6980    8.8070 O.3    82  G82        -0.3307
   1773  C3'        9.3230   49.5640    7.1480 C.3    82  G82         0.1860
   1774  O3'        8.0080   49.9950    6.8700 O.3    82  G82        -0.3112
   1775  C2'       10.1890   50.7070    7.6650 C.3    82  G82         0.2309
   1776  O2'        9.4960   51.5760    8.5430 O.3    82  G82        -0.2156
   1777  C1'       11.2510   49.9450    8.4470 C.3    82  G82         0.2408
   1778  N1        15.4500   51.8680    6.2720 N.ar   82  G82        -0.1709
   1779  C2        14.4200   52.5310    6.8840 C.ar   82  G82         0.2606
   1780  N2        14.5290   53.8700    6.9220 N.pl3  82  G82        -0.0859
   1781  N3        13.3640   51.9310    7.4150 N.ar   82  G82        -0.1918
   1782  C4        13.4320   50.5890    7.2840 C.ar   82  G82         0.1723
   1783  C5        14.4220   49.8440    6.6930 C.ar   82  G82         0.1748
   1784  C6        15.5380   50.4920    6.1280 C.ar   82  G82         0.3023
   1785  O6        16.5210   49.9930    5.5570 O.2    82  G82        -0.2633
   1786  N7        14.1260   48.4950    6.7640 N.ar   82  G82        -0.2173
   1787  C8        12.9780   48.4460    7.3840 C.ar   82  G82         0.1817
   1788  N9        12.4940   49.6800    7.7300 N.ar   82  G82        -0.2693
   1789  OP1        8.5540   44.7940    6.3270 O.3    82  G82        -0.4373
   1790  OP2       11.0560   44.9250    5.8200 O.co2  82  G82        -0.5172
   1791  P          7.5710   50.2420    5.3560 P.3    83  A83         0.2141
   1792  C5'        8.3380   52.6700    5.4960 C.3    83  A83         0.1812
   1793  O5'        8.5540   51.4180    4.8970 O.3    83  A83        -0.3114
   1794  C4'        9.2070   53.7620    4.9080 C.3    83  A83         0.1773
   1795  O4'       10.5200   53.7370    5.5210 O.3    83  A83        -0.3307
   1796  C3'        9.4590   53.7040    3.4110 C.3    83  A83         0.1860
   1797  O3'        8.4320   54.4090    2.7460 O.3    83  A83        -0.3112
   1798  C2'       10.7740   54.4660    3.3250 C.3    83  A83         0.2309
   1799  O2'       10.6070   55.8520    3.5530 O.3    83  A83        -0.2156
   1800  C1'       11.4970   53.8610    4.5120 C.3    83  A83         0.2408
   1801  N1        15.0640   50.6120    2.7560 N.ar   83  A83        -0.2040
   1802  C2        15.0310   51.9590    2.7950 C.ar   83  A83         0.2016
   1803  N3        14.0770   52.7750    3.2640 N.ar   83  A83        -0.2048
   1804  C4        13.0620   52.0440    3.7310 C.ar   83  A83         0.1692
   1805  C5        12.9510   50.6680    3.7560 C.ar   83  A83         0.1518
   1806  C6        14.0060   49.9190    3.2450 C.ar   83  A83         0.1919
   1807  N6        13.9780   48.5820    3.2330 N.pl3  83  A83        -0.1054
   1808  N7        11.7580   50.2690    4.3140 N.ar   83  A83        -0.2193
   1809  C8        11.1690   51.4000    4.6150 C.ar   83  A83         0.1816
   1810  N9        11.9050   52.5000    4.2870 N.ar   83  A83        -0.2693
   1811  OP1        6.2020   50.8000    5.3710 O.3    83  A83        -0.4373
   1812  OP2        7.8570   49.0020    4.6010 O.co2  83  A83        -0.5172
   1813  P          8.1410   54.1190    1.2020 P.3    84  G84         0.2141
   1814  C5'        9.8390   55.9100    0.4330 C.3    84  G84         0.1812
   1815  O5'        9.5200   54.5320    0.4990 O.3    84  G84        -0.3114
   1816  C4'       11.0940   56.1290   -0.3790 C.3    84  G84         0.1773
   1817  O4'       12.2320   55.5090    0.2680 O.3    84  G84        -0.3307
   1818  C3'       11.0740   55.4870   -1.7530 C.3    84  G84         0.1860
   1819  O3'       10.3800   56.3100   -2.6610 O.3    84  G84        -0.3112
   1820  C2'       12.5590   55.4830   -2.0670 C.3    84  G84         0.2309
   1821  O2'       13.0150   56.7880   -2.3560 O.3    84  G84        -0.2156
   1822  C1'       13.1210   55.0250   -0.7260 C.3    84  G84         0.2408
   1823  N1        15.9490   50.8470   -1.4710 N.ar   84  G84        -0.1709
   1824  C2        16.1930   52.1460   -1.8420 C.ar   84  G84         0.2606
   1825  N2        17.3440   52.3620   -2.4920 N.pl3  84  G84        -0.0859
   1826  N3        15.3810   53.1640   -1.5960 N.ar   84  G84        -0.1918
   1827  C4        14.2760   52.7660   -0.9390 C.ar   84  G84         0.1723
   1828  C5        13.9390   51.5030   -0.5300 C.ar   84  G84         0.1748
   1829  C6        14.8110   50.4280   -0.7910 C.ar   84  G84         0.3023
   1830  O6        14.6650   49.2320   -0.4920 O.2    84  G84        -0.2633
   1831  N7        12.7190   51.5050    0.1170 N.ar   84  G84        -0.2173
   1832  C8        12.3450   52.7540    0.0850 C.ar   84  G84         0.1817
   1833  N9        13.2410   53.5790   -0.5460 N.ar   84  G84        -0.2693
   1834  OP1        7.1250   55.1070    0.7670 O.2    84  G84        -0.5172
   1835  OP2        7.8930   52.6640    1.0420 O.co2  84  G84        -0.4373
   1836  P          9.5490   55.6290   -3.8450 P.3    85  C85         0.2141
   1837  C5'       11.4950   56.1400   -5.5120 C.3    85  C85         0.1812
   1838  O5'       10.7060   55.1510   -4.8580 O.3    85  C85        -0.3114
   1839  C4'       12.7120   55.5610   -6.2130 C.3    85  C85         0.1773
   1840  O4'       13.6380   55.0120   -5.2400 O.3    85  C85        -0.3307
   1841  C3'       12.4490   54.3980   -7.1620 C.3    85  C85         0.1860
   1842  O3'       12.0060   54.8410   -8.4300 O.3    85  C85        -0.3112
   1843  C2'       13.8500   53.8230   -7.2610 C.3    85  C85         0.2309
   1844  O2'       14.6880   54.6820   -7.9910 O.3    85  C85        -0.2156
   1845  C1'       14.2450   53.8530   -5.7920 C.3    85  C85         0.2420
   1846  N1        13.7660   52.6440   -5.0600 N.ar   85  C85        -0.2535
   1847  C2        14.5390   51.4820   -5.0750 C.ar   85  C85         0.3532
   1848  O2        15.6050   51.4930   -5.6940 O.2    85  C85        -0.2443
   1849  N3        14.1060   50.3830   -4.4130 N.ar   85  C85        -0.1739
   1850  C4        12.9480   50.4240   -3.7560 C.ar   85  C85         0.1759
   1851  N4        12.5500   49.3230   -3.1120 N.pl3  85  C85        -0.1070
   1852  C5        12.1430   51.5960   -3.7330 C.ar   85  C85         0.0566
   1853  C6        12.5810   52.6740   -4.3910 C.ar   85  C85         0.0850
   1854  OP1        8.7570   56.7250   -4.4520 O.2    85  C85        -0.5172
   1855  OP2        8.8470   54.4270   -3.3320 O.co2  85  C85        -0.4373
   1856  P         10.8670   53.9950   -9.1750 P.3    86  A86         0.2141
   1857  C5'       12.8850   52.9500  -10.4580 C.3    86  A86         0.1812
   1858  O5'       11.6810   52.7310   -9.7260 O.3    86  A86        -0.3114
   1859  C4'       13.6180   51.6490  -10.7440 C.3    86  A86         0.1773
   1860  O4'       14.2140   51.1530   -9.5240 O.3    86  A86        -0.3307
   1861  C3'       12.7570   50.4900  -11.2150 C.3    86  A86         0.1860
   1862  O3'       12.5170   50.5790  -12.6090 O.3    86  A86        -0.3112
   1863  C2'       13.6680   49.3190  -10.8850 C.3    86  A86         0.2309
   1864  O2'       14.7530   49.2180  -11.7830 O.3    86  A86        -0.2156
   1865  C1'       14.2020   49.7400   -9.5270 C.3    86  A86         0.2408
   1866  N1        13.2540   45.7870   -6.3940 N.ar   86  A86        -0.2040
   1867  C2        14.1280   45.9560   -7.4000 C.ar   86  A86         0.2016
   1868  N3        14.3230   47.0220   -8.1820 N.ar   86  A86        -0.2048
   1869  C4        13.4880   48.0120   -7.8380 C.ar   86  A86         0.1692
   1870  C5        12.5400   47.9940   -6.8320 C.ar   86  A86         0.1518
   1871  C6        12.4300   46.8090   -6.0790 C.ar   86  A86         0.1919
   1872  N6        11.5590   46.6550   -5.0810 N.pl3  86  A86        -0.1054
   1873  N7        11.8630   49.1950   -6.7750 N.ar   86  A86        -0.2193
   1874  C8        12.4100   49.9050   -7.7350 C.ar   86  A86         0.1816
   1875  N9        13.3960   49.2490   -8.4160 N.ar   86  A86        -0.2693
   1876  OP1       10.4030   54.7950  -10.3320 O.2    86  A86        -0.5172
   1877  OP2        9.8800   53.5390   -8.1680 O.co2  86  A86        -0.4373
   1878  P         11.0350   50.3640  -13.1710 P.3    87  G87         0.2141
   1879  C5'       11.6200   48.0900  -14.2880 C.3    87  G87         0.1812
   1880  O5'       10.9110   48.7650  -13.2520 O.3    87  G87        -0.3114
   1881  C4'       12.1100   46.7050  -13.9020 C.3    87  G87         0.1773
   1882  O4'       12.7420   46.7160  -12.5990 O.3    87  G87        -0.3307
   1883  C3'       11.0340   45.6490  -13.7580 C.3    87  G87         0.1860
   1884  O3'       10.6060   45.2090  -15.0450 O.3    87  G87        -0.3112
   1885  C2'       11.8140   44.5890  -12.9820 C.3    87  G87         0.2309
   1886  O2'       12.7520   43.8680  -13.7470 O.3    87  G87        -0.2156
   1887  C1'       12.5660   45.4520  -11.9810 C.3    87  G87         0.2408
   1888  N1        10.9000   43.1630   -7.7700 N.ar   87  G87        -0.1709
   1889  C2        11.6780   42.6660   -8.7860 C.ar   87  G87         0.2606
   1890  N2        12.0650   41.3900   -8.6630 N.pl3  87  G87        -0.0859
   1891  N3        12.0580   43.3610   -9.8470 N.ar   87  G87        -0.1918
   1892  C4        11.5840   44.6220   -9.8030 C.ar   87  G87         0.1723
   1893  C5        10.8060   45.2100   -8.8410 C.ar   87  G87         0.1748
   1894  C6        10.4080   44.4630   -7.7160 C.ar   87  G87         0.3023
   1895  O6         9.7100   44.8390   -6.7620 O.2    87  G87        -0.2633
   1896  N7        10.5290   46.5260   -9.1650 N.ar   87  G87        -0.2173
   1897  C8        11.1360   46.7060  -10.3030 C.ar   87  G87         0.1817
   1898  N9        11.8030   45.5950  -10.7470 N.ar   87  G87        -0.2693
   1899  OP1       11.0480   50.9260  -14.5430 O.2    87  G87        -0.5172
   1900  OP2       10.0520   50.8680  -12.1860 O.co2  87  G87        -0.4373
   1901  P          9.0670   44.8470  -15.3290 P.3    88  A88         0.2141
   1902  C5'        9.7350   42.3600  -14.9830 C.3    88  A88         0.1812
   1903  O5'        8.8970   43.4430  -14.5730 O.3    88  A88        -0.3114
   1904  C4'        9.6380   41.1380  -14.0820 C.3    88  A88         0.1773
   1905  O4'       10.2530   41.4230  -12.8030 O.3    88  A88        -0.3307
   1906  C3'        8.2390   40.6650  -13.7130 C.3    88  A88         0.1860
   1907  O3'        7.6670   39.8870  -14.7620 O.3    88  A88        -0.3112
   1908  C2'        8.5500   39.8240  -12.4780 C.3    88  A88         0.2309
   1909  O2'        9.1520   38.5780  -12.7790 O.3    88  A88        -0.2156
   1910  C1'        9.5580   40.7310  -11.7840 C.3    88  A88         0.2408
   1911  N1         7.2880   41.6680   -7.2760 N.ar   88  A88        -0.2040
   1912  C2         7.8450   40.5640   -7.7870 C.ar   88  A88         0.2016
   1913  N3         8.4260   40.3790   -8.9730 N.ar   88  A88        -0.2048
   1914  C4         8.4010   41.5150   -9.6830 C.ar   88  A88         0.1692
   1915  C5         7.8710   42.7280   -9.2940 C.ar   88  A88         0.1518
   1916  C6         7.2830   42.7930   -8.0180 C.ar   88  A88         0.1919
   1917  N6         6.7320   43.9010   -7.5140 N.pl3  88  A88        -0.1054
   1918  N7         8.0370   43.6700  -10.2940 N.ar   88  A88        -0.2193
   1919  C8         8.6510   43.0180  -11.2540 C.ar   88  A88         0.1816
   1920  N9         8.9020   41.7160  -10.9450 N.ar   88  A88        -0.2693
   1921  OP1        8.9300   44.5880  -16.7830 O.2    88  A88        -0.5172
   1922  OP2        8.2210   45.8750  -14.6880 O.co2  88  A88        -0.4373
   1923  P          6.0820   39.9210  -15.0120 P.3    89  G89         0.2141
   1924  C5'        5.9520   37.8590  -13.4340 C.3    89  G89         0.1812
   1925  O5'        5.5530   39.1960  -13.6830 O.3    89  G89        -0.3114
   1926  C4'        5.4550   37.3970  -12.0800 C.3    89  G89         0.1773
   1927  O4'        6.0350   38.2220  -11.0430 O.3    89  G89        -0.3307
   1928  C3'        3.9640   37.5490  -11.8380 C.3    89  G89         0.1860
   1929  O3'        3.2630   36.4870  -12.4460 O.3    89  G89        -0.3112
   1930  C2'        3.9220   37.4270  -10.3230 C.3    89  G89         0.2309
   1931  O2'        4.0640   36.0830   -9.9040 O.3    89  G89        -0.2156
   1932  C1'        5.1550   38.2390   -9.9310 C.3    89  G89         0.2408
   1933  N1         3.2580   41.4600   -6.4950 N.ar   89  G89        -0.1709
   1934  C2         3.3710   40.0950   -6.4420 C.ar   89  G89         0.2606
   1935  N2         2.9180   39.5120   -5.3240 N.pl3  89  G89        -0.0859
   1936  N3         3.8890   39.3530   -7.4110 N.ar   89  G89        -0.1918
   1937  C4         4.2900   40.1080   -8.4550 C.ar   89  G89         0.1723
   1938  C5         4.2200   41.4730   -8.6060 C.ar   89  G89         0.1748
   1939  C6         3.6650   42.2560   -7.5620 C.ar   89  G89         0.3023
   1940  O6         3.5120   43.4890   -7.5020 O.2    89  G89        -0.2633
   1941  N7         4.7430   41.8530   -9.8350 N.ar   89  G89        -0.2173
   1942  C8         5.1100   40.7320  -10.3930 C.ar   89  G89         0.1817
   1943  N9         4.8640   39.6320   -9.6080 N.ar   89  G89        -0.2693
   1944  OP1        5.7930   39.0560  -16.1810 O.2    89  G89        -0.5172
   1945  OP2        5.6120   41.3270  -15.0380 O.co2  89  G89        -0.4373
   1946  P          1.8360   36.7620  -13.1130 P.3    90  U90         0.2141
   1947  C5'        0.7160   36.1240  -10.8750 C.3    90  U90         0.1812
   1948  O5'        0.9510   37.1400  -11.8330 O.3    90  U90        -0.3114
   1949  C4'       -0.0420   36.6580   -9.6760 C.3    90  U90         0.1773
   1950  O4'        0.7720   37.6170   -8.9640 O.3    90  U90        -0.3307
   1951  C3'       -1.3160   37.4240   -9.9850 C.3    90  U90         0.1860
   1952  O3'       -2.3680   36.5070  -10.1980 O.3    90  U90        -0.3112
   1953  C2'       -1.5080   38.1740   -8.6770 C.3    90  U90         0.2309
   1954  O2'       -2.0390   37.3340   -7.6750 O.3    90  U90        -0.2156
   1955  C1'       -0.0710   38.5620   -8.3360 C.3    90  U90         0.2420
   1956  N1         0.3030   39.8870   -8.8590 N.ar   90  U90        -0.2534
   1957  C2         0.1290   40.9900   -8.0610 C.ar   90  U90         0.3546
   1958  O2        -0.3240   40.9130   -6.9320 O.2    90  U90        -0.2443
   1959  N3         0.5060   42.1800   -8.6390 N.ar   90  U90        -0.1530
   1960  C4         1.0290   42.3590   -9.9060 C.ar   90  U90         0.2846
   1961  O4         1.3230   43.4830  -10.2990 O.2    90  U90        -0.2650
   1962  C5         1.1800   41.1550  -10.6740 C.ar   90  U90         0.0814
   1963  C6         0.8180   39.9880  -10.1320 C.ar   90  U90         0.0870
   1964  OP1        1.3580   35.4580  -13.6250 O.3    90  U90        -0.4373
   1965  OP2        1.9240   37.9270  -14.0270 O.co2  90  U90        -0.5172
   1966  P         -3.1980   36.5720  -11.5620 P.3    91  U91         0.2141
   1967  C5'       -5.6160   37.3370  -10.8280 C.3    91  U91         0.1812
   1968  O5'       -4.6760   36.2950  -11.0160 O.3    91  U91        -0.3114
   1969  C4'       -6.7440   37.1710  -11.8260 C.3    91  U91         0.1773
   1970  O4'       -7.5180   38.3860  -11.7800 O.3    91  U91        -0.3307
   1971  C3'       -6.2370   37.0010  -13.2550 C.3    91  U91         0.1860
   1972  O3'       -6.4580   35.6510  -13.8110 O.3    91  U91        -0.3112
   1973  C2'       -6.7470   38.2150  -14.0400 C.3    91  U91         0.2309
   1974  O2'       -7.5830   37.8850  -15.1250 O.3    91  U91        -0.2156
   1975  C1'       -7.5050   39.0610  -13.0170 C.3    91  U91         0.2420
   1976  N1        -6.9130   40.4260  -12.8560 N.ar   91  U91        -0.2534
   1977  C2        -7.6950   41.5380  -13.0980 C.ar   91  U91         0.3546
   1978  O2        -8.8630   41.4710  -13.4220 O.2    91  U91        -0.2443
   1979  N3        -7.0650   42.7480  -12.9470 N.ar   91  U91        -0.1530
   1980  C4        -5.7490   42.9600  -12.5860 C.ar   91  U91         0.2846
   1981  O4        -5.3250   44.1060  -12.4890 O.2    91  U91        -0.2650
   1982  C5        -4.9910   41.7570  -12.3530 C.ar   91  U91         0.0814
   1983  C6        -5.5870   40.5620  -12.4970 C.ar   91  U91         0.0870
   1984  OP1       -2.8140   35.4290  -12.4260 O.2    91  U91        -0.5172
   1985  OP2       -3.0950   37.9470  -12.1010 O.co2  91  U91        -0.4373
   1986  P         -7.7330   35.0230  -14.5610 P.3    92  C92         0.2141
   1987  C5'       -7.1500   35.2990  -17.0880 C.3    92  C92         0.1812
   1988  O5'       -7.8360   35.7900  -15.9570 O.3    92  C92        -0.3114
   1989  C4'       -7.5890   36.0370  -18.3390 C.3    92  C92         0.1773
   1990  O4'       -9.0310   36.1760  -18.3530 O.3    92  C92        -0.3307
   1991  C3'       -7.0950   37.4690  -18.4520 C.3    92  C92         0.1860
   1992  O3'       -5.7770   37.4760  -18.9720 O.3    92  C92        -0.3112
   1993  C2'       -8.0950   38.0390  -19.4500 C.3    92  C92         0.2309
   1994  O2'       -7.8260   37.6150  -20.7710 O.3    92  C92        -0.2156
   1995  C1'       -9.3900   37.4020  -18.9630 C.3    92  C92         0.2420
   1996  N1       -10.1280   38.2430  -17.9800 N.ar   92  C92        -0.2535
   1997  C2       -10.7740   39.4040  -18.4120 C.ar   92  C92         0.3532
   1998  O2       -10.7110   39.7030  -19.6090 O.2    92  C92        -0.2443
   1999  N3       -11.4420   40.1690  -17.5140 N.ar   92  C92        -0.1739
   2000  C4       -11.4810   39.8050  -16.2310 C.ar   92  C92         0.1759
   2001  N4       -12.1500   40.5780  -15.3670 N.pl3  92  C92        -0.1070
   2002  C5       -10.8320   38.6210  -15.7750 C.ar   92  C92         0.0566
   2003  C6       -10.1750   37.8790  -16.6710 C.ar   92  C92         0.0850
   2004  OP1       -8.9280   35.3090  -13.7350 O.3    92  C92        -0.4373
   2005  OP2       -7.3960   33.6200  -14.8820 O.co2  92  C92        -0.5172
   2006  P         -4.6570   38.3960  -18.2970 P.3    93  C93         0.2141
   2007  C5'       -5.8200   40.1290  -19.8490 C.3    93  C93         0.1812
   2008  O5'       -4.6200   39.6490  -19.2870 O.3    93  C93        -0.3114
   2009  C4'       -5.5970   41.4340  -20.5840 C.3    93  C93         0.1773
   2010  O4'       -6.9070   41.9280  -20.9610 O.3    93  C93        -0.3307
   2011  C3'       -4.9360   42.5540  -19.7780 C.3    93  C93         0.1860
   2012  O3'       -3.5600   42.6990  -20.1230 O.3    93  C93        -0.3112
   2013  C2'       -5.7080   43.7770  -20.2430 C.3    93  C93         0.2309
   2014  O2'       -5.2310   44.2070  -21.4990 O.3    93  C93        -0.2156
   2015  C1'       -7.1080   43.2050  -20.3960 C.3    93  C93         0.2420
   2016  N1        -7.8500   43.0610  -19.1070 N.ar   93  C93        -0.2535
   2017  C2        -8.7690   44.0450  -18.7300 C.ar   93  C93         0.3532
   2018  O2        -8.9510   45.0200  -19.4680 O.2    93  C93        -0.2443
   2019  N3        -9.4410   43.9120  -17.5640 N.ar   93  C93        -0.1739
   2020  C4        -9.2240   42.8510  -16.7940 C.ar   93  C93         0.1759
   2021  N4        -9.9150   42.7700  -15.6530 N.pl3  93  C93        -0.1070
   2022  C5        -8.2960   41.8340  -17.1580 C.ar   93  C93         0.0566
   2023  C6        -7.6370   41.9780  -18.3120 C.ar   93  C93         0.0850
   2024  OP1       -3.3700   37.6820  -18.4450 O.2    93  C93        -0.5172
   2025  OP2       -5.1110   38.8180  -16.9490 O.co2  93  C93        -0.4373
   2026  P         -2.5330   43.5130  -19.1940 P.3    94  U94         0.2141
   2027  C5'       -3.1820   45.8640  -20.1790 C.3    94  U94         0.1812
   2028  O5'       -3.1760   44.9730  -19.0740 O.3    94  U94        -0.3114
   2029  C4'       -3.7000   47.2250  -19.7540 C.3    94  U94         0.1773
   2030  O4'       -5.1390   47.1900  -19.5800 O.3    94  U94        -0.3307
   2031  C3'       -3.1880   47.7040  -18.4060 C.3    94  U94         0.1860
   2032  O3'       -1.9100   48.2900  -18.5400 O.3    94  U94        -0.3112
   2033  C2'       -4.2330   48.7510  -18.0520 C.3    94  U94         0.2309
   2034  O2'       -4.0410   49.9560  -18.7630 O.3    94  U94        -0.2156
   2035  C1'       -5.5060   48.0660  -18.5280 C.3    94  U94         0.2420
   2036  N1        -6.1760   47.2860  -17.4500 N.ar   94  U94        -0.2534
   2037  C2        -6.9900   47.9450  -16.5500 C.ar   94  U94         0.3546
   2038  O2        -7.1930   49.1450  -16.5920 O.2    94  U94        -0.2443
   2039  N3        -7.5680   47.1490  -15.5930 N.ar   94  U94        -0.1530
   2040  C4        -7.4130   45.7870  -15.4480 C.ar   94  U94         0.2846
   2041  O4        -7.9940   45.2050  -14.5420 O.2    94  U94        -0.2650
   2042  C5        -6.5500   45.1690  -16.4210 C.ar   94  U94         0.0814
   2043  C6        -5.9750   45.9240  -17.3660 C.ar   94  U94         0.0870
   2044  OP1       -1.2890   43.6130  -19.9870 O.2    94  U94        -0.5172
   2045  OP2       -2.5070   42.9330  -17.8300 O.co2  94  U94        -0.4373
   2046  P         -1.0100   48.4880  -17.2330 P.3    95  C95         0.2141
   2047  C5'       -2.1090   50.8300  -17.0210 C.3    95  C95         0.1812
   2048  O5'       -1.8190   49.5900  -16.4070 O.3    95  C95        -0.3114
   2049  C4'       -2.6050   51.7950  -15.9690 C.3    95  C95         0.1773
   2050  O4'       -4.0260   51.6050  -15.7670 O.3    95  C95        -0.3307
   2051  C3'       -1.9910   51.5650  -14.5970 C.3    95  C95         0.1860
   2052  O3'       -0.7210   52.2000  -14.5020 O.3    95  C95        -0.3112
   2053  C2'       -3.0460   52.1880  -13.6840 C.3    95  C95         0.2309
   2054  O2'       -2.9620   53.5980  -13.6030 O.3    95  C95        -0.2156
   2055  C1'       -4.3330   51.7610  -14.3910 C.3    95  C95         0.2420
   2056  N1        -4.8590   50.4690  -13.8650 N.ar   95  C95        -0.2535
   2057  C2        -5.7410   50.4740  -12.7790 C.ar   95  C95         0.3532
   2058  O2        -6.0710   51.5560  -12.2820 O.2    95  C95        -0.2443
   2059  N3        -6.2090   49.2950  -12.3030 N.ar   95  C95        -0.1739
   2060  C4        -5.8200   48.1520  -12.8710 C.ar   95  C95         0.1759
   2061  N4        -6.3010   47.0090  -12.3720 N.pl3  95  C95        -0.1070
   2062  C5        -4.9200   48.1260  -13.9770 C.ar   95  C95         0.0566
   2063  C6        -4.4650   49.2960  -14.4370 C.ar   95  C95         0.0850
   2064  OP1        0.2700   49.0780  -17.6780 O.2    95  C95        -0.5172
   2065  OP2       -1.0110   47.2220  -16.4610 O.co2  95  C95        -0.4373
   2066  P          0.1100   52.1510  -13.1330 P.3    96  C96         0.2141
   2067  C5'       -0.3510   53.3210  -10.8590 C.3    96  C96         0.1812
   2068  O5'       -0.7290   53.1540  -12.2060 O.3    96  C96        -0.3114
   2069  C4'       -1.4800   53.8730  -10.0120 C.3    96  C96         0.1773
   2070  O4'       -2.7910   53.4740  -10.4910 O.3    96  C96        -0.3307
   2071  C3'       -1.4280   53.3260   -8.6010 C.3    96  C96         0.1860
   2072  O3'       -0.4640   54.0410   -7.8710 O.3    96  C96        -0.3112
   2073  C2'       -2.8550   53.5570   -8.1290 C.3    96  C96         0.2309
   2074  O2'       -3.1160   54.9140   -7.8470 O.3    96  C96        -0.2156
   2075  C1'       -3.6040   53.1120   -9.3810 C.3    96  C96         0.2420
   2076  N1        -3.8430   51.6340   -9.4190 N.ar   96  C96        -0.2535
   2077  C2        -4.5990   50.9990   -8.4180 C.ar   96  C96         0.3532
   2078  O2        -5.0730   51.6730   -7.4940 O.2    96  C96        -0.2443
   2079  N3        -4.7960   49.6560   -8.4870 N.ar   96  C96        -0.1739
   2080  C4        -4.2720   48.9560   -9.4980 C.ar   96  C96         0.1759
   2081  N4        -4.4820   47.6350   -9.5430 N.pl3  96  C96        -0.1070
   2082  C5        -3.5010   49.5830  -10.5210 C.ar   96  C96         0.0566
   2083  C6        -3.3130   50.9060  -10.4440 C.ar   96  C96         0.0850
   2084  OP1        1.4380   52.7450  -13.4110 O.2    96  C96        -0.5172
   2085  OP2        0.0400   50.7860  -12.5560 O.co2  96  C96        -0.4373
   2086  P          0.8030   53.2090   -7.3730 P.3    97  C97         0.2141
   2087  C5'       -0.5080   53.3570   -5.1260 C.3    97  C97         0.1812
   2088  O5'        0.2150   52.5390   -6.0380 O.3    97  C97        -0.3114
   2089  C4'       -1.4720   52.5570   -4.2660 C.3    97  C97         0.1773
   2090  O4'       -2.5130   51.9550   -5.0770 O.3    97  C97        -0.3307
   2091  C3'       -0.8850   51.3580   -3.5410 C.3    97  C97         0.1860
   2092  O3'       -0.1380   51.7420   -2.4000 O.3    97  C97        -0.3112
   2093  C2'       -2.1580   50.6090   -3.1570 C.3    97  C97         0.2309
   2094  O2'       -2.8120   51.1650   -2.0310 O.3    97  C97        -0.2156
   2095  C1'       -2.9770   50.7740   -4.4380 C.3    97  C97         0.2420
   2096  N1        -2.7700   49.6160   -5.3530 N.ar   97  C97        -0.2535
   2097  C2        -3.3580   48.3870   -5.0470 C.ar   97  C97         0.3532
   2098  O2        -4.0540   48.2920   -4.0300 O.2    97  C97        -0.2443
   2099  N3        -3.1500   47.3380   -5.8800 N.ar   97  C97        -0.1739
   2100  C4        -2.3920   47.4880   -6.9700 C.ar   97  C97         0.1759
   2101  N4        -2.2180   46.4270   -7.7650 N.pl3  97  C97        -0.1070
   2102  C5        -1.7800   48.7310   -7.2970 C.ar   97  C97         0.0566
   2103  C6        -1.9920   49.7560   -6.4660 C.ar   97  C97         0.0850
   2104  OP1        1.8790   54.1480   -6.9830 O.3    97  C97        -0.4373
   2105  OP2        1.0820   52.1800   -8.4030 O.co2  97  C97        -0.5172
   2106  P          1.2000   50.9260   -2.0830 P.3    98  G98         0.2141
   2107  C5'       -0.3030   49.5440   -0.4750 C.3    98  G98         0.1812
   2108  O5'        0.6360   49.5280   -1.5380 O.3    98  G98        -0.3114
   2109  C4'       -0.8860   48.1620   -0.2290 C.3    98  G98         0.1773
   2110  O4'       -1.7540   47.7580   -1.3210 O.3    98  G98        -0.3307
   2111  C3'        0.1300   47.0370   -0.1060 C.3    98  G98         0.1860
   2112  O3'        0.6470   47.0170    1.2140 O.3    98  G98        -0.3112
   2113  C2'       -0.7690   45.8340   -0.3650 C.3    98  G98         0.2309
   2114  O2'       -1.5480   45.5000    0.7690 O.3    98  G98        -0.2156
   2115  C1'       -1.6690   46.3540   -1.4870 C.3    98  G98         0.2408
   2116  N1        -1.1300   42.8870   -5.1720 N.ar   98  G98        -0.1709
   2117  C2        -1.7350   42.7640   -3.9410 C.ar   98  G98         0.2606
   2118  N2        -2.2650   41.5660   -3.6550 N.pl3  98  G98        -0.0859
   2119  N3        -1.8160   43.7460   -3.0520 N.ar   98  G98        -0.1918
   2120  C4        -1.2330   44.8800   -3.5070 C.ar   98  G98         0.1723
   2121  C5        -0.6070   45.0990   -4.7140 C.ar   98  G98         0.1748
   2122  C6        -0.5250   44.0450   -5.6530 C.ar   98  G98         0.3023
   2123  O6        -0.0070   44.0560   -6.7790 O.2    98  G98        -0.2633
   2124  N7        -0.1380   46.4020   -4.7960 N.ar   98  G98        -0.2173
   2125  C8        -0.4840   46.9360   -3.6570 C.ar   98  G98         0.1817
   2126  N9        -1.1530   46.0710   -2.8250 N.ar   98  G98        -0.2693
   2127  OP1        1.8780   51.5970   -0.9490 O.3    98  G98        -0.4373
   2128  OP2        1.9090   50.7000   -3.3720 O.co2  98  G98        -0.5172
   2129  P          2.0620   46.3450    1.5350 P.3    99  C99         0.2141
   2130  C5'        1.0530   43.9410    1.8240 C.3    99  C99         0.1812
   2131  O5'        1.8330   44.8380    1.0420 O.3    99  C99        -0.3114
   2132  C4'        1.0300   42.5760    1.1700 C.3    99  C99         0.1773
   2133  O4'        0.3330   42.6700   -0.0960 O.3    99  C99        -0.3307
   2134  C3'        2.3980   42.0350    0.7870 C.3    99  C99         0.1860
   2135  O3'        3.0100   41.4010    1.8960 O.3    99  C99        -0.3112
   2136  C2'        2.0250   41.0310   -0.2960 C.3    99  C99         0.2309
   2137  O2'        1.5000   39.8360    0.2420 O.3    99  C99        -0.2156
   2138  C1'        0.9270   41.7930   -1.0300 C.3    99  C99         0.2420
   2139  N1         1.4500   42.6160   -2.1330 N.ar   99  C99        -0.2535
   2140  C2         1.6710   42.0240   -3.3760 C.ar   99  C99         0.3532
   2141  O2         1.4190   40.8220   -3.5120 O.2    99  C99        -0.2443
   2142  N3         2.1490   42.7820   -4.3900 N.ar   99  C99        -0.1739
   2143  C4         2.4060   44.0730   -4.1840 C.ar   99  C99         0.1759
   2144  N4         2.8770   44.7850   -5.2110 N.pl3  99  C99        -0.1070
   2145  C5         2.1880   44.6920   -2.9190 C.ar   99  C99         0.0566
   2146  C6         1.7130   43.9340   -1.9260 C.ar   99  C99         0.0850
   2147  OP1        2.2190   46.3570    3.0090 O.3    99  C99        -0.4373
   2148  OP2        3.1030   46.9450    0.6690 O.co2  99  C99        -0.5172
   2149  P          4.6060   41.3160    1.9760 P.3   100  U100        0.2141
   2150  C5'        4.9040   38.9110    1.0300 C.3   100  U100        0.1812
   2151  O5'        4.9690   40.3040    0.7870 O.3   100  U100       -0.3114
   2152  C4'        5.2950   38.1610   -0.2210 C.3   100  U100        0.1773
   2153  O4'        4.5600   38.7210   -1.3270 O.3   100  U100       -0.3307
   2154  C3'        6.7280   38.3520   -0.6640 C.3   100  U100        0.1860
   2155  O3'        7.5760   37.4920    0.0450 O.3   100  U100       -0.3112
   2156  C2'        6.6330   37.9250   -2.1170 C.3   100  U100        0.2309
   2157  O2'        6.5450   36.5220   -2.2450 O.3   100  U100       -0.2156
   2158  C1'        5.3170   38.5760   -2.5110 C.3   100  U100        0.2420
   2159  N1         5.4860   39.9250   -3.1040 N.ar  100  U100       -0.2534
   2160  C2         6.0370   40.0280   -4.3590 C.ar  100  U100        0.3546
   2161  O2         6.3950   39.0530   -4.9910 O.2   100  U100       -0.2443
   2162  N3         6.1560   41.3050   -4.8460 N.ar  100  U100       -0.1530
   2163  C4         5.7790   42.4720   -4.2090 C.ar  100  U100        0.2846
   2164  O4         5.9440   43.5580   -4.7660 O.2   100  U100       -0.2650
   2165  C5         5.2060   42.2800   -2.9010 C.ar  100  U100        0.0814
   2166  C6         5.0820   41.0420   -2.4040 C.ar  100  U100        0.0870
   2167  OP1        4.9430   40.6960    3.2800 O.3   100  U100       -0.4373
   2168  OP2        5.1590   42.6460    1.6270 O.co2 100  U100       -0.5172
   2169  P          8.9820   38.0710    0.5100 P.3   101  C101        0.2141
   2170  C5'        9.9210   36.6130   -1.3880 C.3   101  C101        0.1812
   2171  O5'        9.8480   37.8980   -0.8180 O.3   101  C101       -0.3114
   2172  C4'       10.5660   36.6740   -2.7590 C.3   101  C101        0.1773
   2173  O4'        9.6810   37.3480   -3.6810 O.3   101  C101       -0.3307
   2174  C3'       11.8510   37.4770   -2.8550 C.3   101  C101        0.1860
   2175  O3'       12.9600   36.7090   -2.4110 O.3   101  C101       -0.3112
   2176  C2'       11.9030   37.7000   -4.3570 C.3   101  C101        0.2309
   2177  O2'       12.2590   36.5240   -5.0510 O.3   101  C101       -0.2156
   2178  C1'       10.4480   38.0230   -4.6510 C.3   101  C101        0.2420
   2179  N1        10.0960   39.4590   -4.5700 N.ar  101  C101       -0.2535
   2180  C2        10.4480   40.3040   -5.6270 C.ar  101  C101        0.3532
   2181  O2        11.0560   39.8170   -6.5880 O.2   101  C101       -0.2443
   2182  N3        10.1180   41.6190   -5.5660 N.ar  101  C101       -0.1739
   2183  C4         9.4600   42.0800   -4.5010 C.ar  101  C101        0.1759
   2184  N4         9.1500   43.3790   -4.4760 N.pl3 101  C101       -0.1070
   2185  C5         9.0930   41.2310   -3.4120 C.ar  101  C101        0.0566
   2186  C6         9.4240   39.9370   -3.4830 C.ar  101  C101        0.0850
   2187  OP1        9.5000   37.1670    1.5620 O.3   101  C101       -0.4373
   2188  OP2        8.8270   39.5190    0.7900 O.co2 101  C101       -0.5172
   2189  P         14.1160   37.4500   -1.5940 P.3   102  U102        0.2141
   2190  C5'       15.4300   37.4070   -3.8480 C.3   102  U102        0.1812
   2191  O5'       14.9070   38.1800   -2.7750 O.3   102  U102       -0.3114
   2192  C4'       15.9500   38.3150   -4.9500 C.3   102  U102        0.1773
   2193  O4'       14.8290   38.9600   -5.6060 O.3   102  U102       -0.3307
   2194  C3'       16.8270   39.4780   -4.5000 C.3   102  U102        0.1860
   2195  O3'       18.1720   39.0750   -4.3100 O.3   102  U102       -0.3112
   2196  C2'       16.7030   40.4120   -5.6970 C.3   102  U102        0.2309
   2197  O2'       17.5080   39.9910   -6.7800 O.3   102  U102       -0.2156
   2198  C1'       15.2240   40.2460   -6.0420 C.3   102  U102        0.2420
   2199  N1        14.3670   41.2370   -5.3660 N.ar  102  U102       -0.2534
   2200  C2        14.2350   42.4760   -5.9430 C.ar  102  U102        0.3546
   2201  O2        14.7920   42.7690   -6.9840 O.2   102  U102       -0.2443
   2202  N3        13.4260   43.3550   -5.2680 N.ar  102  U102       -0.1530
   2203  C4        12.7530   43.1050   -4.0920 C.ar  102  U102        0.2846
   2204  O4        12.0660   43.9880   -3.5990 O.2   102  U102       -0.2650
   2205  C5        12.9430   41.7840   -3.5470 C.ar  102  U102        0.0814
   2206  C6        13.7290   40.9120   -4.1900 C.ar  102  U102        0.0870
   2207  OP1       14.9980   36.4170   -1.0050 O.2   102  U102       -0.5172
   2208  OP2       13.5050   38.4950   -0.7380 O.co2 102  U102       -0.4373
   2209  P         19.0810   39.9090   -3.2930 P.3   103  G103        0.2141
   2210  C5'       20.2780   41.1620   -5.2640 C.3   103  G103        0.1812
   2211  O5'       19.4380   41.2320   -4.1200 O.3   103  G103       -0.3114
   2212  C4'       20.4660   42.5380   -5.8810 C.3   103  G103        0.1773
   2213  O4'       19.2050   43.0490   -6.3820 O.3   103  G103       -0.3307
   2214  C3'       20.9010   43.6180   -4.9130 C.3   103  G103        0.1860
   2215  O3'       22.2820   43.5520   -4.7080 O.3   103  G103       -0.3112
   2216  C2'       20.5360   44.8630   -5.7030 C.3   103  G103        0.2309
   2217  O2'       21.4320   45.0560   -6.7790 O.3   103  G103       -0.2156
   2218  C1'       19.1660   44.4570   -6.2300 C.3   103  G103        0.2408
   2219  N1        15.7510   47.9920   -4.8750 N.ar  103  G103       -0.1709
   2220  C2        16.7770   48.0630   -5.7850 C.ar  103  G103        0.2606
   2221  N2        16.9130   49.2290   -6.4280 N.pl3 103  G103       -0.0859
   2222  N3        17.6140   47.0720   -6.0570 N.ar  103  G103       -0.1918
   2223  C4        17.3350   45.9730   -5.3240 C.ar  103  G103        0.1723
   2224  C5        16.3410   45.8030   -4.3870 C.ar  103  G103        0.1748
   2225  C6        15.4520   46.8710   -4.1100 C.ar  103  G103        0.3023
   2226  O6        14.4980   46.9110   -3.3110 O.2   103  G103       -0.2633
   2227  N7        16.3950   44.5240   -3.8590 N.ar  103  G103       -0.2173
   2228  C8        17.4000   43.9590   -4.4730 C.ar  103  G103        0.1817
   2229  N9        18.0260   44.7840   -5.3740 N.ar  103  G103       -0.2693
   2230  OP1       20.3100   39.1170   -3.0680 O.2   103  G103       -0.5172
   2231  OP2       18.2560   40.3390   -2.1420 O.co2 103  G103       -0.4373
   2232  P         22.8410   44.1330   -3.3320 P.3   104  C104        0.2141
   2233  C5'       23.3650   46.3970   -4.5440 C.3   104  C104        0.1812
   2234  O5'       22.6910   45.7220   -3.4930 O.3   104  C104       -0.3114
   2235  C4'       22.9750   47.8630   -4.6200 C.3   104  C104        0.1773
   2236  O4'       21.5870   47.9630   -5.0200 O.3   104  C104       -0.3307
   2237  C3'       23.0240   48.6460   -3.3140 C.3   104  C104        0.1860
   2238  O3'       24.3270   49.1380   -3.0250 O.3   104  C104       -0.3112
   2239  C2'       22.0740   49.7980   -3.6180 C.3   104  C104        0.2309
   2240  O2'       22.6560   50.7610   -4.4700 O.3   104  C104       -0.2156
   2241  C1'       20.9720   49.0580   -4.3560 C.3   104  C104        0.2420
   2242  N1        19.9160   48.5660   -3.4390 N.ar  104  C104       -0.2535
   2243  C2        18.8910   49.4360   -3.0780 C.ar  104  C104        0.3532
   2244  O2        18.9160   50.5780   -3.5440 O.2   104  C104       -0.2443
   2245  N3        17.9150   49.0110   -2.2400 N.ar  104  C104       -0.1739
   2246  C4        17.9570   47.7610   -1.7770 C.ar  104  C104        0.1759
   2247  N4        16.9870   47.3640   -0.9550 N.pl3 104  C104       -0.1070
   2248  C5        18.9950   46.8550   -2.1330 C.ar  104  C104        0.0566
   2249  C6        19.9490   47.2940   -2.9580 C.ar  104  C104        0.0850
   2250  OP1       24.2710   43.7640   -3.2600 O.2   104  C104       -0.5172
   2251  OP2       21.9220   43.6940   -2.2570 O.co2 104  C104       -0.4373
   2252  P         24.7010   49.5310   -1.5120 P.3   105  U105        0.2141
   2253  C5'       23.7530   51.9520   -1.7730 C.3   105  U105        0.1812
   2254  O5'       23.6530   50.6840   -1.1490 O.3   105  U105       -0.3114
   2255  C4'       22.5750   52.8040   -1.3540 C.3   105  U105        0.1773
   2256  O4'       21.3590   52.0180   -1.4210 O.3   105  U105       -0.3307
   2257  C3'       22.5730   53.2150    0.1030 C.3   105  U105        0.1860
   2258  O3'       23.5160   54.2610    0.3400 O.3   105  U105       -0.3112
   2259  C2'       21.1290   53.6870    0.2180 C.3   105  U105        0.2309
   2260  O2'       20.9660   54.9450   -0.4000 O.3   105  U105       -0.2156
   2261  C1'       20.3770   52.6410   -0.6050 C.3   105  U105        0.2420
   2262  N1        19.5340   51.6250    0.1650 N.ar  105  U105       -0.2534
   2263  C2        18.3400   52.0400    0.7470 C.ar  105  U105        0.3546
   2264  O2        17.9230   53.1800    0.6990 O.2   105  U105       -0.2443
   2265  N3        17.6170   51.0960    1.4120 N.ar  105  U105       -0.1530
   2266  C4        17.9750   49.7760    1.5420 C.ar  105  U105        0.2846
   2267  O4        17.2270   49.0300    2.1720 O.2   105  U105       -0.2650
   2268  C5        19.2270   49.3990    0.9080 C.ar  105  U105        0.0814
   2269  C6        19.9460   50.3140    0.2550 C.ar  105  U105        0.0870
   2270  OP1       26.0520   50.1340   -1.5580 O.2   105  U105       -0.5172
   2271  OP2       24.4230   48.3690   -0.6280 O.co2 105  U105       -0.4373
   2272  P         24.3780   54.2910    1.6990 P.3   106  U106        0.2141
   2273  C5'       22.5590   55.9190    2.5500 C.3   106  U106        0.1812
   2274  O5'       23.2500   54.7010    2.7560 O.3   106  U106       -0.3114
   2275  C4'       21.4080   56.0640    3.5250 C.3   106  U106        0.1773
   2276  O4'       20.3060   55.2130    3.1300 O.3   106  U106       -0.3307
   2277  C3'       21.7140   55.6770    4.9640 C.3   106  U106        0.1860
   2278  O3'       22.2720   56.8040    5.6260 O.3   106  U106       -0.3112
   2279  C2'       20.3110   55.3950    5.4880 C.3   106  U106        0.2309
   2280  O2'       19.6330   56.5830    5.8510 O.3   106  U106       -0.2156
   2281  C1'       19.6230   54.7680    4.2810 C.3   106  U106        0.2420
   2282  N1        19.7000   53.3020    4.2680 N.ar  106  U106       -0.2534
   2283  C2        18.6330   52.5760    4.7350 C.ar  106  U106        0.3546
   2284  O2        17.6260   53.1050    5.1670 O.2   106  U106       -0.2443
   2285  N3        18.7850   51.2150    4.6810 N.ar  106  U106       -0.1530
   2286  C4        19.8870   50.5370    4.2080 C.ar  106  U106        0.2846
   2287  O4        19.8930   49.3160    4.2180 O.2   106  U106       -0.2650
   2288  C5        20.9610   51.3640    3.7330 C.ar  106  U106        0.0814
   2289  C6        20.8340   52.6940    3.7790 C.ar  106  U106        0.0870
   2290  OP1       25.3710   55.3880    1.5930 O.2   106  U106       -0.5172
   2291  OP2       24.8510   52.9180    2.0080 O.co2 106  U106       -0.4373
   2292  P         23.5500   56.6680    6.5720 P.3   107  G107        0.2141
   2293  C5'       23.6100   55.4760    8.8560 C.3   107  G107        0.1812
   2294  O5'       22.8470   56.1620    7.9030 O.3   107  G107       -0.3114
   2295  C4'       22.6260   54.8930    9.8380 C.3   107  G107        0.1773
   2296  O4'       23.3200   53.9950   10.7300 O.3   107  G107       -0.3307
   2297  C3'       21.8950   55.9370   10.6650 C.3   107  G107        0.1860
   2298  O3'       20.5720   56.0050   10.1220 O.3   107  G107       -0.3112
   2299  C2'       21.9140   55.3530   12.0770 C.3   107  G107        0.2309
   2300  O2'       20.6750   54.7280   12.3510 O.3   107  G107       -0.2156
   2301  C1'       23.0130   54.2790   12.0770 C.3   107  G107        0.2408
   2302  N1        26.2030   57.7460   14.0930 N.ar  107  G107       -0.1709
   2303  C2        24.9740   57.9400   13.4890 C.ar  107  G107        0.2606
   2304  N2        24.5430   59.2130   13.4140 N.pl3 107  G107       -0.0859
   2305  N3        24.2190   56.9640   12.9950 N.ar  107  G107       -0.1918
   2306  C4        24.8150   55.7610   13.1600 C.ar  107  G107        0.1723
   2307  C5        26.0360   55.4630   13.7460 C.ar  107  G107        0.1748
   2308  C6        26.8260   56.5100   14.2680 C.ar  107  G107        0.3023
   2309  O6        27.9350   56.4260   14.8180 O.2   107  G107       -0.2633
   2310  N7        26.2960   54.1000   13.7240 N.ar  107  G107       -0.2173
   2311  C8        25.2390   53.6080   13.1330 C.ar  107  G107        0.1817
   2312  N9        24.2930   54.5510   12.7620 N.ar  107  G107       -0.2693
   2313  OP1       24.0760   58.0320    6.8060 O.3   107  G107       -0.4373
   2314  OP2       24.4450   55.5930    6.0860 O.co2 107  G107       -0.5172
   2315  P         19.7000   57.3470    9.9770 P.3   108  G108        0.2141
   2316  C5'       17.2910   57.8800   10.7760 C.3   108  G108        0.1812
   2317  O5'       18.3950   57.0040   10.8430 O.3   108  G108       -0.3114
   2318  C4'       16.0560   57.2900   11.4320 C.3   108  G108        0.1773
   2319  O4'       15.1610   56.7480   10.4290 O.3   108  G108       -0.3307
   2320  C3'       16.2820   56.1630   12.4290 C.3   108  G108        0.1860
   2321  O3'       16.3900   56.7150   13.7270 O.3   108  G108       -0.3112
   2322  C2'       14.9900   55.3640   12.2910 C.3   108  G108        0.2309
   2323  O2'       13.8930   55.9760   12.9350 O.3   108  G108       -0.2156
   2324  C1'       14.7960   55.4370   10.7910 C.3   108  G108        0.2408
   2325  N1        16.0310   50.6960    9.5360 N.ar  108  G108       -0.1709
   2326  C2        14.9320   51.1430   10.2540 C.ar  108  G108        0.2606
   2327  N2        14.0600   50.2050   10.6900 N.pl3 108  G108       -0.0859
   2328  N3        14.7060   52.4340   10.5220 N.ar  108  G108       -0.1918
   2329  C4        15.6770   53.2210   10.0120 C.ar  108  G108        0.1723
   2330  C5        16.7930   52.8720    9.2940 C.ar  108  G108        0.1748
   2331  C6        17.0340   51.5250    9.0080 C.ar  108  G108        0.3023
   2332  O6        18.0010   51.0820    8.3740 O.2   108  G108       -0.2633
   2333  N7        17.5510   53.9760    8.9480 N.ar  108  G108       -0.2173
   2334  C8        16.8820   54.9700    9.4630 C.ar  108  G108        0.1817
   2335  N9        15.7380   54.5780   10.1150 N.ar  108  G108       -0.2693
   2336  OP1       19.2870   57.4990    8.5620 O.2   108  G108       -0.5172
   2337  OP2       20.4360   58.4480   10.6360 O.co2 108  G108       -0.4373
   2338  P         17.1740   55.9310   14.8790 P.3   109  C109        0.2141
   2339  C5'       14.8960   54.8690   15.6740 C.3   109  C109        0.1812
   2340  O5'       16.2200   54.6800   15.1920 O.3   109  C109       -0.3114
   2341  C4'       14.2010   53.5280   15.8570 C.3   109  C109        0.1773
   2342  O4'       14.0530   52.8730   14.5710 O.3   109  C109       -0.3307
   2343  C3'       14.9360   52.5100   16.7200 C.3   109  C109        0.1860
   2344  O3'       14.5940   52.7040   18.0820 O.3   109  C109       -0.3112
   2345  C2'       14.3530   51.2020   16.2050 C.3   109  C109        0.2309
   2346  O2'       13.0630   50.9980   16.7260 O.3   109  C109       -0.2156
   2347  C1'       14.2270   51.4770   14.7150 C.3   109  C109        0.2420
   2348  N1        15.4130   51.0670   13.9320 N.ar  109  C109       -0.2535
   2349  C2        15.5840   49.7160   13.6510 C.ar  109  C109        0.3532
   2350  O2        14.7360   48.9270   14.0770 O.2   109  C109       -0.2443
   2351  N3        16.6610   49.3170   12.9330 N.ar  109  C109       -0.1739
   2352  C4        17.5390   50.2220   12.5040 C.ar  109  C109        0.1759
   2353  N4        18.5900   49.7900   11.8000 N.pl3 109  C109       -0.1070
   2354  C5        17.3790   51.6130   12.7770 C.ar  109  C109        0.0566
   2355  C6        16.3100   51.9900   13.4880 C.ar  109  C109        0.0850
   2356  OP1       17.1980   56.8330   16.0490 O.3   109  C109       -0.4373
   2357  OP2       18.4450   55.4000   14.3310 O.co2 109  C109       -0.5172
   2358  P         15.7130   52.5040   19.1990 P.3   110  U110        0.2141
   2359  C5'       14.9440   50.1060   19.8940 C.3   110  U110        0.1812
   2360  O5'       15.9010   50.9180   19.2410 O.3   110  U110       -0.3114
   2361  C4'       15.1990   48.6400   19.6050 C.3   110  U110        0.1773
   2362  O4'       15.2020   48.4180   18.1760 O.3   110  U110       -0.3307
   2363  C3'       16.5540   48.1170   20.0360 C.3   110  U110        0.1860
   2364  O3'       16.5020   47.7960   21.4000 O.3   110  U110       -0.3112
   2365  C2'       16.6280   46.8480   19.1980 C.3   110  U110        0.2309
   2366  O2'       15.8550   45.8060   19.7410 O.3   110  U110       -0.2156
   2367  C1'       15.9800   47.2770   17.8930 C.3   110  U110        0.2420
   2368  N1        16.9950   47.6210   16.8910 N.ar  110  U110       -0.2534
   2369  C2        17.6820   46.5950   16.2960 C.ar  110  U110        0.3546
   2370  O2        17.4770   45.4270   16.5670 O.2   110  U110       -0.2443
   2371  N3        18.6150   46.9770   15.3750 N.ar  110  U110       -0.1530
   2372  C4        18.9180   48.2670   15.0070 C.ar  110  U110        0.2846
   2373  O4        19.7850   48.4630   14.1690 O.2   110  U110       -0.2650
   2374  C5        18.1560   49.2870   15.6750 C.ar  110  U110        0.0814
   2375  C6        17.2390   48.9360   16.5800 C.ar  110  U110        0.0870
   2376  OP1       15.1210   52.9560   20.4790 O.3   110  U110       -0.4373
   2377  OP2       16.9980   53.0590   18.7120 O.co2 110  U110       -0.5172
   2378  P         17.4600   48.5030   22.4590 P.3   111  G111        0.2141
   2379  C5'       19.7310   47.5610   21.6400 C.3   111  G111        0.1812
   2380  O5'       18.7090   47.5200   22.6140 O.3   111  G111       -0.3114
   2381  C4'       20.7130   46.4250   21.8480 C.3   111  G111        0.1773
   2382  O4'       21.3720   46.5600   23.1290 O.3   111  G111       -0.3307
   2383  C3'       20.0690   45.0600   21.9330 C.3   111  G111        0.1860
   2384  O3'       19.8350   44.5730   20.6370 O.3   111  G111       -0.3112
   2385  C2'       21.1510   44.2670   22.6540 C.3   111  G111        0.2309
   2386  O2'       22.2330   43.9260   21.8150 O.3   111  G111       -0.2156
   2387  C1'       21.5980   45.2840   23.6930 C.3   111  G111        0.2408
   2388  N1        20.5060   42.4350   27.7420 N.ar  111  G111       -0.1709
   2389  C2        21.3590   42.1810   26.7000 C.ar  111  G111        0.2606
   2390  N2        22.0070   41.0090   26.7440 N.pl3 111  G111       -0.0859
   2391  N3        21.5700   43.0090   25.6880 N.ar  111  G111       -0.1918
   2392  C4        20.8350   44.1360   25.8100 C.ar  111  G111        0.1723
   2393  C5        19.9560   44.4860   26.8080 C.ar  111  G111        0.1748
   2394  C6        19.7450   43.5880   27.8820 C.ar  111  G111        0.3023
   2395  O6        19.0030   43.7150   28.8650 O.2   111  G111       -0.2633
   2396  N7        19.4020   45.7340   26.5580 N.ar  111  G111       -0.2173
   2397  C8        19.9460   46.1050   25.4330 C.ar  111  G111        0.1817
   2398  N9        20.8270   45.1860   24.9250 N.ar  111  G111       -0.2693
   2399  OP1       16.6950   48.5320   23.7220 O.3   111  G111       -0.4373
   2400  OP2       17.9680   49.7590   21.8660 O.co2 111  G111       -0.5172
   2401  P         18.6010   43.5860   20.4160 P.3   112  G112        0.2141
   2402  C5'       20.1760   41.5530   20.8480 C.3   112  G112        0.1812
   2403  O5'       19.0640   42.3090   21.2600 O.3   112  G112       -0.3114
   2404  C4'       20.3130   40.3130   21.7080 C.3   112  G112        0.1773
   2405  O4'       20.6220   40.7180   23.0590 O.3   112  G112       -0.3307
   2406  C3'       19.0620   39.4650   21.8570 C.3   112  G112        0.1860
   2407  O3'       18.9760   38.5850   20.7580 O.3   112  G112       -0.3112
   2408  C2'       19.3970   38.7280   23.1420 C.3   112  G112        0.2309
   2409  O2'       20.4360   37.7890   22.9610 O.3   112  G112       -0.2156
   2410  C1'       19.9620   39.8670   23.9750 C.3   112  G112        0.2408
   2411  N1        17.0520   40.3210   28.1340 N.ar  112  G112       -0.1709
   2412  C2        17.9240   39.3160   27.7870 C.ar  112  G112        0.2606
   2413  N2        18.0420   38.3040   28.6550 N.pl3 112  G112       -0.0859
   2414  N3        18.6440   39.2970   26.6720 N.ar  112  G112       -0.1918
   2415  C4        18.4060   40.3900   25.9110 C.ar  112  G112        0.1723
   2416  C5        17.5580   41.4400   26.1680 C.ar  112  G112        0.1748
   2417  C6        16.8040   41.4500   27.3610 C.ar  112  G112        0.3023
   2418  O6        16.0010   42.3120   27.7420 O.2   112  G112       -0.2633
   2419  N7        17.5980   42.3660   25.1380 N.ar  112  G112       -0.2173
   2420  C8        18.4510   41.8670   24.2900 C.ar  112  G112        0.1817
   2421  N9        18.9770   40.6680   24.6910 N.ar  112  G112       -0.2693
   2422  OP1       18.5860   43.2410   18.9750 O.2   112  G112       -0.5172
   2423  OP2       17.3900   44.1380   21.0700 O.co2 112  G112       -0.4373
   2424  P         17.5630   38.2830   20.0790 P.3   113  G113        0.2141
   2425  C5'       17.5060   35.7630   20.7780 C.3   113  G113        0.1812
   2426  O5'       16.9900   37.0690   20.9420 O.3   113  G113       -0.3114
   2427  C4'       17.2170   34.9880   22.0420 C.3   113  G113        0.1773
   2428  O4'       17.7230   35.7430   23.1670 O.3   113  G113       -0.3307
   2429  C3'       15.7480   34.8270   22.3780 C.3   113  G113        0.1860
   2430  O3'       15.2170   33.7230   21.7010 O.3   113  G113       -0.3112
   2431  C2'       15.8450   34.5120   23.8570 C.3   113  G113        0.2309
   2432  O2'       16.3110   33.1990   24.0820 O.3   113  G113       -0.2156
   2433  C1'       16.8810   35.5420   24.2800 C.3   113  G113        0.2408
   2434  N1        14.4610   38.0630   27.9090 N.ar  113  G113       -0.1709
   2435  C2        14.9780   36.7940   27.9120 C.ar  113  G113        0.2606
   2436  N2        14.8320   36.0890   29.0390 N.pl3 113  G113       -0.0859
   2437  N3        15.5980   36.2470   26.8850 N.ar  113  G113       -0.1918
   2438  C4        15.6590   37.0910   25.8330 C.ar  113  G113        0.1723
   2439  C5        15.1770   38.3700   25.7260 C.ar  113  G113        0.1748
   2440  C6        14.5160   38.9420   26.8380 C.ar  113  G113        0.3023
   2441  O6        14.0140   40.0640   26.9570 O.2   113  G113       -0.2633
   2442  N7        15.4520   38.8830   24.4640 N.ar  113  G113       -0.2173
   2443  C8        16.0810   37.9190   23.8470 C.ar  113  G113        0.1817
   2444  N9        16.2450   36.8030   24.6270 N.ar  113  G113       -0.2693
   2445  OP1       17.8330   37.8380   18.6950 O.2   113  G113       -0.5172
   2446  OP2       16.6580   39.4240   20.3140 O.co2 113  G113       -0.4373
   2447  P         13.6430   33.6220   21.4550 P.3   114  G114        0.2141
   2448  C5'       13.1770   32.3650   23.7080 C.3   114  G114        0.1812
   2449  O5'       13.0160   33.5370   22.9290 O.3   114  G114       -0.3114
   2450  C4'       12.5640   32.5130   25.0940 C.3   114  G114        0.1773
   2451  O4'       13.1320   33.6540   25.7850 O.3   114  G114       -0.3307
   2452  C3'       11.0670   32.7740   25.1700 C.3   114  G114        0.1860
   2453  O3'       10.3280   31.5780   24.9490 O.3   114  G114       -0.3112
   2454  C2'       10.9670   33.2210   26.6240 C.3   114  G114        0.2309
   2455  O2'       11.0430   32.1300   27.5210 O.3   114  G114       -0.2156
   2456  C1'       12.2070   34.1050   26.7580 C.3   114  G114        0.2408
   2457  N1         9.8890   38.3650   28.3020 N.ar  114  G114       -0.1709
   2458  C2         9.9350   37.1380   28.9140 C.ar  114  G114        0.2606
   2459  N2         9.2760   37.0380   30.0800 N.pl3 114  G114       -0.0859
   2460  N3        10.5780   36.0840   28.4240 N.ar  114  G114       -0.1918
   2461  C4        11.1760   36.3720   27.2470 C.ar  114  G114        0.1723
   2462  C5        11.1850   37.5620   26.5630 C.ar  114  G114        0.1748
   2463  C6        10.5010   38.6710   27.0950 C.ar  114  G114        0.3023
   2464  O6        10.4020   39.8080   26.6170 O.2   114  G114       -0.2633
   2465  N7        11.9140   37.4530   25.3910 N.ar  114  G114       -0.2173
   2466  C8        12.3260   36.2180   25.3840 C.ar  114  G114        0.1817
   2467  N9        11.9170   35.5040   26.4800 N.ar  114  G114       -0.2693
   2468  OP1       13.4710   32.3370   20.7410 O.2   114  G114       -0.5172
   2469  OP2       13.1340   34.8850   20.8700 O.co2 114  G114       -0.4373
   2470  P          8.8130   31.6400   24.4290 P.3   115  G115        0.2141
   2471  C5'        7.9660   31.5230   26.9050 C.3   115  G115        0.1812
   2472  O5'        8.0060   32.2410   25.6760 O.3   115  G115       -0.3114
   2473  C4'        7.0110   32.1820   27.8830 C.3   115  G115        0.1773
   2474  O4'        7.6340   33.3470   28.4800 O.3   115  G115       -0.3307
   2475  C3'        5.7290   32.7010   27.2510 C.3   115  G115        0.1860
   2476  O3'        4.7530   31.6740   27.2250 O.3   115  G115       -0.3112
   2477  C2'        5.3430   33.8180   28.2120 C.3   115  G115        0.2309
   2478  O2'        4.7540   33.3310   29.3990 O.3   115  G115       -0.2156
   2479  C1'        6.7110   34.4170   28.5100 C.3   115  G115        0.2408
   2480  N1         6.4320   39.2950   27.1580 N.ar  115  G115       -0.1709
   2481  C2         5.8730   38.6480   28.2340 C.ar  115  G115        0.2606
   2482  N2         5.1400   39.3970   29.0690 N.pl3 115  G115       -0.0859
   2483  N3         6.0190   37.3560   28.4800 N.ar  115  G115       -0.1918
   2484  C4         6.7860   36.7530   27.5450 C.ar  115  G115        0.1723
   2485  C5         7.3860   37.3040   26.4380 C.ar  115  G115        0.1748
   2486  C6         7.2210   38.6860   26.1870 C.ar  115  G115        0.3023
   2487  O6         7.6750   39.3600   25.2540 O.2   115  G115       -0.2633
   2488  N7         8.0860   36.3390   25.7270 N.ar  115  G115       -0.2173
   2489  C8         7.8990   35.2410   26.4100 C.ar  115  G115        0.1817
   2490  N9         7.1190   35.4200   27.5290 N.ar  115  G115       -0.2693
   2491  OP1        8.3800   30.2440   24.2160 O.3   115  G115       -0.4373
   2492  OP2        8.7240   32.6090   23.3150 O.co2 115  G115       -0.5172
   2493  P          3.5720   31.7140   26.1450 P.3   116  U116        0.2141
   2494  C5'        2.0910   33.0820   27.8130 C.3   116  U116        0.1812
   2495  O5'        2.7560   33.0330   26.5520 O.3   116  U116       -0.3114
   2496  C4'        1.3870   34.4110   28.0360 C.3   116  U116        0.1773
   2497  O4'        2.3670   35.4450   28.3150 O.3   116  U116       -0.3307
   2498  C3'        0.6050   34.9510   26.8450 C.3   116  U116        0.1860
   2499  O3'       -0.6980   34.3830   26.7620 O.3   116  U116       -0.3112
   2500  C2'        0.5510   36.4370   27.1810 C.3   116  U116        0.2309
   2501  O2'       -0.3990   36.7360   28.1840 O.3   116  U116       -0.2156
   2502  C1'        1.9700   36.6590   27.6960 C.3   116  U116        0.2420
   2503  N1         2.9200   37.0100   26.5900 N.ar  116  U116       -0.2534
   2504  C2         3.0170   38.3250   26.1750 C.ar  116  U116        0.3546
   2505  O2         2.3680   39.2290   26.6750 O.2   116  U116       -0.2443
   2506  N3         3.9100   38.5480   25.1500 N.ar  116  U116       -0.1530
   2507  C4         4.6950   37.6040   24.5100 C.ar  116  U116        0.2846
   2508  O4         5.4510   37.9460   23.6030 O.2   116  U116       -0.2650
   2509  C5         4.5360   36.2570   24.9990 C.ar  116  U116        0.0814
   2510  C6         3.6730   36.0150   25.9950 C.ar  116  U116        0.0870
   2511  OP1        2.7480   30.5110   26.3970 O.3   116  U116       -0.4373
   2512  OP2        4.1450   31.9240   24.7950 O.co2 116  U116       -0.5172
   2513  P         -1.4130   34.2310   25.3320 P.3   117  G117        0.2141
   2514  C5'       -2.7120   36.4380   25.7480 C.3   117  G117        0.1812
   2515  O5'       -1.7840   35.7390   24.9250 O.3   117  G117       -0.3114
   2516  C4'       -2.8350   37.9130   25.4100 C.3   117  G117        0.1773
   2517  O4'       -1.5920   38.6030   25.6950 O.3   117  G117       -0.3307
   2518  C3'       -3.1050   38.2430   23.9510 C.3   117  G117        0.1860
   2519  O3'       -4.4690   38.0920   23.6380 O.3   117  G117       -0.3112
   2520  C2'       -2.7000   39.7120   23.9080 C.3   117  G117        0.2309
   2521  O2'       -3.6740   40.5790   24.4590 O.3   117  G117       -0.2156
   2522  C1'       -1.4470   39.6810   24.7810 C.3   117  G117        0.2408
   2523  N1         1.8060   41.8480   21.5650 N.ar  117  G117       -0.1709
   2524  C2         0.6860   42.3770   22.1650 C.ar  117  G117        0.2606
   2525  N2         0.3860   43.6550   21.8720 N.pl3 117  G117       -0.0859
   2526  N3        -0.0920   41.6980   22.9970 N.ar  117  G117       -0.1918
   2527  C4         0.3550   40.4340   23.1790 C.ar  117  G117        0.1723
   2528  C5         1.4540   39.8170   22.6290 C.ar  117  G117        0.1748
   2529  C6         2.2780   40.5490   21.7430 C.ar  117  G117        0.3023
   2530  O6         3.3040   40.1740   21.1530 O.2   117  G117       -0.2633
   2531  N7         1.5560   38.5040   23.0760 N.ar  117  G117       -0.2173
   2532  C8         0.5360   38.3570   23.8750 C.ar  117  G117        0.1817
   2533  N9        -0.2350   39.4920   23.9860 N.ar  117  G117       -0.2693
   2534  OP1       -2.6660   33.4830   25.5770 O.3   117  G117       -0.4373
   2535  OP2       -0.4310   33.7050   24.3550 O.co2 117  G117       -0.5172
   2536  P         -4.8490   37.7590   22.1220 P.3   118  A118        0.2141
   2537  C5'       -5.2650   40.2470   21.4650 C.3   118  A118        0.1812
   2538  O5'       -4.4440   39.0960   21.3400 O.3   118  A118       -0.3114
   2539  C4'       -4.7320   41.4030   20.6410 C.3   118  A118        0.1773
   2540  O4'       -3.4310   41.7950   21.1490 O.3   118  A118       -0.3307
   2541  C3'       -4.4760   41.1080   19.1700 C.3   118  A118        0.1860
   2542  O3'       -5.6620   41.1900   18.4040 O.3   118  A118       -0.3112
   2543  C2'       -3.5290   42.2530   18.8420 C.3   118  A118        0.2309
   2544  O2'       -4.1830   43.5060   18.7860 O.3   118  A118       -0.2156
   2545  C1'       -2.6090   42.1750   20.0580 C.3   118  A118        0.2408
   2546  N1         1.9760   41.1520   17.9580 N.ar  118  A118       -0.2040
   2547  C2         1.2270   42.2650   17.9890 C.ar  118  A118        0.2016
   2548  N3         0.0370   42.4700   18.5570 N.ar  118  A118       -0.2048
   2549  C4        -0.3920   41.3490   19.1570 C.ar  118  A118        0.1692
   2550  C5         0.2600   40.1310   19.2140 C.ar  118  A118        0.1518
   2551  C6         1.5100   40.0420   18.5740 C.ar  118  A118        0.1919
   2552  N6         2.2410   38.9210   18.5570 N.pl3 118  A118       -0.1054
   2553  N7        -0.4860   39.2040   19.9230 N.ar  118  A118       -0.2193
   2554  C8        -1.5600   39.8740   20.2760 C.ar  118  A118        0.1816
   2555  N9        -1.5660   41.1750   19.8510 N.ar  118  A118       -0.2693
   2556  OP1       -6.3200   37.5950   22.0650 O.3   118  A118       -0.4373
   2557  OP2       -3.9600   36.6670   21.6560 O.co2 118  A118       -0.5172
   2558  P         -5.8190   40.2690   17.1020 P.3   119  G119        0.2141
   2559  C5'       -5.1070   42.3120   15.6100 C.3   119  G119        0.1812
   2560  O5'       -4.8690   40.9660   16.0130 O.3   119  G119       -0.3114
   2561  C4'       -3.9350   42.8800   14.8230 C.3   119  G119        0.1773
   2562  O4'       -2.7460   42.9210   15.6550 O.3   119  G119       -0.3307
   2563  C3'       -3.4900   42.0780   13.6090 C.3   119  G119        0.1860
   2564  O3'       -4.2930   42.3480   12.4770 O.3   119  G119       -0.3112
   2565  C2'       -2.0910   42.6410   13.4090 C.3   119  G119        0.2309
   2566  O2'       -2.1100   43.9460   12.8690 O.3   119  G119       -0.2156
   2567  C1'       -1.6070   42.6620   14.8520 C.3   119  G119        0.2408
   2568  N1         2.4210   39.6180   14.3680 N.ar  119  G119       -0.1709
   2569  C2         2.1900   40.8590   13.8310 C.ar  119  G119        0.2606
   2570  N2         3.1620   41.3620   13.0590 N.pl3 119  G119       -0.0859
   2571  N3         1.0870   41.5640   14.0330 N.ar  119  G119       -0.1918
   2572  C4         0.2160   40.9110   14.8330 C.ar  119  G119        0.1723
   2573  C5         0.3530   39.6760   15.4200 C.ar  119  G119        0.1748
   2574  C6         1.5370   38.9360   15.1950 C.ar  119  G119        0.3023
   2575  O6         1.8410   37.8180   15.6310 O.2   119  G119       -0.2633
   2576  N7        -0.7710   39.3660   16.1750 N.ar  119  G119       -0.2173
   2577  C8        -1.5510   40.4040   16.0290 C.ar  119  G119        0.1817
   2578  N9        -1.0130   41.3830   15.2290 N.ar  119  G119       -0.2693
   2579  OP1       -7.2250   40.3760   16.6480 O.2   119  G119       -0.5172
   2580  OP2       -5.2450   38.9420   17.4180 O.co2 119  G119       -0.4373
   2581  P         -4.6330   41.1370   11.4930 P.3   120  G120        0.2141
   2582  C5'       -2.8390   41.8740    9.7660 C.3   120  G120        0.1812
   2583  O5'       -3.2660   40.9010   10.6990 O.3   120  G120       -0.3114
   2584  C4'       -1.3950   41.6410    9.3760 C.3   120  G120        0.1773
   2585  O4'       -0.6130   41.4170   10.5760 O.3   120  G120       -0.3307
   2586  C3'       -1.1050   40.3880    8.5670 C.3   120  G120        0.1860
   2587  O3'       -1.4420   40.5390    7.1980 O.3   120  G120       -0.3112
   2588  C2'        0.4030   40.3330    8.7430 C.3   120  G120        0.2309
   2589  O2'        1.0500   41.3260    7.9760 O.3   120  G120       -0.2156
   2590  C1'        0.5280   40.6490   10.2300 C.3   120  G120        0.2408
   2591  N1         3.2720   36.5540   11.4080 N.ar  120  G120       -0.1709
   2592  C2         3.5220   37.5480   10.4860 C.ar  120  G120        0.2606
   2593  N2         4.6550   37.4570    9.7700 N.pl3 120  G120       -0.0859
   2594  N3         2.7150   38.5760   10.2730 N.ar  120  G120       -0.1918
   2595  C4         1.6190   38.5300   11.0650 C.ar  120  G120        0.1723
   2596  C5         1.2780   37.5890   12.0090 C.ar  120  G120        0.1748
   2597  C6         2.1480   36.4950   12.2320 C.ar  120  G120        0.3023
   2598  O6         2.0090   35.5580   13.0340 O.2   120  G120       -0.2633
   2599  N7         0.0640   37.9140   12.6050 N.ar  120  G120       -0.2173
   2600  C8        -0.2960   39.0250   12.0190 C.ar  120  G120        0.1817
   2601  N9         0.6040   39.4570   11.0730 N.ar  120  G120       -0.2693
   2602  OP1       -5.6660   41.6070   10.5400 O.2   120  G120       -0.5172
   2603  OP2       -4.8790   39.9460   12.3390 O.co2 120  G120       -0.4373
   2604  P         -2.0360   39.2770    6.3990 P.3   121  G121        0.2141
   2605  C5'        0.2100   38.6340    5.3030 C.3   121  G121        0.1812
   2606  O5'       -0.7980   38.2820    6.2250 O.3   121  G121       -0.3114
   2607  C4'        1.4320   37.7700    5.5280 C.3   121  G121        0.1773
   2608  O4'        1.7260   37.6870    6.9420 O.3   121  G121       -0.3307
   2609  C3'        1.2780   36.3040    5.1810 C.3   121  G121        0.1860
   2610  O3'        1.2540   36.1330    3.7660 O.3   121  G121       -0.3112
   2611  C2'        2.5690   35.8000    5.8200 C.3   121  G121        0.2309
   2612  O2'        3.7080   36.2130    5.0950 O.3   121  G121       -0.2156
   2613  C1'        2.5340   36.5450    7.1490 C.3   121  G121        0.2408
   2614  N1         3.0830   32.5640   10.2310 N.ar  121  G121       -0.1709
   2615  C2         3.9150   33.0170    9.2350 C.ar  121  G121        0.2606
   2616  N2         5.0420   32.3180    9.0330 N.pl3 121  G121       -0.0859
   2617  N3         3.6640   34.0830    8.4860 N.ar  121  G121       -0.1918
   2618  C4         2.4880   34.6640    8.8240 C.ar  121  G121        0.1723
   2619  C5         1.5910   34.2900    9.7960 C.ar  121  G121        0.1748
   2620  C6         1.8730   33.1520   10.5870 C.ar  121  G121        0.3023
   2621  O6         1.1960   32.6640   11.5030 O.2   121  G121       -0.2633
   2622  N7         0.5060   35.1580    9.8210 N.ar  121  G121       -0.2173
   2623  C8         0.7650   36.0250    8.8790 C.ar  121  G121        0.1817
   2624  N9         1.9490   35.7820    8.2350 N.ar  121  G121       -0.2693
   2625  OP1       -2.3970   39.7680    5.0490 O.2   121  G121       -0.5172
   2626  OP2       -3.0340   38.6040    7.2700 O.co2 121  G121       -0.4373
   2627  P          0.1740   35.1600    3.0850 P.3   122  G122        0.2141
   2628  C5'        1.6960   33.0340    3.3230 C.3   122  G122        0.1812
   2629  O5'        0.5170   33.7260    3.7140 O.3   122  G122       -0.3114
   2630  C4'        1.8550   31.7880    4.1660 C.3   122  G122        0.1773
   2631  O4'        1.9880   32.1710    5.5510 O.3   122  G122       -0.3307
   2632  C3'        0.6530   30.8640    4.1830 C.3   122  G122        0.1860
   2633  O3'        0.6490   30.0560    3.0100 O.3   122  G122       -0.3112
   2634  C2'        0.9900   30.0530    5.4260 C.3   122  G122        0.2309
   2635  O2'        2.0050   29.1070    5.1550 O.3   122  G122       -0.2156
   2636  C1'        1.5140   31.1300    6.3720 C.3   122  G122        0.2408
   2637  N1        -1.1040   30.8270   10.7570 N.ar  122  G122       -0.1709
   2638  C2        -0.0990   30.0140   10.2990 C.ar  122  G122        0.2606
   2639  N2         0.2350   29.0020   11.1110 N.pl3 122  G122       -0.0859
   2640  N3         0.5260   30.1810    9.1350 N.ar  122  G122       -0.1918
   2641  C4         0.0520   31.2510    8.4530 C.ar  122  G122        0.1723
   2642  C5        -0.9460   32.1190    8.8300 C.ar  122  G122        0.1748
   2643  C6        -1.5990   31.9280   10.0670 C.ar  122  G122        0.3023
   2644  O6        -2.5100   32.6060   10.5600 O.2   122  G122       -0.2633
   2645  N7        -1.1490   33.0910    7.8640 N.ar  122  G122       -0.2173
   2646  C8        -0.2840   32.8010    6.9310 C.ar  122  G122        0.1817
   2647  N9         0.4780   31.6960    7.2200 N.ar  122  G122       -0.2693
   2648  OP1        0.5130   35.1720    1.6400 O.2   122  G122       -0.5172
   2649  OP2       -1.1940   35.4780    3.5740 O.co2 122  G122       -0.4373
   2650  P         -0.6070   30.0560    2.0150 P.3   123  A123        0.2141
   2651  C5'       -2.1970   28.9260    3.6290 C.3   123  A123        0.1812
   2652  O5'       -1.4280   28.7740    2.4730 O.3   123  A123       -0.3114
   2653  C4'       -2.8780   27.6320    3.9950 C.3   123  A123        0.1773
   2654  O4'       -2.0600   26.4760    3.6990 O.3   123  A123       -0.3307
   2655  C3'       -3.0150   27.5090    5.4900 C.3   123  A123        0.1860
   2656  O3'       -4.0050   28.3800    5.9670 O.3   123  A123       -0.3112
   2657  C2'       -3.3630   26.0400    5.6610 C.3   123  A123        0.2309
   2658  O2'       -4.7310   25.7830    5.4280 O.3   123  A123       -0.2156
   2659  C1'       -2.5160   25.4290    4.5480 C.3   123  A123        0.2408
   2660  N1         2.4750   24.2100    4.1940 N.ar  123  A123       -0.2040
   2661  C2         1.7200   25.1110    3.5410 C.ar  123  A123        0.2016
   2662  N3         0.4260   25.3960    3.6720 N.ar  123  A123       -0.2048
   2663  C4        -0.1030   24.6150    4.6190 C.ar  123  A123        0.1692
   2664  C5         0.5420   23.6450    5.3790 C.ar  123  A123        0.1518
   2665  C6         1.9030   23.4430    5.1410 C.ar  123  A123        0.1919
   2666  N6         2.6300   22.5460    5.8030 N.pl3 123  A123       -0.1054
   2667  N7        -0.3250   23.0320    6.2620 N.ar  123  A123       -0.2193
   2668  C8        -1.4710   23.6420    6.0190 C.ar  123  A123        0.1816
   2669  N9        -1.4090   24.6110    5.0430 N.ar  123  A123       -0.2693
   2670  OP1       -0.1030   29.8330    0.6370 O.2   123  A123       -0.5172
   2671  OP2       -1.4370   31.2400    2.3240 O.co2 123  A123       -0.4373
   2672  P         -3.5630   29.1120    7.3030 P.3   124  A124        0.2141
   2673  C5'       -3.0310   27.8250    9.5130 C.3   124  A124        0.1812
   2674  O5'       -3.0300   27.8370    8.1050 O.3   124  A124       -0.3114
   2675  C4'       -3.0430   26.3800    9.9520 C.3   124  A124        0.1773
   2676  O4'       -2.2540   25.6120    9.0170 O.3   124  A124       -0.3307
   2677  C3'       -2.4270   26.0970   11.3070 C.3   124  A124        0.1860
   2678  O3'       -3.0000   24.9020   11.8060 O.3   124  A124       -0.3112
   2679  C2'       -0.9500   25.8990   10.9850 C.3   124  A124        0.2309
   2680  O2'       -0.3390   24.9590   11.8480 O.3   124  A124       -0.2156
   2681  C1'       -0.9900   25.3120    9.5810 C.3   124  A124        0.2408
   2682  N1         3.7150   24.7010    7.5090 N.ar  124  A124       -0.2040
   2683  C2         3.0420   23.9840    8.4170 C.ar  124  A124        0.2016
   2684  N3         1.8260   24.1830    8.9270 N.ar  124  A124       -0.2048
   2685  C4         1.2680   25.2820    8.3960 C.ar  124  A124        0.1692
   2686  C5         1.8360   26.1170    7.4540 C.ar  124  A124        0.1518
   2687  C6         3.1240   25.7970    6.9960 C.ar  124  A124        0.1919
   2688  N6         3.7710   26.5300    6.0850 N.pl3 124  A124       -0.1054
   2689  N7         0.9780   27.1500    7.1350 N.ar  124  A124       -0.2193
   2690  C8        -0.0780   26.9250    7.8770 C.ar  124  A124        0.1816
   2691  N9         0.0280   25.8190    8.6670 N.ar  124  A124       -0.2693
   2692  OP1       -4.7520   29.6190    8.0270 O.3   124  A124       -0.4373
   2693  OP2       -2.4430   30.0180    6.9330 O.co2 124  A124       -0.5172
   2694  P         -3.5190   24.8900   13.3170 P.3   125  U125        0.2141
   2695  C5'       -3.1080   26.7510   15.1680 C.3   125  U125        0.1812
   2696  O5'       -3.0720   26.3680   13.7880 O.3   125  U125       -0.3114
   2697  C4'       -1.7580   26.6230   15.8660 C.3   125  U125        0.1773
   2698  O4'       -1.9790   26.2360   17.2490 O.3   125  U125       -0.3307
   2699  C3'       -0.7820   25.6000   15.2780 C.3   125  U125        0.1860
   2700  O3'        0.5180   26.1820   15.0220 O.3   125  U125       -0.3112
   2701  C2'       -0.7510   24.4240   16.2640 C.3   125  U125        0.2309
   2702  O2'        0.5580   24.0080   16.6030 O.3   125  U125       -0.2156
   2703  C1'       -1.4860   24.9330   17.5060 C.3   125  U125        0.2420
   2704  N1        -2.6230   24.0430   17.9130 N.ar  125  U125       -0.2534
   2705  C2        -3.6020   24.5150   18.7690 C.ar  125  U125        0.3546
   2706  O2        -3.6050   25.6430   19.2340 O.2   125  U125       -0.2443
   2707  N3        -4.5900   23.6060   19.0690 N.ar  125  U125       -0.1530
   2708  C4        -4.6970   22.3040   18.6090 C.ar  125  U125        0.2846
   2709  O4        -5.6440   21.6060   18.9670 O.2   125  U125       -0.2650
   2710  C5        -3.6410   21.8880   17.7210 C.ar  125  U125        0.0814
   2711  C6        -2.6670   22.7530   17.4150 C.ar  125  U125        0.0870
   2712  OP1       -2.7480   23.8650   14.0680 O.3   125  U125       -0.4373
   2713  OP2       -4.9980   24.7890   13.2840 O.co2 125  U125       -0.5172
   2714  P          1.4620   26.8500   16.1390 P.3   126  A126        0.2141
   2715  C5'        3.0570   24.7710   15.9350 C.3   126  A126        0.1812
   2716  O5'        2.8790   26.1810   15.8050 O.3   126  A126       -0.3114
   2717  C4'        4.0610   24.2550   14.9230 C.3   126  A126        0.1773
   2718  O4'        3.4330   24.1580   13.6260 O.3   126  A126       -0.3307
   2719  C3'        5.2490   25.1680   14.6790 C.3   126  A126        0.1860
   2720  O3'        6.2300   24.9840   15.6870 O.3   126  A126       -0.3112
   2721  C2'        5.7320   24.6510   13.3320 C.3   126  A126        0.2309
   2722  O2'        6.4830   23.4610   13.4460 O.3   126  A126       -0.2156
   2723  C1'        4.4090   24.3770   12.6240 C.3   126  A126        0.2408
   2724  N1         5.5710   27.3340    8.6070 N.ar  126  A126       -0.2040
   2725  C2         6.1840   26.2830    9.1550 C.ar  126  A126        0.2016
   2726  N3         5.8200   25.5550   10.2080 N.ar  126  A126       -0.2048
   2727  C4         4.6750   26.0120   10.7230 C.ar  126  A126        0.1692
   2728  C5         3.9300   27.0790   10.2730 C.ar  126  A126        0.1518
   2729  C6         4.4200   27.7670    9.1510 C.ar  126  A126        0.1919
   2730  N6         3.8060   28.8180    8.6010 N.pl3 126  A126       -0.1054
   2731  N7         2.8050   27.2520   11.0580 N.ar  126  A126       -0.2193
   2732  C8         2.8950   26.2950   11.9540 C.ar  126  A126        0.1816
   2733  N9         4.0010   25.5080   11.8040 N.ar  126  A126       -0.2693
   2734  OP1        1.0340   26.3970   17.4850 O.3   126  A126       -0.4373
   2735  OP2        1.5720   28.2960   15.8200 O.co2 126  A126       -0.5172
   2736  P          6.6340   26.2010   16.6450 P.3   127  C127        0.2141
   2737  C5'        8.5750   26.7180   15.0110 C.3   127  C127        0.1812
   2738  O5'        7.3920   27.1780   15.6330 O.3   127  C127       -0.3114
   2739  C4'        8.7870   27.4470   13.7030 C.3   127  C127        0.1773
   2740  O4'        7.6300   27.2500   12.8610 O.3   127  C127       -0.3307
   2741  C3'        8.8890   28.9580   13.8010 C.3   127  C127        0.1860
   2742  O3'       10.2080   29.3220   14.1480 O.3   127  C127       -0.3112
   2743  C2'        8.5730   29.3590   12.3650 C.3   127  C127        0.2309
   2744  O2'        9.6640   29.1490   11.4850 O.3   127  C127       -0.2156
   2745  C1'        7.4400   28.3920   12.0480 C.3   127  C127        0.2420
   2746  N1         6.1200   28.9410   12.3930 N.ar  127  C127       -0.2535
   2747  C2         5.5520   29.9290   11.5830 C.ar  127  C127        0.3532
   2748  O2         6.1830   30.3180   10.5880 O.2   127  C127       -0.2443
   2749  N3         4.3330   30.4220   11.9250 N.ar  127  C127       -0.1739
   2750  C4         3.7130   29.9560   13.0130 C.ar  127  C127        0.1759
   2751  N4         2.5160   30.4560   13.3260 N.pl3 127  C127       -0.1070
   2752  C5         4.2830   28.9470   13.8430 C.ar  127  C127        0.0566
   2753  C6         5.4810   28.4720   13.5000 C.ar  127  C127        0.0850
   2754  OP1        7.6200   25.6820   17.6210 O.3   127  C127       -0.4373
   2755  OP2        5.3960   26.8650   17.1220 O.co2 127  C127       -0.5172
   2756  P         10.4710   30.7160   14.8760 P.3   128  C128        0.2141
   2757  C5'       11.0750   32.0450   12.7230 C.3   128  C128        0.1812
   2758  O5'       10.1230   31.7920   13.7420 O.3   128  C128       -0.3114
   2759  C4'       10.5250   33.0280   11.7090 C.3   128  C128        0.1773
   2760  O4'        9.2050   32.5950   11.3130 O.3   128  C128       -0.3307
   2761  C3'       10.2940   34.4380   12.2260 C.3   128  C128        0.1860
   2762  O3'       11.5040   35.1830   12.1880 O.3   128  C128       -0.3112
   2763  C2'        9.2750   34.9530   11.2150 C.3   128  C128        0.2309
   2764  O2'        9.8630   35.3020    9.9770 O.3   128  C128       -0.2156
   2765  C1'        8.4000   33.7210   11.0210 C.3   128  C128        0.2420
   2766  N1         7.1930   33.6510   11.8890 N.ar  128  C128       -0.2535
   2767  C2         6.0530   34.3780   11.5460 C.ar  128  C128        0.3532
   2768  O2         6.0890   35.0780   10.5270 O.2   128  C128       -0.2443
   2769  N3         4.9520   34.2960   12.3350 N.ar  128  C128       -0.1739
   2770  C4         4.9750   33.5200   13.4220 C.ar  128  C128        0.1759
   2771  N4         3.8780   33.4570   14.1870 N.pl3 128  C128       -0.1070
   2772  C5         6.1310   32.7710   13.7830 C.ar  128  C128        0.0566
   2773  C6         7.2060   32.8600   12.9950 C.ar  128  C128        0.0850
   2774  OP1       11.9280   30.7720   15.1410 O.2   128  C128       -0.5172
   2775  OP2        9.4770   30.8530   15.9710 O.co2 128  C128       -0.4373
   2776  P         11.8200   36.2610   13.3280 P.3   129  C129        0.2141
   2777  C5'       11.1310   38.1170   11.6590 C.3   129  C129        0.1812
   2778  O5'       10.8880   37.4890   12.9030 O.3   129  C129       -0.3114
   2779  C4'       10.0280   39.0930   11.3220 C.3   129  C129        0.1773
   2780  O4'        8.7970   38.3760   11.0860 O.3   129  C129       -0.3307
   2781  C3'        9.6530   40.0510   12.4340 C.3   129  C129        0.1860
   2782  O3'       10.6300   41.0820   12.5310 O.3   129  C129       -0.3112
   2783  C2'        8.3160   40.5340   11.8850 C.3   129  C129        0.2309
   2784  O2'        8.4550   41.3670   10.7580 O.3   129  C129       -0.2156
   2785  C1'        7.7160   39.2250   11.4030 C.3   129  C129        0.2420
   2786  N1         6.8980   38.5710   12.4290 N.ar  129  C129       -0.2535
   2787  C2         5.6280   39.0810   12.6890 C.ar  129  C129        0.3532
   2788  O2         5.2450   40.0610   12.0420 O.2   129  C129       -0.2443
   2789  N3         4.8560   38.4920   13.6290 N.ar  129  C129       -0.1739
   2790  C4         5.3270   37.4400   14.2870 C.ar  129  C129        0.1759
   2791  N4         4.5370   36.8860   15.2080 N.pl3 129  C129       -0.1070
   2792  C5         6.6250   36.9050   14.0340 C.ar  129  C129        0.0566
   2793  C6         7.3760   37.4960   13.1040 C.ar  129  C129        0.0850
   2794  OP1       13.2440   36.6460   13.1770 O.2   129  C129       -0.5172
   2795  OP2       11.3180   35.7560   14.6250 O.co2 129  C129       -0.4373
   2796  P         11.0830   41.6510   13.9590 P.3   130  U130        0.2141
   2797  C5'        9.6970   43.7570   13.3100 C.3   130  U130        0.1812
   2798  O5'        9.9460   42.7290   14.2550 O.3   130  U130       -0.3114
   2799  C4'        8.3290   44.3690   13.5510 C.3   130  U130        0.1773
   2800  O4'        7.3210   43.3430   13.4300 O.3   130  U130       -0.3307
   2801  C3'        8.0890   44.9050   14.9530 C.3   130  U130        0.1860
   2802  O3'        8.6500   46.1970   15.0990 O.3   130  U130       -0.3112
   2803  C2'        6.5710   44.9640   14.9850 C.3   130  U130        0.2309
   2804  O2'        6.0850   46.0820   14.2700 O.3   130  U130       -0.2156
   2805  C1'        6.2090   43.6890   14.2350 C.3   130  U130        0.2420
   2806  N1         5.8730   42.5250   15.0960 N.ar  130  U130       -0.2534
   2807  C2         4.6640   42.4990   15.7600 C.ar  130  U130        0.3546
   2808  O2         3.8500   43.4000   15.6910 O.2   130  U130       -0.2443
   2809  N3         4.4380   41.3800   16.5200 N.ar  130  U130       -0.1530
   2810  C4         5.2890   40.3010   16.6670 C.ar  130  U130        0.2846
   2811  O4         4.9580   39.3570   17.3780 O.2   130  U130       -0.2650
   2812  C5         6.5290   40.4010   15.9390 C.ar  130  U130        0.0814
   2813  C6         6.7710   41.4850   15.1950 C.ar  130  U130        0.0870
   2814  OP1       12.3830   42.3350   13.7770 O.2   130  U130       -0.5172
   2815  OP2       10.9360   40.5840   14.9730 O.co2 130  U130       -0.4373
   2816  P          9.2340   46.6200   16.5250 P.3   131  U131        0.2141
   2817  C5'        6.9470   47.7700   17.1320 C.3   131  U131        0.1812
   2818  O5'        7.8980   46.7470   17.3970 O.3   131  U131       -0.3114
   2819  C4'        5.6780   47.5610   17.9440 C.3   131  U131        0.1773
   2820  O4'        5.0520   46.3080   17.5700 O.3   131  U131       -0.3307
   2821  C3'        5.8750   47.4310   19.4470 C.3   131  U131        0.1860
   2822  O3'        5.9680   48.7170   20.0510 O.3   131  U131       -0.3112
   2823  C2'        4.5870   46.7180   19.8440 C.3   131  U131        0.2309
   2824  O2'        3.4790   47.5950   19.8720 O.3   131  U131       -0.2156
   2825  C1'        4.4250   45.7260   18.6980 C.3   131  U131        0.2420
   2826  N1         5.0370   44.3900   18.9540 N.ar  131  U131       -0.2534
   2827  C2         4.3350   43.4550   19.6830 C.ar  131  U131        0.3546
   2828  O2         3.2280   43.6710   20.1380 O.2   131  U131       -0.2443
   2829  N3         4.9730   42.2550   19.8690 N.ar  131  U131       -0.1530
   2830  C4         6.2240   41.8990   19.4020 C.ar  131  U131        0.2846
   2831  O4         6.6770   40.7820   19.6410 O.2   131  U131       -0.2650
   2832  C5         6.8920   42.9270   18.6500 C.ar  131  U131        0.0814
   2833  C6         6.2900   44.1070   18.4570 C.ar  131  U131        0.0870
   2834  OP1        9.8990   47.9360   16.3620 O.2   131  U131       -0.5172
   2835  OP2       10.0080   45.4860   17.0830 O.co2 131  U131       -0.4373
   2836  P          6.7790   48.8950   21.4200 P.3   132  A132        0.2141
   2837  C5'        4.5500   49.1990   22.7360 C.3   132  A132        0.1812
   2838  O5'        5.7300   48.4290   22.5380 O.3   132  A132       -0.3114
   2839  C4'        3.6200   48.5480   23.7410 C.3   132  A132        0.1773
   2840  O4'        3.0400   47.3530   23.1620 O.3   132  A132       -0.3307
   2841  C3'        4.2870   48.0720   25.0240 C.3   132  A132        0.1860
   2842  O3'        4.3820   49.1310   25.9690 O.3   132  A132       -0.3112
   2843  C2'        3.3000   47.0050   25.4760 C.3   132  A132        0.2309
   2844  O2'        2.1210   47.5670   26.0100 O.3   132  A132       -0.2156
   2845  C1'        2.9820   46.3360   24.1450 C.3   132  A132        0.2408
   2846  N1         4.0000   41.3020   24.3830 N.ar  132  A132       -0.2040
   2847  C2         2.9830   42.0400   24.8430 C.ar  132  A132        0.2016
   2848  N3         2.7830   43.3550   24.7470 N.ar  132  A132       -0.2048
   2849  C4         3.7870   43.9400   24.0820 C.ar  132  A132        0.1692
   2850  C5         4.9000   43.3220   23.5480 C.ar  132  A132        0.1518
   2851  C6         4.9940   41.9260   23.7180 C.ar  132  A132        0.1919
   2852  N6         6.0120   41.1970   23.2570 N.pl3 132  A132       -0.1054
   2853  N7         5.7220   44.2480   22.9290 N.ar  132  A132       -0.2193
   2854  C8         5.0960   45.3910   23.0990 C.ar  132  A132        0.1816
   2855  N9         3.9190   45.2740   23.7870 N.ar  132  A132       -0.2693
   2856  OP1        7.0510   50.3450   21.5680 O.3   132  A132       -0.4373
   2857  OP2        7.8900   47.9170   21.4330 O.co2 132  A132       -0.5172
   2858  P          5.5830   49.1510   27.0300 P.3   133  C133        0.2141
   2859  C5'        3.8090   48.0840   28.5690 C.3   133  C133        0.1812
   2860  O5'        5.1330   48.0260   28.0730 O.3   133  C133       -0.3114
   2861  C4'        3.4410   46.7920   29.2650 C.3   133  C133        0.1773
   2862  O4'        3.1330   45.7590   28.2970 O.3   133  C133       -0.3307
   2863  C3'        4.5580   46.1990   30.1010 C.3   133  C133        0.1860
   2864  O3'        4.6040   46.8520   31.3570 O.3   133  C133       -0.3112
   2865  C2'        4.0770   44.7580   30.2130 C.3   133  C133        0.2309
   2866  O2'        3.0010   44.6100   31.1090 O.3   133  C133       -0.2156
   2867  C1'        3.5830   44.5110   28.7950 C.3   133  C133        0.2420
   2868  N1         4.6730   43.9900   27.9270 N.ar  133  C133       -0.2535
   2869  C2         4.8540   42.6090   27.8130 C.ar  133  C133        0.3532
   2870  O2         4.0930   41.8540   28.4310 O.2   133  C133       -0.2443
   2871  N3         5.8520   42.1400   27.0260 N.ar  133  C133       -0.1739
   2872  C4         6.6430   42.9930   26.3790 C.ar  133  C133        0.1759
   2873  N4         7.6150   42.4880   25.6160 N.pl3 133  C133       -0.1070
   2874  C5         6.4750   44.4040   26.4850 C.ar  133  C133        0.0566
   2875  C6         5.4890   44.8580   27.2640 C.ar  133  C133        0.0850
   2876  OP1        5.5640   50.4770   27.6840 O.3   133  C133       -0.4373
   2877  OP2        6.8200   48.6930   26.3650 O.co2 133  C133       -0.5172
   2878  P          5.7200   46.4540   32.4300 P.3   134  C134        0.2141
   2879  C5'        5.9910   44.3280   33.8530 C.3   134  C134        0.1812
   2880  O5'        5.2910   44.9650   32.8140 O.3   134  C134       -0.3114
   2881  C4'        5.7430   42.8380   33.8240 C.3   134  C134        0.1773
   2882  O4'        5.3280   42.4170   32.5010 O.3   134  C134       -0.3307
   2883  C3'        6.9870   42.0140   34.0980 C.3   134  C134        0.1860
   2884  O3'        7.2540   41.9760   35.4910 O.3   134  C134       -0.3112
   2885  C2'        6.5740   40.6800   33.4960 C.3   134  C134        0.2309
   2886  O2'        5.5900   40.0220   34.2660 O.3   134  C134       -0.2156
   2887  C1'        5.9710   41.1910   32.1910 C.3   134  C134        0.2420
   2888  N1         6.9780   41.4280   31.1000 N.ar  134  C134       -0.2535
   2889  C2         7.8000   40.3760   30.6620 C.ar  134  C134        0.3532
   2890  O2         7.6910   39.2600   31.1940 O.2   134  C134       -0.2443
   2891  N3         8.6990   40.6100   29.6690 N.ar  134  C134       -0.1739
   2892  C4         8.7880   41.8210   29.1200 C.ar  134  C134        0.1759
   2893  N4         9.6840   41.9990   28.1480 N.pl3 134  C134       -0.1070
   2894  C5         7.9610   42.9040   29.5460 C.ar  134  C134        0.0566
   2895  C6         7.0810   42.6650   30.5260 C.ar  134  C134        0.0850
   2896  OP1        5.5350   47.3100   33.6210 O.3   134  C134       -0.4373
   2897  OP2        7.0390   46.4280   31.7530 O.co2 134  C134       -0.5172
   2898  P          8.2340   43.1030   36.0740 P.3   135  A135        0.2141
   2899  C5'        9.6210   41.2580   37.2300 C.3   135  A135        0.1812
   2900  O5'        9.6010   42.2980   36.2670 O.3   135  A135       -0.3114
   2901  C4'       10.0050   39.9300   36.6110 C.3   135  A135        0.1773
   2902  O4'        9.4080   39.7960   35.2970 O.3   135  A135       -0.3307
   2903  C3'       11.4830   39.7570   36.3400 C.3   135  A135        0.1860
   2904  O3'       12.1530   39.4340   37.5320 O.3   135  A135       -0.3112
   2905  C2'       11.4290   38.5740   35.3820 C.3   135  A135        0.2309
   2906  O2'       11.1400   37.3480   36.0230 O.3   135  A135       -0.2156
   2907  C1'       10.2540   38.9880   34.5020 C.3   135  A135        0.2408
   2908  N1        12.6330   38.6960   29.9820 N.ar  135  A135       -0.2040
   2909  C2        12.3500   37.7790   30.9080 C.ar  135  A135        0.2016
   2910  N3        11.7210   37.9340   32.0680 N.ar  135  A135       -0.2048
   2911  C4        11.3630   39.2110   32.2510 C.ar  135  A135        0.1692
   2912  C5        11.5830   40.2650   31.3940 C.ar  135  A135        0.1518
   2913  C6        12.2580   39.9690   30.1970 C.ar  135  A135        0.1919
   2914  N6        12.5460   40.8780   29.2660 N.pl3 135  A135       -0.1054
   2915  N7        11.0660   41.4360   31.9190 N.ar  135  A135       -0.2193
   2916  C8        10.5540   41.0680   33.0720 C.ar  135  A135        0.1816
   2917  N9        10.6960   39.7350   33.3300 N.ar  135  A135       -0.2693
   2918  OP1        7.6980   43.5080   37.3940 O.3   135  A135       -0.4373
   2919  OP2        8.4800   44.1220   35.0250 O.co2 135  A135       -0.5172
   2920  P         13.6420   39.9780   37.7400 P.3   136  C136        0.2141
   2921  C5'       14.5240   37.7160   36.8520 C.3   136  C136        0.1812
   2922  O5'       14.4730   39.1150   36.6840 O.3   136  C136       -0.3114
   2923  C4'       15.1300   37.0740   35.6280 C.3   136  C136        0.1773
   2924  O4'       14.3230   37.4140   34.4780 O.3   136  C136       -0.3307
   2925  C3'       16.5120   37.5780   35.2620 C.3   136  C136        0.1860
   2926  O3'       17.5060   36.9410   36.0510 O.3   136  C136       -0.3112
   2927  C2'       16.5730   37.1410   33.8010 C.3   136  C136        0.2309
   2928  O2'       16.8750   35.7730   33.6370 O.3   136  C136       -0.2156
   2929  C1'       15.1480   37.4190   33.3320 C.3   136  C136        0.2420
   2930  N1        15.0790   38.7460   32.6930 N.ar  136  C136       -0.2535
   2931  C2        15.6360   38.8940   31.4260 C.ar  136  C136        0.3532
   2932  O2        16.1410   37.9000   30.8960 O.2   136  C136       -0.2443
   2933  N3        15.5970   40.1080   30.8240 N.ar  136  C136       -0.1739
   2934  C4        15.0360   41.1380   31.4550 C.ar  136  C136        0.1759
   2935  N4        15.0170   42.3160   30.8300 N.pl3 136  C136       -0.1070
   2936  C5        14.4650   41.0060   32.7540 C.ar  136  C136        0.0566
   2937  C6        14.5090   39.8030   33.3350 C.ar  136  C136        0.0850
   2938  OP1       14.0990   39.5740   39.0880 O.3   136  C136       -0.4373
   2939  OP2       13.6780   41.4020   37.3220 O.co2 136  C136       -0.5172
   2940  P         18.7690   37.7910   36.5530 P.3   137  U137        0.2141
   2941  C5'       20.0400   36.6750   34.6170 C.3   137  U137        0.1812
   2942  O5'       19.6870   37.8770   35.2570 O.3   137  U137       -0.3114
   2943  C4'       20.6450   37.0010   33.2740 C.3   137  U137        0.1773
   2944  O4'       19.6230   37.5360   32.4040 O.3   137  U137       -0.3307
   2945  C3'       21.6930   38.0960   33.3010 C.3   137  U137        0.1860
   2946  O3'       22.9320   37.5520   33.7250 O.3   137  U137       -0.3112
   2947  C2'       21.7130   38.4210   31.8170 C.3   137  U137        0.2309
   2948  O2'       22.3760   37.3950   31.1000 O.3   137  U137       -0.2156
   2949  C1'       20.2190   38.4300   31.4940 C.3   137  U137        0.2420
   2950  N1        19.5350   39.7420   31.6740 N.ar  137  U137       -0.2534
   2951  C2        19.6520   40.7140   30.7010 C.ar  137  U137        0.3546
   2952  O2        20.3080   40.5560   29.6850 O.2   137  U137       -0.2443
   2953  N3        18.9800   41.8860   30.9610 N.ar  137  U137       -0.1530
   2954  C4        18.2100   42.1840   32.0720 C.ar  137  U137        0.2846
   2955  O4        17.6630   43.2840   32.1690 O.2   137  U137       -0.2650
   2956  C5        18.1340   41.1170   33.0380 C.ar  137  U137        0.0814
   2957  C6        18.7830   39.9670   32.8090 C.ar  137  U137        0.0870
   2958  OP1       19.5150   37.0010   37.5620 O.3   137  U137       -0.4373
   2959  OP2       18.2720   39.1550   36.8400 O.co2 137  U137       -0.5172
   2960  P         24.0040   38.4670   34.4740 P.3   138  G138        0.2141
   2961  C5'       25.5970   38.6800   32.4260 C.3   138  G138        0.1812
   2962  O5'       24.6780   39.3100   33.2960 O.3   138  G138       -0.3114
   2963  C4'       25.8520   39.5980   31.2560 C.3   138  G138        0.1773
   2964  O4'       24.5850   39.9070   30.6360 O.3   138  G138       -0.3307
   2965  C3'       26.3660   40.9780   31.6160 C.3   138  G138        0.1860
   2966  O3'       27.7610   40.9540   31.8760 O.3   138  G138       -0.3112
   2967  C2'       26.0680   41.6960   30.3090 C.3   138  G138        0.2309
   2968  O2'       26.9550   41.2950   29.2880 O.3   138  G138       -0.2156
   2969  C1'       24.6710   41.1720   30.0090 C.3   138  G138        0.2408
   2970  N1        21.9870   45.3940   29.2230 N.ar  138  G138       -0.1709
   2971  C2        22.9450   44.8130   28.4330 C.ar  138  G138        0.2606
   2972  N2        23.2210   45.4480   27.2800 N.pl3 138  G138       -0.0859
   2973  N3        23.5840   43.6940   28.7510 N.ar  138  G138       -0.1918
   2974  C4        23.1720   43.2010   29.9430 C.ar  138  G138        0.1723
   2975  C5        22.2250   43.7080   30.7980 C.ar  138  G138        0.1748
   2976  C6        21.5570   44.9030   30.4460 C.ar  138  G138        0.3023
   2977  O6        20.6840   45.5240   31.0660 O.2   138  G138       -0.2633
   2978  N7        22.0980   42.8950   31.9190 N.ar  138  G138       -0.2173
   2979  C8        22.9570   41.9310   31.7210 C.ar  138  G138        0.1817
   2980  N9        23.6410   42.0530   30.5390 N.ar  138  G138       -0.2693
   2981  OP1       25.0570   37.5960   35.0360 O.2   138  G138       -0.5172
   2982  OP2       23.2480   39.3960   35.3410 O.co2 138  G138       -0.4373
   2983  P         28.3760   42.0120   32.9080 P.3   139  U139        0.2141
   2984  C5'       28.9290   43.7250   31.0130 C.3   139  U139        0.1812
   2985  O5'       28.1720   43.4220   32.1710 O.3   139  U139       -0.3114
   2986  C4'       28.6420   45.1390   30.5600 C.3   139  U139        0.1773
   2987  O4'       27.2780   45.2210   30.0970 O.3   139  U139       -0.3307
   2988  C3'       28.6910   46.1930   31.6460 C.3   139  U139        0.1860
   2989  O3'       30.0330   46.5910   31.8420 O.3   139  U139       -0.3112
   2990  C2'       27.8960   47.2950   30.9700 C.3   139  U139        0.2309
   2991  O2'       28.6370   47.8900   29.9250 O.3   139  U139       -0.2156
   2992  C1'       26.7550   46.5060   30.3590 C.3   139  U139        0.2420
   2993  N1        25.6250   46.2900   31.2570 N.ar  139  U139       -0.2534
   2994  C2        24.6320   47.2350   31.3850 C.ar  139  U139        0.3546
   2995  O2        24.6480   48.2840   30.7770 O.2   139  U139       -0.2443
   2996  N3        23.6150   46.9150   32.2530 N.ar  139  U139       -0.1530
   2997  C4        23.5200   45.7430   32.9800 C.ar  139  U139        0.2846
   2998  O4        22.5740   45.5530   33.7300 O.2   139  U139       -0.2650
   2999  C5        24.5970   44.8060   32.7830 C.ar  139  U139        0.0814
   3000  C6        25.5910   45.1040   31.9460 C.ar  139  U139        0.0870
   3001  OP1       29.8270   41.7230   32.9990 O.2   139  U139       -0.5172
   3002  OP2       27.5080   42.0220   34.1130 O.co2 139  U139       -0.4373
   3003  P         30.5610   46.9380   33.3090 P.3   140  C140        0.2141
   3004  C5'       30.9770   49.4350   32.6410 C.3   140  C140        0.1812
   3005  O5'       30.2360   48.5040   33.4120 O.3   140  C140       -0.3114
   3006  C4'       30.1280   50.6560   32.3680 C.3   140  C140        0.1773
   3007  O4'       28.8610   50.2170   31.8440 O.3   140  C140       -0.3307
   3008  C3'       29.7030   51.4600   33.5790 C.3   140  C140        0.1860
   3009  O3'       30.7490   52.3140   33.9870 O.3   140  C140       -0.3112
   3010  C2'       28.5420   52.2460   32.9850 C.3   140  C140        0.2309
   3011  O2'       28.9600   53.2660   32.0980 O.3   140  C140       -0.2156
   3012  C1'       27.8510   51.1300   32.2170 C.3   140  C140        0.2420
   3013  N1        26.8870   50.3820   33.0400 N.ar  140  C140       -0.2535
   3014  C2        25.6130   50.9080   33.2430 C.ar  140  C140        0.3532
   3015  O2        25.3450   51.9910   32.7190 O.2   140  C140       -0.2443
   3016  N3        24.7250   50.2220   34.0030 N.ar  140  C140       -0.1739
   3017  C4        25.0900   49.0550   34.5360 C.ar  140  C140        0.1759
   3018  N4        24.1990   48.3990   35.2780 N.pl3 140  C140       -0.1070
   3019  C5        26.3890   48.4990   34.3400 C.ar  140  C140        0.0566
   3020  C6        27.2530   49.1900   33.5890 C.ar  140  C140        0.0850
   3021  OP1       32.0210   46.6910   33.3080 O.2   140  C140       -0.5172
   3022  OP2       29.7110   46.2510   34.3070 O.co2 140  C140       -0.4373
   3023  P         30.9490   52.6390   35.5400 P.3   141  G141        0.2141
   3024  C5'       29.7310   54.9220   35.2610 C.3   141  G141        0.1812
   3025  O5'       29.7290   53.6310   35.8320 O.3   141  G141       -0.3114
   3026  C4'       28.3960   55.5960   35.4920 C.3   141  G141        0.1773
   3027  O4'       27.3440   54.7470   34.9890 O.3   141  G141       -0.3307
   3028  C3'       27.9980   55.7460   36.9410 C.3   141  G141        0.1860
   3029  O3'       28.6550   56.8530   37.5030 O.3   141  G141       -0.3112
   3030  C2'       26.5100   56.0000   36.7830 C.3   141  G141        0.2309
   3031  O2'       26.2640   57.2680   36.2200 O.3   141  G141       -0.2156
   3032  C1'       26.1690   54.9310   35.7570 C.3   141  G141        0.2408
   3033  N1        22.5530   52.2130   38.1310 N.ar  141  G141       -0.1709
   3034  C2        22.5500   53.5390   37.7690 C.ar  141  G141        0.2606
   3035  N2        21.4430   54.2320   38.0740 N.pl3 141  G141       -0.0859
   3036  N3        23.5560   54.1510   37.1500 N.ar  141  G141       -0.1918
   3037  C4        24.5910   53.3070   36.9180 C.ar  141  G141        0.1723
   3038  C5        24.6930   51.9720   37.2410 C.ar  141  G141        0.1748
   3039  C6        23.6110   51.3350   37.9000 C.ar  141  G141        0.3023
   3040  O6        23.5310   50.1480   38.2610 O.2   141  G141       -0.2633
   3041  N7        25.9200   51.4580   36.8350 N.ar  141  G141       -0.2173
   3042  C8        26.5240   52.4760   36.2840 C.ar  141  G141        0.1817
   3043  N9        25.7790   53.6320   36.3010 N.ar  141  G141       -0.2693
   3044  OP1       32.2470   53.3490   35.6380 O.2   141  G141       -0.5172
   3045  OP2       30.7360   51.4160   36.3530 O.co2 141  G141       -0.4373
   3046  P         29.0580   56.7970   39.0490 P.3   142  C142        0.2141
   3047  C5'       26.8340   58.0350   39.5880 C.3   142  C142        0.1812
   3048  O5'       27.6230   56.8640   39.7630 O.3   142  C142       -0.3114
   3049  C4'       25.5270   57.9530   40.3550 C.3   142  C142        0.1773
   3050  O4'       24.6160   57.0250   39.7070 O.3   142  C142       -0.3307
   3051  C3'       25.6020   57.4080   41.7750 C.3   142  C142        0.1860
   3052  O3'       26.0870   58.3750   42.6950 O.3   142  C142       -0.3112
   3053  C2'       24.1190   57.1530   41.9880 C.3   142  C142        0.2309
   3054  O2'       23.3970   58.3690   42.0480 O.3   142  C142       -0.2156
   3055  C1'       23.8060   56.4100   40.6940 C.3   142  C142        0.2420
   3056  N1        24.1280   54.9540   40.7650 N.ar  142  C142       -0.2535
   3057  C2        23.1710   54.0660   41.2700 C.ar  142  C142        0.3532
   3058  O2        22.0790   54.5230   41.6390 O.2   142  C142       -0.2443
   3059  N3        23.4590   52.7400   41.3370 N.ar  142  C142       -0.1739
   3060  C4        24.6450   52.3010   40.9220 C.ar  142  C142        0.1759
   3061  N4        24.8950   50.9930   41.0080 N.pl3 142  C142       -0.1070
   3062  C5        25.6320   53.1890   40.4060 C.ar  142  C142        0.0566
   3063  C6        25.3390   54.4950   40.3470 C.ar  142  C142        0.0850
   3064  OP1       29.7990   58.0480   39.3190 O.2   142  C142       -0.5172
   3065  OP2       29.6920   55.4850   39.3490 O.co2 142  C142       -0.4373
   3066  P         27.0550   57.9150   43.8870 P.3   143  G143        0.2141
   3067  C5'       24.8300   57.5940   45.2550 C.3   143  G143        0.1812
   3068  O5'       26.0750   57.0560   44.8140 O.3   143  G143       -0.3114
   3069  C4'       24.0170   56.4920   45.9020 C.3   143  G143        0.1773
   3070  O4'       23.5300   55.5770   44.8890 O.3   143  G143       -0.3307
   3071  C3'       24.8020   55.5840   46.8310 C.3   143  G143        0.1860
   3072  O3'       24.9880   56.2220   48.0840 O.3   143  G143       -0.3112
   3073  C2'       23.8080   54.4370   46.9200 C.3   143  G143        0.2309
   3074  O2'       22.6830   54.7870   47.7040 O.3   143  G143       -0.2156
   3075  C1'       23.4410   54.2780   45.4430 C.3   143  G143        0.2408
   3076  N1        24.8730   49.4720   44.7310 N.ar  143  G143       -0.1709
   3077  C2        23.7640   49.9680   45.3770 C.ar  143  G143        0.2606
   3078  N2        22.9340   49.0580   45.9120 N.pl3 143  G143       -0.0859
   3079  N3        23.4890   51.2640   45.4890 N.ar  143  G143       -0.1918
   3080  C4        24.4300   52.0310   44.8910 C.ar  143  G143        0.1723
   3081  C5        25.5650   51.6330   44.2190 C.ar  143  G143        0.1748
   3082  C6        25.8460   50.2500   44.1050 C.ar  143  G143        0.3023
   3083  O6        26.8100   49.7070   43.5400 O.2   143  G143       -0.2633
   3084  N7        26.2730   52.7330   43.7480 N.ar  143  G143       -0.2173
   3085  C8        25.5600   53.7560   44.1420 C.ar  143  G143        0.1817
   3086  N9        24.4250   53.4020   44.8300 N.ar  143  G143       -0.2693
   3087  OP1       27.4420   59.1500   44.6070 O.3   143  G143       -0.4373
   3088  OP2       28.0850   56.9720   43.3860 O.co2 143  G143       -0.5172
   3089  P         26.3470   56.0600   48.9220 P.3   144  A144        0.2141
   3090  C5'       27.2000   54.0370   50.3250 C.3   144  A144        0.1812
   3091  O5'       26.0930   54.7640   49.8220 O.3   144  A144       -0.3114
   3092  C4'       26.6790   53.0050   51.3010 C.3   144  A144        0.1773
   3093  O4'       25.9880   53.6830   52.3760 O.3   144  A144       -0.3307
   3094  C3'       25.6580   52.0590   50.6920 C.3   144  A144        0.1860
   3095  O3'       26.3380   50.8820   50.2810 O.3   144  A144       -0.3112
   3096  C2'       24.6790   51.7810   51.8300 C.3   144  A144        0.2309
   3097  O2'       25.1000   50.6610   52.5820 O.3   144  A144       -0.2156
   3098  C1'       24.7720   53.0360   52.6930 C.3   144  A144        0.2408
   3099  N1        20.0270   54.7150   53.8910 N.ar  144  A144       -0.2040
   3100  C2        20.7020   53.6200   54.2540 C.ar  144  A144        0.2016
   3101  N3        21.9300   53.2330   53.9060 N.ar  144  A144       -0.2048
   3102  C4        22.4990   54.1210   53.0820 C.ar  144  A144        0.1692
   3103  C5        21.9310   55.2910   52.6210 C.ar  144  A144        0.1518
   3104  C6        20.6270   55.5880   53.0590 C.ar  144  A144        0.1919
   3105  N6        19.9620   56.6860   52.6920 N.pl3 144  A144       -0.1054
   3106  N7        22.8070   55.9610   51.7860 N.ar  144  A144       -0.2193
   3107  C8        23.8710   55.1900   51.7640 C.ar  144  A144        0.1816
   3108  N9        23.7500   54.0580   52.5160 N.ar  144  A144       -0.2693
   3109  OP1       26.3920   57.2420   49.8130 O.3   144  A144       -0.4373
   3110  OP2       27.4760   55.7340   48.0180 O.co2 144  A144       -0.5172
   3111  P         26.1810   50.3930   48.7680 P.3   145  A145        0.2141
   3112  C5'       25.0530   48.2310   49.5380 C.3   145  A145        0.1812
   3113  O5'       24.8880   49.4810   48.9040 O.3   145  A145       -0.3114
   3114  C4'       23.7270   47.8420   50.1420 C.3   145  A145        0.1773
   3115  O4'       23.2400   48.9720   50.9030 O.3   145  A145       -0.3307
   3116  C3'       22.6590   47.5280   49.1100 C.3   145  A145        0.1860
   3117  O3'       22.6090   46.1240   48.9700 O.3   145  A145       -0.3112
   3118  C2'       21.3820   48.0400   49.7540 C.3   145  A145        0.2309
   3119  O2'       20.7830   47.0050   50.5000 O.3   145  A145       -0.2156
   3120  C1'       21.8540   49.1280   50.7140 C.3   145  A145        0.2408
   3121  N1        19.0180   53.3790   51.0810 N.ar  145  A145       -0.2040
   3122  C2        18.9180   52.1780   51.6640 C.ar  145  A145        0.2016
   3123  N3        19.6950   51.1070   51.5230 N.ar  145  A145       -0.2048
   3124  C4        20.6840   51.3590   50.6570 C.ar  145  A145        0.1692
   3125  C5        20.9210   52.5370   49.9770 C.ar  145  A145        0.1518
   3126  C6        20.0290   53.5960   50.2180 C.ar  145  A145        0.1919
   3127  N6        20.1270   54.7930   49.6380 N.pl3 145  A145       -0.1054
   3128  N7        22.0420   52.4200   49.1710 N.ar  145  A145       -0.2193
   3129  C8        22.4540   51.1870   49.3780 C.ar  145  A145        0.1816
   3130  N9        21.6710   50.4940   50.2590 N.ar  145  A145       -0.2693
   3131  OP1       27.3160   49.4950   48.4350 O.3   145  A145       -0.4373
   3132  OP2       25.8550   51.5720   47.9220 O.co2 145  A145       -0.5172
   3133  P         22.2490   45.4530   47.5660 P.3   146  A146        0.2141
   3134  C5'       19.9660   44.6640   48.4760 C.3   146  A146        0.1812
   3135  O5'       20.6520   45.5260   47.5900 O.3   146  A146       -0.3114
   3136  C4'       18.5420   45.1340   48.6450 C.3   146  A146        0.1773
   3137  O4'       18.5470   46.4180   49.3030 O.3   146  A146       -0.3307
   3138  C3'       17.8180   45.3660   47.3370 C.3   146  A146        0.1860
   3139  O3'       17.1950   44.1550   46.9620 O.3   146  A146       -0.3112
   3140  C2'       16.7880   46.4030   47.7540 C.3   146  A146        0.2309
   3141  O2'       15.7120   45.7850   48.4280 O.3   146  A146       -0.2156
   3142  C1'       17.5890   47.2730   48.7210 C.3   146  A146        0.2408
   3143  N1        17.9810   52.3850   48.0160 N.ar  146  A146       -0.2040
   3144  C2        17.1240   51.6460   48.7300 C.ar  146  A146        0.2016
   3145  N3        17.0730   50.3180   48.8740 N.ar  146  A146       -0.2048
   3146  C4        18.0490   49.7160   48.1780 C.ar  146  A146        0.1692
   3147  C5        19.0010   50.3390   47.3970 C.ar  146  A146        0.1518
   3148  C6        18.9510   51.7440   47.3250 C.ar  146  A146        0.1919
   3149  N6        19.8190   52.4590   46.6050 N.pl3 146  A146       -0.1054
   3150  N7        19.8480   49.4080   46.8230 N.ar  146  A146       -0.2193
   3151  C8        19.4000   48.2550   47.2640 C.ar  146  A146        0.1816
   3152  N9        18.3120   48.3680   48.0840 N.ar  146  A146       -0.2693
   3153  OP1       22.6690   44.0340   47.6650 O.3   146  A146       -0.4373
   3154  OP2       22.7410   46.2990   46.4520 O.co2 146  A146       -0.5172
   3155  P         16.8820   43.8480   45.4250 P.3   147  G147        0.2141
   3156  C5'       15.7550   45.6440   43.8770 C.3   147  G147        0.1812
   3157  O5'       15.7520   44.9350   45.1030 O.3   147  G147       -0.3114
   3158  C4'       15.6950   47.1360   44.1340 C.3   147  G147        0.1773
   3159  O4'       16.8830   47.5280   44.8550 O.3   147  G147       -0.3307
   3160  C3'       15.6880   48.0020   42.8820 C.3   147  G147        0.1860
   3161  O3'       14.3510   48.2220   42.4410 O.3   147  G147       -0.3112
   3162  C2'       16.3230   49.2930   43.3790 C.3   147  G147        0.2309
   3163  O2'       15.4010   50.1190   44.0500 O.3   147  G147       -0.2156
   3164  C1'       17.3360   48.7840   44.3880 C.3   147  G147        0.2408
   3165  N1        21.5300   50.9830   42.4970 N.ar  147  G147       -0.1709
   3166  C2        20.3610   51.5600   42.9340 C.ar  147  G147        0.2606
   3167  N2        20.2890   52.8950   42.8650 N.pl3 147  G147       -0.0859
   3168  N3        19.3240   50.8920   43.4110 N.ar  147  G147       -0.1918
   3169  C4        19.5520   49.5640   43.4130 C.ar  147  G147        0.1723
   3170  C5        20.6780   48.8920   43.0010 C.ar  147  G147        0.1748
   3171  C6        21.7820   49.6130   42.4950 C.ar  147  G147        0.3023
   3172  O6        22.8680   49.1640   42.0820 O.2   147  G147       -0.2633
   3173  N7        20.5160   47.5260   43.1660 N.ar  147  G147       -0.2173
   3174  C8        19.3160   47.4000   43.6650 C.ar  147  G147        0.1817
   3175  N9        18.6720   48.5960   43.8410 N.ar  147  G147       -0.2693
   3176  OP1       16.2650   42.5010   45.3870 O.3   147  G147       -0.4373
   3177  OP2       18.0800   44.1290   44.6010 O.co2 147  G147       -0.5172
   3178  P         14.0260   48.3470   40.8760 P.3   148  C148        0.2141
   3179  C5'       13.8830   50.9430   41.0340 C.3   148  C148        0.1812
   3180  O5'       14.5550   49.8130   40.5070 O.3   148  C148       -0.3114
   3181  C4'       14.7020   52.1840   40.7600 C.3   148  C148        0.1773
   3182  O4'       15.9900   52.0600   41.4000 O.3   148  C148       -0.3307
   3183  C3'       15.0810   52.3850   39.3040 C.3   148  C148        0.1860
   3184  O3'       14.0150   52.9760   38.5930 O.3   148  C148       -0.3112
   3185  C2'       16.2680   53.3300   39.4220 C.3   148  C148        0.2309
   3186  O2'       15.8900   54.6430   39.7740 O.3   148  C148       -0.2156
   3187  C1'       16.9760   52.7020   40.6050 C.3   148  C148        0.2420
   3188  N1        18.0110   51.7160   40.2290 N.ar  148  C148       -0.2535
   3189  C2        19.2350   52.1820   39.7610 C.ar  148  C148        0.3532
   3190  O2        19.3880   53.4030   39.6670 O.2   148  C148       -0.2443
   3191  N3        20.2040   51.2920   39.4290 N.ar  148  C148       -0.1739
   3192  C4        19.9660   49.9880   39.5620 C.ar  148  C148        0.1759
   3193  N4        20.9340   49.1360   39.2270 N.pl3 148  C148       -0.1070
   3194  C5        18.7200   49.4920   40.0430 C.ar  148  C148        0.0566
   3195  C6        17.7760   50.3830   40.3650 C.ar  148  C148        0.0850
   3196  OP1       12.5540   48.3790   40.7010 O.3   148  C148       -0.4373
   3197  OP2       14.8680   47.3360   40.1880 O.co2 148  C148       -0.5172
   3198  P         13.8660   52.6130   37.0460 P.3   149  G149        0.2141
   3199  C5'       15.0890   54.8680   36.4830 C.3   149  G149        0.1812
   3200  O5'       15.0840   53.4390   36.4010 O.3   149  G149       -0.3114
   3201  C4'       16.3590   55.4610   35.8890 C.3   149  G149        0.1773
   3202  O4'       17.5150   55.0230   36.6470 O.3   149  G149       -0.3307
   3203  C3'       16.7010   55.0350   34.4660 C.3   149  G149        0.1860
   3204  O3'       15.9700   55.7830   33.5080 O.3   149  G149       -0.3112
   3205  C2'       18.1780   55.3930   34.4250 C.3   149  G149        0.2309
   3206  O2'       18.3830   56.7910   34.4250 O.3   149  G149       -0.2156
   3207  C1'       18.6160   54.8400   35.7710 C.3   149  G149        0.2408
   3208  N1        22.3090   51.4690   34.7800 N.ar  149  G149       -0.1709
   3209  C2        22.2950   52.8260   34.5990 C.ar  149  G149        0.2606
   3210  N2        23.4120   53.3690   34.0960 N.pl3 149  G149       -0.0859
   3211  N3        21.2610   53.6030   34.8950 N.ar  149  G149       -0.1918
   3212  C4        20.2170   52.9020   35.3960 C.ar  149  G149        0.1723
   3213  C5        20.1300   51.5490   35.6110 C.ar  149  G149        0.1748
   3214  C6        21.2450   50.7340   35.2910 C.ar  149  G149        0.3023
   3215  O6        21.3690   49.5080   35.4080 O.2   149  G149       -0.2633
   3216  N7        18.8850   51.2210   36.1330 N.ar  149  G149       -0.2173
   3217  C8        18.2560   52.3620   36.2240 C.ar  149  G149        0.1817
   3218  N9        19.0050   53.4290   35.7880 N.ar  149  G149       -0.2693
   3219  OP1       12.5660   53.1740   36.6090 O.2   149  G149       -0.5172
   3220  OP2       14.1350   51.1640   36.8650 O.co2 149  G149       -0.4373
   3221  P         15.6670   55.1450   32.0750 P.3   150  G150        0.2141
   3222  C5'       17.6760   56.5570   31.2080 C.3   150  G150        0.1812
   3223  O5'       17.1100   55.2680   31.3880 O.3   150  G150       -0.3114
   3224  C4'       19.0190   56.4830   30.4970 C.3   150  G150        0.1773
   3225  O4'       20.0000   55.8490   31.3590 O.3   150  G150       -0.3307
   3226  C3'       19.0510   55.6540   29.2190 C.3   150  G150        0.1860
   3227  O3'       18.6330   56.4330   28.0970 O.3   150  G150       -0.3112
   3228  C2'       20.5340   55.3180   29.1350 C.3   150  G150        0.2309
   3229  O2'       21.2940   56.4290   28.7020 O.3   150  G150       -0.2156
   3230  C1'       20.8630   55.0280   30.5920 C.3   150  G150        0.2408
   3231  N1        23.1630   50.5120   30.7430 N.ar  150  G150       -0.1709
   3232  C2        23.5860   51.7020   30.2130 C.ar  150  G150        0.2606
   3233  N2        24.8000   51.7030   29.6420 N.pl3 150  G150       -0.0859
   3234  N3        22.8780   52.8160   30.2400 N.ar  150  G150       -0.1918
   3235  C4        21.6870   52.6440   30.8510 C.ar  150  G150        0.1723
   3236  C5        21.1680   51.5000   31.4090 C.ar  150  G150        0.1748
   3237  C6        21.9440   50.3080   31.3750 C.ar  150  G150        0.3023
   3238  O6        21.6830   49.1720   31.8120 O.2   150  G150       -0.2633
   3239  N7        19.9020   51.7560   31.9290 N.ar  150  G150       -0.2173
   3240  C8        19.6940   53.0240   31.6790 C.ar  150  G150        0.1817
   3241  N9        20.7380   53.6280   31.0190 N.ar  150  G150       -0.2693
   3242  OP1       14.7080   56.0440   31.3890 O.2   150  G150       -0.5172
   3243  OP2       15.3190   53.7100   32.2350 O.co2 150  G150       -0.4373
   3244  P         17.8110   55.7460   26.8990 P.3   151  A151        0.2141
   3245  C5'       20.0740   54.5820   26.5410 C.3   151  A151        0.1812
   3246  O5'       18.9990   55.2620   25.9430 O.3   151  A151       -0.3114
   3247  C4'       21.2580   54.4590   25.6190 C.3   151  A151        0.1773
   3248  O4'       22.0900   53.4050   26.1550 O.3   151  A151       -0.3307
   3249  C3'       20.9160   53.9330   24.2430 C.3   151  A151        0.1860
   3250  O3'       22.1050   53.8710   23.4900 O.3   151  A151       -0.3112
   3251  C2'       20.4940   52.5310   24.6300 C.3   151  A151        0.2309
   3252  O2'       20.5430   51.6210   23.5460 O.3   151  A151       -0.2156
   3253  C1'       21.5330   52.1860   25.7060 C.3   151  A151        0.2408
   3254  N1        21.5320   48.1820   28.9450 N.ar  151  A151       -0.2040
   3255  C2        22.4260   48.5800   28.0380 C.ar  151  A151        0.2016
   3256  N3        22.3810   49.6330   27.2290 N.ar  151  A151       -0.2048
   3257  C4        21.2540   50.3250   27.4200 C.ar  151  A151        0.1692
   3258  C5        20.2480   50.0400   28.3160 C.ar  151  A151        0.1518
   3259  C6        20.4090   48.9050   29.1110 C.ar  151  A151        0.1919
   3260  N6        19.4990   48.5380   30.0160 N.pl3 151  A151       -0.1054
   3261  N7        19.2320   50.9690   28.2510 N.ar  151  A151       -0.2193
   3262  C8        19.6400   51.7920   27.3180 C.ar  151  A151        0.1816
   3263  N9        20.8560   51.4720   26.7820 N.ar  151  A151       -0.2693
   3264  OP1       17.0350   56.8110   26.2240 O.2   151  A151       -0.5172
   3265  OP2       17.1140   54.5360   27.3970 O.co2 151  A151       -0.4373
   3266  P         22.1080   53.4020   21.9640 P.3   152  G152        0.2141
   3267  C5'       24.3430   52.1210   21.6930 C.3   152  G152        0.1812
   3268  O5'       22.9620   52.0440   21.9920 O.3   152  G152       -0.3114
   3269  C4'       24.8080   50.8580   21.0010 C.3   152  G152        0.1773
   3270  O4'       25.2240   49.9340   22.0160 O.3   152  G152       -0.3307
   3271  C3'       23.7250   50.1210   20.2300 C.3   152  G152        0.1860
   3272  O3'       23.6640   50.5240   18.8230 O.3   152  G152       -0.3112
   3273  C2'       24.0020   48.6310   20.4780 C.3   152  G152        0.2309
   3274  O2'       24.4590   47.9530   19.3260 O.3   152  G152       -0.2156
   3275  C1'       25.1190   48.6270   21.5150 C.3   152  G152        0.2408
   3276  N1        26.4070   44.2100   23.6600 N.ar  152  G152       -0.1709
   3277  C2        26.7900   44.7490   22.4530 C.ar  152  G152        0.2606
   3278  N2        27.6340   44.0240   21.7010 N.pl3 152  G152       -0.0859
   3279  N3        26.3750   45.9240   22.0040 N.ar  152  G152       -0.1918
   3280  C4        25.5330   46.5310   22.8650 C.ar  152  G152        0.1723
   3281  C5        25.0910   46.0850   24.0860 C.ar  152  G152        0.1748
   3282  C6        25.5370   44.8260   24.5590 C.ar  152  G152        0.3023
   3283  O6        25.2500   44.2600   25.6240 O.2   152  G152       -0.2633
   3284  N7        24.2310   47.0140   24.6600 N.ar  152  G152       -0.2173
   3285  C8        24.1720   47.9800   23.7830 C.ar  152  G152        0.1817
   3286  N9        24.9350   47.7500   22.6660 N.ar  152  G152       -0.2693
   3287  OP1       22.8890   54.4500   21.2660 O.2   152  G152       -0.5172
   3288  OP2       20.7310   53.0700   21.5320 O.co2 152  G152       -0.4373
   3289  P         24.8930   50.6520   17.7960 P.3   153  A153        0.2141
   3290  C5'       26.9280   52.2790   17.8090 C.3   153  A153        0.1812
   3291  O5'       25.5220   52.1050   18.0240 O.3   153  A153       -0.3114
   3292  C4'       27.4170   53.6660   18.1930 C.3   153  A153        0.1773
   3293  O4'       26.8530   54.6130   17.2550 O.3   153  A153       -0.3307
   3294  C3'       26.9940   54.1490   19.5770 C.3   153  A153        0.1860
   3295  O3'       27.9050   55.0880   20.1140 O.3   153  A153       -0.3112
   3296  C2'       25.6830   54.8520   19.2790 C.3   153  A153        0.2309
   3297  O2'       25.3960   55.8520   20.2330 O.3   153  A153       -0.2156
   3298  C1'       25.9920   55.5000   17.9360 C.3   153  A153        0.2408
   3299  N1        22.8390   58.9520   15.7590 N.ar  153  A153       -0.2040
   3300  C2        23.9750   59.0880   16.4530 C.ar  153  A153        0.2016
   3301  N3        24.7510   58.1460   16.9900 N.ar  153  A153       -0.2048
   3302  C4        24.2510   56.9240   16.7590 C.ar  153  A153        0.1692
   3303  C5        23.0950   56.6220   16.0660 C.ar  153  A153        0.1518
   3304  C6        22.3600   57.7090   15.5410 C.ar  153  A153        0.1919
   3305  N6        21.2220   57.5720   14.8470 N.pl3 153  A153       -0.1054
   3306  N7        22.8970   55.2510   16.0300 N.ar  153  A153       -0.2193
   3307  C8        23.9200   54.7600   16.6930 C.ar  153  A153        0.1816
   3308  N9        24.7790   55.7160   17.1570 N.ar  153  A153       -0.2693
   3309  OP1       24.2590   50.6250   16.4690 O.2   153  A153       -0.5172
   3310  OP2       25.9310   49.6510   18.1080 O.co2 153  A153       -0.4373
   3311  P         29.2010   54.6210   20.9280 P.3   154  G154        0.2141
   3312  C5'       27.7670   54.3200   23.0560 C.3   154  G154        0.1812
   3313  O5'       28.5980   53.7060   22.0890 O.3   154  G154       -0.3114
   3314  C4'       27.4000   53.3560   24.1660 C.3   154  G154        0.1773
   3315  O4'       26.6990   52.2240   23.5950 O.3   154  G154       -0.3307
   3316  C3'       28.5700   52.7490   24.9200 C.3   154  G154        0.1860
   3317  O3'       28.9900   53.6270   25.9470 O.3   154  G154       -0.3112
   3318  C2'       27.8970   51.5130   25.4980 C.3   154  G154        0.2309
   3319  O2'       27.0860   51.8220   26.6170 O.3   154  G154       -0.2156
   3320  C1'       27.0510   51.0580   24.3060 C.3   154  G154        0.2408
   3321  N1        29.0380   46.4460   23.7130 N.ar  154  G154       -0.1709
   3322  C2        28.3240   46.9720   24.7660 C.ar  154  G154        0.2606
   3323  N2        28.0940   46.1800   25.8230 N.pl3 154  G154       -0.0859
   3324  N3        27.8530   48.2040   24.7900 N.ar  154  G154       -0.1918
   3325  C4        28.1590   48.8860   23.6640 C.ar  154  G154        0.1723
   3326  C5        28.8580   48.4600   22.5640 C.ar  154  G154        0.1748
   3327  C6        29.3550   47.1360   22.5440 C.ar  154  G154        0.3023
   3328  O6        30.0020   46.5710   21.6500 O.2   154  G154       -0.2633
   3329  N7        28.9470   49.4780   21.6220 N.ar  154  G154       -0.2173
   3330  C8        28.3090   50.4770   22.1660 C.ar  154  G154        0.1817
   3331  N9        27.8000   50.1860   23.4070 N.ar  154  G154       -0.2693
   3332  OP1       29.7400   55.8540   21.5470 O.3   154  G154       -0.4373
   3333  OP2       30.0710   53.7710   20.0810 O.co2 154  G154       -0.5172
   3334  P         30.5330   53.7180   26.3820 P.3   155  C155        0.2141
   3335  C5'       30.2510   51.9180   28.2490 C.3   155  C155        0.1812
   3336  O5'       30.8410   52.2780   27.0110 O.3   155  C155       -0.3114
   3337  C4'       30.4660   50.4490   28.5500 C.3   155  C155        0.1773
   3338  O4'       29.8740   49.6460   27.5020 O.3   155  C155       -0.3307
   3339  C3'       31.9160   50.0050   28.5740 C.3   155  C155        0.1860
   3340  O3'       32.5050   50.3390   29.8310 O.3   155  C155       -0.3112
   3341  C2'       31.7490   48.4980   28.3700 C.3   155  C155        0.2309
   3342  O2'       31.3630   47.7880   29.5340 O.3   155  C155       -0.2156
   3343  C1'       30.6120   48.4530   27.3550 C.3   155  C155        0.2420
   3344  N1        31.1400   48.3930   25.9870 N.ar  155  C155       -0.2535
   3345  C2        31.7480   47.2170   25.5550 C.ar  155  C155        0.3532
   3346  O2        31.8010   46.2670   26.3420 O.2   155  C155       -0.2443
   3347  N3        32.2550   47.1540   24.2990 N.ar  155  C155       -0.1739
   3348  C4        32.1640   48.2190   23.5020 C.ar  155  C155        0.1759
   3349  N4        32.6620   48.1340   22.2680 N.pl3 155  C155       -0.1070
   3350  C5        31.5490   49.4250   23.9330 C.ar  155  C155        0.0566
   3351  C6        31.0560   49.4760   25.1730 C.ar  155  C155        0.0850
   3352  OP1       30.5750   54.7290   27.4620 O.3   155  C155       -0.4373
   3353  OP2       31.3920   53.8750   25.1790 O.co2 155  C155       -0.5172
   3354  P         33.9950   50.9190   29.9030 P.3   156  C156        0.2141
   3355  C5'       34.7230   48.5640   30.7590 C.3   156  C156        0.1812
   3356  O5'       34.9250   49.6220   29.8410 O.3   156  C156       -0.3114
   3357  C4'       35.4660   47.3280   30.2920 C.3   156  C156        0.1773
   3358  O4'       34.7990   46.7470   29.1470 O.3   156  C156       -0.3307
   3359  C3'       36.8720   47.5850   29.7810 C.3   156  C156        0.1860
   3360  O3'       37.7600   47.6720   30.8650 O.3   156  C156       -0.3112
   3361  C2'       37.1200   46.3170   28.9820 C.3   156  C156        0.2309
   3362  O2'       37.3740   45.2090   29.8190 O.3   156  C156       -0.2156
   3363  C1'       35.7710   46.1630   28.2980 C.3   156  C156        0.2420
   3364  N1        35.7420   46.8790   27.0170 N.ar  156  C156       -0.2535
   3365  C2        36.4220   46.3410   25.9300 C.ar  156  C156        0.3532
   3366  O2        37.0220   45.2770   26.0860 O.2   156  C156       -0.2443
   3367  N3        36.4010   46.9910   24.7460 N.ar  156  C156       -0.1739
   3368  C4        35.7340   48.1370   24.6460 C.ar  156  C156        0.1759
   3369  N4        35.7340   48.7560   23.4660 N.pl3 156  C156       -0.1070
   3370  C5        35.0300   48.7050   25.7460 C.ar  156  C156        0.0566
   3371  C6        35.0590   48.0500   26.9100 C.ar  156  C156        0.0850
   3372  OP1       34.1320   51.5330   31.2380 O.3   156  C156       -0.4373
   3373  OP2       34.2670   51.7070   28.6790 O.co2 156  C156       -0.5172
   3374  P         38.9530   48.7340   30.8340 P.3   157  G157        0.2141
   3375  C5'       40.5350   46.7220   30.3280 C.3   157  G157        0.1812
   3376  O5'       40.0690   48.0080   29.9460 O.3   157  G157       -0.3114
   3377  C4'       41.3540   46.1070   29.2140 C.3   157  G157        0.1773
   3378  O4'       40.5160   45.8540   28.0640 O.3   157  G157       -0.3307
   3379  C3'       42.4260   47.0100   28.6360 C.3   157  G157        0.1860
   3380  O3'       43.5430   47.0570   29.5070 O.3   157  G157       -0.3112
   3381  C2'       42.7320   46.2880   27.3260 C.3   157  G157        0.2309
   3382  O2'       43.5370   45.1370   27.4990 O.3   157  G157       -0.2156
   3383  C1'       41.3310   45.8560   26.9060 C.3   157  G157        0.2408
   3384  N1        41.0450   47.4630   22.0620 N.ar  157  G157       -0.1709
   3385  C2        41.8960   46.5320   22.6090 C.ar  157  G157        0.2606
   3386  N2        42.7620   45.9700   21.7470 N.pl3 157  G157       -0.0859
   3387  N3        41.8930   46.1820   23.8980 N.ar  157  G157       -0.1918
   3388  C4        40.9500   46.8510   24.6000 C.ar  157  G157        0.1723
   3389  C5        40.0620   47.7910   24.1410 C.ar  157  G157        0.1748
   3390  C6        40.0750   48.1510   22.7750 C.ar  157  G157        0.3023
   3391  O6        39.3550   48.9690   22.1910 O.2   157  G157       -0.2633
   3392  N7        39.2560   48.2490   25.1720 N.ar  157  G157       -0.2173
   3393  C8        39.6610   47.5930   26.2200 C.ar  157  G157        0.1817
   3394  N9        40.6850   46.7310   25.9440 N.ar  157  G157       -0.2693
   3395  OP1       39.4060   48.8490   32.2390 O.3   157  G157       -0.4373
   3396  OP2       38.5320   49.9430   30.0870 O.co2 157  G157       -0.5172
   3397  P         44.4900   48.3460   29.5010 P.3   158  U158        0.2141
   3398  C5'       46.0120   46.9360   27.9090 C.3   158  U158        0.1812
   3399  O5'       45.3050   48.1530   28.1360 O.3   158  U158       -0.3114
   3400  C4'       46.6910   46.9620   26.5550 C.3   158  U158        0.1773
   3401  O4'       45.7160   46.6980   25.5230 O.3   158  U158       -0.3307
   3402  C3'       47.2630   48.3150   26.1750 C.3   158  U158        0.1860
   3403  O3'       48.5570   48.4720   26.7320 O.3   158  U158       -0.3112
   3404  C2'       47.2900   48.2440   24.6490 C.3   158  U158        0.2309
   3405  O2'       48.4030   47.5480   24.1210 O.3   158  U158       -0.2156
   3406  C1'       46.0150   47.4620   24.3710 C.3   158  U158        0.2420
   3407  N1        44.8850   48.3610   24.1310 N.ar  158  U158       -0.2534
   3408  C2        44.6680   48.8170   22.8520 C.ar  158  U158        0.3546
   3409  O2        45.3670   48.5070   21.9070 O.2   158  U158       -0.2443
   3410  N3        43.5930   49.6550   22.7150 N.ar  158  U158       -0.1530
   3411  C4        42.7420   50.0680   23.7200 C.ar  158  U158        0.2846
   3412  O4        41.8190   50.8250   23.4430 O.2   158  U158       -0.2650
   3413  C5        43.0390   49.5470   25.0300 C.ar  158  U158        0.0814
   3414  C6        44.0820   48.7290   25.1870 C.ar  158  U158        0.0870
   3415  OP1       45.4010   48.2030   30.6570 O.3   158  U158       -0.4373
   3416  OP2       43.6650   49.5700   29.3720 O.co2 158  U158       -0.5172
   3417  P         49.2720   49.8990   26.6200 P.3   159  C159        0.2141
   3418  C5'       49.8100   51.0660   24.4130 C.3   159  C159        0.1812
   3419  O5'       49.8040   49.8560   25.1140 O.3   159  C159       -0.3114
   3420  C4'       49.9690   50.8500   22.9290 C.3   159  C159        0.1773
   3421  O4'       48.7870   50.2140   22.3880 O.3   159  C159       -0.3307
   3422  C3'       50.0870   52.1870   22.2250 C.3   159  C159        0.1860
   3423  O3'       51.4570   52.4720   22.0220 O.3   159  C159       -0.3112
   3424  C2'       49.2810   52.0230   20.9360 C.3   159  C159        0.2309
   3425  O2'       50.0330   51.5200   19.8500 O.3   159  C159       -0.2156
   3426  C1'       48.2160   51.0210   21.3690 C.3   159  C159        0.2420
   3427  N1        46.9670   51.6530   21.9040 N.ar  159  C159       -0.2535
   3428  C2        46.1390   52.4310   21.0750 C.ar  159  C159        0.3532
   3429  O2        46.4520   52.6000   19.8920 O.2   159  C159       -0.2443
   3430  N3        45.0090   52.9840   21.5890 N.ar  159  C159       -0.1739
   3431  C4        44.7040   52.7740   22.8750 C.ar  159  C159        0.1759
   3432  N4        43.5850   53.3230   23.3620 N.pl3 159  C159       -0.1070
   3433  C5        45.5320   51.9860   23.7340 C.ar  159  C159        0.0566
   3434  C6        46.6410   51.4500   23.2140 C.ar  159  C159        0.0850
   3435  OP1       50.3990   49.8960   27.5850 O.3   159  C159       -0.4373
   3436  OP2       48.2510   50.9750   26.6820 O.co2 159  C159       -0.5172
   3437  P         51.9850   53.9260   22.4300 P.3   160  C160        0.2141
   3438  C5'       51.0810   54.1350   20.0130 C.3   160  C160        0.1812
   3439  O5'       51.9410   54.6680   21.0100 O.3   160  C160       -0.3114
   3440  C4'       50.8060   55.1440   18.9210 C.3   160  C160        0.1773
   3441  O4'       49.4210   55.0130   18.5160 O.3   160  C160       -0.3307
   3442  C3'       50.9730   56.5870   19.3610 C.3   160  C160        0.1860
   3443  O3'       52.2310   57.0450   18.9190 O.3   160  C160       -0.3112
   3444  C2'       49.8510   57.3340   18.6430 C.3   160  C160        0.2309
   3445  O2'       50.2100   57.7520   17.3390 O.3   160  C160       -0.2156
   3446  C1'       48.7670   56.2710   18.5560 C.3   160  C160        0.2420
   3447  N1        47.7810   56.2910   19.6860 N.ar  160  C160       -0.2535
   3448  C2        46.6020   57.0310   19.5360 C.ar  160  C160        0.3532
   3449  O2        46.4190   57.6500   18.4750 O.2   160  C160       -0.2443
   3450  N3        45.6990   57.0460   20.5510 N.ar  160  C160       -0.1739
   3451  C4        45.9440   56.3560   21.6680 C.ar  160  C160        0.1759
   3452  N4        45.0300   56.3910   22.6500 N.pl3 160  C160       -0.1070
   3453  C5        47.1440   55.6010   21.8320 C.ar  160  C160        0.0566
   3454  C6        48.0260   55.5930   20.8300 C.ar  160  C160        0.0850
   3455  OP1       53.3860   53.7790   22.8890 O.2   160  C160       -0.5172
   3456  OP2       50.9910   54.5690   23.3220 O.co2 160  C160       -0.4373
   3457  P         52.8340   58.3990   19.5240 P.3   161  A161        0.2141
   3458  C5'       52.1290   60.7690   18.7130 C.3   161  A161        0.1813
   3459  O5'       51.7090   59.5140   19.2370 O.3   161  A161       -0.3114
   3460  C4'       51.0000   61.7860   18.6230 C.3   161  A161        0.1801
   3461  O4'       49.7390   61.0700   18.4720 O.3   161  A161       -0.3306
   3462  C3'       50.8250   62.7310   19.8260 C.3   161  A161        0.2161
   3463  O3'       51.6240   63.9470   19.7380 O.3   161  A161       -0.2175
   3464  C2'       49.3380   63.0470   19.6990 C.3   161  A161        0.2337
   3465  O2'       49.1340   64.0480   18.7070 O.3   161  A161       -0.2155
   3466  C1'       48.7640   61.6640   19.3170 C.3   161  A161        0.2409
   3467  N1        45.3780   59.8820   22.8820 N.ar  161  A161       -0.2040
   3468  C2        45.2200   60.7100   21.8480 C.ar  161  A161        0.2016
   3469  N3        46.1300   61.1260   20.9640 N.ar  161  A161       -0.2048
   3470  C4        47.3450   60.6010   21.2040 C.ar  161  A161        0.1692
   3471  C5        47.6550   59.7290   22.2340 C.ar  161  A161        0.1518
   3472  C6        46.6030   59.3630   23.1070 C.ar  161  A161        0.1919
   3473  N6        46.7570   58.5320   24.1430 N.pl3 161  A161       -0.1054
   3474  N7        48.9990   59.3810   22.1880 N.ar  161  A161       -0.2193
   3475  C8        49.4670   60.0430   21.1480 C.ar  161  A161        0.1816
   3476  N9        48.5260   60.8030   20.4950 N.ar  161  A161       -0.2693
   3477  OP1       54.0260   58.7360   18.7040 O.2   161  A161       -0.5172
   3478  OP2       52.9600   58.1890   20.9920 O.co2 161  A161       -0.4373
@<TRIPOS>BOND
     1  1081  1080    1
     2  1080  1079   ar
     3  1080  1082   ar
     4  1079  1077   ar
     5  1082  1083   ar
     6  1077  1078    2
     7  1077  1076   ar
     8  1083  1076   ar
     9  1076  1075    1
    10  1064  1046    2
    11  1075  1073    1
    12  1075  1070    1
    13  1074  1073    1
    14  1044  1024    2
    15  1073  1071    1
    16  1070  1069    1
    17  1046  1030    1
    18  1046  1065    1
    19  1046  1048    1
    20  1084  1066    2
    21  1067  1069    1
    22  1067  1068    1
    23  1025  1026    1
    24  1025  1027    1
    25  1030  1029    1
    26  1048  1047    1
    27  1024  1008    1
    28  1024  1026    1
    29  1024  1045    1
    30  1008  1007    1
    31  1069  1071    1
    32  1071  1072    1
    33  1068  1066    1
    34  1010  1009    1
    35  1027  1029    1
    36  1027  1028    1
    37  1072  1086    1
    38  1066  1052    1
    39  1066  1085    1
    40  1029  1031    1
    41  1047  1049    1
    42  1007  1005    1
    43  1007  1009    1
    44  1051  1052    1
    45  1051  1049    1
    46  1051  1053    1
    47  1005  1003    1
    48  1005  1006    1
    49  1009  1011    1
    50  1032  1031    1
    51  1003  1004    1
    52  1049  1050    1
    53  1028  1033    1
    54  1031  1033    1
    55  1087  1088    1
    56  1087  1089    1
    57  1053  1054    1
    58  1053  1055    1
    59  1086  1107    2
    60  1086  1108    1
    61  1086  1088    1
    62  1022  1002    2
    63  1006  1011    1
    64  1011  1021    1
    65  1004  1002    1
    66  1033  1043    1
    67  1089  1090    1
    68  1089  1091    1
    69  1090  1095    1
    70  1050  1055    1
    71  1002   985    1
    72  1002  1023    1
    73  1055  1056    1
    74  1042  1043   ar
    75  1042  1041   ar
    76   987   986    1
    77  1063  1056   ar
    78  1063  1062   ar
    79  1043  1037   ar
    80   653   635    2
    81  1021  1015   ar
    82  1021  1020   ar
    83  1014  1015   ar
    84  1014  1013   ar
    85   985   984    1
    86  1056  1057   ar
    87  1062  1060   ar
    88   676   655    2
    89  1091  1092    1
    90  1091  1093    1
    91  1095  1093    1
    92  1095  1106    1
    93  1092  1109    1
    94  1015  1016   ar
    95  1041  1038   ar
    96  1094  1093    1
    97   986   984    1
    98   986   988    1
    99  2014  2013    1
   100  1105  1106   ar
   101  1105  1104   ar
   102  1020  1019   ar
   103  1013  1012   ar
   104  1037  1038   ar
   105  1037  1036   ar
   106  1106  1100   ar
   107   984   982    1
   108   635   621    1
   109   635   654    1
   110   635   637    1
   111  2010  2009    1
   112  2010  2015    1
   113  1130  1109    2
   114  1131  1109    1
   115  1994  1993    1
   116  1057  1058    2
   117  1057  1059   ar
   118   655   677    1
   119   655   641    1
   120   655   657    1
   121  1060  1059   ar
   122  1060  1061    2
   123  1038  1039   ar
   124  1109  1111    1
   125  1036  1035   ar
   126  1104  1101   ar
   127   621   620    1
   128  2009  2007    1
   129  2009  2011    1
   130   636   637    1
   131   636   638    1
   132  1016  1019   ar
   133  1016  1017   ar
   134   641   640    1
   135  2015  2013    1
   136  2015  2016    1
   137   988   983    1
   138   988   999    1
   139   982   983    1
   140   982   980    1
   141  2013  2011    1
   142  2027  2029    1
   143  2027  2028    1
   144  2012  2011    1
   145  2012  2026    1
   146   991   990    1
   147  1012  1017   ar
   148   633   615    2
   149  2044  2026    2
   150  1100  1101   ar
   151  1100  1099   ar
   152   696   678    2
   153  2007  2008    1
   154   992   990   ar
   155   992   993   ar
   156  2029  2030    1
   157  2029  2031    1
   158  1101  1102   ar
   159   616   618    1
   160   616   617    1
   161  1998  1997    2
   162   638   640    1
   163   638   639    1
   164   657   656    1
   165  2030  2035    1
   166  1017  1018    1
   167  2018  2017    2
   168  1993  1995    1
   169  1993  1991    1
   170   656   658    1
   171   981   980    1
   172   981   979    1
   173   697   678    1
   174  1035  1034   ar
   175   990   989   ar
   176   640   642    1
   177   623   622    1
   178  1039  1034   ar
   179  1039  1040    1
   180   618   620    1
   181   618   619    1
   182  1111  1110    1
   183   620   622    1
   184  2008  2006    1
   185  1099  1097   ar
   186  2026  2028    1
   187  2026  2045    1
   188  1000   979    2
   189   999   993   ar
   190   999   998   ar
   191  2016  2017   ar
   192  2016  2023   ar
   193   836   835    1
   194  1992  1991    1
   195  1992  2006    1
   196   993   994   ar
   197  1995  1990    1
   198  1995  1996    1
   199   678   661    1
   200   678   680    1
   201  1110  1112    1
   202   617   615    1
   203  2034  2033    1
   204  2017  2019   ar
   205   615   598    1
   206   615   634    1
   207   795   794    2
   208   968   967    1
   209  2032  2031    1
   210  2032  2046    1
   211   622   624    1
   212  2035  2033    1
   213  2035  2036    1
   214   661   660    1
   215  1102  1103    2
   216  1102  1096   ar
   217  1991  1989    1
   218  2024  2006    2
   219   979   962    1
   220   979  1001    1
   221  1997  1996   ar
   222  1997  1999   ar
   223  2031  2033    1
   224  1990  1989    1
   225  1989  1987    1
   226  2023  2022   ar
   227  2006  2025    1
   228   639   644    1
   229   643   642    1
   230  1128  1127   ar
   231  1128  1129   ar
   232  1127  1124   ar
   233   962   961    1
   234   598   597    1
   235  1097  1096   ar
   236  1097  1098    1
   237   989   995   ar
   238   658   660    1
   239   658   659    1
   240   793   794   ar
   241   793   791   ar
   242   998   997   ar
   243   642   644    1
   244   619   624    1
   245  1996  2003   ar
   246  1113  1112    1
   247  1113  1118    1
   248   964   963    1
   249   794   796   ar
   250   660   662    1
   251   994   995   ar
   252   994   997   ar
   253   835   830   ar
   254   835   834   ar
   255  1112  1114    1
   256  2064  2046    2
   257   792   791    2
   258   680   679    1
   259  2019  2020   ar
   260  1999  2000   ar
   261   967   969   ar
   262   967   966   ar
   263   830   831   ar
   264   600   599    1
   265  2036  2043   ar
   266  2036  2037   ar
   267   624   625    1
   268   963   961    1
   269   963   965    1
   270  2043  2042   ar
   271   791   790   ar
   272   644   645    1
   273   995   996    2
   274  2046  2065    1
   275  2046  2048    1
   276   717   698    2
   277   652   651   ar
   278   652   645   ar
   279   969   970   ar
   280  2022  2020   ar
   281   961   959    1
   282  1987  1988    1
   283  1129  1118    1
   284  1129  1123   ar
   285   659   664    1
   286  2047  2048    1
   287  2047  2049    1
   288  1124  1125   ar
   289  1124  1123   ar
   290   679   681    1
   291   768   769   ar
   292   768   773   ar
   293  1126  1125    2
   294   788   787    1
   295  1118  1116    1
   296  2020  2021    1
   297  1921  1901    2
   298   966   972   ar
   299   597   599    1
   300   597   595    1
   301  2003  2002   ar
   302   769   770   ar
   303   796   797   ar
   304   834   837   ar
   305   834   833   ar
   306   651   649   ar
   307  2038  2037    2
   308   645   646   ar
   309  2037  2039   ar
   310   599   601    1
   311  1114  1115    1
   312  1114  1116    1
   313   837   838   ar
   314  2042  2040   ar
   315   774   773    1
   316  1125  1119   ar
   317   662   663    1
   318   662   664    1
   319   674   673   ar
   320   674   675   ar
   321   595   593    1
   322   595   596    1
   323  1123  1122   ar
   324   716   698    1
   325   625   632   ar
   326   625   626   ar
   327  2000  2002   ar
   328  2000  2001    1
   329   790   797   ar
   330   790   789    1
   331   831   832   ar
   332  1944  1923    2
   333   773   772   ar
   334   698   684    1
   335   698   700    1
   336   970   976   ar
   337   970   971   ar
   338  1154  1132    2
   339   632   631   ar
   340   965   976    1
   341   965   960    1
   342  2049  2050    1
   343  2049  2051    1
   344   593   594    1
   345  1988  1986    1
   346   664   675    1
   347   959   960    1
   348   959   957    1
   349  1115  1132    1
   350   815   814    1
   351   684   683    1
   352  2050  2055    1
   353   770   771   ar
   354   787   789    1
   355   787   785    1
   356  1116  1117    1
   357   673   670   ar
   358   972   971   ar
   359   972   973    2
   360   627   626    2
   361  2039  2040   ar
   362   694   695   ar
   363   694   692   ar
   364   675   669   ar
   365   976   975   ar
   366   681   683    1
   367   681   682    1
   368   683   685    1
   369  2040  2041    2
   370   753   752    1
   371   789   784    1
   372   613   592    2
   373   626   628   ar
   374   833   832   ar
   375   833   839   ar
   376  1901  1884    1
   377  1901  1922    1
   378  1901  1903    1
   379   971   974   ar
   380   813   814   ar
   381   813   811   ar
   382   695   688   ar
   383   646   647    2
   384   646   648   ar
   385   838   839   ar
   386   649   648   ar
   387   649   650    2
   388   772   771   ar
   389   772   775   ar
   390   713   712    1
   391   601   596    1
   392   601   612    1
   393  1132  1153    1
   394  1132  1134    1
   395  1974  1973    1
   396   714   712   ar
   397   714   715   ar
   398  1119  1120   ar
   399   771   777   ar
   400  1884  1883    1
   401  1945  1923    1
   402  1122  1120   ar
   403  1923  1907    1
   404  1923  1925    1
   405   733   732    1
   406  1902  1903    1
   407  1902  1904    1
   408   957   958    1
   409   594   592    1
   410   631   629   ar
   411   814   816   ar
   412  1149  1148    2
   413  2005  1986    2
   414   699   700    1
   415   699   701    1
   416  1150  1151   ar
   417  1150  1147   ar
   418  1907  1906    1
   419   693   692    2
   420   766   765    1
   421   682   687    1
   422   737   718    2
   423   812   811    2
   424  2051  2052    1
   425  2051  2053    1
   426   692   691   ar
   427  1986  1972    1
   428  1986  2004    1
   429  1899  1878    2
   430  2052  2066    1
   431  1120  1121    1
   432   712   711   ar
   433   839   829    1
   434  2063  2062   ar
   435  2063  2056   ar
   436   975   974   ar
   437   670   669   ar
   438   670   671   ar
   439  1255  1254    1
   440   785   786    1
   441   785   783    1
   442  2055  2056    1
   443  2055  2053    1
   444   715   708   ar
   445   811   810   ar
   446   786   800    1
   447   605   603   ar
   448   605   606   ar
   449   604   603    1
   450   775   776   ar
   451   669   668   ar
   452   592   575    1
   453   592   614    1
   454  1879  1881    1
   455  1879  1880    1
   456   628   629   ar
   457   799   780    2
   458   752   751   ar
   459   752   754   ar
   460  1151  1152   ar
   461   777   776   ar
   462   777   767    1
   463  1904  1906    1
   464  1904  1905    1
   465   629   630    1
   466   784   783    1
   467   612   606   ar
   468   612   611   ar
   469  1973  1971    1
   470  1973  1975    1
   471   688   687    1
   472   688   689   ar
   473  1965  1946    2
   474   685   687    1
   475   685   686    1
   476  2062  2060   ar
   477   819   800    2
   478  1148  1147   ar
   479  1148  1142   ar
   480   945   944   ar
   481   945   946   ar
   482  1881  1883    1
   483  1881  1882    1
   484  1134  1133    1
   485   732   734   ar
   486   732   731   ar
   487  1147  1146   ar
   488  2056  2057   ar
   489   734   735   ar
   490  1172  1171    2
   491  1972  1971    1
   492   603   602   ar
   493   944   949   ar
   494  1883  1885    1
   495  1886  1885    1
   496   751   749   ar
   497  1906  1908    1
   498   606   607   ar
   499  2053  2054    1
   500  1925  1924    1
   501   958   956    1
   502  1964  1946    1
   503   816   817   ar
   504   767   765    1
   505   767   762    1
   506   575   574    1
   507   765   763    1
   508   782   780    1
   509   782   781    1
   510  1924  1926    1
   511  1978  1977    2
   512   754   755   ar
   513  1294  1293    1
   514  2084  2066    2
   515   701   703    1
   516   701   702    1
   517   691   689   ar
   518   783   781    1
   519   577   576    1
   520   718   736    1
   521   718   704    1
   522   718   720    1
   523   800   818    1
   524   800   802    1
   525   671   672    2
   526   671   665   ar
   527  1274  1273    1
   528  1971  1969    1
   529  1880  1878    1
   530   668   666   ar
   531   946   947   ar
   532   711   709   ar
   533   703   704    1
   534   703   705    1
   535  1878  1862    1
   536  1878  1900    1
   537  1254  1253   ar
   538  1254  1256   ar
   539  1278  1277    2
   540  2066  2085    1
   541  2066  2068    1
   542  1946  1929    1
   543  1946  1948    1
   544   611   610   ar
   545  1977  1979   ar
   546  1977  1976   ar
   547   708   709   ar
   548   708   707    1
   549   810   817   ar
   550   810   809    1
   551   702   707    1
   552   780   764    1
   553   780   798    1
   554   689   690    2
   555   829   824    1
   556   829   827    1
   557  1975  1976    1
   558  1975  1970    1
   559   764   763    1
   560  1885  1887    1
   561  1979  1980   ar
   562  1152  1146   ar
   563  1152  1141    1
   564  1232  1231    1
   565  1133  1135    1
   566  2060  2061    1
   567  2060  2059   ar
   568  1976  1983   ar
   569  1142  1143   ar
   570   731   729   ar
   571  1905  1910    1
   572  2057  2059   ar
   573  2057  2058    2
   574  1909  1908    1
   575  1146  1145   ar
   576  1253  1259   ar
   577   949   950    1
   578   949   948   ar
   579   735   728   ar
   580   581   580    1
   581  1171  1165   ar
   582  1171  1170   ar
   583   602   608   ar
   584  1136  1141    1
   585  1136  1135    1
   586  1862  1861    1
   587  1882  1887    1
   588  1980  1981    2
   589  1980  1982   ar
   590   824   823    1
   591   607   610   ar
   592   607   608   ar
   593   977   956    2
   594   801   802    1
   595   801   803    1
   596  1983  1982   ar
   597   749   750    2
   598   749   748   ar
   599   804   809    1
   600   804   803    1
   601   576   574    1
   602   576   578    1
   603  1256  1257   ar
   604  1908  1910    1
   605   709   710    2
   606   956   978    1
   607   956   940    1
   608  1929  1928    1
   609  1984  1966    2
   610   763   761    1
   611  1194  1193    1
   612  1290  1289    1
   613  1290  1295    1
   614   827   828    1
   615   827   825    1
   616  1289  1287    1
   617  1289  1291    1
   618   841   820    2
   619  1230  1231   ar
   620  1230  1236   ar
   621   707   705    1
   622   720   719    1
   623   574   572    1
   624   942   941    1
   625  1173  1170   ar
   626  1173  1174   ar
   627   762   761    1
   628  1275  1273    1
   629  1275  1270    1
   630  1275  1276    1
   631   665   666   ar
   632  2068  2067    1
   633   755   748   ar
   634   666   667    1
   635   947   948   ar
   636   947   953   ar
   637  1295  1293    1
   638  1295  1296    1
   639  1273  1271    1
   640  1293  1291    1
   641  1985  1966    1
   642   809   807    1
   643   805   807    1
   644   805   803    1
   645   805   806    1
   646  1926  1928    1
   647  1926  1927    1
   648   807   808    1
   649  1277  1276   ar
   650  1277  1279   ar
   651  1141  1139    1
   652  1165  1166   ar
   653   705   706    1
   654  1887  1898    1
   655   608   609    2
   656  1231  1233   ar
   657   757   738    2
   658  1170  1169   ar
   659  1237  1236    2
   660  1292  1291    1
   661  1292  1306    1
   662  1135  1137    1
   663   941   943    1
   664   941   939    1
   665   948   951   ar
   666  1928  1930    1
   667  1948  1947    1
   668  1287  1288    1
   669  1969  1970    1
   670  1969  1967    1
   671   822   820    1
   672   822   821    1
   673  1910  1920    1
   674  1864  1863    1
   675   580   582   ar
   676   580   579   ar
   677  1143  1145   ar
   678  1143  1144    1
   679   748   747    1
   680   582   583   ar
   681   729   728   ar
   682   729   730    2
   683  1270  1269    1
   684  1327  1306    2
   685   728   727    1
   686  1966  1968    1
   687  1966  1952    1
   688   761   759    1
   689  1236  1235   ar
   690  1298  1297    2
   691  1276  1283   ar
   692  1259  1260    2
   693  1259  1258   ar
   694  1188  1193   ar
   695  1188  1189   ar
   696  1307  1309    1
   697  1307  1308    1
   698  1193  1192   ar
   699  1279  1280   ar
   700   572   570    1
   701   572   573    1
   702  1257  1258   ar
   703  1257  1263   ar
   704  1919  1920   ar
   705  1919  1918   ar
   706   820   806    1
   707   820   840    1
   708  1137  1139    1
   709  1137  1138    1
   710  1177  1155    2
   711  1174  1175   ar
   712  1861  1863    1
   713  1861  1859    1
   714   940   939    1
   715   823   821    1
   716   823   825    1
   717   953   943    1
   718   953   952   ar
   719  1269  1271    1
   720  1269  1267    1
   721   943   938    1
   722   578   573    1
   723   578   589    1
   724  1927  1932    1
   725  1968  1967    1
   726   579   585   ar
   727   825   826    1
   728   859   858    2
   729  1920  1914   ar
   730  1251  1250    1
   731   719   721    1
   732   939   937    1
   733  1863  1865    1
   734  1271  1272    1
   735  1296  1297   ar
   736  1296  1303   ar
   737  1947  1949    1
   738  1306  1308    1
   739  1306  1328    1
   740  2067  2069    1
   741  1272  1286    1
   742  1233  1234   ar
   743  1139  1140    1
   744  1309  1310    1
   745  1309  1311    1
   746  1898  1897   ar
   747  1898  1892   ar
   748  1166  1167    1
   749  1166  1168   ar
   750  1859  1857    1
   751  1859  1860    1
   752   583   589   ar
   753   583   584   ar
   754  1169  1175   ar
   755  1169  1168   ar
   756  1258  1261   ar
   757  1297  1299   ar
   758   951   952   ar
   759  1962  1963   ar
   760  1962  1960   ar
   761   760   759    1
   762   760   758    1
   763  1310  1315    1
   764   723   721    1
   765   723   725    1
   766   723   724    1
   767   860   857   ar
   768   860   861   ar
   769  1288  1286    1
   770  2082  2083   ar
   771  2082  2080   ar
   772  2070  2069    1
   773  2070  2075    1
   774   738   756    1
   775   738   724    1
   776   738   740    1
   777   570   571    1
   778  1252  1263    1
   779  1252  1250    1
   780  1252  1247    1
   781  1857  1858    1
   782  2083  2076   ar
   783   858   857   ar
   784   858   852   ar
   785  1942  1941   ar
   786  1942  1943   ar
   787   589   588   ar
   788   747   745    1
   789   747   742    1
   790   722   727    1
   791   722   721    1
   792   727   725    1
   793  1876  1856    2
   794  1930  1932    1
   795  1930  1931    1
   796   745   743    1
   797   745   746    1
   798  1263  1262   ar
   799  1189  1190   ar
   800  1897  1896   ar
   801  1961  1960    2
   802  1918  1915   ar
   803  1235  1234   ar
   804  1235  1238   ar
   805  1283  1282   ar
   806   923   922    1
   807  1175  1164    1
   808   857   856   ar
   809   826   842    1
   810  1952  1951    1
   811  1192  1195   ar
   812  1192  1191   ar
   813  1250  1248    1
   814  1215  1214    1
   815  1138  1155    1
   816  1337  1336    1
   817   928   927    2
   818  1963  1956   ar
   819   861   862   ar
   820   921   927   ar
   821   921   922   ar
   822  1280  1282   ar
   823  1280  1281    1
   824   739   740    1
   825   739   741    1
   826   725   726    1
   827   779   758    2
   828  2069  2071    1
   829  1304  1286    2
   830   743   741    1
   831   743   744    1
   832  1234  1240   ar
   833  1951  1949    1
   834  1951  1953    1
   835   852   853   ar
   836   585   584   ar
   837   585   586    2
   838  1303  1302   ar
   839  1267  1268    1
   840  1932  1943    1
   841  1155  1157    1
   842  1155  1176    1
   843  1960  1959   ar
   844  1286  1305    1
   845   584   587   ar
   846  1891  1892   ar
   847  1891  1889   ar
   848  1195  1196   ar
   849  1941  1938   ar
   850  1892  1893   ar
   851  1314  1313    1
   852   938   937    1
   853  1858  1856    1
   854   571   569    1
   855  1914  1915   ar
   856  1914  1913   ar
   857  1949  1950    1
   858  1213  1214   ar
   859  1213  1211   ar
   860   937   935    1
   861   856   862   ar
   862   856   855   ar
   863  1943  1937   ar
   864   846   851    1
   865   846   845    1
   866   927   926   ar
   867   922   924   ar
   868   862   851    1
   869  2081  2080    1
   870  1865  1860    1
   871  1865  1875    1
   872  1247  1246    1
   873  2080  2079   ar
   874   742   741    1
   875  1299  1300   ar
   876   758   744    1
   877   758   778    1
   878  1315  1313    1
   879  1315  1326    1
   880  2076  2075    1
   881  2076  2077   ar
   882  1261  1262   ar
   883  1312  1311    1
   884  1312  1329    1
   885  2075  2073    1
   886   853   855   ar
   887   853   854    1
   888   588   587   ar
   889  1157  1156    1
   890  1311  1313    1
   891  1915  1916   ar
   892   557   558   ar
   893   557   562   ar
   894  1214  1216   ar
   895   558   559   ar
   896  1191  1190   ar
   897  1191  1197   ar
   898  1856  1842    1
   899  1856  1877    1
   900  1238  1239   ar
   901  1896  1893   ar
   902  1212  1211    2
   903  1913  1912   ar
   904   590   569    2
   905   851   849    1
   906  1950  1955    1
   907  1164  1159    1
   908  1164  1162    1
   909  1268  1266    1
   910  1159  1158    1
   911  1956  1955    1
   912  1956  1957   ar
   913  1893  1894   ar
   914  1336  1338    1
   915  1336  1334    1
   916  1889  1890    1
   917  1889  1888   ar
   918  1211  1210   ar
   919  1302  1300   ar
   920  1338  1333    1
   921  1338  1348    1
   922  1240  1239   ar
   923  1240  1229    1
   924  1248  1246    1
   925  1248  1249    1
   926  1953  1955    1
   927  1953  1954    1
   928   842   863    2
   929   842   844    1
   930   842   864    1
   931  1246  1244    1
   932  1959  1957   ar
   933  1349  1329    2
   934  1196  1197   ar
   935   843   845    1
   936   843   844    1
   937  1938  1937   ar
   938  1938  1939   ar
   939  2071  2073    1
   940  2071  2072    1
   941  1333  1332    1
   942   563   562    1
   943   845   847    1
   944   936   935    1
   945   936   934    1
   946  1300  1301    2
   947  2079  2077   ar
   948   569   591    1
   949   569   553    1
   950   562   561   ar
   951  1937  1936   ar
   952   924   925   ar
   953  1842  1841    1
   954  2077  2078    2
   955  1875  1869   ar
   956  1875  1874   ar
   957  1326  1325   ar
   958  1326  1320   ar
   959  2105  2086    2
   960   926   925   ar
   961   926   929   ar
   962   559   560   ar
   963  1249  1266    1
   964  1341  1340   ar
   965  1341  1342   ar
   966  1325  1324   ar
   967  1868  1869   ar
   968  1868  1867   ar
   969  1197  1187    1
   970  1332  1334    1
   971  1332  1330    1
   972  2073  2074    1
   973  1352  1354    1
   974  1352  1353    1
   975  1329  1350    1
   976  1329  1331    1
   977  1335  1334    1
   978  1335  1351    1
   979  1957  1958    2
   980  1156  1158    1
   981  1916  1917    1
   982  1916  1911   ar
   983  1354  1355    1
   984  1354  1356    1
   985  1229  1227    1
   986  1229  1224    1
   987  1844  1843    1
   988  1216  1217   ar
   989  1355  1360    1
   990   925   931   ar
   991  2072  2086    1
   992  1869  1870   ar
   993  1340  1339   ar
   994  1912  1911   ar
   995  1888  1894   ar
   996  2101  2100    1
   997  1162  1160    1
   998  1162  1163    1
   999  1158  1160    1
  1000   905   904    2
  1001  1874  1873   ar
  1002  1894  1895    2
  1003  1359  1358    1
  1004  1348  1342   ar
  1005  1348  1347   ar
  1006  1266  1284    2
  1007  1266  1285    1
  1008   955   934    2
  1009   560   561   ar
  1010   560   566   ar
  1011  1160  1161    1
  1012  1939  1940    2
  1013  1939  1933   ar
  1014   561   564   ar
  1015  1227  1228    1
  1016  1227  1225    1
  1017  1342  1343   ar
  1018   929   930   ar
  1019   555   554    1
  1020   849   847    1
  1021   849   850    1
  1022  1371  1351    2
  1023   553   552    1
  1024  1210  1217   ar
  1025  1210  1209    1
  1026  1320  1319   ar
  1027  1320  1321   ar
  1028  1936  1934   ar
  1029  1867  1866   ar
  1030   554   552    1
  1031   554   556    1
  1032  2086  2104    1
  1033  2086  2088    1
  1034   934   954    1
  1035   934   917    1
  1036  2102  2100   ar
  1037  2102  2103   ar
  1038  1843  1841    1
  1039  1843  1845    1
  1040  1324  1321   ar
  1041  1244  1245    1
  1042  1319  1317   ar
  1043   847   848    1
  1044  1331  1330    1
  1045  1841  1839    1
  1046  1199  1178    2
  1047  1360  1358    1
  1048  1360  1370    1
  1049  1357  1356    1
  1050  1357  1373    1
  1051  2201  2200    2
  1052  2100  2099   ar
  1053   882   881    2
  1054  1351  1353    1
  1055  1351  1372    1
  1056   552   550    1
  1057  1187  1182    1
  1058  1187  1185    1
  1059  1224  1223    1
  1060   848   865    1
  1061  1870  1873   ar
  1062  1870  1871   ar
  1063  2197  2196    1
  1064  2123  2122    2
  1065  2217  2216    1
  1066  1356  1358    1
  1067  1321  1322   ar
  1068  1339  1344   ar
  1069  1245  1243    1
  1070   931   930   ar
  1071   931   920    1
  1072   904   898   ar
  1073   904   903   ar
  1074  1347  1346   ar
  1075   566   556    1
  1076   566   565   ar
  1077   564   565   ar
  1078  2181  2180    2
  1079   918   919    1
  1080   918   916    1
  1081   918   920    1
  1082  1933  1934   ar
  1083  1209  1207    1
  1084  1209  1204    1
  1085  2103  2096   ar
  1086   898   899   ar
  1087  1934  1935    1
  1088  1393  1373    2
  1089  2221  2220    1
  1090  1182  1181    1
  1091  1343  1344   ar
  1092  1343  1346   ar
  1093  1866  1871   ar
  1094  2213  2218    1
  1095  2213  2212    1
  1096   556   551    1
  1097  1161  1178    1
  1098  2218  2216    1
  1099  2218  2229    1
  1100  1317  1318    1
  1101  1317  1316   ar
  1102  1839  1837    1
  1103  1839  1840    1
  1104  1225  1223    1
  1105  1225  1226    1
  1106  1374  1376    1
  1107  1374  1375    1
  1108   917   916    1
  1109  1871  1872    1
  1110  1180  1178    1
  1111  1180  1179    1
  1112  2222  2220   ar
  1113  2222  2223   ar
  1114  2198  2196    1
  1115  2198  2193    1
  1116  2198  2199    1
  1117  2088  2087    1
  1118  1178  1198    1
  1119  1344  1345    1
  1120   916   914    1
  1121  2200  2199   ar
  1122  2200  2202   ar
  1123  1370  1369   ar
  1124  1370  1364   ar
  1125  2212  2210    1
  1126  2212  2214    1
  1127  2099  2097   ar
  1128   920   915    1
  1129   883   880   ar
  1130   883   884   ar
  1131  1185  1183    1
  1132  1185  1186    1
  1133   516   515    1
  1134   881   880   ar
  1135   881   875   ar
  1136  1845  1840    1
  1137  1845  1846    1
  1138  1373  1375    1
  1139  1373  1394    1
  1140  2220  2219   ar
  1141  1207  1208    1
  1142  1207  1205    1
  1143  2216  2214    1
  1144  2196  2194    1
  1145  1848  1847    2
  1146  1223  1221    1
  1147  1322  1316   ar
  1148  1322  1323    2
  1149  2122  2116   ar
  1150  2122  2121   ar
  1151  2180  2182   ar
  1152  2180  2179   ar
  1153   903   906   ar
  1154   903   902   ar
  1155  2193  2192    1
  1156  2182  2183   ar
  1157  1837  1838    1
  1158  1369  1368   ar
  1159  1204  1203    1
  1160   906   907   ar
  1161  1376  1377    1
  1162  1376  1378    1
  1163   550   551    1
  1164   550   548    1
  1165   514   515   ar
  1166   514   520   ar
  1167  1377  1382    1
  1168  2229  2223   ar
  1169  2229  2228   ar
  1170  2199  2206   ar
  1171  2096  2097   ar
  1172  2096  2095    1
  1173   899   900    1
  1174   899   901   ar
  1175  2223  2224   ar
  1176  1226  1243    1
  1177   865   886    2
  1178   865   887    1
  1179   865   867    1
  1180  2202  2203   ar
  1181  2210  2211    1
  1182   880   879   ar
  1183  1243  1265    2
  1184  1243  1264    1
  1185  2144  2143    1
  1186  1363  1364   ar
  1187  1363  1362   ar
  1188  1181  1183    1
  1189  1181  1179    1
  1190  1183  1184    1
  1191  2116  2117   ar
  1192  1364  1365   ar
  1193  2087  2089    1
  1194   521   520    2
  1195   515   517   ar
  1196  2090  2095    1
  1197  2090  2089    1
  1198  1847  1846   ar
  1199  1847  1849   ar
  1200  1846  1853   ar
  1201  2177  2176    1
  1202  2097  2098    2
  1203  2236  2235    1
  1204  2236  2241    1
  1205   542   541    2
  1206  2161  2160    2
  1207  2192  2194    1
  1208  2192  2190    1
  1209  2214  2215    1
  1210   875   876   ar
  1211  2219  2225   ar
  1212   884   885   ar
  1213  1838  1836    1
  1214   549   548    1
  1215   549   547    1
  1216  2162  2160   ar
  1217  2162  2163   ar
  1218  2124  2121   ar
  1219  2124  2125   ar
  1220   520   519   ar
  1221  2164  2163    2
  1222   910   888    2
  1223  2121  2120   ar
  1224  2215  2232    1
  1225  2178  2179    1
  1226  2178  2176    1
  1227  2178  2173    1
  1228   915   914    1
  1229   568   547    2
  1230  2235  2233    1
  1231  2235  2237    1
  1232  1205  1203    1
  1233  1205  1206    1
  1234  2179  2186   ar
  1235  1222  1221    1
  1236  1222  1220    1
  1237  2233  2234    1
  1238   902   901   ar
  1239   902   908   ar
  1240   914   912    1
  1241   933   911    2
  1242   867   866    1
  1243  2183  2184    1
  1244  2183  2185   ar
  1245  2194  2195    1
  1246  1368  1365   ar
  1247  2228  2227   ar
  1248  2240  2239    1
  1249  1219  1200    2
  1250  1854  1836    2
  1251  2095  2093    1
  1252  1849  1850   ar
  1253  1853  1852   ar
  1254  2142  2143   ar
  1255  2142  2140   ar
  1256  2224  2225   ar
  1257  2224  2227   ar
  1258  2160  2159   ar
  1259  2176  2174    1
  1260  2241  2239    1
  1261  2241  2242    1
  1262   913   912    1
  1263   913   911    1
  1264   907   908   ar
  1265  2195  2209    1
  1266  1362  1361   ar
  1267  1382  1380    1
  1268  1382  1392    1
  1269  2089  2091    1
  1270  1365  1366   ar
  1271   541   540   ar
  1272   541   543   ar
  1273  1203  1201    1
  1274  2163  2165   ar
  1275   540   538   ar
  1276  1381  1380    1
  1277  2206  2205   ar
  1278  2143  2145   ar
  1279   517   518   ar
  1280  1202  1200    1
  1281  1202  1201    1
  1282  2211  2209    1
  1283  2225  2226    2
  1284  2203  2204    2
  1285  2203  2205   ar
  1286  1378  1379    1
  1287  1378  1380    1
  1288   498   497    1
  1289   547   567    1
  1290   547   533    1
  1291  1379  1395    1
  1292   879   885   ar
  1293   879   878   ar
  1294  2117  2118    1
  1295  2117  2119   ar
  1296  1242  1220    2
  1297  1184  1200    1
  1298  2190  2191    1
  1299  1836  1855    1
  1300  1836  1819    1
  1301   519   518   ar
  1302   519   522   ar
  1303   546   527    2
  1304  1850  1852   ar
  1305  1850  1851    1
  1306   885   874    1
  1307   908   897    1
  1308  2173  2172    1
  1309  2125  2126   ar
  1310  2239  2237    1
  1311  1200  1218    1
  1312   876   878   ar
  1313   876   877    1
  1314   911   932    1
  1315   911   894    1
  1316   518   524   ar
  1317  2244  2243    2
  1318  2091  2093    1
  1319  2091  2092    1
  1320  1206  1220    1
  1321  2141  2140    2
  1322  2120  2119   ar
  1323  2120  2126   ar
  1324  2234  2232    1
  1325  2186  2185   ar
  1326  1220  1241    1
  1327   539   538    2
  1328  2242  2243   ar
  1329  2242  2249   ar
  1330   538   537   ar
  1331  1392  1391   ar
  1332  1392  1386   ar
  1333   492   497   ar
  1334   492   493   ar
  1335  2140  2139   ar
  1336  2128  2106    2
  1337  1361  1366   ar
  1338   543   544   ar
  1339  2232  2250    2
  1340  2232  2251    1
  1341  1366  1367    1
  1342  2237  2238    1
  1343  2209  2230    2
  1344  2209  2231    1
  1345   888   890    1
  1346   888   909    1
  1347   888   871    1
  1348  1391  1390   ar
  1349   497   496   ar
  1350   866   868    1
  1351  2093  2094    1
  1352  2159  2158    1
  1353  2159  2166   ar
  1354  2243  2245   ar
  1355  2238  2252    1
  1356  2249  2248   ar
  1357   522   523   ar
  1358   890   889    1
  1359  1416  1395    2
  1360  2145  2146   ar
  1361  2165  2166   ar
  1362  2174  2172    1
  1363  2174  2175    1
  1364   870   871    1
  1365   870   868    1
  1366   870   872    1
  1367  2126  2115    1
  1368  2191  2189    1
  1369  2172  2170    1
  1370   512   511    1
  1371  1819  1818    1
  1372   493   494   ar
  1373   893   895    1
  1374   893   894    1
  1375   893   891    1
  1376  1395  1417    1
  1377  1395  1397    1
  1378   537   544   ar
  1379   537   536    1
  1380   533   532    1
  1381   524   523   ar
  1382   524   513    1
  1383  1386  1385   ar
  1384  1386  1387   ar
  1385   869   874    1
  1386   869   868    1
  1387   895   897    1
  1388   895   896    1
  1389  2158  2156    1
  1390  2158  2153    1
  1391  1825  1824    1
  1392   534   532    1
  1393   534   535    1
  1394   534   536    1
  1395   532   530    1
  1396   874   872    1
  1397  2175  2189    1
  1398  1390  1387   ar
  1399  2092  2106    1
  1400   897   892    1
  1401   496   499   ar
  1402   496   495   ar
  1403  1821  1820    1
  1404   527   529    1
  1405   527   510    1
  1406   527   545    1
  1407  1385  1384   ar
  1408  1396  1397    1
  1409  1396  1398    1
  1410   529   528    1
  1411  2157  2156    1
  1412  2245  2246   ar
  1413   471   470    1
  1414   370   349    2
  1415  2139  2146   ar
  1416  2139  2138    1
  1417  2248  2246   ar
  1418  2156  2154    1
  1419   872   873    1
  1420  2106  2108    1
  1421  2106  2127    1
  1422  1820  1818    1
  1423  1820  1822    1
  1424   499   500   ar
  1425   513   511    1
  1426   513   508    1
  1427  1387  1388   ar
  1428  1824  1826   ar
  1429  1824  1823   ar
  1430  2246  2247    1
  1431  2253  2255    1
  1432  2253  2254    1
  1433  1818  1816    1
  1434   494   495   ar
  1435   536   531    1
  1436   469   470   ar
  1437   469   475   ar
  1438   510   509    1
  1439   495   501   ar
  1440   892   891    1
  1441  1826  1827   ar
  1442  2189  2207    2
  1443  2189  2208    1
  1444   889   891    1
  1445  2270  2252    2
  1446   347   329    2
  1447  2108  2107    1
  1448   511   509    1
  1449  2252  2254    1
  1450  2252  2271    1
  1451  2115  2110    1
  1452  2115  2113    1
  1453  1823  1829   ar
  1454  1399  1398    1
  1455  1399  1404    1
  1456  2256  2255    1
  1457  2256  2261    1
  1458   470   472   ar
  1459  2170  2171    1
  1460  1384  1383   ar
  1461  2255  2257    1
  1462  2153  2152    1
  1463  2110  2109    1
  1464  1398  1400    1
  1465   476   475    2
  1466   371   349    1
  1467   392   372    2
  1468   500   501   ar
  1469   530   528    1
  1470   530   531    1
  1471   349   335    1
  1472   349   351    1
  1473  2138  2136    1
  1474  2138  2133    1
  1475  1388  1383   ar
  1476  1388  1389    1
  1477   475   474   ar
  1478  1827  1833   ar
  1479  1827  1828   ar
  1480   501   491    1
  1481  2171  2169    1
  1482  1829  1828   ar
  1483  1829  1830    2
  1484   509   507    1
  1485  1822  1833    1
  1486  1822  1817    1
  1487   508   507    1
  1488  2154  2152    1
  1489  2154  2155    1
  1490  2261  2262    1
  1491  2261  2259    1
  1492  1833  1832   ar
  1493   335   334    1
  1494  1828  1831   ar
  1495  2107  2109    1
  1496   472   473   ar
  1497  2260  2259    1
  1498  1816  1817    1
  1499  1816  1814    1
  1500  2113  2111    1
  1501  2113  2114    1
  1502  2136  2137    1
  1503  2136  2134    1
  1504  2109  2111    1
  1505  2152  2150    1
  1506  1404  1415    1
  1507  1404  1402    1
  1508  2111  2112    1
  1509  2133  2132    1
  1510   329   315    1
  1511   329   331    1
  1512   329   348    1
  1513  1414  1415   ar
  1514  1414  1413   ar
  1515  2155  2169    1
  1516   474   473   ar
  1517   474   477   ar
  1518  1832  1831   ar
  1519   486   491    1
  1520   486   485    1
  1521  2257  2259    1
  1522  2257  2258    1
  1523   491   489    1
  1524   507   505    1
  1525   330   331    1
  1526   330   332    1
  1527   372   393    1
  1528   372   374    1
  1529   372   355    1
  1530  1400  1401    1
  1531  1400  1402    1
  1532   351   350    1
  1533  2262  2269   ar
  1534  2262  2263   ar
  1535  1415  1409   ar
  1536   416   394    2
  1537   473   479   ar
  1538  2269  2268   ar
  1539   502   482    2
  1540   315   314    1
  1541  2258  2272    1
  1542  1814  1815    1
  1543  1413  1410   ar
  1544  1815  1813    1
  1545  2169  2188    2
  1546  2169  2187    1
  1547  1401  1418    1
  1548   350   352    1
  1549  2670  2650    2
  1550   332   334    1
  1551   332   333    1
  1552  2148  2129    2
  1553   373   374    1
  1554   373   375    1
  1555  2264  2263    2
  1556   334   336    1
  1557  2263  2265   ar
  1558  1834  1813    2
  1559  2134  2132    1
  1560  2134  2135    1
  1561  2151  2150    1
  1562  2151  2149    1
  1563  1402  1403    1
  1564   415   394    1
  1565  2268  2266   ar
  1566  1409  1410   ar
  1567  1409  1408   ar
  1568   477   478   ar
  1569  1835  1813    1
  1570  2131  2129    1
  1571  2131  2130    1
  1572  1410  1411   ar
  1573   355   354    1
  1574  2132  2130    1
  1575   394   378    1
  1576   394   396    1
  1577  1813  1797    1
  1578  2112  2129    1
  1579   337   336    1
  1580   454   453    2
  1581   479   478   ar
  1582   479   468    1
  1583   466   467    1
  1584   466   468    1
  1585   466   464    1
  1586  1408  1406   ar
  1587   485   483    1
  1588   485   487    1
  1589  2265  2266   ar
  1590   505   506    1
  1591   317   316    1
  1592   327   309    2
  1593  2129  2147    1
  1594   489   490    1
  1595   489   487    1
  1596  2266  2267    2
  1597  2290  2272    2
  1598   378   377    1
  1599  2168  2149    2
  1600  2648  2627    2
  1601   354   352    1
  1602   354   356    1
  1603   314   312    1
  1604   314   316    1
  1605  2272  2291    1
  1606  2272  2274    1
  1607   482   484    1
  1608   482   503    1
  1609   482   465    1
  1610   310   312    1
  1611   310   311    1
  1612   336   338    1
  1613  1411  1412    2
  1614  1411  1405   ar
  1615   352   353    1
  1616   312   313    1
  1617   483   484    1
  1618  2135  2149    1
  1619   468   463    1
  1620  1418  1439    2
  1621  1418  1440    1
  1622  1418  1420    1
  1623  2149  2167    1
  1624   375   377    1
  1625   375   376    1
  1626  2650  2671    1
  1627  2650  2652    1
  1628  2650  2633    1
  1629   333   338    1
  1630  1406  1405   ar
  1631  1406  1407    1
  1632   487   488    1
  1633   316   318    1
  1634   488   504    1
  1635   506   504    1
  1636   464   465    1
  1637   464   462    1
  1638   453   452   ar
  1639   453   455   ar
  1640   377   379    1
  1641  2652  2651    1
  1642   396   395    1
  1643  2273  2274    1
  1644  2273  2275    1
  1645  1436  1437   ar
  1646  1436  1433   ar
  1647   368   367   ar
  1648   368   369   ar
  1649   438   417    2
  1650   311   309    1
  1651  1797  1796    1
  1652  1801  1802   ar
  1653  1801  1806   ar
  1654   338   339    1
  1655  1802  1803   ar
  1656   309   295    1
  1657   309   328    1
  1658   353   358    1
  1659   367   364   ar
  1660   452   450   ar
  1661  1435  1434    2
  1662   525   504    2
  1663  1420  1419    1
  1664  1437  1438   ar
  1665  2633  2632    1
  1666  2627  2649    1
  1667  2627  2629    1
  1668  2627  2610    1
  1669   376   381    1
  1670   433   432    1
  1671   356   358    1
  1672   356   357    1
  1673  2276  2275    1
  1674  2276  2281    1
  1675   504   526    1
  1676   313   318    1
  1677   455   456   ar
  1678  1807  1806    1
  1679  1806  1805   ar
  1680   412   413   ar
  1681   412   409   ar
  1682  1803  1804   ar
  1683   463   462    1
  1684  2628  2629    1
  1685  2628  2630    1
  1686  1798  1796    1
  1687  1798  1799    1
  1688  1798  1800    1
  1689   295   294    1
  1690  1796  1794    1
  1691   411   410    2
  1692   318   319    1
  1693  2275  2277    1
  1694  1433  1434   ar
  1695  1433  1432   ar
  1696  2661  2662   ar
  1697  2661  2660   ar
  1698   346   339   ar
  1699   346   345   ar
  1700   395   397    1
  1701  2651  2653    1
  1702  1434  1428   ar
  1703   462   460    1
  1704  2662  2663   ar
  1705   369   358    1
  1706   369   363   ar
  1707  2654  2653    1
  1708  2654  2659    1
  1709   413   414   ar
  1710  1804  1805   ar
  1711  1804  1810   ar
  1712  2288  2289   ar
  1713  2288  2286   ar
  1714  1805  1808   ar
  1715  2610  2609    1
  1716  1456  1455    1
  1717  2289  2282   ar
  1718   339   340   ar
  1719   379   380    1
  1720   379   381    1
  1721   297   296    1
  1722  2653  2655    1
  1723   417   437    1
  1724   417   400    1
  1725   417   419    1
  1726  1438  1432   ar
  1727  1438  1427    1
  1728  1422  1427    1
  1729  1422  1421    1
  1730   450   451    2
  1731   450   449   ar
  1732   434   431   ar
  1733   434   435   ar
  1734  2630  2632    1
  1735  2630  2631    1
  1736   364   363   ar
  1737   364   365   ar
  1738  2632  2634    1
  1739  2660  2665   ar
  1740  1478  1477    2
  1741  2286  2287    2
  1742  2286  2285   ar
  1743  1473  1472    1
  1744   461   460    1
  1745   461   459    1
  1746   409   410   ar
  1747   409   408   ar
  1748   381   391    1
  1749  2282  2281    1
  1750  2282  2283   ar
  1751  2281  2279    1
  1752  1810  1800    1
  1753  1810  1809   ar
  1754  1471  1477   ar
  1755  1471  1472   ar
  1756  1419  1421    1
  1757   432   431   ar
  1758   432   427   ar
  1759  1808  1809   ar
  1760   410   404   ar
  1761   456   449   ar
  1762   481   459    2
  1763  1432  1431   ar
  1764   390   391   ar
  1765   390   389   ar
  1766   345   343   ar
  1767  1800  1795    1
  1768  2659  2669    1
  1769  2659  2657    1
  1770  1812  1791    2
  1771   399   400    1
  1772   399   397    1
  1773   399   401    1
  1774  2663  2669   ar
  1775  2663  2664   ar
  1776   366   365    2
  1777   363   362   ar
  1778  2285  2283   ar
  1779  1428  1429   ar
  1780  1427  1425    1
  1781   294   296    1
  1782   294   292    1
  1783  2283  2284    2
  1784   431   430   ar
  1785   458   439    2
  1786   319   326   ar
  1787   319   320   ar
  1788   397   398    1
  1789   296   298    1
  1790  1477  1476   ar
  1791   449   448    1
  1792   321   320    2
  1793  1455  1457   ar
  1794  1455  1454   ar
  1795  1793  1791    1
  1796  1793  1792    1
  1797  1794  1792    1
  1798  1794  1795    1
  1799  1472  1474   ar
  1800   391   385   ar
  1801   365   359   ar
  1802   414   408   ar
  1803   414   403    1
  1804   340   341    2
  1805   340   342   ar
  1806  2277  2279    1
  1807  2277  2278    1
  1808   419   418    1
  1809  1421  1423    1
  1810   435   436   ar
  1811  2669  2668   ar
  1812  2625  2604    2
  1813  2612  2611    1
  1814   427   428   ar
  1815  2665  2664   ar
  1816  2665  2666    1
  1817   398   403    1
  1818  2635  2634    1
  1819  2609  2607    1
  1820  2609  2611    1
  1821   292   290    1
  1822   292   293    1
  1823  1457  1458   ar
  1824   459   480    1
  1825   459   445    1
  1826   326   325   ar
  1827   389   386   ar
  1828  2605  2607    1
  1829  2605  2606    1
  1830   408   407   ar
  1831  1791  1811    1
  1832  1791  1774    1
  1833  2664  2667   ar
  1834   320   322   ar
  1835  1431  1429   ar
  1836  2634  2636    1
  1837  2658  2657    1
  1838  2279  2280    1
  1839  2655  2657    1
  1840  2655  2656    1
  1841   404   405   ar
  1842  1429  1430    1
  1843  2607  2608    1
  1844  2631  2636    1
  1845  1785  1784    2
  1846  2278  2292    1
  1847   343   342   ar
  1848   343   344    1
  1849   290   291    1
  1850  1454  1452   ar
  1851   403   401    1
  1852   401   402    1
  1853  2611  2613    1
  1854  1790  1768    2
  1855   362   360   ar
  1856  1423  1425    1
  1857  1423  1424    1
  1858  2656  2672    1
  1859   446   444    1
  1860   446   448    1
  1861   446   447    1
  1862   430   436   ar
  1863   430   429   ar
  1864  2668  2667   ar
  1865   444   445    1
  1866   444   442    1
  1867  2688  2687    1
  1868  2314  2292    2
  1869  1474  1475   ar
  1870  1460  1441    2
  1871  1784  1778   ar
  1872  1784  1783   ar
  1873  1476  1475   ar
  1874  1476  1479   ar
  1875   439   441    1
  1876   439   457    1
  1877   439   423    1
  1878   448   443    1
  1879  1425  1426    1
  1880   298   293    1
  1881   298   299    1
  1882   359   360   ar
  1883   436   426    1
  1884   441   440    1
  1885  2606  2604    1
  1886   385   386   ar
  1887   385   384   ar
  1888  1778  1779   ar
  1889   418   420    1
  1890  1789  1768    1
  1891   428   429   ar
  1892  1458  1451   ar
  1893  1541  1540    1
  1894  2636  2647    1
  1895  2604  2587    1
  1896  2604  2626    1
  1897   307   289    2
  1898   325   323   ar
  1899   386   387   ar
  1900   407   405   ar
  1901   405   406    1
  1902  2292  2313    1
  1903  2292  2294    1
  1904   322   323   ar
  1905   360   361    1
  1906  1475  1481   ar
  1907   422   423    1
  1908   422   420    1
  1909   422   424    1
  1910  1783  1786   ar
  1911  1783  1782   ar
  1912   291   289    1
  1913  1768  1770    1
  1914  1768  1754    1
  1915  1786  1787   ar
  1916   301   300    2
  1917  1583  1582    1
  1918  1452  1451   ar
  1919  1452  1453    2
  1920  1500  1499    1
  1921  1774  1773    1
  1922  1779  1780    1
  1923  1779  1781   ar
  1924  1564  1563    1
  1925  2646  2647   ar
  1926  2646  2645   ar
  1927  2693  2672    2
  1928   443   442    1
  1929  1518  1517    1
  1930  2608  2613    1
  1931  2687  2686   ar
  1932  2687  2682   ar
  1933  1479  1480   ar
  1934   323   324    1
  1935  1424  1441    1
  1936  2689  2686   ar
  1937  2689  2690   ar
  1938   384   383   ar
  1939  1773  1775    1
  1940  1773  1771    1
  1941  2613  2624    1
  1942  1451  1450    1
  1943   420   421    1
  1944  1560  1559    1
  1945  2587  2586    1
  1946  1770  1769    1
  1947  2647  2641   ar
  1948   442   440    1
  1949  1767  1748    2
  1950   421   426    1
  1951  1782  1781   ar
  1952  1782  1788   ar
  1953   299   300   ar
  1954   299   306   ar
  1955  2672  2692    1
  1956  2672  2674    1
  1957   426   424    1
  1958  1787  1788   ar
  1959  1441  1443    1
  1960  1441  1459    1
  1961   289   272    1
  1962   289   308    1
  1963  2686  2685   ar
  1964   424   425    1
  1965  1766  1748    1
  1966  2682  2683   ar
  1967   300   302   ar
  1968  1540  1542   ar
  1969  1540  1539   ar
  1970  1775  1777    1
  1971  1775  1776    1
  1972  1746  1725    2
  1973  1788  1777    1
  1974   387   388    1
  1975   387   382   ar
  1976  1494  1499   ar
  1977  1494  1495   ar
  1978  1565  1563   ar
  1979  1565  1566   ar
  1980  1747  1725    1
  1981  2645  2642   ar
  1982  2690  2691   ar
  1983  1499  1498   ar
  1984  1563  1562   ar
  1985  2294  2293    1
  1986  1481  1480   ar
  1987  1481  1470    1
  1988  2589  2588    1
  1989  1748  1750    1
  1990  1748  1731    1
  1991  1517  1516   ar
  1992  1517  1519   ar
  1993  1579  1578    1
  1994  1579  1584    1
  1995  1516  1522   ar
  1996  1769  1771    1
  1997  1443  1442    1
  1998   306   305   ar
  1999  1542  1543   ar
  2000  1578  1576    1
  2001  1578  1580    1
  2002  2674  2673    1
  2003  1584  1582    1
  2004  1584  1585    1
  2005  1754  1753    1
  2006  1539  1545   ar
  2007  1582  1580    1
  2008   274   273    1
  2009  2624  2618   ar
  2010  2624  2623   ar
  2011   272   271    1
  2012  1561  1559    1
  2013  1561  1556    1
  2014  1561  1572    1
  2015   383   382   ar
  2016  1445  1450    1
  2017  1445  1444    1
  2018  1596  1598    1
  2019  1596  1597    1
  2020  1771  1772    1
  2021  1559  1557    1
  2022  1750  1749    1
  2023  2332  2331    2
  2024  1598  1599    1
  2025  1598  1600    1
  2026  1450  1448    1
  2027  2685  2691   ar
  2028  2685  2684   ar
  2029  2683  2684   ar
  2030  1777  1772    1
  2031  2641  2642   ar
  2032  2641  2640   ar
  2033  2617  2618   ar
  2034  2617  2615   ar
  2035  1603  1602    1
  2036  1725  1727    1
  2037  1725  1709    1
  2038  2336  2315    2
  2039  2586  2588    1
  2040  2586  2584    1
  2041   302   303   ar
  2042  1599  1604    1
  2043  2730  2729    1
  2044  2724  2729   ar
  2045  2724  2725   ar
  2046  1581  1580    1
  2047  1581  1595    1
  2048  2691  2681    1
  2049  1587  1586    2
  2050  1576  1577    1
  2051  2588  2590    1
  2052  1753  1755    1
  2053  1753  1751    1
  2054  1556  1555    1
  2055  2618  2619   ar
  2056  2642  2643   ar
  2057  1495  1496   ar
  2058  2293  2295    1
  2059  2623  2622   ar
  2060  1470  1465    1
  2061  1470  1468    1
  2062  1763  1762    1
  2063  1566  1572   ar
  2064  1566  1567   ar
  2065  1764  1762   ar
  2066  1764  1765   ar
  2067  1442  1444    1
  2068  1562  1568   ar
  2069  2333  2330   ar
  2070  2333  2334   ar
  2071  1523  1522    2
  2072   278   277    1
  2073  1519  1520   ar
  2074  2331  2330   ar
  2075  2331  2325   ar
  2076  2676  2681    1
  2077  2676  2675    1
  2078  1498  1501   ar
  2079  1498  1497   ar
  2080  2616  2615    1
  2081  1522  1521   ar
  2082   273   271    1
  2083   273   275    1
  2084   305   303   ar
  2085  2640  2638   ar
  2086  1572  1571   ar
  2087  2729  2728   ar
  2088  2725  2726   ar
  2089  1601  1600    1
  2090  1601  1618    1
  2091  1616  1595    2
  2092  1727  1726    1
  2093  1555  1557    1
  2094  1555  1553    1
  2095  2615  2614   ar
  2096  1543  1544   ar
  2097  1543  1549   ar
  2098  2330  2329   ar
  2099  1762  1761   ar
  2100  1537  1536    1
  2101  1604  1602    1
  2102  1604  1615    1
  2103  1765  1758   ar
  2104  1749  1751    1
  2105   303   304    1
  2106  1585  1586   ar
  2107  1585  1592   ar
  2108  1545  1546    2
  2109  1545  1544   ar
  2110  1444  1446    1
  2111  2584  2582    1
  2112  2584  2585    1
  2113   271   269    1
  2114  1501  1502   ar
  2115  1731  1730    1
  2116  2334  2335   ar
  2117  2673  2675    1
  2118  1600  1602    1
  2119  2325  2326   ar
  2120  1557  1558    1
  2121  1586  1588   ar
  2122  2681  2679    1
  2123  1448  1446    1
  2124  1448  1449    1
  2125  1636  1618    2
  2126  1724  1703    2
  2127  1597  1595    1
  2128  1465  1464    1
  2129  1558  1575    1
  2130  1446  1447    1
  2131  1723  1703    1
  2132  1595  1617    1
  2133  1755  1756    1
  2134  1755  1757    1
  2135  1709  1708    1
  2136  2582  2583    1
  2137  2593  2592    1
  2138  2619  2622   ar
  2139  2619  2620   ar
  2140  1538  1536    1
  2141  1538  1549    1
  2142  1538  1533    1
  2143  2295  2297    1
  2144  2295  2296    1
  2145  1751  1752    1
  2146  1468  1469    1
  2147  1468  1466    1
  2148   279   277   ar
  2149   279   280   ar
  2150   277   276   ar
  2151  1726  1728    1
  2152  1577  1575    1
  2153  1544  1547   ar
  2154  2675  2677    1
  2155  1496  1497   ar
  2156  2764  2763    1
  2157  2315  2298    1
  2158  2315  2337    1
  2159  2315  2317    1
  2160  1567  1568   ar
  2161  1567  1570   ar
  2162  1520  1521   ar
  2163  1520  1526   ar
  2164  1497  1503   ar
  2165  2329  2335   ar
  2166  2329  2328   ar
  2167  1568  1569    2
  2168  1536  1534    1
  2169  2643  2644    2
  2170  2643  2637   ar
  2171  1549  1548   ar
  2172  1761  1759   ar
  2173  1704  1705    1
  2174  1704  1706    1
  2175  1521  1524   ar
  2176  1730  1728    1
  2177  1730  1732    1
  2178  2335  2324    1
  2179  2298  2297    1
  2180  1758  1759   ar
  2181  1758  1757    1
  2182  1702  1681    2
  2183  2726  2727   ar
  2184  2590  2585    1
  2185  2590  2601    1
  2186  2614  2620   ar
  2187   269   267    1
  2188   269   270    1
  2189  2326  2328   ar
  2190  2326  2327    1
  2191  1592  1591   ar
  2192  2728  2727   ar
  2193  2728  2731   ar
  2194  2594  2592   ar
  2195  2594  2595   ar
  2196  2638  2637   ar
  2197  2638  2639    1
  2198  1703  1705    1
  2199  1703  1687    1
  2200  1618  1620    1
  2201  1618  1637    1
  2202  1571  1570   ar
  2203  1553  1554    1
  2204  2319  2324    1
  2205  2319  2318    1
  2206   275   270    1
  2207   275   286    1
  2208  2592  2591   ar
  2209  1752  1757    1
  2210  1759  1760    2
  2211  2768  2767    2
  2212  2602  2581    2
  2213  1593  1575    2
  2214  1708  1706    1
  2215  1708  1710    1
  2216  1615  1614   ar
  2217  1615  1609   ar
  2218  1502  1503   ar
  2219  2620  2621    2
  2220  2748  2747    2
  2221  1575  1594    1
  2222  1743  1744   ar
  2223  1743  1740   ar
  2224  2297  2299    1
  2225  2583  2581    1
  2226  1588  1589   ar
  2227  2727  2733   ar
  2228  2296  2301    1
  2229  1533  1532    1
  2230  2784  2783    1
  2231  2316  2317    1
  2232  2316  2318    1
  2233  2324  2322    1
  2234  1483  1461    2
  2235  1728  1729    1
  2236  1620  1619    1
  2237  1744  1745   ar
  2238  1463  1461    1
  2239  1463  1462    1
  2240   276   282   ar
  2241    87    69    2
  2242   280   286   ar
  2243   280   281   ar
  2244  1447  1461    1
  2245  1466  1464    1
  2246  1466  1467    1
  2247  2679  2677    1
  2248  2679  2680    1
  2249  1503  1493    1
  2250  1464  1462    1
  2251  2765  2763    1
  2252  2765  2760    1
  2253  2765  2766    1
  2254   267   268    1
  2255  2731  2732   ar
  2256  1706  1707    1
  2257  2595  2601   ar
  2258  2595  2596   ar
  2259  2601  2600   ar
  2260  2780  2779    1
  2261  2780  2785    1
  2262  1614  1613   ar
  2263  1547  1548   ar
  2264  1526  1515    1
  2265  1526  1525   ar
  2266  1742  1741    2
  2267  1608  1609   ar
  2268  1608  1606   ar
  2269    67    47    2
  2270  2763  2761    1
  2271   286   285   ar
  2272  1524  1525   ar
  2273  2677  2678    1
  2274  2760  2759    1
  2275  1732  1733    1
  2276  1732  1734    1
  2277  2779  2777    1
  2278  2779  2781    1
  2279  1609  1610   ar
  2280  1554  1552    1
  2281  1591  1589   ar
  2282  2785  2783    1
  2283  2785  2786    1
  2284  2591  2597   ar
  2285  2318  2320    1
  2286  1740  1741   ar
  2287  1740  1739   ar
  2288  1461  1482    1
  2289  2744  2743    1
  2290  2581  2603    1
  2291  2581  2564    1
  2292  1515  1513    1
  2293  1515  1510    1
  2294  2767  2766   ar
  2295  2767  2769   ar
  2296  1681  1701    1
  2297  1681  1664    1
  2298  1681  1683    1
  2299  1534  1532    1
  2300  1534  1535    1
  2301  2747  2749   ar
  2302  2747  2746   ar
  2303  1589  1590    1
  2304  1532  1530    1
  2305  1741  1735   ar
  2306  2777  2778    1
  2307  1745  1739   ar
  2308  1745  1734    1
  2309  2759  2761    1
  2310  2759  2757    1
  2311  1687  1686    1
  2312  2353  2352    1
  2313  2733  2732   ar
  2314  2733  2723    1
  2315  2678  2694    1
  2316  1729  1734    1
  2317  2783  2781    1
  2318  2766  2773   ar
  2319  1721  1720   ar
  2320  1721  1722   ar
  2321  1710  1711    1
  2322  1710  1712    1
  2323  2749  2750   ar
  2324   281   282   ar
  2325   281   284   ar
  2326   282   283    2
  2327  1535  1552    1
  2328  1720  1717   ar
  2329  2596  2597   ar
  2330  2596  2599   ar
  2331  2600  2599   ar
  2332  1505  1484    2
  2333  2788  2787    2
  2334  2745  2743    1
  2335  2745  2746    1
  2336  2745  2740    1
  2337  1514  1513    1
  2338  2301  2299    1
  2339  2301  2312    1
  2340  2299  2300    1
  2341   268   266    1
  2342  1682  1683    1
  2343  1682  1684    1
  2344  1739  1738   ar
  2345  1607  1606    1
  2346  1606  1605   ar
  2347  1707  1712    1
  2348  1619  1621    1
  2349  1513  1511    1
  2350  2762  2761    1
  2351  2762  2776    1
  2352  1467  1484    1
  2353  2597  2598    2
  2354  1493  1488    1
  2355  1493  1491    1
  2356  1613  1610   ar
  2357  1664  1663    1
  2358  2322  2320    1
  2359  2322  2323    1
  2360  2769  2770   ar
  2361    69    53    1
  2362    69    88    1
  2363    69    71    1
  2364   285   284   ar
  2365  2743  2741    1
  2366  2746  2753   ar
  2367  1610  1611   ar
  2368  1621  1622    1
  2369  1621  1623    1
  2370    53    52    1
  2371    48    50    1
  2372    48    49    1
  2373  2320  2321    1
  2374  2786  2787   ar
  2375  2786  2793   ar
  2376  2781  2782    1
  2377  2564  2563    1
  2378  1622  1627    1
  2379  2352  2354   ar
  2380  2352  2351   ar
  2381  1510  1509    1
  2382  2782  2796    1
  2383  1735  1736   ar
  2384  1722  1712    1
  2385  1722  1716   ar
  2386  1552  1573    2
  2387  1552  1574    1
  2388  2723  2721    1
  2389  2723  2718    1
  2390    47    30    1
  2391    47    49    1
  2392    47    68    1
  2393  2787  2789   ar
  2394  1666  1665    1
  2395  2757  2758    1
  2396  1686  1684    1
  2397  1686  1688    1
  2398    30    29    1
  2399  2312  2311   ar
  2400  2312  2306   ar
  2401  1488  1487    1
  2402  2354  2355   ar
  2403   287   266    2
  2404  1717  1716   ar
  2405  1717  1718   ar
  2406  2740  2739    1
  2407  2566  2565    1
  2408  2778  2776    1
  2409  2351  2349   ar
  2410  1738  1736   ar
  2411  1484  1486    1
  2412  1484  1504    1
  2413  2305  2306   ar
  2414  2305  2303   ar
  2415  2773  2772   ar
  2416  1626  1625    1
  2417  1530  1531    1
  2418  2750  2751    1
  2419  2750  2752   ar
  2420    70    71    1
  2421    70    72    1
  2422  1719  1718    1
  2423  1684  1685    1
  2424  2570  2569    1
  2425  2793  2792   ar
  2426  2311  2310   ar
  2427    50    52    1
  2428    50    51    1
  2429  1736  1737    1
  2430  2306  2307   ar
  2431  2794  2776    2
  2432  1716  1715   ar
  2433  1605  1611   ar
  2434  1627  1625    1
  2435  1627  1628    1
  2436  2713  2694    2
  2437   266   288    1
  2438   266   252    1
  2439  2797  2799    1
  2440  2797  2798    1
  2441  2694  2696    1
  2442  2694  2712    1
  2443  2776  2795    1
  2444  1491  1492    1
  2445  1491  1489    1
  2446  2721  2722    1
  2447  2721  2719    1
  2448  1718  1713   ar
  2449    32    31    1
  2450  1486  1485    1
  2451  2565  2563    1
  2452  2565  2567    1
  2453  2304  2303    1
  2454  2770  2772   ar
  2455  2770  2771    1
  2456  2800  2799    1
  2457  2800  2805    1
  2458  1663  1665    1
  2459  1663  1661    1
  2460  1611  1612    2
  2461  2355  2348   ar
  2462  2303  2302   ar
  2463  2753  2752   ar
  2464   110    89    2
  2465  1624  1623    1
  2466  1624  1638    1
  2467    52    54    1
  2468  1531  1529    1
  2469  2799  2801    1
  2470  1511  1509    1
  2471  1511  1512    1
  2472  2563  2561    1
  2473  2718  2717    1
  2474  2789  2790   ar
  2475  2349  2348   ar
  2476  2349  2350    2
  2477   111    89    1
  2478  2739  2741    1
  2479  2739  2737    1
  2480  1623  1625    1
  2481  2310  2307   ar
  2482  2321  2338    1
  2483  2758  2756    1
  2484  2307  2308   ar
  2485  2814  2796    2
  2486  2696  2695    1
  2487  2741  2742    1
  2488  1509  1507    1
  2489  1665  1667    1
  2490  2569  2571   ar
  2491  2569  2568   ar
  2492    55    54    1
  2493   254   253    1
  2494  2348  2347    1
  2495  2796  2798    1
  2496  2796  2815    1
  2497  1715  1714   ar
  2498  1656  1638    2
  2499   258   257    2
  2500  2571  2572   ar
  2501  2792  2790   ar
  2502    27    29    1
  2503    27    25    1
  2504    27    28    1
  2505    29    31    1
  2506    25    26    1
  2507  1487  1489    1
  2508  1487  1485    1
  2509  2302  2308   ar
  2510  1489  1490    1
  2511  1688  1689    1
  2512  1688  1690    1
  2513    45    24    2
  2514  1713  1714   ar
  2515  2742  2756    1
  2516  2373  2372    2
  2517   252   251    1
  2518    89    75    1
  2519    89    91    1
  2520  2805  2803    1
  2521  2805  2806    1
  2522    75    74    1
  2523    72    74    1
  2524    72    73    1
  2525  2308  2309    2
  2526  2804  2803    1
  2527  2790  2791    1
  2528  1628  1635   ar
  2529  1628  1629   ar
  2530  2357  2338    2
  2531  1635  1634   ar
  2532   253   251    1
  2533   253   255    1
  2534  1685  1690    1
  2535  2568  2574   ar
  2536    31    33    1
  2537    51    56    1
  2538    54    56    1
  2539  1512  1529    1
  2540  2342  2347    1
  2541  2342  2341    1
  2542  1661  1659    1
  2543  1661  1662    1
  2544  1638  1657    1
  2545  1638  1640    1
  2546  1667  1678    1
  2547  1667  1662    1
  2548  2719  2717    1
  2549  2719  2720    1
  2550  2347  2345    1
  2551  2561  2559    1
  2552  2561  2562    1
  2553  2572  2578   ar
  2554  2572  2573   ar
  2555  3305  3304    1
  2556  2567  2578    1
  2557  2567  2562    1
  2558  2756  2774    2
  2559  2756  2775    1
  2560  2338  2340    1
  2561  2338  2356    1
  2562    74    76    1
  2563   257   259   ar
  2564   257   256   ar
  2565  1507  1508    1
  2566  1529  1551    2
  2567  1529  1550    1
  2568  2717  2715    1
  2569  1508  1506    1
  2570  2801  2803    1
  2571  2801  2802    1
  2572   251   249    1
  2573  2372  2371   ar
  2574  2372  2374   ar
  2575  2737  2738    1
  2576  2700  2699    1
  2577  2700  2714    1
  2578   259   260   ar
  2579  2806  2813   ar
  2580  2806  2807   ar
  2581  2802  2816    1
  2582  1690  1700    1
  2583  1699  1700   ar
  2584  1699  1698   ar
  2585    26    24    1
  2586  2695  2697    1
  2587  2340  2339    1
  2588  2574  2573   ar
  2589  2574  2575    2
  2590  2813  2812   ar
  2591  1630  1629    2
  2592  2578  2577   ar
  2593    28    33    1
  2594  1629  1631   ar
  2595  1634  1632   ar
  2596  2699  2697    1
  2597  2699  2701    1
  2598  1639  1640    1
  2599  1639  1641    1
  2600    56    66    1
  2601    73    78    1
  2602  2371  2369   ar
  2603  2573  2576   ar
  2604    24     7    1
  2605    24    46    1
  2606  1678  1677   ar
  2607  1678  1672   ar
  2608  1659  1660    1
  2609  1490  1506    1
  2610    33    44    1
  2611  3304  3299   ar
  2612  3304  3303   ar
  2613   255   256    1
  2614   255   250    1
  2615  1677  1676   ar
  2616  2559  2560    1
  2617  1700  1694   ar
  2618  2738  2736    1
  2619  2339  2341    1
  2620  2374  2375   ar
  2621  2720  2736    1
  2622  2808  2807    2
  2623   256   263   ar
  2624  3299  3300   ar
  2625  2807  2809   ar
  2626    91    90    1
  2627  1698  1695   ar
  2628  2716  2715    1
  2629  2716  2714    1
  2630  2735  2714    2
  2631  1528  1506    2
  2632  2341  2343    1
  2633  2697  2698    1
  2634  2812  2810   ar
  2635     7     6    1
  2636  1506  1527    1
  2637  2560  2558    1
  2638   260   261    1
  2639   260   262   ar
  2640  2577  2576   ar
  2641  3306  3303   ar
  2642  3306  3307   ar
  2643  3303  3302   ar
  2644     9     8    1
  2645  2714  2734    1
  2646  1672  1671   ar
  2647  1672  1673   ar
  2648  2345  2343    1
  2649  2345  2346    1
  2650  1631  1632   ar
  2651  1632  1633    1
  2652  2701  2702    1
  2653  2701  2703    1
  2654   249   250    1
  2655   249   247    1
  2656    76    77    1
  2657    76    78    1
  2658  2369  2370    2
  2659  2369  2368   ar
  2660  1671  1669   ar
  2661  1676  1673   ar
  2662  2834  2816    2
  2663    90    92    1
  2664  3300  3301   ar
  2665  3309  3289    2
  2666  1641  1642    1
  2667  1641  1643    1
  2668    66    65   ar
  2669    66    60   ar
  2670  1660  1658    1
  2671  2809  2810   ar
  2672    86    85   ar
  2673    86    79   ar
  2674  2816  2835    1
  2675  2816  2818    1
  2676    78    79    1
  2677  2375  2368   ar
  2678  2736  2755    2
  2679  2736  2754    1
  2680  2579  2558    2
  2681  2810  2811    2
  2682    65    64   ar
  2683  3307  3308   ar
  2684  1673  1674   ar
  2685   263   262   ar
  2686  2343  2344    1
  2687  1694  1695   ar
  2688  1694  1693   ar
  2689  3302  3301   ar
  2690  3302  3308   ar
  2691  1695  1696   ar
  2692    44    43   ar
  2693    44    38   ar
  2694  2368  2367    1
  2695  1642  1647    1
  2696  1669  1670    1
  2697  1669  1668   ar
  2698  2558  2580    1
  2699  2558  2542    1
  2700  2817  2818    1
  2701  2817  2819    1
  2702    85    83   ar
  2703     8     6    1
  2704     8    10    1
  2705  3308  3298    1
  2706    79    80   ar
  2707     6     4    1
  2708  2698  2703    1
  2709  3293  3298    1
  2710  3293  3292    1
  2711   235   234    1
  2712    37    38   ar
  2713    37    35   ar
  2714  3445  3444    1
  2715   247   248    1
  2716  1679  1658    2
  2717  2711  2710   ar
  2718  2711  2704   ar
  2719  1674  1668   ar
  2720  1674  1675    2
  2721  2703  2704    1
  2722   248   246    1
  2723  2820  2819    1
  2724  2820  2825    1
  2725  1693  1692   ar
  2726    43    42   ar
  2727    38    39   ar
  2728  1643  1644    1
  2729  1643  1645    1
  2730    60    59   ar
  2731    60    61   ar
  2732  2710  2708   ar
  2733  3289  3291    1
  2734  3289  3310    1
  2735  3289  3272    1
  2736   134   112    2
  2737  3290  3291    1
  2738  3290  3292    1
  2739  1658  1644    1
  2740  1658  1680    1
  2741    64    61   ar
  2742  2367  2362    1
  2743  2367  2365    1
  2744  2704  2705   ar
  2745    92    93    1
  2746    92    94    1
  2747  1696  1697    1
  2748  1696  1691   ar
  2749  3298  3296    1
  2750  2819  2821    1
  2751  2546  2547   ar
  2752  2546  2551   ar
  2753    59    58   ar
  2754  2547  2548   ar
  2755     4     2    1
  2756     4     5    1
  2757  1655  1654   ar
  2758  1655  1648   ar
  2759    36    35    1
  2760  2344  2358    1
  2761    13    12    1
  2762   233   234   ar
  2763   233   239   ar
  2764  2362  2361    1
  2765   234   236   ar
  2766  3292  3294    1
  2767    35    34   ar
  2768  1654  1652   ar
  2769  1647  1645    1
  2770  1647  1648    1
  2771    93    98    1
  2772  2542  2541    1
  2773   264   246    2
  2774  2833  2832   ar
  2775  2833  2826   ar
  2776  3461  3460    1
  2777  3461  3466    1
  2778  3449  3448    2
  2779    10     5    1
  2780    10    21    1
  2781  3441  3446    1
  2782  3441  3440    1
  2783   133   112    1
  2784   265   246    1
  2785    61    62   ar
  2786    83    84    1
  2787    83    82   ar
  2788  1645  1646    1
  2789  3446  3444    1
  2790  3446  3447    1
  2791  1692  1691   ar
  2792  2552  2551    1
  2793  2548  2549   ar
  2794  2551  2550   ar
  2795    80    81    2
  2796    80    82   ar
  2797    95    94    1
  2798    95   112    1
  2799    14    12   ar
  2800    14    15   ar
  2801   246   229    1
  2802  2708  2709    2
  2803  2708  2707   ar
  2804    94    96    1
  2805  3460  3458    1
  2806  3460  3462    1
  2807  3444  3442    1
  2808  2832  2830   ar
  2809   108   107   ar
  2810   108   109   ar
  2811  1648  1649   ar
  2812  2445  2424    2
  2813   112   114    1
  2814  2825  2826    1
  2815  2825  2823    1
  2816  3477  3457    2
  2817  3465  3464    1
  2818  2377  2358    2
  2819  3458  3459    1
  2820     2     3    1
  2821  2705  2707   ar
  2822  2705  2706    2
  2823  2544  2543    1
  2824    42    39   ar
  2825    39    40   ar
  2826  3272  3271    1
  2827  2543  2541    1
  2828  2543  2545    1
  2829  3443  3442    1
  2830  3443  3457    1
  2831  3440  3442    1
  2832  3440  3438    1
  2833   240   239    2
  2834    12    11   ar
  2835  2826  2827   ar
  2836  2422  2401    2
  2837   107   104   ar
  2838   239   238   ar
  2839   236   237   ar
  2840  2549  2550   ar
  2841  2549  2555   ar
  2842  2541  2539    1
  2843  2365  2366    1
  2844  2365  2363    1
  2845  2358  2360    1
  2846  2358  2376    1
  2847  2550  2553   ar
  2848  3459  3457    1
  2849  2360  2359    1
  2850    58    57   ar
  2851  3296  3294    1
  2852  3296  3297    1
  2853  3466  3464    1
  2854  3466  3476    1
  2855  3274  3273    1
  2856  1652  1653    1
  2857  1652  1651   ar
  2858  2830  2831    2
  2859  2830  2829   ar
  2860    34    40   ar
  2861    23     1    1
  2862  2821  2823    1
  2863  2821  2822    1
  2864  3457  3478    1
  2865  3448  3447   ar
  2866  3448  3450   ar
  2867    21    15   ar
  2868    21    20   ar
  2869    15    16   ar
  2870  3294  3295    1
  2871  2361  2359    1
  2872  2361  2363    1
  2873    98   109    1
  2874    98    96    1
  2875  2827  2829   ar
  2876  2827  2828    2
  2877  3447  3454   ar
  2878  1649  1651   ar
  2879  1649  1650    2
  2880  3464  3462    1
  2881   109   103   ar
  2882     3     1    1
  2883  3463  3462    1
  2884    40    41    2
  2885    62    57   ar
  2886    62    63    1
  2887  2823  2824    1
  2888  3425  3424    1
  2889  2555  2545    1
  2890  2555  2554   ar
  2891   237   238   ar
  2892   237   243   ar
  2893  3429  3428    2
  2894  2553  2554   ar
  2895   238   241   ar
  2896  3438  3439    1
  2897    96    97    1
  2898   229   228    1
  2899  2363  2364    1
  2900  2822  2836    1
  2901  2545  2540    1
  2902  2424  2446    1
  2903  2424  2407    1
  2904  2424  2426    1
  2905  3333  3311    2
  2906  3295  3311    1
  2907    11    17   ar
  2908   230   231    1
  2909   230   228    1
  2910   230   232    1
  2911   114   113    1
  2912  3271  3273    1
  2913  3271  3269    1
  2914   104   103   ar
  2915   104   105   ar
  2916     1    22    1
  2917  2401  2384    1
  2918  2401  2423    1
  2919  2401  2403    1
  2920  3273  3275    1
  2921  3476  3475   ar
  2922  3476  3470   ar
  2923   228   226    1
  2924  3450  3451   ar
  2925  2384  2383    1
  2926  2539  2540    1
  2927  2539  2537    1
  2928    20    19   ar
  2929  2468  2447    2
  2930  2407  2406    1
  2931  2425  2426    1
  2932  2425  2427    1
  2933    16    17   ar
  2934    16    19   ar
  2935   103   102   ar
  2936  3454  3453   ar
  2937  2402  2403    1
  2938  2402  2404    1
  2939  2469  2447    1
  2940   243   232    1
  2941   243   242   ar
  2942   130   131   ar
  2943   130   127   ar
  2944  3311  3332    1
  2945  3311  3313    1
  2946  3424  3426    1
  2947  3424  3422    1
  2948   241   242   ar
  2949  3469  3470   ar
  2950  3469  3468   ar
  2951  3269  3267    1
  2952  3269  3270    1
  2953  3439  3437    1
  2954  3428  3430   ar
  2955  3428  3427   ar
  2956   106   105    2
  2957    17    18    2
  2958  3475  3474   ar
  2959  2530  2529    2
  2960  3470  3471   ar
  2961   232   227    1
  2962  3287  3266    2
  2963   113   115    1
  2964   131   132   ar
  2965   105    99   ar
  2966  2538  2537    1
  2967  2538  2536    1
  2968   244   223    2
  2969   129   128    2
  2970  3426  3427    1
  2971  3426  3421    1
  2972  2364  2378    1
  2973  2836  2857    2
  2974  2836  2856    1
  2975  2836  2838    1
  2976  2447  2430    1
  2977  2447  2449    1
  2978  3275  3270    1
  2979  3275  3286    1
  2980  3288  3266    1
  2981  2523  2529   ar
  2982  2523  2524   ar
  2983  3430  3431   ar
  2984   156   135    2
  2985  3329  3330   ar
  2986  3329  3326   ar
  2987  2379  2381    1
  2988  2379  2380    1
  2989  3328  3327    2
  2990  2557  2536    2
  2991  3451  3453   ar
  2992  3451  3452    1
  2993  3267  3268    1
  2994  2430  2429    1
  2995  3278  3277    1
  2996  2404  2406    1
  2997  2404  2405    1
  2998  2529  2528   ar
  2999  3386  3385    1
  3000  2386  2385    1
  3001  3468  3467   ar
  3002  2381  2383    1
  3003  2381  2382    1
  3004   174   173    2
  3005  2406  2408    1
  3006  2400  2378    2
  3007  2525  2524    1
  3008   225   223    1
  3009   225   224    1
  3010  3427  3434   ar
  3011  3409  3408    2
  3012  2383  2385    1
  3013  3266  3268    1
  3014  3266  3250    1
  3015   151   150    1
  3016  3279  3277   ar
  3017  3279  3280   ar
  3018  3423  3422    1
  3019  3423  3437    1
  3020   226   227    1
  3021   226   224    1
  3022   127   128   ar
  3023   127   126   ar
  3024  2427  2429    1
  3025  2427  2428    1
  3026  3384  3385   ar
  3027  3384  3390   ar
  3028  2556  2536    1
  3029   102   100   ar
  3030  3313  3312    1
  3031  2536  2519    1
  3032  2524  2526   ar
  3033  3330  3331   ar
  3034   192   191    1
  3035  3474  3471   ar
  3036  3391  3390    2
  3037   128   122   ar
  3038   197   196    2
  3039  3422  3420    1
  3040  3471  3472   ar
  3041   190   196   ar
  3042   190   191   ar
  3043  3349  3348    1
  3044  2429  2431    1
  3045  3421  3420    1
  3046  3437  3455    2
  3047  3437  3456    1
  3048   211   210    1
  3049  3277  3276   ar
  3050  2378  2380    1
  3051  2378  2399    1
  3052   223   209    1
  3053   223   245    1
  3054   167   173   ar
  3055   167   168   ar
  3056  2838  2837    1
  3057  3327  3326   ar
  3058  3327  3321   ar
  3059  3326  3325   ar
  3060   115   116    1
  3061   115   117    1
  3062  3385  3387   ar
  3063    99   100   ar
  3064  2528  2531   ar
  3065  2528  2527   ar
  3066  2385  2387    1
  3067   132   126   ar
  3068   132   121    1
  3069   116   121    1
  3070  3286  3280   ar
  3071  3286  3285   ar
  3072   196   195   ar
  3073   173   172   ar
  3074   191   193   ar
  3075  3410  3408   ar
  3076  3410  3411   ar
  3077  2837  2839    1
  3078  3390  3389   ar
  3079   117   118    1
  3080   117   119    1
  3081  3408  3407   ar
  3082  3280  3281   ar
  3083  3431  3432    1
  3084  3431  3433   ar
  3085  3467  3472   ar
  3086   152   149   ar
  3087   152   153   ar
  3088  2853  2854   ar
  3089  2853  2850   ar
  3090  3420  3418    1
  3091  2449  2448    1
  3092   100   101    1
  3093   135   155    1
  3094   135   118    1
  3095   135   137    1
  3096  2409  2408    1
  3097  2526  2527   ar
  3098   169   168    1
  3099  3312  3314    1
  3100  2405  2410    1
  3101  2531  2532   ar
  3102  2854  2855   ar
  3103  3472  3473    1
  3104   126   125   ar
  3105  2382  2387    1
  3106  2408  2410    1
  3107  2840  2839    1
  3108  2840  2845    1
  3109   209   208    1
  3110  2428  2433    1
  3111  2527  2533   ar
  3112   150   149   ar
  3113   150   145   ar
  3114  3434  3433   ar
  3115  2852  2851    1
  3116  2492  2470    2
  3117   220   219   ar
  3118   220   213   ar
  3119   168   170   ar
  3120  3331  3325   ar
  3121  3331  3320    1
  3122  3412  3411    2
  3123   121   119    1
  3124  3369  3368    1
  3125  3250  3249    1
  3126  3348  3350   ar
  3127  3348  3347   ar
  3128   122   123   ar
  3129  3252  3251    1
  3130  2850  2851   ar
  3131  2850  2849   ar
  3132   193   194   ar
  3133   219   217   ar
  3134  3315  3314    1
  3135  3315  3320    1
  3136   149   148   ar
  3137  2508  2507    2
  3138   195   194   ar
  3139   195   198   ar
  3140  2519  2518    1
  3141  3276  3282   ar
  3142  3325  3324   ar
  3143  2387  2398    1
  3144  2448  2450    1
  3145  3321  3322   ar
  3146  2851  2846   ar
  3147  3411  3413   ar
  3148  2839  2841    1
  3149  3285  3284   ar
  3150  2855  2849   ar
  3151  2855  2845    1
  3152   153   154   ar
  3153   210   212    1
  3154   210   208    1
  3155  2443  2442   ar
  3156  2443  2444   ar
  3157  2431  2432    1
  3158  2431  2433    1
  3159   172   175   ar
  3160   172   171   ar
  3161  2532  2533   ar
  3162  3387  3388   ar
  3163   119   120    1
  3164  2520  2518    1
  3165  2520  2521    1
  3166  2520  2522    1
  3167  3350  3351   ar
  3168  2518  2516    1
  3169  2410  2421    1
  3170  2533  2522    1
  3171   194   200   ar
  3172   212   213    1
  3173   212   207    1
  3174   137   136    1
  3175  2849  2848   ar
  3176  3281  3282   ar
  3177  3281  3284   ar
  3178  3405  3404    1
  3179  3407  3406    1
  3180  3407  3414   ar
  3181  3389  3388   ar
  3182  3389  3392   ar
  3183   145   146   ar
  3184  2845  2843    1
  3185  3314  3316    1
  3186  2491  2470    1
  3187   208   206    1
  3188  3249  3251    1
  3189  3249  3247    1
  3190   198   199   ar
  3191  2433  2444    1
  3192  2420  2421   ar
  3193  2420  2419   ar
  3194  3347  3345   ar
  3195  3320  3318    1
  3196   213   214   ar
  3197  2535  2513    2
  3198  3406  3404    1
  3199  3406  3401    1
  3200  2846  2847   ar
  3201   125   123   ar
  3202  3418  3419    1
  3203   175   176   ar
  3204  2470  2453    1
  3205  2470  2472    1
  3206  2442  2439   ar
  3207   170   171   ar
  3208  2507  2509   ar
  3209  2507  2506   ar
  3210   123   124    1
  3211  3282  3283    2
  3212  3388  3394   ar
  3213  2444  2438   ar
  3214  3251  3253    1
  3215  3368  3367   ar
  3216  3368  3370   ar
  3217  3404  3402    1
  3218   171   177   ar
  3219  2421  2415   ar
  3220  3367  3365   ar
  3221  2848  2847   ar
  3222  3322  3324   ar
  3223  3322  3323    1
  3224  2522  2517    1
  3225  2512  2493    2
  3226   179   157    2
  3227   200   199   ar
  3228   200   189    1
  3229   148   154   ar
  3230   148   147   ar
  3231   217   218    1
  3232   217   216   ar
  3233  3316  3318    1
  3234  3316  3317    1
  3235  2515  2513    1
  3236  2515  2514    1
  3237  2398  2397   ar
  3238  2398  2392   ar
  3239  2453  2452    1
  3240  2509  2510   ar
  3241  2841  2843    1
  3242  2841  2842    1
  3243  3413  3414   ar
  3244   154   144    1
  3245   207   206    1
  3246  2450  2452    1
  3247  2450  2451    1
  3248  3419  3417    1
  3249  2419  2416   ar
  3250  2506  2504   ar
  3251  2452  2454    1
  3252  3392  3393   ar
  3253  3351  3344   ar
  3254  3353  3334    2
  3255  2487  2486    2
  3256  2513  2534    1
  3257  2513  2499    1
  3258   146   147   ar
  3259  2466  2465   ar
  3260  2466  2467   ar
  3261  2465  2462   ar
  3262   206   204    1
  3263  2516  2517    1
  3264  2516  2514    1
  3265   136   138    1
  3266  2397  2396   ar
  3267  2843  2844    1
  3268  3318  3319    1
  3269   176   177   ar
  3270  3401  3400    1
  3271  3345  3344   ar
  3272  3345  3346    2
  3273   189   184    1
  3274   189   187    1
  3275  2873  2872    1
  3276  3247  3248    1
  3277  3247  3245    1
  3278   214   216   ar
  3279   214   215    2
  3280  2472  2471    1
  3281  2391  2392   ar
  3282  2391  2389   ar
  3283  3253  3248    1
  3284  3253  3263    1
  3285  2439  2438   ar
  3286  2439  2440   ar
  3287  2488  2489   ar
  3288  2488  2485   ar
  3289   177   166    1
  3290  3370  3371   ar
  3291  2451  2456    1
  3292  2392  2393   ar
  3293   188   187    1
  3294  2438  2437   ar
  3295  2415  2416   ar
  3296  2415  2414   ar
  3297  3365  3366    2
  3298  3365  3364   ar
  3299   140   138    1
  3300   140   142    1
  3301   140   141    1
  3302  3246  3245    1
  3303  3246  3244    1
  3304  3394  3393   ar
  3305  3394  3383    1
  3306  3317  3334    1
  3307  2842  2858    1
  3308  3344  3343    1
  3309  2510  2503   ar
  3310   139   144    1
  3311   139   138    1
  3312  2493  2511    1
  3313  2493  2495    1
  3314  2493  2476    1
  3315  2416  2417   ar
  3316  3402  3400    1
  3317  3402  3403    1
  3318  2504  2503   ar
  3319  2504  2505    2
  3320  2486  2485   ar
  3321  2486  2480   ar
  3322  3264  3244    2
  3323   144   142    1
  3324   157   141    1
  3325   157   159    1
  3326   157   178    1
  3327  2877  2858    2
  3328  2872  2874   ar
  3329  2872  2871   ar
  3330  3334  3336    1
  3331  3334  3352    1
  3332  2489  2490   ar
  3333  2485  2484   ar
  3334   184   183    1
  3335   142   143    1
  3336  2467  2456    1
  3337  2467  2461   ar
  3338  2874  2875   ar
  3339   187   185    1
  3340  2495  2494    1
  3341  3400  3398    1
  3342  2396  2393   ar
  3343  2462  2463   ar
  3344  2462  2461   ar
  3345   164   165    1
  3346   164   166    1
  3347   164   162    1
  3348  2503  2502    1
  3349  2464  2463    2
  3350  3417  3436    2
  3351  3417  3403    1
  3352  3417  3435    1
  3353  2454  2456    1
  3354  2454  2455    1
  3355   159   158    1
  3356   186   185    1
  3357   186   203    1
  3358  2414  2412   ar
  3359  2389  2390    1
  3360  2389  2388   ar
  3361   204   205    1
  3362   158   160    1
  3363  2499  2498    1
  3364  3263  3262   ar
  3365  3263  3257   ar
  3366  2393  2394   ar
  3367  2440  2441    2
  3368  2440  2434   ar
  3369  2498  2500    1
  3370  2498  2496    1
  3371   166   161    1
  3372  2437  2435   ar
  3373  3244  3265    1
  3374  3244  3227    1
  3375  2471  2473    1
  3376  3383  3381    1
  3377  3383  3378    1
  3378   221   203    2
  3379  3371  3364   ar
  3380  3336  3335    1
  3381  3364  3363    1
  3382  2871  2869   ar
  3383  2858  2876    1
  3384  2858  2860    1
  3385   205   203    1
  3386  2463  2457   ar
  3387  2480  2481   ar
  3388  2500  2502    1
  3389  2500  2501    1
  3390  2476  2475    1
  3391  3256  3257   ar
  3392  3256  3255   ar
  3393   161   160    1
  3394  2461  2460   ar
  3395  2475  2473    1
  3396  2475  2477    1
  3397  2875  2868   ar
  3398  2972  2971    1
  3399   185   183    1
  3400  3262  3261   ar
  3401  3381  3382    1
  3402  3381  3379    1
  3403  3343  3338    1
  3404  3343  3341    1
  3405  2417  2418    2
  3406  2417  2411   ar
  3407   183   181    1
  3408  3257  3258   ar
  3409   203   222    1
  3410  3338  3337    1
  3411  2490  2484   ar
  3412  2490  2479    1
  3413  2484  2483   ar
  3414   162   160    1
  3415   162   163    1
  3416  2502  2497    1
  3417  2388  2394   ar
  3418  2412  2411   ar
  3419  2412  2413    1
  3420  2869  2868   ar
  3421  2869  2870    2
  3422  2494  2496    1
  3423  2394  2395    2
  3424  2473  2474    1
  3425  2434  2435   ar
  3426  3398  3399    1
  3427  2435  2436    1
  3428  2868  2867    1
  3429  2496  2497    1
  3430  3255  3254   ar
  3431  3378  3377    1
  3432  2860  2859    1
  3433  3227  3226    1
  3434  3399  3397    1
  3435  2893  2892    1
  3436  2477  2479    1
  3437  2477  2478    1
  3438  2481  2483   ar
  3439  2481  2482    1
  3440  3335  3337    1
  3441  3261  3258   ar
  3442  2862  2867    1
  3443  2862  2861    1
  3444  3363  3361    1
  3445  3363  3358    1
  3446  2457  2458   ar
  3447  3258  3259   ar
  3448  3341  3339    1
  3449  3341  3342    1
  3450  2460  2458   ar
  3451  2971  2973   ar
  3452  2971  2970   ar
  3453  2474  2479    1
  3454  3337  3339    1
  3455  2859  2861    1
  3456  3339  3340    1
  3457  3379  3377    1
  3458  3379  3380    1
  3459  3373  3354    2
  3460  3229  3228    1
  3461  2973  2974   ar
  3462  2867  2865    1
  3463   181   182    1
  3464   182   180    1
  3465   163   180    1
  3466  2458  2459    1
  3467  3254  3259   ar
  3468  3361  3359    1
  3469  3361  3362    1
  3470  3259  3260    1
  3471  2892  2894   ar
  3472  2892  2891   ar
  3473  3228  3226    1
  3474  3228  3230    1
  3475  3358  3357    1
  3476  3377  3375    1
  3477  3226  3224    1
  3478  2970  2976   ar
  3479  2861  2863    1
  3480  2914  2913    1
  3481  2968  2967    1
  3482  3416  3397    2
  3483  3397  3380    1
  3484  3397  3415    1
  3485  2894  2895   ar
  3486   202   180    2
  3487  3233  3232    1
  3488  2891  2889   ar
  3489  2952  2951    2
  3490   180   201    1
  3491  3359  3357    1
  3492  3359  3360    1
  3493  3340  3354    1
  3494  3356  3354    1
  3495  3356  3355    1
  3496  3354  3372    1
  3497  2991  2990    1
  3498  2974  2980   ar
  3499  2974  2975   ar
  3500  3376  3375    1
  3501  3376  3374    1
  3502  2908  2913   ar
  3503  2908  2909   ar
  3504  2969  2967    1
  3505  2969  2980    1
  3506  2969  2964    1
  3507  3396  3374    2
  3508  2987  2992    1
  3509  2987  2986    1
  3510  2863  2865    1
  3511  2863  2864    1
  3512  2913  2912   ar
  3513  2865  2866    1
  3514  3232  3234   ar
  3515  3232  3231   ar
  3516  3234  3235   ar
  3517  3357  3355    1
  3518  2967  2965    1
  3519  2992  2990    1
  3520  2992  2993    1
  3521  2976  2975   ar
  3522  2976  2977    2
  3523  3224  3222    1
  3524  3224  3225    1
  3525  2895  2888   ar
  3526  2980  2979   ar
  3527  2986  2984    1
  3528  2986  2988    1
  3529  3230  3241    1
  3530  3230  3225    1
  3531  2964  2963    1
  3532  2889  2888   ar
  3533  2889  2890    2
  3534  2951  2953   ar
  3535  2951  2950   ar
  3536  3231  3237   ar
  3537  2995  2994    2
  3538  2975  2978   ar
  3539  2933  2931   ar
  3540  2933  2934   ar
  3541  2935  2934    1
  3542  3374  3360    1
  3543  3374  3395    1
  3544  3235  3241   ar
  3545  3235  3236   ar
  3546  2932  2931    2
  3547  2909  2910   ar
  3548  2953  2954   ar
  3549  2990  2988    1
  3550  2984  2985    1
  3551  3241  3240   ar
  3552  2948  2947    1
  3553  2888  2887    1
  3554  3222  3223    1
  3555  2963  2965    1
  3556  2963  2961    1
  3557  2993  2994   ar
  3558  2993  3000   ar
  3559  2864  2878    1
  3560  3237  3236   ar
  3561  3237  3238    2
  3562  2994  2996   ar
  3563  3223  3221    1
  3564  3242  3221    2
  3565  2912  2915   ar
  3566  2912  2911   ar
  3567  3236  3239   ar
  3568  2931  2930   ar
  3569  2934  2936   ar
  3570  2949  2950    1
  3571  2949  2947    1
  3572  2949  2944    1
  3573  2965  2966    1
  3574  2988  2989    1
  3575  2950  2957   ar
  3576  3240  3239   ar
  3577  2979  2978   ar
  3578  2897  2878    2
  3579  2947  2945    1
  3580  2989  3003    1
  3581  3007  3012    1
  3582  3007  3006    1
  3583  2966  2983    1
  3584  2915  2916   ar
  3585  3000  2999   ar
  3586  2910  2911   ar
  3587  2954  2955    2
  3588  2954  2956   ar
  3589  3221  3243    1
  3590  3221  3204    1
  3591  3011  3010    1
  3592  2985  2983    1
  3593  2887  2882    1
  3594  2887  2885    1
  3595  3012  3010    1
  3596  3012  3013    1
  3597  2911  2917   ar
  3598  2996  2997   ar
  3599  3006  3004    1
  3600  3006  3008    1
  3601  2944  2943    1
  3602  2961  2962    1
  3603  2878  2880    1
  3604  2878  2896    1
  3605  2882  2881    1
  3606  3004  3005    1
  3607  2930  2929    1
  3608  2930  2937   ar
  3609  3015  3014    2
  3610  2936  2937   ar
  3611  2999  2997   ar
  3612  2957  2956   ar
  3613  2880  2879    1
  3614  2983  3001    2
  3615  2983  3002    1
  3616  2997  2998    2
  3617  3010  3008    1
  3618  3013  3014   ar
  3619  3013  3020   ar
  3620  2916  2917   ar
  3621  3014  3016   ar
  3622  2943  2945    1
  3623  2943  2941    1
  3624  2962  2960    1
  3625  2945  2946    1
  3626  3021  3003    2
  3627  3003  3005    1
  3628  3003  3022    1
  3629  2917  2907    1
  3630  2929  2927    1
  3631  2929  2924    1
  3632  2885  2883    1
  3633  2885  2886    1
  3634  3204  3203    1
  3635  3008  3009    1
  3636  3020  3019   ar
  3637  2928  2927    1
  3638  2946  2960    1
  3639  2927  2925    1
  3640  2881  2879    1
  3641  2881  2883    1
  3642  3009  3023    1
  3643  3016  3017   ar
  3644  3210  3209    1
  3645  2883  2884    1
  3646  3019  3017   ar
  3647  3206  3205    1
  3648  3205  3203    1
  3649  3205  3207    1
  3650  3203  3201    1
  3651  2960  2981    2
  3652  2960  2982    1
  3653  2924  2923    1
  3654  2907  2902    1
  3655  2907  2905    1
  3656  3017  3018    1
  3657  3209  3208   ar
  3658  3209  3211   ar
  3659  2941  2942    1
  3660  3208  3214   ar
  3661  3211  3212   ar
  3662  3027  3026    1
  3663  3027  3032    1
  3664  2919  2898    2
  3665  2942  2940    1
  3666  3024  3026    1
  3667  3024  3025    1
  3668  2925  2923    1
  3669  2925  2926    1
  3670  3214  3215    2
  3671  3214  3213   ar
  3672  2902  2901    1
  3673  2905  2906    1
  3674  2905  2903    1
  3675  3212  3213   ar
  3676  3212  3218   ar
  3677  2884  2898    1
  3678  3026  3028    1
  3679  3023  3044    2
  3680  3023  3025    1
  3681  3023  3045    1
  3682  3213  3216   ar
  3683  2923  2921    1
  3684  3032  3043    1
  3685  3032  3030    1
  3686  3207  3218    1
  3687  3207  3202    1
  3688  3218  3217   ar
  3689  3201  3199    1
  3690  3201  3202    1
  3691  2926  2940    1
  3692  2898  2900    1
  3693  2898  2918    1
  3694  3216  3217   ar
  3695  3031  3030    1
  3696  2900  2899    1
  3697  3042  3043   ar
  3698  3042  3041   ar
  3699  3043  3037   ar
  3700  2903  2901    1
  3701  2903  2904    1
  3702  3200  3199    1
  3703  3200  3198    1
  3704  2940  2959    2
  3705  2940  2958    1
  3706  3219  3198    2
  3707  2901  2899    1
  3708  2922  2921    1
  3709  2922  2920    1
  3710  3030  3028    1
  3711  3041  3038   ar
  3712  3220  3198    1
  3713  3037  3036   ar
  3714  3037  3038   ar
  3715  3028  3029    1
  3716  3198  3184    1
  3717  3036  3034   ar
  3718  3038  3039   ar
  3719  2939  2920    2
  3720  3029  3046    1
  3721  2904  2920    1
  3722  2920  2938    1
  3723  3034  3035    1
  3724  3034  3033   ar
  3725  3039  3033   ar
  3726  3039  3040    2
  3727  3184  3183    1
  3728  3046  3064    2
  3729  3046  3065    1
  3730  3046  3048    1
  3731  3193  3192    1
  3732  3183  3185    1
  3733  3183  3181    1
  3734  3185  3186    1
  3735  3185  3187    1
  3736  3191  3192   ar
  3737  3191  3189   ar
  3738  3192  3194   ar
  3739  3047  3048    1
  3740  3047  3049    1
  3741  3190  3189    2
  3742  3050  3049    1
  3743  3050  3055    1
  3744  3189  3188   ar
  3745  3194  3195   ar
  3746  3197  3178    2
  3747  3188  3195   ar
  3748  3188  3187    1
  3749  3063  3062   ar
  3750  3063  3056   ar
  3751  3049  3051    1
  3752  3062  3060   ar
  3753  3180  3178    1
  3754  3180  3179    1
  3755  3187  3182    1
  3756  3055  3056    1
  3757  3055  3053    1
  3758  3196  3178    1
  3759  3181  3179    1
  3760  3181  3182    1
  3761  3056  3057   ar
  3762  3178  3161    1
  3763  3060  3061    1
  3764  3060  3059   ar
  3765  3057  3059   ar
  3766  3057  3058    2
  3767  3051  3053    1
  3768  3051  3052    1
  3769  3053  3054    1
  3770  3172  3171    2
  3771  3161  3160    1
  3772  3171  3165   ar
  3773  3171  3170   ar
  3774  3165  3166   ar
  3775  3052  3066    1
  3776  3167  3166    1
  3777  3160  3162    1
  3778  3160  3158    1
  3779  3166  3168   ar
  3780  3170  3173   ar
  3781  3170  3169   ar
  3782  3173  3174   ar
  3783  3162  3163    1
  3784  3162  3164    1
  3785  3088  3066    2
  3786  3168  3169   ar
  3787  3169  3175   ar
  3788  3083  3082    2
  3789  3174  3175   ar
  3790  3084  3085   ar
  3791  3084  3081   ar
  3792  3175  3164    1
  3793  3156  3158    1
  3794  3156  3157    1
  3795  3066  3087    1
  3796  3066  3068    1
  3797  3082  3081   ar
  3798  3082  3076   ar
  3799  3158  3159    1
  3800  3085  3086   ar
  3801  3081  3080   ar
  3802  3164  3159    1
  3803  3177  3155    2
  3804  3076  3077   ar
  3805  3068  3067    1
  3806  3086  3080   ar
  3807  3086  3075    1
  3808  3070  3075    1
  3809  3070  3069    1
  3810  3080  3079   ar
  3811  3157  3155    1
  3812  3067  3069    1
  3813  3077  3079   ar
  3814  3077  3078    1
  3815  3176  3155    1
  3816  3155  3139    1
  3817  3075  3073    1
  3818  3069  3071    1
  3819  3154  3133    2
  3820  3149  3148    1
  3821  3150  3151   ar
  3822  3150  3147   ar
  3823  3071  3073    1
  3824  3071  3072    1
  3825  3073  3074    1
  3826  3139  3138    1
  3827  3151  3152   ar
  3828  3148  3147   ar
  3829  3148  3143   ar
  3830  3138  3140    1
  3831  3138  3136    1
  3832  3147  3146   ar
  3833  3133  3135    1
  3834  3133  3153    1
  3835  3133  3117    1
  3836  3135  3134    1
  3837  3140  3141    1
  3838  3140  3142    1
  3839  3132  3111    2
  3840  3143  3144   ar
  3841  3110  3089    2
  3842  3152  3146   ar
  3843  3152  3142    1
  3844  3072  3089    1
  3845  3146  3145   ar
  3846  3131  3111    1
  3847  3134  3136    1
  3848  3136  3137    1
  3849  3142  3137    1
  3850  3144  3145   ar
  3851  3111  3113    1
  3852  3111  3095    1
  3853  3113  3112    1
  3854  3089  3109    1
  3855  3089  3091    1
  3856  3117  3116    1
  3857  3116  3118    1
  3858  3116  3114    1
  3859  3128  3129   ar
  3860  3128  3125   ar
  3861  3129  3130   ar
  3862  3112  3114    1
  3863  3127  3126    1
  3864  3118  3119    1
  3865  3118  3120    1
  3866  3091  3090    1
  3867  3125  3126   ar
  3868  3125  3124   ar
  3869  3114  3115    1
  3870  3126  3121   ar
  3871  3130  3124   ar
  3872  3130  3120    1
  3873  3095  3094    1
  3874  3090  3092    1
  3875  3124  3123   ar
  3876  3094  3092    1
  3877  3094  3096    1
  3878  3120  3115    1
  3879  3121  3122   ar
  3880  3092  3093    1
  3881  3123  3122   ar
  3882  3107  3106   ar
  3883  3107  3108   ar
  3884  3106  3103   ar
  3885  3096  3097    1
  3886  3096  3098    1
  3887  3093  3098    1
  3888  3108  3098    1
  3889  3108  3102   ar
  3890  3103  3104   ar
  3891  3103  3102   ar
  3892  3105  3104    1
  3893  3104  3099   ar
  3894  3102  3101   ar
  3895  3099  3100   ar
  3896  3101  3100   ar
