1xpf_lig
 OpenBabel02141814123D
libRbt.so/2013.1/901 2013/11/27
 14 13  0  0  0  0  0  0  0  0999 V2000
   21.8911    5.5994   61.4877 N   0  0  0  0  0  0  0  0  0  0  0  0
   20.8620    4.9729   62.2968 C   0  0  0  0  0  0  0  0  0  0  0  0
   21.4033    3.8093   63.0376 C   0  0  0  0  0  0  0  0  0  0  0  0
   20.2732    3.2544   63.8478 C   0  0  0  0  0  0  0  0  0  0  0  0
   20.8139    2.0801   64.5753 N   0  0  0  0  0  0  0  0  0  0  0  0
   19.7044    1.2743   65.1707 C   0  0  0  0  0  0  0  0  0  0  0  0
   20.1632   -0.0926   65.7072 C   0  0  0  0  0  0  0  0  0  0  0  0
   20.6438   -1.0634   64.6141 C   0  0  0  0  0  0  0  0  0  0  0  0
   19.4408   -1.5700   63.8329 C   0  0  0  0  0  0  0  0  0  0  0  0
   19.9149   -2.7896   63.1626 N   0  0  0  0  0  0  0  0  0  0  0  0
   18.9125   -3.6297   62.4490 C   0  0  0  0  0  0  0  0  0  0  0  0
   18.3620   -4.4607   63.6281 C   0  0  0  0  0  0  0  0  0  0  0  0
   17.2112   -5.4020   63.3775 C   0  0  0  0  0  0  0  0  0  0  0  0
   16.7066   -6.0766   64.5609 N   0  0  0  0  0  0  0  0  0  0  0  0
  1  2  1  0  0  0  0
  2  3  1  0  0  0  0
  3  4  1  0  0  0  0
  4  5  1  0  0  0  0
  5  6  1  0  0  0  0
  6  7  1  0  0  0  0
  7  8  1  0  0  0  0
  8  9  1  0  0  0  0
  9 10  1  0  0  0  0
 10 11  1  0  0  0  0
 11 12  1  0  0  0  0
 12 13  1  0  0  0  0
 13 14  1  0  0  0  0
M  END
>  <CHROM.1>
179.21698087,179.33112887,-167.31666524,169.01554413,-66.42408462,-73.01812901
-161.09300007,172.22771877,-83.39486254,175.26082436,-176.26876848,19.73589215
-0.29244205,63.69638375,0.12700369,-1.22737712,-1.52483658

>  <Name>
1xpf_lig

>  <RI>
0

>  <Rbt.Current_Directory>
/home/afrankz/demos/rdock_decoys_rna/rnas/1xpf

>  <Rbt.Executable>
rbdock ($Id: //depot/dev/client3/rdock/2013.1/src/exe/rbdock.cxx#4 $)

>  <Rbt.Library>
libRbt.so (2013.1, Build901 2013/11/27)

>  <Rbt.Parameter_File>
/export/apps/rDock/src/rDock_2013.1_src/data/scripts/dock_solv.prm

>  <Rbt.Receptor>
prm/pocket_docking_2.prm

>  <SCORE>
-3.99767

>  <SCORE.INTER>
4.62256

>  <SCORE.INTER.CONST>
1

>  <SCORE.INTER.POLAR>
0

>  <SCORE.INTER.ROT>
11

>  <SCORE.INTER.SOLV>
5.68985

>  <SCORE.INTER.VDW>
-9.74825

>  <SCORE.INTER.norm>
0.330183

>  <SCORE.INTRA>
-8.65013

>  <SCORE.INTRA.DIHEDRAL>
-14.8864

>  <SCORE.INTRA.DIHEDRAL.0>
17.7811

>  <SCORE.INTRA.POLAR>
0

>  <SCORE.INTRA.POLAR.0>
0

>  <SCORE.INTRA.REPUL>
0

>  <SCORE.INTRA.REPUL.0>
0

>  <SCORE.INTRA.SOLV>
-0.376823

>  <SCORE.INTRA.SOLV.lig_0>
-47.9565

>  <SCORE.INTRA.VDW>
-1.01852

>  <SCORE.INTRA.VDW.0>
0.515983

>  <SCORE.INTRA.norm>
-0.617866

>  <SCORE.RESTR>
0.029896

>  <SCORE.RESTR.CAVITY>
0.029896

>  <SCORE.RESTR.norm>
0.00213543

>  <SCORE.SYSTEM>
0

>  <SCORE.SYSTEM.CONST>
0

>  <SCORE.SYSTEM.DIHEDRAL>
0

>  <SCORE.SYSTEM.SOLV>
0

>  <SCORE.SYSTEM.norm>
0

>  <SCORE.heavy>
14

>  <SCORE.norm>
-0.285548

>  <RMSD>
1.063

$$$$
1xpf_lig
 OpenBabel02141814123D
libRbt.so/2013.1/901 2013/11/27
 14 13  0  0  0  0  0  0  0  0999 V2000
   16.2979   -4.7224   64.2210 N   0  0  0  0  0  0  0  0  0  0  0  0
   17.5437   -5.3489   63.8189 C   0  0  0  0  0  0  0  0  0  0  0  0
   17.6878   -5.3471   62.3441 C   0  0  0  0  0  0  0  0  0  0  0  0
   18.0054   -3.9390   61.9469 C   0  0  0  0  0  0  0  0  0  0  0  0
   19.3770   -3.6621   62.4395 N   0  0  0  0  0  0  0  0  0  0  0  0
   19.5236   -2.2192   62.8025 C   0  0  0  0  0  0  0  0  0  0  0  0
   20.3227   -1.9943   64.0978 C   0  0  0  0  0  0  0  0  0  0  0  0
   20.2952   -0.5414   64.6045 C   0  0  0  0  0  0  0  0  0  0  0  0
   21.0833    0.3367   63.6443 C   0  0  0  0  0  0  0  0  0  0  0  0
   20.8547    1.7098   64.1175 N   0  0  0  0  0  0  0  0  0  0  0  0
   19.8304    2.5305   63.4128 C   0  0  0  0  0  0  0  0  0  0  0  0
   20.1544    3.9264   63.9880 C   0  0  0  0  0  0  0  0  0  0  0  0
   21.4491    4.5908   63.5938 C   0  0  0  0  0  0  0  0  0  0  0  0
   21.5946    4.8465   62.1713 N   0  0  0  0  0  0  0  0  0  0  0  0
  1  2  1  0  0  0  0
  2  3  1  0  0  0  0
  3  4  1  0  0  0  0
  4  5  1  0  0  0  0
  5  6  1  0  0  0  0
  6  7  1  0  0  0  0
  7  8  1  0  0  0  0
  8  9  1  0  0  0  0
  9 10  1  0  0  0  0
 10 11  1  0  0  0  0
 11 12  1  0  0  0  0
 12 13  1  0  0  0  0
 13 14  1  0  0  0  0
M  END
>  <CHROM.1>
73.57201597,69.52943379,-148.37232620,138.90770287,-170.87496461,-68.88362976
173.06976354,-99.47274046,-167.42854009,68.98100207,60.93298240,19.57286535
-0.70251051,63.37171321,2.23553932,-0.95344664,-2.53677917

>  <Name>
1xpf_lig

>  <RI>
0

>  <Rbt.Current_Directory>
/home/afrankz/demos/rdock_decoys_rna/rnas/1xpf

>  <Rbt.Executable>
rbdock ($Id: //depot/dev/client3/rdock/2013.1/src/exe/rbdock.cxx#4 $)

>  <Rbt.Library>
libRbt.so (2013.1, Build901 2013/11/27)

>  <Rbt.Parameter_File>
/export/apps/rDock/src/rDock_2013.1_src/data/scripts/dock_solv.prm

>  <Rbt.Receptor>
prm/pocket_docking_2.prm

>  <SCORE>
0.291348

>  <SCORE.INTER>
6.24279

>  <SCORE.INTER.CONST>
1

>  <SCORE.INTER.POLAR>
0

>  <SCORE.INTER.ROT>
11

>  <SCORE.INTER.SOLV>
3.66745

>  <SCORE.INTER.VDW>
-7.99395

>  <SCORE.INTER.norm>
0.445914

>  <SCORE.INTRA>
-5.95145

>  <SCORE.INTRA.DIHEDRAL>
-13.0686

>  <SCORE.INTRA.DIHEDRAL.0>
17.7811

>  <SCORE.INTRA.POLAR>
0

>  <SCORE.INTRA.POLAR.0>
0

>  <SCORE.INTRA.REPUL>
0

>  <SCORE.INTRA.REPUL.0>
0

>  <SCORE.INTRA.SOLV>
2.73138

>  <SCORE.INTRA.SOLV.lig_0>
-47.9565

>  <SCORE.INTRA.VDW>
-0.782852

>  <SCORE.INTRA.VDW.0>
0.515983

>  <SCORE.INTRA.norm>
-0.425103

>  <SCORE.RESTR>
0

>  <SCORE.RESTR.CAVITY>
0

>  <SCORE.RESTR.norm>
0

>  <SCORE.SYSTEM>
0

>  <SCORE.SYSTEM.CONST>
0

>  <SCORE.SYSTEM.DIHEDRAL>
0

>  <SCORE.SYSTEM.SOLV>
0

>  <SCORE.SYSTEM.norm>
0

>  <SCORE.heavy>
14

>  <SCORE.norm>
0.0208106

>  <RMSD>
1.129

$$$$
1xpf_lig
 OpenBabel02141814123D
libRbt.so/2013.1/901 2013/11/27
 14 13  0  0  0  0  0  0  0  0999 V2000
   22.0491    5.5541   61.5335 N   0  0  0  0  0  0  0  0  0  0  0  0
   21.0660    5.2488   62.5564 C   0  0  0  0  0  0  0  0  0  0  0  0
   21.4869    4.0815   63.3666 C   0  0  0  0  0  0  0  0  0  0  0  0
   20.4099    3.8542   64.3813 C   0  0  0  0  0  0  0  0  0  0  0  0
   20.7756    2.6166   65.1129 N   0  0  0  0  0  0  0  0  0  0  0  0
   20.2136    1.4141   64.4251 C   0  0  0  0  0  0  0  0  0  0  0  0
   20.4700    0.1013   65.1851 C   0  0  0  0  0  0  0  0  0  0  0  0
   19.8561   -1.1397   64.5131 C   0  0  0  0  0  0  0  0  0  0  0  0
   20.7401   -1.5663   63.3509 C   0  0  0  0  0  0  0  0  0  0  0  0
   19.8823   -2.4263   62.5226 N   0  0  0  0  0  0  0  0  0  0  0  0
   19.5872   -3.8011   63.0150 C   0  0  0  0  0  0  0  0  0  0  0  0
   18.0864   -3.6568   63.3482 C   0  0  0  0  0  0  0  0  0  0  0  0
   17.3314   -4.8680   63.8340 C   0  0  0  0  0  0  0  0  0  0  0  0
   17.1484   -5.9113   62.8399 N   0  0  0  0  0  0  0  0  0  0  0  0
  1  2  1  0  0  0  0
  2  3  1  0  0  0  0
  3  4  1  0  0  0  0
  4  5  1  0  0  0  0
  5  6  1  0  0  0  0
  6  7  1  0  0  0  0
  7  8  1  0  0  0  0
  8  9  1  0  0  0  0
  9 10  1  0  0  0  0
 10 11  1  0  0  0  0
 11 12  1  0  0  0  0
 12 13  1  0  0  0  0
 13 14  1  0  0  0  0
M  END
>  <CHROM.1>
-179.92513177,175.20627908,-88.79530866,-175.90552314,178.04824861,78.35205155
-161.59954507,-74.46888428,110.72251561,177.07880526,-68.29171536,19.93592667
-0.03565354,63.57055463,-0.25219101,-1.22958071,-1.84553741

>  <Name>
1xpf_lig

>  <RI>
0

>  <Rbt.Current_Directory>
/home/afrankz/demos/rdock_decoys_rna/rnas/1xpf

>  <Rbt.Executable>
rbdock ($Id: //depot/dev/client3/rdock/2013.1/src/exe/rbdock.cxx#4 $)

>  <Rbt.Library>
libRbt.so (2013.1, Build901 2013/11/27)

>  <Rbt.Parameter_File>
/export/apps/rDock/src/rDock_2013.1_src/data/scripts/dock_solv.prm

>  <Rbt.Receptor>
prm/pocket_docking_2.prm

>  <SCORE>
-0.51399

>  <SCORE.INTER>
6.32842

>  <SCORE.INTER.CONST>
1

>  <SCORE.INTER.POLAR>
0

>  <SCORE.INTER.ROT>
11

>  <SCORE.INTER.SOLV>
6.80747

>  <SCORE.INTER.VDW>
-8.98354

>  <SCORE.INTER.norm>
0.45203

>  <SCORE.INTRA>
-6.9963

>  <SCORE.INTRA.DIHEDRAL>
-13.0291

>  <SCORE.INTRA.DIHEDRAL.0>
17.7811

>  <SCORE.INTRA.POLAR>
0

>  <SCORE.INTRA.POLAR.0>
0

>  <SCORE.INTRA.REPUL>
0

>  <SCORE.INTRA.REPUL.0>
0

>  <SCORE.INTRA.SOLV>
-0.200062

>  <SCORE.INTRA.SOLV.lig_0>
-47.9565

>  <SCORE.INTRA.VDW>
-0.381728

>  <SCORE.INTRA.VDW.0>
0.515983

>  <SCORE.INTRA.norm>
-0.499736

>  <SCORE.RESTR>
0.153892

>  <SCORE.RESTR.CAVITY>
0.153892

>  <SCORE.RESTR.norm>
0.0109923

>  <SCORE.SYSTEM>
0

>  <SCORE.SYSTEM.CONST>
0

>  <SCORE.SYSTEM.DIHEDRAL>
0

>  <SCORE.SYSTEM.SOLV>
0

>  <SCORE.SYSTEM.norm>
0

>  <SCORE.heavy>
14

>  <SCORE.norm>
-0.0367135

>  <RMSD>
1.131

$$$$
1xpf_lig
 OpenBabel02141814123D
libRbt.so/2013.1/901 2013/11/27
 14 13  0  0  0  0  0  0  0  0999 V2000
   16.8190   -4.1077   64.6118 N   0  0  0  0  0  0  0  0  0  0  0  0
   17.1762   -5.3096   63.8811 C   0  0  0  0  0  0  0  0  0  0  0  0
   17.7387   -4.9759   62.5514 C   0  0  0  0  0  0  0  0  0  0  0  0
   19.1491   -4.5303   62.7829 C   0  0  0  0  0  0  0  0  0  0  0  0
   19.0712   -3.1498   63.3204 N   0  0  0  0  0  0  0  0  0  0  0  0
   20.4411   -2.5821   63.5107 C   0  0  0  0  0  0  0  0  0  0  0  0
   20.5133   -1.5239   64.6251 C   0  0  0  0  0  0  0  0  0  0  0  0
   19.8766   -0.1746   64.2475 C   0  0  0  0  0  0  0  0  0  0  0  0
   20.0674    0.8055   65.3952 C   0  0  0  0  0  0  0  0  0  0  0  0
   19.5648    2.0879   64.8812 N   0  0  0  0  0  0  0  0  0  0  0  0
   20.5478    3.1847   64.6570 C   0  0  0  0  0  0  0  0  0  0  0  0
   19.8536    3.9440   63.5056 C   0  0  0  0  0  0  0  0  0  0  0  0
   20.5798    5.0923   62.8521 C   0  0  0  0  0  0  0  0  0  0  0  0
   21.8456    4.7398   62.2328 N   0  0  0  0  0  0  0  0  0  0  0  0
  1  2  1  0  0  0  0
  2  3  1  0  0  0  0
  3  4  1  0  0  0  0
  4  5  1  0  0  0  0
  5  6  1  0  0  0  0
  6  7  1  0  0  0  0
  7  8  1  0  0  0  0
  8  9  1  0  0  0  0
  9 10  1  0  0  0  0
 10 11  1  0  0  0  0
 11 12  1  0  0  0  0
 12 13  1  0  0  0  0
 13 14  1  0  0  0  0
M  END
>  <CHROM.1>
77.40697001,-76.37329602,-176.67215175,-152.26144493,-73.49891576,-177.29788738
173.91232579,-112.27809573,150.98763343,-174.24405768,60.22865439,19.51752024
-0.46441271,63.78965163,2.10873093,-0.96949820,-2.68314929

>  <Name>
1xpf_lig

>  <RI>
0

>  <Rbt.Current_Directory>
/home/afrankz/demos/rdock_decoys_rna/rnas/1xpf

>  <Rbt.Executable>
rbdock ($Id: //depot/dev/client3/rdock/2013.1/src/exe/rbdock.cxx#4 $)

>  <Rbt.Library>
libRbt.so (2013.1, Build901 2013/11/27)

>  <Rbt.Parameter_File>
/export/apps/rDock/src/rDock_2013.1_src/data/scripts/dock_solv.prm

>  <Rbt.Receptor>
prm/pocket_docking_2.prm

>  <SCORE>
-3.72111

>  <SCORE.INTER>
2.6293

>  <SCORE.INTER.CONST>
1

>  <SCORE.INTER.POLAR>
0

>  <SCORE.INTER.ROT>
11

>  <SCORE.INTER.SOLV>
3.04333

>  <SCORE.INTER.VDW>
-10.1949

>  <SCORE.INTER.norm>
0.187807

>  <SCORE.INTRA>
-6.40677

>  <SCORE.INTRA.DIHEDRAL>
-12.5441

>  <SCORE.INTRA.DIHEDRAL.0>
17.7811

>  <SCORE.INTRA.POLAR>
0

>  <SCORE.INTRA.POLAR.0>
0

>  <SCORE.INTRA.REPUL>
0

>  <SCORE.INTRA.REPUL.0>
0

>  <SCORE.INTRA.SOLV>
3.03298

>  <SCORE.INTRA.SOLV.lig_0>
-47.9565

>  <SCORE.INTRA.VDW>
-1.65122

>  <SCORE.INTRA.VDW.0>
0.515983

>  <SCORE.INTRA.norm>
-0.457626

>  <SCORE.RESTR>
0.0563594

>  <SCORE.RESTR.CAVITY>
0.0563594

>  <SCORE.RESTR.norm>
0.00402567

>  <SCORE.SYSTEM>
0

>  <SCORE.SYSTEM.CONST>
0

>  <SCORE.SYSTEM.DIHEDRAL>
0

>  <SCORE.SYSTEM.SOLV>
0

>  <SCORE.SYSTEM.norm>
0

>  <SCORE.heavy>
14

>  <SCORE.norm>
-0.265793

>  <RMSD>
1.154

$$$$
1xpf_lig
 OpenBabel02141814123D
libRbt.so/2013.1/901 2013/11/27
 14 13  0  0  0  0  0  0  0  0999 V2000
   15.9680   -5.2841   64.6079 N   0  0  0  0  0  0  0  0  0  0  0  0
   16.8312   -4.6351   63.6385 C   0  0  0  0  0  0  0  0  0  0  0  0
   18.2548   -4.9562   63.8955 C   0  0  0  0  0  0  0  0  0  0  0  0
   19.0397   -4.3483   62.7749 C   0  0  0  0  0  0  0  0  0  0  0  0
   19.1192   -2.8941   63.0574 N   0  0  0  0  0  0  0  0  0  0  0  0
   20.4968   -2.5196   63.5010 C   0  0  0  0  0  0  0  0  0  0  0  0
   20.5105   -1.4979   64.6512 C   0  0  0  0  0  0  0  0  0  0  0  0
   19.9703   -0.1107   64.2611 C   0  0  0  0  0  0  0  0  0  0  0  0
   20.1002    0.8279   65.4512 C   0  0  0  0  0  0  0  0  0  0  0  0
   19.6723    2.1396   64.9433 N   0  0  0  0  0  0  0  0  0  0  0  0
   20.6443    3.2666   65.0116 C   0  0  0  0  0  0  0  0  0  0  0  0
   21.3548    3.0987   63.6510 C   0  0  0  0  0  0  0  0  0  0  0  0
   20.5773    3.3701   62.3881 C   0  0  0  0  0  0  0  0  0  0  0  0
   20.2561    4.7681   62.1586 N   0  0  0  0  0  0  0  0  0  0  0  0
  1  2  1  0  0  0  0
  2  3  1  0  0  0  0
  3  4  1  0  0  0  0
  4  5  1  0  0  0  0
  5  6  1  0  0  0  0
  6  7  1  0  0  0  0
  7  8  1  0  0  0  0
  8  9  1  0  0  0  0
  9 10  1  0  0  0  0
 10 11  1  0  0  0  0
 11 12  1  0  0  0  0
 12 13  1  0  0  0  0
 13 14  1  0  0  0  0
M  END
>  <CHROM.1>
174.84558939,76.85467908,107.04069164,-139.58916799,-66.55863814,-177.09269814
175.20579155,-120.90089563,89.34982171,67.93043594,70.23751951,19.48568651
-0.62691003,63.85659095,2.55066994,-1.15891846,-2.22189118

>  <Name>
1xpf_lig

>  <RI>
0

>  <Rbt.Current_Directory>
/home/afrankz/demos/rdock_decoys_rna/rnas/1xpf

>  <Rbt.Executable>
rbdock ($Id: //depot/dev/client3/rdock/2013.1/src/exe/rbdock.cxx#4 $)

>  <Rbt.Library>
libRbt.so (2013.1, Build901 2013/11/27)

>  <Rbt.Parameter_File>
/export/apps/rDock/src/rDock_2013.1_src/data/scripts/dock_solv.prm

>  <Rbt.Receptor>
prm/pocket_docking_2.prm

>  <SCORE>
-1.85654

>  <SCORE.INTER>
4.81411

>  <SCORE.INTER.CONST>
1

>  <SCORE.INTER.POLAR>
0

>  <SCORE.INTER.ROT>
11

>  <SCORE.INTER.SOLV>
5.8967

>  <SCORE.INTER.VDW>
-9.68949

>  <SCORE.INTER.norm>
0.343865

>  <SCORE.INTRA>
-6.73049

>  <SCORE.INTRA.DIHEDRAL>
-12.0126

>  <SCORE.INTRA.DIHEDRAL.0>
17.7811

>  <SCORE.INTRA.POLAR>
0

>  <SCORE.INTRA.POLAR.0>
0

>  <SCORE.INTRA.REPUL>
0

>  <SCORE.INTRA.REPUL.0>
0

>  <SCORE.INTRA.SOLV>
1.19735

>  <SCORE.INTRA.SOLV.lig_0>
-47.9565

>  <SCORE.INTRA.VDW>
-1.32289

>  <SCORE.INTRA.VDW.0>
0.515983

>  <SCORE.INTRA.norm>
-0.480749

>  <SCORE.RESTR>
0.059837

>  <SCORE.RESTR.CAVITY>
0.059837

>  <SCORE.RESTR.norm>
0.00427407

>  <SCORE.SYSTEM>
0

>  <SCORE.SYSTEM.CONST>
0

>  <SCORE.SYSTEM.DIHEDRAL>
0

>  <SCORE.SYSTEM.SOLV>
0

>  <SCORE.SYSTEM.norm>
0

>  <SCORE.heavy>
14

>  <SCORE.norm>
-0.13261

>  <RMSD>
1.220

$$$$
1xpf_lig
 OpenBabel02141814123D
libRbt.so/2013.1/901 2013/11/27
 14 13  0  0  0  0  0  0  0  0999 V2000
   20.4461    5.1432   62.8035 N   0  0  0  0  0  0  0  0  0  0  0  0
   20.3280    4.4823   64.0902 C   0  0  0  0  0  0  0  0  0  0  0  0
   19.8786    3.0796   63.9280 C   0  0  0  0  0  0  0  0  0  0  0  0
   19.8071    2.4915   65.3028 C   0  0  0  0  0  0  0  0  0  0  0  0
   19.4302    1.0669   65.1319 N   0  0  0  0  0  0  0  0  0  0  0  0
   20.6340    0.1877   65.2456 C   0  0  0  0  0  0  0  0  0  0  0  0
   21.1203   -0.3585   63.8920 C   0  0  0  0  0  0  0  0  0  0  0  0
   20.0936   -1.2519   63.1736 C   0  0  0  0  0  0  0  0  0  0  0  0
   19.9863   -2.5793   63.9089 C   0  0  0  0  0  0  0  0  0  0  0  0
   18.8479   -3.2656   63.2808 N   0  0  0  0  0  0  0  0  0  0  0  0
   19.0326   -4.6820   62.8575 C   0  0  0  0  0  0  0  0  0  0  0  0
   17.5809   -5.1947   62.9748 C   0  0  0  0  0  0  0  0  0  0  0  0
   16.9684   -5.3319   64.3456 C   0  0  0  0  0  0  0  0  0  0  0  0
   15.6851   -6.0120   64.3746 N   0  0  0  0  0  0  0  0  0  0  0  0
  1  2  1  0  0  0  0
  2  3  1  0  0  0  0
  3  4  1  0  0  0  0
  4  5  1  0  0  0  0
  5  6  1  0  0  0  0
  6  7  1  0  0  0  0
  7  8  1  0  0  0  0
  8  9  1  0  0  0  0
  9 10  1  0  0  0  0
 10 11  1  0  0  0  0
 11 12  1  0  0  0  0
 12 13  1  0  0  0  0
 13 14  1  0  0  0  0
M  END
>  <CHROM.1>
179.31952851,-176.92988561,100.44190201,-105.01690423,-62.12807893,-71.71912661
171.46388226,131.31564676,151.99090538,-69.10368157,-170.87500510,19.27448990
-0.87323402,63.95071062,1.22594160,0.42395487,0.19054610

>  <Name>
1xpf_lig

>  <RI>
0

>  <Rbt.Current_Directory>
/home/afrankz/demos/rdock_decoys_rna/rnas/1xpf

>  <Rbt.Executable>
rbdock ($Id: //depot/dev/client3/rdock/2013.1/src/exe/rbdock.cxx#4 $)

>  <Rbt.Library>
libRbt.so (2013.1, Build901 2013/11/27)

>  <Rbt.Parameter_File>
/export/apps/rDock/src/rDock_2013.1_src/data/scripts/dock_solv.prm

>  <Rbt.Receptor>
prm/pocket_docking_2.prm

>  <SCORE>
-2.25157

>  <SCORE.INTER>
5.33922

>  <SCORE.INTER.CONST>
1

>  <SCORE.INTER.POLAR>
0

>  <SCORE.INTER.ROT>
11

>  <SCORE.INTER.SOLV>
5.41428

>  <SCORE.INTER.VDW>
-9.17861

>  <SCORE.INTER.norm>
0.381373

>  <SCORE.INTRA>
-7.59457

>  <SCORE.INTRA.DIHEDRAL>
-12.7087

>  <SCORE.INTRA.DIHEDRAL.0>
17.7811

>  <SCORE.INTRA.POLAR>
0

>  <SCORE.INTRA.POLAR.0>
0

>  <SCORE.INTRA.REPUL>
0

>  <SCORE.INTRA.REPUL.0>
0

>  <SCORE.INTRA.SOLV>
0.0924405

>  <SCORE.INTRA.SOLV.lig_0>
-47.9565

>  <SCORE.INTRA.VDW>
-1.28646

>  <SCORE.INTRA.VDW.0>
0.515983

>  <SCORE.INTRA.norm>
-0.542469

>  <SCORE.RESTR>
0.00378614

>  <SCORE.RESTR.CAVITY>
0.00378614

>  <SCORE.RESTR.norm>
0.000270439

>  <SCORE.SYSTEM>
0

>  <SCORE.SYSTEM.CONST>
0

>  <SCORE.SYSTEM.DIHEDRAL>
0

>  <SCORE.SYSTEM.SOLV>
0

>  <SCORE.SYSTEM.norm>
0

>  <SCORE.heavy>
14

>  <SCORE.norm>
-0.160826

>  <RMSD>
1.398

$$$$
1xpf_lig
 OpenBabel02141814123D
libRbt.so/2013.1/901 2013/11/27
 14 13  0  0  0  0  0  0  0  0999 V2000
   17.0204   -5.9630   62.9262 N   0  0  0  0  0  0  0  0  0  0  0  0
   17.3086   -4.5618   63.1711 C   0  0  0  0  0  0  0  0  0  0  0  0
   18.7673   -4.3042   63.1306 C   0  0  0  0  0  0  0  0  0  0  0  0
   18.9513   -2.8427   63.3981 C   0  0  0  0  0  0  0  0  0  0  0  0
   20.4144   -2.5982   63.4100 N   0  0  0  0  0  0  0  0  0  0  0  0
   20.7112   -1.1701   63.0823 C   0  0  0  0  0  0  0  0  0  0  0  0
   21.2802   -0.3770   64.2715 C   0  0  0  0  0  0  0  0  0  0  0  0
   20.2602   -0.1165   65.3940 C   0  0  0  0  0  0  0  0  0  0  0  0
   19.2917    0.9677   64.9463 C   0  0  0  0  0  0  0  0  0  0  0  0
   20.1180    2.1759   64.8088 N   0  0  0  0  0  0  0  0  0  0  0  0
   19.4359    3.4993   64.8629 C   0  0  0  0  0  0  0  0  0  0  0  0
   20.4712    4.3720   64.1208 C   0  0  0  0  0  0  0  0  0  0  0  0
   20.4881    4.3537   62.6134 C   0  0  0  0  0  0  0  0  0  0  0  0
   20.7493    3.0526   62.0225 N   0  0  0  0  0  0  0  0  0  0  0  0
  1  2  1  0  0  0  0
  2  3  1  0  0  0  0
  3  4  1  0  0  0  0
  4  5  1  0  0  0  0
  5  6  1  0  0  0  0
  6  7  1  0  0  0  0
  7  8  1  0  0  0  0
  8  9  1  0  0  0  0
  9 10  1  0  0  0  0
 10 11  1  0  0  0  0
 11 12  1  0  0  0  0
 12 13  1  0  0  0  0
 13 14  1  0  0  0  0
M  END
>  <CHROM.1>
-179.80543330,177.81834198,155.68046660,111.61859983,-69.72585958,-74.64539265
-65.04101457,-158.45050709,-157.50990799,80.81371052,-60.47205067,19.66201081
-0.25064664,63.72579516,-2.27211395,1.15945756,0.73560648

>  <Name>
1xpf_lig

>  <RI>
0

>  <Rbt.Current_Directory>
/home/afrankz/demos/rdock_decoys_rna/rnas/1xpf

>  <Rbt.Executable>
rbdock ($Id: //depot/dev/client3/rdock/2013.1/src/exe/rbdock.cxx#4 $)

>  <Rbt.Library>
libRbt.so (2013.1, Build901 2013/11/27)

>  <Rbt.Parameter_File>
/export/apps/rDock/src/rDock_2013.1_src/data/scripts/dock_solv.prm

>  <Rbt.Receptor>
prm/pocket_docking_2.prm

>  <SCORE>
-0.55193

>  <SCORE.INTER>
5.69

>  <SCORE.INTER.CONST>
1

>  <SCORE.INTER.POLAR>
0

>  <SCORE.INTER.ROT>
11

>  <SCORE.INTER.SOLV>
5.17415

>  <SCORE.INTER.VDW>
-8.86472

>  <SCORE.INTER.norm>
0.406429

>  <SCORE.INTRA>
-6.24662

>  <SCORE.INTRA.DIHEDRAL>
-12.6963

>  <SCORE.INTRA.DIHEDRAL.0>
17.7811

>  <SCORE.INTRA.POLAR>
0

>  <SCORE.INTRA.POLAR.0>
0

>  <SCORE.INTRA.REPUL>
0

>  <SCORE.INTRA.REPUL.0>
0

>  <SCORE.INTRA.SOLV>
3.65405

>  <SCORE.INTRA.SOLV.lig_0>
-47.9565

>  <SCORE.INTRA.VDW>
-1.72551

>  <SCORE.INTRA.VDW.0>
0.515983

>  <SCORE.INTRA.norm>
-0.446187

>  <SCORE.RESTR>
0.00469457

>  <SCORE.RESTR.CAVITY>
0.00469457

>  <SCORE.RESTR.norm>
0.000335327

>  <SCORE.SYSTEM>
0

>  <SCORE.SYSTEM.CONST>
0

>  <SCORE.SYSTEM.DIHEDRAL>
0

>  <SCORE.SYSTEM.SOLV>
0

>  <SCORE.SYSTEM.norm>
0

>  <SCORE.heavy>
14

>  <SCORE.norm>
-0.0394236

>  <RMSD>
1.410

$$$$
1xpf_lig
 OpenBabel02141814123D
libRbt.so/2013.1/901 2013/11/27
 14 13  0  0  0  0  0  0  0  0999 V2000
   22.1157    4.7867   62.4548 N   0  0  0  0  0  0  0  0  0  0  0  0
   20.7097    5.0983   62.6344 C   0  0  0  0  0  0  0  0  0  0  0  0
   19.9082    3.8628   62.7980 C   0  0  0  0  0  0  0  0  0  0  0  0
   20.1848    3.3529   64.1782 C   0  0  0  0  0  0  0  0  0  0  0  0
   19.4344    2.0805   64.3149 N   0  0  0  0  0  0  0  0  0  0  0  0
   19.8560    1.3520   65.5504 C   0  0  0  0  0  0  0  0  0  0  0  0
   20.0070   -0.1648   65.3425 C   0  0  0  0  0  0  0  0  0  0  0  0
   21.1829   -0.5563   64.4301 C   0  0  0  0  0  0  0  0  0  0  0  0
   21.0873   -2.0386   64.1016 C   0  0  0  0  0  0  0  0  0  0  0  0
   20.0556   -2.1262   63.0579 N   0  0  0  0  0  0  0  0  0  0  0  0
   18.7512   -2.7509   63.4151 C   0  0  0  0  0  0  0  0  0  0  0  0
   18.9860   -4.1884   62.9025 C   0  0  0  0  0  0  0  0  0  0  0  0
   17.8270   -5.1524   62.8897 C   0  0  0  0  0  0  0  0  0  0  0  0
   17.2747   -5.4592   64.1978 N   0  0  0  0  0  0  0  0  0  0  0  0
  1  2  1  0  0  0  0
  2  3  1  0  0  0  0
  3  4  1  0  0  0  0
  4  5  1  0  0  0  0
  5  6  1  0  0  0  0
  6  7  1  0  0  0  0
  7  8  1  0  0  0  0
  8  9  1  0  0  0  0
  9 10  1  0  0  0  0
 10 11  1  0  0  0  0
 11 12  1  0  0  0  0
 12 13  1  0  0  0  0
 13 14  1  0  0  0  0
M  END
>  <CHROM.1>
74.39707921,-177.24001780,168.67239181,-138.54952638,68.20723757,-170.13644345
78.38845309,-109.99459968,-96.67885284,-171.76385467,-62.93169409,19.81292852
-0.13594766,63.73351601,0.29066185,-1.29761869,-1.29434361

>  <Name>
1xpf_lig

>  <RI>
0

>  <Rbt.Current_Directory>
/home/afrankz/demos/rdock_decoys_rna/rnas/1xpf

>  <Rbt.Executable>
rbdock ($Id: //depot/dev/client3/rdock/2013.1/src/exe/rbdock.cxx#4 $)

>  <Rbt.Library>
libRbt.so (2013.1, Build901 2013/11/27)

>  <Rbt.Parameter_File>
/export/apps/rDock/src/rDock_2013.1_src/data/scripts/dock_solv.prm

>  <Rbt.Receptor>
prm/pocket_docking_2.prm

>  <SCORE>
-4.08713

>  <SCORE.INTER>
2.74155

>  <SCORE.INTER.CONST>
1

>  <SCORE.INTER.POLAR>
0

>  <SCORE.INTER.ROT>
11

>  <SCORE.INTER.SOLV>
3.73847

>  <SCORE.INTER.VDW>
-10.3518

>  <SCORE.INTER.norm>
0.195825

>  <SCORE.INTRA>
-6.86558

>  <SCORE.INTRA.DIHEDRAL>
-11.9198

>  <SCORE.INTRA.DIHEDRAL.0>
17.7811

>  <SCORE.INTRA.POLAR>
0

>  <SCORE.INTRA.POLAR.0>
0

>  <SCORE.INTRA.REPUL>
0

>  <SCORE.INTRA.REPUL.0>
0

>  <SCORE.INTRA.SOLV>
1.21

>  <SCORE.INTRA.SOLV.lig_0>
-47.9565

>  <SCORE.INTRA.VDW>
-1.5107

>  <SCORE.INTRA.VDW.0>
0.515983

>  <SCORE.INTRA.norm>
-0.490399

>  <SCORE.RESTR>
0.0368974

>  <SCORE.RESTR.CAVITY>
0.0368974

>  <SCORE.RESTR.norm>
0.00263553

>  <SCORE.SYSTEM>
0

>  <SCORE.SYSTEM.CONST>
0

>  <SCORE.SYSTEM.DIHEDRAL>
0

>  <SCORE.SYSTEM.SOLV>
0

>  <SCORE.SYSTEM.norm>
0

>  <SCORE.heavy>
14

>  <SCORE.norm>
-0.291938

>  <RMSD>
1.422

$$$$
1xpf_lig
 OpenBabel02141814123D
libRbt.so/2013.1/901 2013/11/27
 14 13  0  0  0  0  0  0  0  0999 V2000
   20.4947    5.2234   63.0109 N   0  0  0  0  0  0  0  0  0  0  0  0
   20.0052    3.8834   62.7448 C   0  0  0  0  0  0  0  0  0  0  0  0
   20.9521    2.8616   63.2498 C   0  0  0  0  0  0  0  0  0  0  0  0
   20.8260    2.8613   64.7416 C   0  0  0  0  0  0  0  0  0  0  0  0
   19.5387    2.1938   65.0548 N   0  0  0  0  0  0  0  0  0  0  0  0
   19.7262    1.1668   66.1249 C   0  0  0  0  0  0  0  0  0  0  0  0
   20.4582   -0.0955   65.6372 C   0  0  0  0  0  0  0  0  0  0  0  0
   19.8283   -0.7402   64.3897 C   0  0  0  0  0  0  0  0  0  0  0  0
   20.5634   -2.0334   64.0716 C   0  0  0  0  0  0  0  0  0  0  0  0
   19.8286   -2.6140   62.9382 N   0  0  0  0  0  0  0  0  0  0  0  0
   19.5192   -4.0707   62.9782 C   0  0  0  0  0  0  0  0  0  0  0  0
   18.1558   -4.0416   63.7025 C   0  0  0  0  0  0  0  0  0  0  0  0
   17.4986   -5.3493   64.0646 C   0  0  0  0  0  0  0  0  0  0  0  0
   16.2468   -5.2219   64.7905 N   0  0  0  0  0  0  0  0  0  0  0  0
  1  2  1  0  0  0  0
  2  3  1  0  0  0  0
  3  4  1  0  0  0  0
  4  5  1  0  0  0  0
  5  6  1  0  0  0  0
  6  7  1  0  0  0  0
  7  8  1  0  0  0  0
  8  9  1  0  0  0  0
  9 10  1  0  0  0  0
 10 11  1  0  0  0  0
 11 12  1  0  0  0  0
 12 13  1  0  0  0  0
 13 14  1  0  0  0  0
M  END
>  <CHROM.1>
73.32458898,73.99805401,132.20168453,-73.09442986,-53.02781956,-175.41512598
175.93204631,-135.16305257,89.26936904,-175.20900094,177.62484309,19.54605841
-0.42700285,64.10715259,-0.78993678,-1.15287735,-2.41927833

>  <Name>
1xpf_lig

>  <RI>
0

>  <Rbt.Current_Directory>
/home/afrankz/demos/rdock_decoys_rna/rnas/1xpf

>  <Rbt.Executable>
rbdock ($Id: //depot/dev/client3/rdock/2013.1/src/exe/rbdock.cxx#4 $)

>  <Rbt.Library>
libRbt.so (2013.1, Build901 2013/11/27)

>  <Rbt.Parameter_File>
/export/apps/rDock/src/rDock_2013.1_src/data/scripts/dock_solv.prm

>  <Rbt.Receptor>
prm/pocket_docking_2.prm

>  <SCORE>
-3.5008

>  <SCORE.INTER>
3.35654

>  <SCORE.INTER.CONST>
1

>  <SCORE.INTER.POLAR>
0

>  <SCORE.INTER.ROT>
11

>  <SCORE.INTER.SOLV>
5.79475

>  <SCORE.INTER.VDW>
-10.6272

>  <SCORE.INTER.norm>
0.239753

>  <SCORE.INTRA>
-6.85735

>  <SCORE.INTRA.DIHEDRAL>
-13.1728

>  <SCORE.INTRA.DIHEDRAL.0>
17.7811

>  <SCORE.INTRA.POLAR>
0

>  <SCORE.INTRA.POLAR.0>
0

>  <SCORE.INTRA.REPUL>
0

>  <SCORE.INTRA.REPUL.0>
0

>  <SCORE.INTRA.SOLV>
0.966254

>  <SCORE.INTRA.SOLV.lig_0>
-47.9565

>  <SCORE.INTRA.VDW>
-0.75407

>  <SCORE.INTRA.VDW.0>
0.515983

>  <SCORE.INTRA.norm>
-0.48981

>  <SCORE.RESTR>
0

>  <SCORE.RESTR.CAVITY>
0

>  <SCORE.RESTR.norm>
0

>  <SCORE.SYSTEM>
0

>  <SCORE.SYSTEM.CONST>
0

>  <SCORE.SYSTEM.DIHEDRAL>
0

>  <SCORE.SYSTEM.SOLV>
0

>  <SCORE.SYSTEM.norm>
0

>  <SCORE.heavy>
14

>  <SCORE.norm>
-0.250057

>  <RMSD>
1.438

$$$$
1xpf_lig
 OpenBabel02141814123D
libRbt.so/2013.1/901 2013/11/27
 14 13  0  0  0  0  0  0  0  0999 V2000
   20.8604    3.3150   61.3930 N   0  0  0  0  0  0  0  0  0  0  0  0
   20.2873    4.2795   62.3136 C   0  0  0  0  0  0  0  0  0  0  0  0
   20.7292    4.0155   63.7032 C   0  0  0  0  0  0  0  0  0  0  0  0
   19.9959    2.7930   64.1605 C   0  0  0  0  0  0  0  0  0  0  0  0
   20.5742    2.4228   65.4755 N   0  0  0  0  0  0  0  0  0  0  0  0
   19.8115    1.2907   66.0850 C   0  0  0  0  0  0  0  0  0  0  0  0
   20.4105   -0.0900   65.7661 C   0  0  0  0  0  0  0  0  0  0  0  0
   20.3345   -0.4753   64.2781 C   0  0  0  0  0  0  0  0  0  0  0  0
   20.8957   -1.8776   64.0966 C   0  0  0  0  0  0  0  0  0  0  0  0
   20.6312   -2.2086   62.6888 N   0  0  0  0  0  0  0  0  0  0  0  0
   19.2638   -2.6753   62.3255 C   0  0  0  0  0  0  0  0  0  0  0  0
   19.3378   -4.1411   62.8052 C   0  0  0  0  0  0  0  0  0  0  0  0
   18.1482   -5.0393   62.5795 C   0  0  0  0  0  0  0  0  0  0  0  0
   16.9320   -4.6214   63.2550 N   0  0  0  0  0  0  0  0  0  0  0  0
  1  2  1  0  0  0  0
  2  3  1  0  0  0  0
  3  4  1  0  0  0  0
  4  5  1  0  0  0  0
  5  6  1  0  0  0  0
  6  7  1  0  0  0  0
  7  8  1  0  0  0  0
  8  9  1  0  0  0  0
  9 10  1  0  0  0  0
 10 11  1  0  0  0  0
 11 12  1  0  0  0  0
 12 13  1  0  0  0  0
 13 14  1  0  0  0  0
M  END
>  <CHROM.1>
-73.23757130,172.40357888,174.17770219,93.51223409,-66.06945033,-177.44084639
173.42631934,-80.52109029,-78.33368540,-177.59587534,-62.24016922,19.87234546
-0.21511281,63.63771896,0.16962128,-1.32322853,-1.29862671

>  <Name>
1xpf_lig

>  <RI>
0

>  <Rbt.Current_Directory>
/home/afrankz/demos/rdock_decoys_rna/rnas/1xpf

>  <Rbt.Executable>
rbdock ($Id: //depot/dev/client3/rdock/2013.1/src/exe/rbdock.cxx#4 $)

>  <Rbt.Library>
libRbt.so (2013.1, Build901 2013/11/27)

>  <Rbt.Parameter_File>
/export/apps/rDock/src/rDock_2013.1_src/data/scripts/dock_solv.prm

>  <Rbt.Receptor>
prm/pocket_docking_2.prm

>  <SCORE>
-5.24344

>  <SCORE.INTER>
2.3068

>  <SCORE.INTER.CONST>
1

>  <SCORE.INTER.POLAR>
0

>  <SCORE.INTER.ROT>
11

>  <SCORE.INTER.SOLV>
4.14172

>  <SCORE.INTER.VDW>
-10.776

>  <SCORE.INTER.norm>
0.164772

>  <SCORE.INTRA>
-7.55024

>  <SCORE.INTRA.DIHEDRAL>
-15.2529

>  <SCORE.INTRA.DIHEDRAL.0>
17.7811

>  <SCORE.INTRA.POLAR>
0

>  <SCORE.INTRA.POLAR.0>
0

>  <SCORE.INTRA.REPUL>
0

>  <SCORE.INTRA.REPUL.0>
0

>  <SCORE.INTRA.SOLV>
0.846496

>  <SCORE.INTRA.SOLV.lig_0>
-47.9565

>  <SCORE.INTRA.VDW>
-0.34703

>  <SCORE.INTRA.VDW.0>
0.515983

>  <SCORE.INTRA.norm>
-0.539303

>  <SCORE.RESTR>
0

>  <SCORE.RESTR.CAVITY>
0

>  <SCORE.RESTR.norm>
0

>  <SCORE.SYSTEM>
0

>  <SCORE.SYSTEM.CONST>
0

>  <SCORE.SYSTEM.DIHEDRAL>
0

>  <SCORE.SYSTEM.SOLV>
0

>  <SCORE.SYSTEM.norm>
0

>  <SCORE.heavy>
14

>  <SCORE.norm>
-0.374531

>  <RMSD>
1.453

$$$$
1xpf_lig
 OpenBabel02141814123D
libRbt.so/2013.1/901 2013/11/27
 14 13  0  0  0  0  0  0  0  0999 V2000
   20.8570    3.3445   61.7833 N   0  0  0  0  0  0  0  0  0  0  0  0
   20.4160    4.3975   62.6793 C   0  0  0  0  0  0  0  0  0  0  0  0
   20.6737    4.0351   64.0928 C   0  0  0  0  0  0  0  0  0  0  0  0
   19.7014    2.9512   64.4408 C   0  0  0  0  0  0  0  0  0  0  0  0
   20.1152    2.4237   65.7641 N   0  0  0  0  0  0  0  0  0  0  0  0
   19.4553    1.1101   66.0359 C   0  0  0  0  0  0  0  0  0  0  0  0
   20.3533   -0.0996   65.7242 C   0  0  0  0  0  0  0  0  0  0  0  0
   20.8000   -0.1838   64.2539 C   0  0  0  0  0  0  0  0  0  0  0  0
   21.5548   -1.4864   64.0356 C   0  0  0  0  0  0  0  0  0  0  0  0
   20.5102   -2.5187   63.9671 N   0  0  0  0  0  0  0  0  0  0  0  0
   20.0853   -2.9949   62.6209 C   0  0  0  0  0  0  0  0  0  0  0  0
   19.1606   -4.1643   63.0230 C   0  0  0  0  0  0  0  0  0  0  0  0
   17.8955   -3.8599   63.7847 C   0  0  0  0  0  0  0  0  0  0  0  0
   17.0317   -5.0051   64.0141 N   0  0  0  0  0  0  0  0  0  0  0  0
  1  2  1  0  0  0  0
  2  3  1  0  0  0  0
  3  4  1  0  0  0  0
  4  5  1  0  0  0  0
  5  6  1  0  0  0  0
  6  7  1  0  0  0  0
  7  8  1  0  0  0  0
  8  9  1  0  0  0  0
  9 10  1  0  0  0  0
 10 11  1  0  0  0  0
 11 12  1  0  0  0  0
 12 13  1  0  0  0  0
 13 14  1  0  0  0  0
M  END
>  <CHROM.1>
-71.27862777,170.13184303,-164.58222637,98.18591921,-60.37804819,-174.14448603
76.89614026,99.57570559,172.59105622,64.81060237,174.73117955,19.90081979
-0.14634790,64.01574949,-0.87794879,-1.21604571,-2.45207658

>  <Name>
1xpf_lig

>  <RI>
0

>  <Rbt.Current_Directory>
/home/afrankz/demos/rdock_decoys_rna/rnas/1xpf

>  <Rbt.Executable>
rbdock ($Id: //depot/dev/client3/rdock/2013.1/src/exe/rbdock.cxx#4 $)

>  <Rbt.Library>
libRbt.so (2013.1, Build901 2013/11/27)

>  <Rbt.Parameter_File>
/export/apps/rDock/src/rDock_2013.1_src/data/scripts/dock_solv.prm

>  <Rbt.Receptor>
prm/pocket_docking_2.prm

>  <SCORE>
-5.33406

>  <SCORE.INTER>
2.17278

>  <SCORE.INTER.CONST>
1

>  <SCORE.INTER.POLAR>
0

>  <SCORE.INTER.ROT>
11

>  <SCORE.INTER.SOLV>
4.66462

>  <SCORE.INTER.VDW>
-11.0397

>  <SCORE.INTER.norm>
0.155199

>  <SCORE.INTRA>
-7.50684

>  <SCORE.INTRA.DIHEDRAL>
-13.6397

>  <SCORE.INTRA.DIHEDRAL.0>
17.7811

>  <SCORE.INTRA.POLAR>
0

>  <SCORE.INTRA.POLAR.0>
0

>  <SCORE.INTRA.REPUL>
0

>  <SCORE.INTRA.REPUL.0>
0

>  <SCORE.INTRA.SOLV>
1.41822

>  <SCORE.INTRA.SOLV.lig_0>
-47.9565

>  <SCORE.INTRA.VDW>
-1.39607

>  <SCORE.INTRA.VDW.0>
0.515983

>  <SCORE.INTRA.norm>
-0.536203

>  <SCORE.RESTR>
0

>  <SCORE.RESTR.CAVITY>
0

>  <SCORE.RESTR.norm>
0

>  <SCORE.SYSTEM>
0

>  <SCORE.SYSTEM.CONST>
0

>  <SCORE.SYSTEM.DIHEDRAL>
0

>  <SCORE.SYSTEM.SOLV>
0

>  <SCORE.SYSTEM.norm>
0

>  <SCORE.heavy>
14

>  <SCORE.norm>
-0.381004

>  <RMSD>
1.507

$$$$
1xpf_lig
 OpenBabel02141814123D
libRbt.so/2013.1/901 2013/11/27
 14 13  0  0  0  0  0  0  0  0999 V2000
   17.1167   -5.7570   62.4027 N   0  0  0  0  0  0  0  0  0  0  0  0
   17.6632   -4.7166   63.2542 C   0  0  0  0  0  0  0  0  0  0  0  0
   18.8913   -4.1358   62.6622 C   0  0  0  0  0  0  0  0  0  0  0  0
   19.3129   -3.0170   63.5633 C   0  0  0  0  0  0  0  0  0  0  0  0
   20.5293   -2.4234   62.9561 N   0  0  0  0  0  0  0  0  0  0  0  0
   21.4697   -1.9513   64.0180 C   0  0  0  0  0  0  0  0  0  0  0  0
   21.2465   -0.4836   64.4218 C   0  0  0  0  0  0  0  0  0  0  0  0
   19.9114   -0.2306   65.1444 C   0  0  0  0  0  0  0  0  0  0  0  0
   19.8171    1.2412   65.5173 C   0  0  0  0  0  0  0  0  0  0  0  0
   19.6043    1.9390   64.2409 N   0  0  0  0  0  0  0  0  0  0  0  0
   19.2887    3.3944   64.2841 C   0  0  0  0  0  0  0  0  0  0  0  0
   20.4171    3.9465   63.3863 C   0  0  0  0  0  0  0  0  0  0  0  0
   20.3748    3.6571   61.9073 C   0  0  0  0  0  0  0  0  0  0  0  0
   21.4803    4.2121   61.1457 N   0  0  0  0  0  0  0  0  0  0  0  0
  1  2  1  0  0  0  0
  2  3  1  0  0  0  0
  3  4  1  0  0  0  0
  4  5  1  0  0  0  0
  5  6  1  0  0  0  0
  6  7  1  0  0  0  0
  7  8  1  0  0  0  0
  8  9  1  0  0  0  0
  9 10  1  0  0  0  0
 10 11  1  0  0  0  0
 11 12  1  0  0  0  0
 12 13  1  0  0  0  0
 13 14  1  0  0  0  0
M  END
>  <CHROM.1>
176.05319006,-179.08298833,-145.62831520,-91.06531009,67.48848442,178.83536370
71.63963189,172.01621318,123.95184827,69.97425295,-179.75144390,19.79456532
-0.30887021,63.49348806,2.77463017,1.31187354,1.95484664

>  <Name>
1xpf_lig

>  <RI>
0

>  <Rbt.Current_Directory>
/home/afrankz/demos/rdock_decoys_rna/rnas/1xpf

>  <Rbt.Executable>
rbdock ($Id: //depot/dev/client3/rdock/2013.1/src/exe/rbdock.cxx#4 $)

>  <Rbt.Library>
libRbt.so (2013.1, Build901 2013/11/27)

>  <Rbt.Parameter_File>
/export/apps/rDock/src/rDock_2013.1_src/data/scripts/dock_solv.prm

>  <Rbt.Receptor>
prm/pocket_docking_2.prm

>  <SCORE>
-4.5716

>  <SCORE.INTER>
3.79458

>  <SCORE.INTER.CONST>
1

>  <SCORE.INTER.POLAR>
0

>  <SCORE.INTER.ROT>
11

>  <SCORE.INTER.SOLV>
6.18917

>  <SCORE.INTER.VDW>
-10.4667

>  <SCORE.INTER.norm>
0.271042

>  <SCORE.INTRA>
-8.36618

>  <SCORE.INTRA.DIHEDRAL>
-14.0305

>  <SCORE.INTRA.DIHEDRAL.0>
17.7811

>  <SCORE.INTRA.POLAR>
0

>  <SCORE.INTRA.POLAR.0>
0

>  <SCORE.INTRA.REPUL>
0

>  <SCORE.INTRA.REPUL.0>
0

>  <SCORE.INTRA.SOLV>
0.189258

>  <SCORE.INTRA.SOLV.lig_0>
-47.9565

>  <SCORE.INTRA.VDW>
-1.44555

>  <SCORE.INTRA.VDW.0>
0.515983

>  <SCORE.INTRA.norm>
-0.597584

>  <SCORE.RESTR>
0

>  <SCORE.RESTR.CAVITY>
0

>  <SCORE.RESTR.norm>
0

>  <SCORE.SYSTEM>
0

>  <SCORE.SYSTEM.CONST>
0

>  <SCORE.SYSTEM.DIHEDRAL>
0

>  <SCORE.SYSTEM.SOLV>
0

>  <SCORE.SYSTEM.norm>
0

>  <SCORE.heavy>
14

>  <SCORE.norm>
-0.326543

>  <RMSD>
1.509

$$$$
1xpf_lig
 OpenBabel02141814123D
libRbt.so/2013.1/901 2013/11/27
 14 13  0  0  0  0  0  0  0  0999 V2000
   21.0443    5.5168   62.3839 N   0  0  0  0  0  0  0  0  0  0  0  0
   21.2234    4.8899   63.6805 C   0  0  0  0  0  0  0  0  0  0  0  0
   20.1376    3.9199   63.9564 C   0  0  0  0  0  0  0  0  0  0  0  0
   20.5088    3.2106   65.2215 C   0  0  0  0  0  0  0  0  0  0  0  0
   19.4758    2.1680   65.4378 N   0  0  0  0  0  0  0  0  0  0  0  0
   19.9713    1.1270   66.3895 C   0  0  0  0  0  0  0  0  0  0  0  0
   20.0936   -0.2697   65.7561 C   0  0  0  0  0  0  0  0  0  0  0  0
   20.9698   -0.3076   64.4915 C   0  0  0  0  0  0  0  0  0  0  0  0
   21.2033   -1.7561   64.0897 C   0  0  0  0  0  0  0  0  0  0  0  0
   19.8856   -2.2424   63.6553 N   0  0  0  0  0  0  0  0  0  0  0  0
   19.8274   -3.1316   62.4614 C   0  0  0  0  0  0  0  0  0  0  0  0
   19.0620   -4.3351   63.0529 C   0  0  0  0  0  0  0  0  0  0  0  0
   17.6294   -4.1440   63.4818 C   0  0  0  0  0  0  0  0  0  0  0  0
   16.9795   -5.3410   63.9870 N   0  0  0  0  0  0  0  0  0  0  0  0
  1  2  1  0  0  0  0
  2  3  1  0  0  0  0
  3  4  1  0  0  0  0
  4  5  1  0  0  0  0
  5  6  1  0  0  0  0
  6  7  1  0  0  0  0
  7  8  1  0  0  0  0
  8  9  1  0  0  0  0
  9 10  1  0  0  0  0
 10 11  1  0  0  0  0
 11 12  1  0  0  0  0
 12 13  1  0  0  0  0
 13 14  1  0  0  0  0
M  END
>  <CHROM.1>
172.91437938,-175.65699565,161.29782040,-116.48574468,55.25374852,170.80753848
67.93809693,140.01308230,125.57122418,65.91664125,178.18303951,19.85818833
-0.04968746,64.14620524,-0.63494455,-1.25516160,-2.16414889

>  <Name>
1xpf_lig

>  <RI>
0

>  <Rbt.Current_Directory>
/home/afrankz/demos/rdock_decoys_rna/rnas/1xpf

>  <Rbt.Executable>
rbdock ($Id: //depot/dev/client3/rdock/2013.1/src/exe/rbdock.cxx#4 $)

>  <Rbt.Library>
libRbt.so (2013.1, Build901 2013/11/27)

>  <Rbt.Parameter_File>
/export/apps/rDock/src/rDock_2013.1_src/data/scripts/dock_solv.prm

>  <Rbt.Receptor>
prm/pocket_docking_2.prm

>  <SCORE>
-5.71076

>  <SCORE.INTER>
2.11589

>  <SCORE.INTER.CONST>
1

>  <SCORE.INTER.POLAR>
0

>  <SCORE.INTER.ROT>
11

>  <SCORE.INTER.SOLV>
6.06814

>  <SCORE.INTER.VDW>
-11.5455

>  <SCORE.INTER.norm>
0.151135

>  <SCORE.INTRA>
-8.01199

>  <SCORE.INTRA.DIHEDRAL>
-13.1814

>  <SCORE.INTRA.DIHEDRAL.0>
17.7811

>  <SCORE.INTRA.POLAR>
0

>  <SCORE.INTRA.POLAR.0>
0

>  <SCORE.INTRA.REPUL>
0

>  <SCORE.INTRA.REPUL.0>
0

>  <SCORE.INTRA.SOLV>
0.278728

>  <SCORE.INTRA.SOLV.lig_0>
-47.9565

>  <SCORE.INTRA.VDW>
-1.56067

>  <SCORE.INTRA.VDW.0>
0.515983

>  <SCORE.INTRA.norm>
-0.572285

>  <SCORE.RESTR>
0.185338

>  <SCORE.RESTR.CAVITY>
0.185338

>  <SCORE.RESTR.norm>
0.0132384

>  <SCORE.SYSTEM>
0

>  <SCORE.SYSTEM.CONST>
0

>  <SCORE.SYSTEM.DIHEDRAL>
0

>  <SCORE.SYSTEM.SOLV>
0

>  <SCORE.SYSTEM.norm>
0

>  <SCORE.heavy>
14

>  <SCORE.norm>
-0.407911

>  <RMSD>
1.512

$$$$
1xpf_lig
 OpenBabel02141814123D
libRbt.so/2013.1/901 2013/11/27
 14 13  0  0  0  0  0  0  0  0999 V2000
   20.6116    4.2938   62.4382 N   0  0  0  0  0  0  0  0  0  0  0  0
   20.6535    3.8956   63.8332 C   0  0  0  0  0  0  0  0  0  0  0  0
   19.8797    2.6514   64.0542 C   0  0  0  0  0  0  0  0  0  0  0  0
   20.0244    2.3094   65.5046 C   0  0  0  0  0  0  0  0  0  0  0  0
   19.3531    1.0006   65.6972 N   0  0  0  0  0  0  0  0  0  0  0  0
   20.3620   -0.0788   65.9253 C   0  0  0  0  0  0  0  0  0  0  0  0
   20.7060   -0.8710   64.6522 C   0  0  0  0  0  0  0  0  0  0  0  0
   19.5377   -1.7087   64.1028 C   0  0  0  0  0  0  0  0  0  0  0  0
   20.0259   -2.5295   62.9188 C   0  0  0  0  0  0  0  0  0  0  0  0
   18.8592   -3.3226   62.5051 N   0  0  0  0  0  0  0  0  0  0  0  0
   18.9109   -4.7982   62.7039 C   0  0  0  0  0  0  0  0  0  0  0  0
   18.2637   -4.9094   64.1014 C   0  0  0  0  0  0  0  0  0  0  0  0
   16.7839   -4.6555   64.2379 C   0  0  0  0  0  0  0  0  0  0  0  0
   15.9339   -5.6521   63.6097 N   0  0  0  0  0  0  0  0  0  0  0  0
  1  2  1  0  0  0  0
  2  3  1  0  0  0  0
  3  4  1  0  0  0  0
  4  5  1  0  0  0  0
  5  6  1  0  0  0  0
  6  7  1  0  0  0  0
  7  8  1  0  0  0  0
  8  9  1  0  0  0  0
  9 10  1  0  0  0  0
 10 11  1  0  0  0  0
 11 12  1  0  0  0  0
 12 13  1  0  0  0  0
 13 14  1  0  0  0  0
M  END
>  <CHROM.1>
178.24512220,-174.98294885,108.05694434,-97.10621093,-66.48992555,-175.44089390
177.94430642,-112.14743101,92.20911510,71.46423002,67.95329462,19.27919187
-1.02682529,64.02050451,-0.53627487,-1.18489728,-2.05825788

>  <Name>
1xpf_lig

>  <RI>
0

>  <Rbt.Current_Directory>
/home/afrankz/demos/rdock_decoys_rna/rnas/1xpf

>  <Rbt.Executable>
rbdock ($Id: //depot/dev/client3/rdock/2013.1/src/exe/rbdock.cxx#4 $)

>  <Rbt.Library>
libRbt.so (2013.1, Build901 2013/11/27)

>  <Rbt.Parameter_File>
/export/apps/rDock/src/rDock_2013.1_src/data/scripts/dock_solv.prm

>  <Rbt.Receptor>
prm/pocket_docking_2.prm

>  <SCORE>
-4.27509

>  <SCORE.INTER>
3.34924

>  <SCORE.INTER.CONST>
1

>  <SCORE.INTER.POLAR>
0

>  <SCORE.INTER.ROT>
11

>  <SCORE.INTER.SOLV>
4.69218

>  <SCORE.INTER.VDW>
-10.2646

>  <SCORE.INTER.norm>
0.239232

>  <SCORE.INTRA>
-7.67931

>  <SCORE.INTRA.DIHEDRAL>
-12.972

>  <SCORE.INTRA.DIHEDRAL.0>
17.7811

>  <SCORE.INTRA.POLAR>
0

>  <SCORE.INTRA.POLAR.0>
0

>  <SCORE.INTRA.REPUL>
0

>  <SCORE.INTRA.REPUL.0>
0

>  <SCORE.INTRA.SOLV>
0.720121

>  <SCORE.INTRA.SOLV.lig_0>
-47.9565

>  <SCORE.INTRA.VDW>
-1.55338

>  <SCORE.INTRA.VDW.0>
0.515983

>  <SCORE.INTRA.norm>
-0.548522

>  <SCORE.RESTR>
0.0549743

>  <SCORE.RESTR.CAVITY>
0.0549743

>  <SCORE.RESTR.norm>
0.00392674

>  <SCORE.SYSTEM>
0

>  <SCORE.SYSTEM.CONST>
0

>  <SCORE.SYSTEM.DIHEDRAL>
0

>  <SCORE.SYSTEM.SOLV>
0

>  <SCORE.SYSTEM.norm>
0

>  <SCORE.heavy>
14

>  <SCORE.norm>
-0.305364

>  <RMSD>
1.518

$$$$
1xpf_lig
 OpenBabel02141814123D
libRbt.so/2013.1/901 2013/11/27
 14 13  0  0  0  0  0  0  0  0999 V2000
   16.7109   -4.9618   63.0905 N   0  0  0  0  0  0  0  0  0  0  0  0
   17.9153   -5.1514   62.3033 C   0  0  0  0  0  0  0  0  0  0  0  0
   19.1002   -4.6033   63.0043 C   0  0  0  0  0  0  0  0  0  0  0  0
   18.9664   -3.1126   62.9696 C   0  0  0  0  0  0  0  0  0  0  0  0
   20.1015   -2.5700   63.7557 N   0  0  0  0  0  0  0  0  0  0  0  0
   20.4045   -1.1661   63.3405 C   0  0  0  0  0  0  0  0  0  0  0  0
   20.7645   -0.2457   64.5195 C   0  0  0  0  0  0  0  0  0  0  0  0
   19.6557   -0.1261   65.5800 C   0  0  0  0  0  0  0  0  0  0  0  0
   19.9710    1.0420   66.5020 C   0  0  0  0  0  0  0  0  0  0  0  0
   19.5883    2.2379   65.7373 N   0  0  0  0  0  0  0  0  0  0  0  0
   20.6714    3.0301   65.0901 C   0  0  0  0  0  0  0  0  0  0  0  0
   19.8441    3.8461   64.0732 C   0  0  0  0  0  0  0  0  0  0  0  0
   20.5627    4.7972   63.1502 C   0  0  0  0  0  0  0  0  0  0  0  0
   21.5372    4.1742   62.2713 N   0  0  0  0  0  0  0  0  0  0  0  0
  1  2  1  0  0  0  0
  2  3  1  0  0  0  0
  3  4  1  0  0  0  0
  4  5  1  0  0  0  0
  5  6  1  0  0  0  0
  6  7  1  0  0  0  0
  7  8  1  0  0  0  0
  8  9  1  0  0  0  0
  9 10  1  0  0  0  0
 10 11  1  0  0  0  0
 11 12  1  0  0  0  0
 12 13  1  0  0  0  0
 13 14  1  0  0  0  0
M  END
>  <CHROM.1>
-70.79914647,176.02288997,156.55956300,140.64882887,-59.53536660,-166.44142583
77.90537186,-101.89020747,162.44295239,-178.78804944,60.68890973,19.69963698
-0.20063467,63.95633283,2.70962927,-1.27486651,-1.87526924

>  <Name>
1xpf_lig

>  <RI>
0

>  <Rbt.Current_Directory>
/home/afrankz/demos/rdock_decoys_rna/rnas/1xpf

>  <Rbt.Executable>
rbdock ($Id: //depot/dev/client3/rdock/2013.1/src/exe/rbdock.cxx#4 $)

>  <Rbt.Library>
libRbt.so (2013.1, Build901 2013/11/27)

>  <Rbt.Parameter_File>
/export/apps/rDock/src/rDock_2013.1_src/data/scripts/dock_solv.prm

>  <Rbt.Receptor>
prm/pocket_docking_2.prm

>  <SCORE>
-5.41979

>  <SCORE.INTER>
1.92988

>  <SCORE.INTER.CONST>
1

>  <SCORE.INTER.POLAR>
0

>  <SCORE.INTER.ROT>
11

>  <SCORE.INTER.SOLV>
3.73957

>  <SCORE.INTER.VDW>
-10.8933

>  <SCORE.INTER.norm>
0.137849

>  <SCORE.INTRA>
-7.37978

>  <SCORE.INTRA.DIHEDRAL>
-12.9516

>  <SCORE.INTRA.DIHEDRAL.0>
17.7811

>  <SCORE.INTRA.POLAR>
0

>  <SCORE.INTRA.POLAR.0>
0

>  <SCORE.INTRA.REPUL>
0

>  <SCORE.INTRA.REPUL.0>
0

>  <SCORE.INTRA.SOLV>
1.3041

>  <SCORE.INTRA.SOLV.lig_0>
-47.9565

>  <SCORE.INTRA.VDW>
-1.55603

>  <SCORE.INTRA.VDW.0>
0.515983

>  <SCORE.INTRA.norm>
-0.527127

>  <SCORE.RESTR>
0.0301052

>  <SCORE.RESTR.CAVITY>
0.0301052

>  <SCORE.RESTR.norm>
0.00215037

>  <SCORE.SYSTEM>
0

>  <SCORE.SYSTEM.CONST>
0

>  <SCORE.SYSTEM.DIHEDRAL>
0

>  <SCORE.SYSTEM.SOLV>
0

>  <SCORE.SYSTEM.norm>
0

>  <SCORE.heavy>
14

>  <SCORE.norm>
-0.387128

>  <RMSD>
1.522

$$$$
1xpf_lig
 OpenBabel02141814123D
libRbt.so/2013.1/901 2013/11/27
 14 13  0  0  0  0  0  0  0  0999 V2000
   20.6955    3.5940   61.5605 N   0  0  0  0  0  0  0  0  0  0  0  0
   20.8058    3.6370   63.0069 C   0  0  0  0  0  0  0  0  0  0  0  0
   19.4747    3.5104   63.6455 C   0  0  0  0  0  0  0  0  0  0  0  0
   19.6980    3.6049   65.1228 C   0  0  0  0  0  0  0  0  0  0  0  0
   20.5113    2.4235   65.5017 N   0  0  0  0  0  0  0  0  0  0  0  0
   19.6290    1.2686   65.8518 C   0  0  0  0  0  0  0  0  0  0  0  0
   20.2962   -0.0991   65.6258 C   0  0  0  0  0  0  0  0  0  0  0  0
   20.8620   -0.2915   64.2075 C   0  0  0  0  0  0  0  0  0  0  0  0
   21.4692   -1.6819   64.0970 C   0  0  0  0  0  0  0  0  0  0  0  0
   20.3161   -2.5882   63.9948 N   0  0  0  0  0  0  0  0  0  0  0  0
   19.9440   -3.0964   62.6447 C   0  0  0  0  0  0  0  0  0  0  0  0
   19.0759   -4.3111   63.0387 C   0  0  0  0  0  0  0  0  0  0  0  0
   17.7225   -4.0660   63.6560 C   0  0  0  0  0  0  0  0  0  0  0  0
   16.9661   -5.2675   63.9633 N   0  0  0  0  0  0  0  0  0  0  0  0
  1  2  1  0  0  0  0
  2  3  1  0  0  0  0
  3  4  1  0  0  0  0
  4  5  1  0  0  0  0
  5  6  1  0  0  0  0
  6  7  1  0  0  0  0
  7  8  1  0  0  0  0
  8  9  1  0  0  0  0
  9 10  1  0  0  0  0
 10 11  1  0  0  0  0
 11 12  1  0  0  0  0
 12 13  1  0  0  0  0
 13 14  1  0  0  0  0
M  END
>  <CHROM.1>
-178.45444763,-64.50831636,-89.65455106,153.45348881,-53.66719537,-178.93568333
75.35300506,100.66859119,161.63847047,70.51754250,178.58477832,19.81909863
-0.24013557,63.99417658,-0.74203524,-1.26994821,-2.28879972

>  <Name>
1xpf_lig

>  <RI>
0

>  <Rbt.Current_Directory>
/home/afrankz/demos/rdock_decoys_rna/rnas/1xpf

>  <Rbt.Executable>
rbdock ($Id: //depot/dev/client3/rdock/2013.1/src/exe/rbdock.cxx#4 $)

>  <Rbt.Library>
libRbt.so (2013.1, Build901 2013/11/27)

>  <Rbt.Parameter_File>
/export/apps/rDock/src/rDock_2013.1_src/data/scripts/dock_solv.prm

>  <Rbt.Receptor>
prm/pocket_docking_2.prm

>  <SCORE>
-5.37521

>  <SCORE.INTER>
2.12842

>  <SCORE.INTER.CONST>
1

>  <SCORE.INTER.POLAR>
0

>  <SCORE.INTER.ROT>
11

>  <SCORE.INTER.SOLV>
5.73538

>  <SCORE.INTER.VDW>
-11.4262

>  <SCORE.INTER.norm>
0.15203

>  <SCORE.INTRA>
-7.50853

>  <SCORE.INTRA.DIHEDRAL>
-14.0242

>  <SCORE.INTRA.DIHEDRAL.0>
17.7811

>  <SCORE.INTRA.POLAR>
0

>  <SCORE.INTRA.POLAR.0>
0

>  <SCORE.INTRA.REPUL>
0

>  <SCORE.INTRA.REPUL.0>
0

>  <SCORE.INTRA.SOLV>
0.85676

>  <SCORE.INTRA.SOLV.lig_0>
-47.9565

>  <SCORE.INTRA.VDW>
-0.924816

>  <SCORE.INTRA.VDW.0>
0.515983

>  <SCORE.INTRA.norm>
-0.536323

>  <SCORE.RESTR>
0.00489303

>  <SCORE.RESTR.CAVITY>
0.00489303

>  <SCORE.RESTR.norm>
0.000349502

>  <SCORE.SYSTEM>
0

>  <SCORE.SYSTEM.CONST>
0

>  <SCORE.SYSTEM.DIHEDRAL>
0

>  <SCORE.SYSTEM.SOLV>
0

>  <SCORE.SYSTEM.norm>
0

>  <SCORE.heavy>
14

>  <SCORE.norm>
-0.383944

>  <RMSD>
1.534

$$$$
1xpf_lig
 OpenBabel02141814123D
libRbt.so/2013.1/901 2013/11/27
 14 13  0  0  0  0  0  0  0  0999 V2000
   21.5316    4.3839   61.7770 N   0  0  0  0  0  0  0  0  0  0  0  0
   20.4145    4.0992   62.6585 C   0  0  0  0  0  0  0  0  0  0  0  0
   20.8707    3.4133   63.8902 C   0  0  0  0  0  0  0  0  0  0  0  0
   19.6421    3.1032   64.6875 C   0  0  0  0  0  0  0  0  0  0  0  0
   20.1019    2.4145   65.9183 N   0  0  0  0  0  0  0  0  0  0  0  0
   19.4111    1.0977   66.0728 C   0  0  0  0  0  0  0  0  0  0  0  0
   20.2977   -0.1035   65.7012 C   0  0  0  0  0  0  0  0  0  0  0  0
   20.7198   -0.1343   64.2215 C   0  0  0  0  0  0  0  0  0  0  0  0
   21.4910   -1.4170   63.9495 C   0  0  0  0  0  0  0  0  0  0  0  0
   20.4769   -2.4807   63.9908 N   0  0  0  0  0  0  0  0  0  0  0  0
   20.0102   -3.0523   62.6966 C   0  0  0  0  0  0  0  0  0  0  0  0
   18.8418   -3.9325   63.1910 C   0  0  0  0  0  0  0  0  0  0  0  0
   18.1049   -4.7880   62.1920 C   0  0  0  0  0  0  0  0  0  0  0  0
   16.9330   -5.4666   62.7178 N   0  0  0  0  0  0  0  0  0  0  0  0
  1  2  1  0  0  0  0
  2  3  1  0  0  0  0
  3  4  1  0  0  0  0
  4  5  1  0  0  0  0
  5  6  1  0  0  0  0
  6  7  1  0  0  0  0
  7  8  1  0  0  0  0
  8  9  1  0  0  0  0
  9 10  1  0  0  0  0
 10 11  1  0  0  0  0
 11 12  1  0  0  0  0
 12 13  1  0  0  0  0
 13 14  1  0  0  0  0
M  END
>  <CHROM.1>
-177.03633867,179.89525806,-125.15763175,103.55251369,-63.88174328,-175.38402564
71.78803047,103.56106452,-171.72930431,-176.42353294,-173.55017408,19.91771606
-0.20447300,63.83328653,-0.34897969,-1.29760187,-1.81106081

>  <Name>
1xpf_lig

>  <RI>
0

>  <Rbt.Current_Directory>
/home/afrankz/demos/rdock_decoys_rna/rnas/1xpf

>  <Rbt.Executable>
rbdock ($Id: //depot/dev/client3/rdock/2013.1/src/exe/rbdock.cxx#4 $)

>  <Rbt.Library>
libRbt.so (2013.1, Build901 2013/11/27)

>  <Rbt.Parameter_File>
/export/apps/rDock/src/rDock_2013.1_src/data/scripts/dock_solv.prm

>  <Rbt.Receptor>
prm/pocket_docking_2.prm

>  <SCORE>
-5.95601

>  <SCORE.INTER>
2.74907

>  <SCORE.INTER.CONST>
1

>  <SCORE.INTER.POLAR>
0

>  <SCORE.INTER.ROT>
11

>  <SCORE.INTER.SOLV>
6.16757

>  <SCORE.INTER.VDW>
-11.1565

>  <SCORE.INTER.norm>
0.196362

>  <SCORE.INTRA>
-8.73909

>  <SCORE.INTRA.DIHEDRAL>
-13.673

>  <SCORE.INTRA.DIHEDRAL.0>
17.7811

>  <SCORE.INTRA.POLAR>
0

>  <SCORE.INTRA.POLAR.0>
0

>  <SCORE.INTRA.REPUL>
0

>  <SCORE.INTRA.REPUL.0>
0

>  <SCORE.INTRA.SOLV>
-0.208803

>  <SCORE.INTRA.SOLV.lig_0>
-47.9565

>  <SCORE.INTRA.VDW>
-1.79817

>  <SCORE.INTRA.VDW.0>
0.515983

>  <SCORE.INTRA.norm>
-0.624221

>  <SCORE.RESTR>
0.0340064

>  <SCORE.RESTR.CAVITY>
0.0340064

>  <SCORE.RESTR.norm>
0.00242903

>  <SCORE.SYSTEM>
0

>  <SCORE.SYSTEM.CONST>
0

>  <SCORE.SYSTEM.DIHEDRAL>
0

>  <SCORE.SYSTEM.SOLV>
0

>  <SCORE.SYSTEM.norm>
0

>  <SCORE.heavy>
14

>  <SCORE.norm>
-0.42543

>  <RMSD>
1.575

$$$$
1xpf_lig
 OpenBabel02141814123D
libRbt.so/2013.1/901 2013/11/27
 14 13  0  0  0  0  0  0  0  0999 V2000
   21.6196    4.0459   62.8755 N   0  0  0  0  0  0  0  0  0  0  0  0
   20.9793    4.4938   64.0984 C   0  0  0  0  0  0  0  0  0  0  0  0
   20.9264    3.4037   65.1007 C   0  0  0  0  0  0  0  0  0  0  0  0
   19.9295    2.4069   64.5967 C   0  0  0  0  0  0  0  0  0  0  0  0
   19.9328    1.2825   65.5643 N   0  0  0  0  0  0  0  0  0  0  0  0
   18.9531    0.2314   65.1516 C   0  0  0  0  0  0  0  0  0  0  0  0
   19.4796   -0.6893   64.0371 C   0  0  0  0  0  0  0  0  0  0  0  0
   18.3776   -1.4705   63.2996 C   0  0  0  0  0  0  0  0  0  0  0  0
   19.0144   -2.3305   62.2184 C   0  0  0  0  0  0  0  0  0  0  0  0
   19.5867   -3.4771   62.9390 N   0  0  0  0  0  0  0  0  0  0  0  0
   18.8609   -4.7765   62.8741 C   0  0  0  0  0  0  0  0  0  0  0  0
   17.9492   -4.6437   64.1132 C   0  0  0  0  0  0  0  0  0  0  0  0
   17.0130   -5.7764   64.4499 C   0  0  0  0  0  0  0  0  0  0  0  0
   15.9902   -6.0389   63.4523 N   0  0  0  0  0  0  0  0  0  0  0  0
  1  2  1  0  0  0  0
  2  3  1  0  0  0  0
  3  4  1  0  0  0  0
  4  5  1  0  0  0  0
  5  6  1  0  0  0  0
  6  7  1  0  0  0  0
  7  8  1  0  0  0  0
  8  9  1  0  0  0  0
  9 10  1  0  0  0  0
 10 11  1  0  0  0  0
 11 12  1  0  0  0  0
 12 13  1  0  0  0  0
 13 14  1  0  0  0  0
M  END
>  <CHROM.1>
-70.54132628,177.00349868,179.53642293,79.43907344,-161.89834829,179.45884121
77.25844662,103.56993728,-90.86659313,-179.66153879,-63.66676770,19.18656143
-0.95271470,63.91229484,-0.89270644,-0.97021302,-2.46404184

>  <Name>
1xpf_lig

>  <RI>
0

>  <Rbt.Current_Directory>
/home/afrankz/demos/rdock_decoys_rna/rnas/1xpf

>  <Rbt.Executable>
rbdock ($Id: //depot/dev/client3/rdock/2013.1/src/exe/rbdock.cxx#4 $)

>  <Rbt.Library>
libRbt.so (2013.1, Build901 2013/11/27)

>  <Rbt.Parameter_File>
/export/apps/rDock/src/rDock_2013.1_src/data/scripts/dock_solv.prm

>  <Rbt.Receptor>
prm/pocket_docking_2.prm

>  <SCORE>
-1.16241

>  <SCORE.INTER>
5.80273

>  <SCORE.INTER.CONST>
1

>  <SCORE.INTER.POLAR>
0

>  <SCORE.INTER.ROT>
11

>  <SCORE.INTER.SOLV>
3.19429

>  <SCORE.INTER.VDW>
-8.12961

>  <SCORE.INTER.norm>
0.414481

>  <SCORE.INTRA>
-6.96514

>  <SCORE.INTRA.DIHEDRAL>
-13.1795

>  <SCORE.INTRA.DIHEDRAL.0>
17.7811

>  <SCORE.INTRA.POLAR>
0

>  <SCORE.INTRA.POLAR.0>
0

>  <SCORE.INTRA.REPUL>
0

>  <SCORE.INTRA.REPUL.0>
0

>  <SCORE.INTRA.SOLV>
0.875141

>  <SCORE.INTRA.SOLV.lig_0>
-47.9565

>  <SCORE.INTRA.VDW>
-0.81297

>  <SCORE.INTRA.VDW.0>
0.515983

>  <SCORE.INTRA.norm>
-0.49751

>  <SCORE.RESTR>
0

>  <SCORE.RESTR.CAVITY>
0

>  <SCORE.RESTR.norm>
0

>  <SCORE.SYSTEM>
0

>  <SCORE.SYSTEM.CONST>
0

>  <SCORE.SYSTEM.DIHEDRAL>
0

>  <SCORE.SYSTEM.SOLV>
0

>  <SCORE.SYSTEM.norm>
0

>  <SCORE.heavy>
14

>  <SCORE.norm>
-0.0830291

>  <RMSD>
1.580

$$$$
1xpf_lig
 OpenBabel02141814123D
libRbt.so/2013.1/901 2013/11/27
 14 13  0  0  0  0  0  0  0  0999 V2000
   16.0170   -6.1793   63.6674 N   0  0  0  0  0  0  0  0  0  0  0  0
   16.8230   -5.0019   63.4027 C   0  0  0  0  0  0  0  0  0  0  0  0
   17.7796   -5.2499   62.2985 C   0  0  0  0  0  0  0  0  0  0  0  0
   18.5264   -3.9702   62.0837 C   0  0  0  0  0  0  0  0  0  0  0  0
   19.4098   -3.7957   63.2626 N   0  0  0  0  0  0  0  0  0  0  0  0
   20.5567   -2.8959   62.9311 C   0  0  0  0  0  0  0  0  0  0  0  0
   20.9860   -1.9976   64.1040 C   0  0  0  0  0  0  0  0  0  0  0  0
   19.9220   -0.9682   64.5244 C   0  0  0  0  0  0  0  0  0  0  0  0
   20.4774   -0.1079   65.6494 C   0  0  0  0  0  0  0  0  0  0  0  0
   19.4619    0.9338   65.8618 N   0  0  0  0  0  0  0  0  0  0  0  0
   19.9257    2.3413   66.0148 C   0  0  0  0  0  0  0  0  0  0  0  0
   20.1636    2.7140   64.5354 C   0  0  0  0  0  0  0  0  0  0  0  0
   20.6111    4.1148   64.2030 C   0  0  0  0  0  0  0  0  0  0  0  0
   20.9368    4.3350   62.8046 N   0  0  0  0  0  0  0  0  0  0  0  0
  1  2  1  0  0  0  0
  2  3  1  0  0  0  0
  3  4  1  0  0  0  0
  4  5  1  0  0  0  0
  5  6  1  0  0  0  0
  6  7  1  0  0  0  0
  7  8  1  0  0  0  0
  8  9  1  0  0  0  0
  9 10  1  0  0  0  0
 10 11  1  0  0  0  0
 11 12  1  0  0  0  0
 12 13  1  0  0  0  0
 13 14  1  0  0  0  0
M  END
>  <CHROM.1>
178.41395173,70.38400268,157.47392945,144.69012558,-65.39252141,-177.83799167
173.31915979,-135.03341531,79.58360741,177.91518130,174.16302668,19.39995379
-1.12336224,63.95312088,2.14911068,-0.93910189,-2.46859969

>  <Name>
1xpf_lig

>  <RI>
0

>  <Rbt.Current_Directory>
/home/afrankz/demos/rdock_decoys_rna/rnas/1xpf

>  <Rbt.Executable>
rbdock ($Id: //depot/dev/client3/rdock/2013.1/src/exe/rbdock.cxx#4 $)

>  <Rbt.Library>
libRbt.so (2013.1, Build901 2013/11/27)

>  <Rbt.Parameter_File>
/export/apps/rDock/src/rDock_2013.1_src/data/scripts/dock_solv.prm

>  <Rbt.Receptor>
prm/pocket_docking_2.prm

>  <SCORE>
-5.77728

>  <SCORE.INTER>
2.29027

>  <SCORE.INTER.CONST>
1

>  <SCORE.INTER.POLAR>
0

>  <SCORE.INTER.ROT>
11

>  <SCORE.INTER.SOLV>
4.3258

>  <SCORE.INTER.VDW>
-10.8484

>  <SCORE.INTER.norm>
0.163591

>  <SCORE.INTRA>
-8.24197

>  <SCORE.INTRA.DIHEDRAL>
-14.4851

>  <SCORE.INTRA.DIHEDRAL.0>
17.7811

>  <SCORE.INTRA.POLAR>
0

>  <SCORE.INTRA.POLAR.0>
0

>  <SCORE.INTRA.REPUL>
0

>  <SCORE.INTRA.REPUL.0>
0

>  <SCORE.INTRA.SOLV>
-0.0865844

>  <SCORE.INTRA.SOLV.lig_0>
-47.9565

>  <SCORE.INTRA.VDW>
-0.956118

>  <SCORE.INTRA.VDW.0>
0.515983

>  <SCORE.INTRA.norm>
-0.588712

>  <SCORE.RESTR>
0.174426

>  <SCORE.RESTR.CAVITY>
0.174426

>  <SCORE.RESTR.norm>
0.012459

>  <SCORE.SYSTEM>
0

>  <SCORE.SYSTEM.CONST>
0

>  <SCORE.SYSTEM.DIHEDRAL>
0

>  <SCORE.SYSTEM.SOLV>
0

>  <SCORE.SYSTEM.norm>
0

>  <SCORE.heavy>
14

>  <SCORE.norm>
-0.412663

>  <RMSD>
1.584

$$$$
1xpf_lig
 OpenBabel02141814123D
libRbt.so/2013.1/901 2013/11/27
 14 13  0  0  0  0  0  0  0  0999 V2000
   21.0532    5.2595   62.6450 N   0  0  0  0  0  0  0  0  0  0  0  0
   21.1463    4.1115   63.5280 C   0  0  0  0  0  0  0  0  0  0  0  0
   19.8858    3.9179   64.2827 C   0  0  0  0  0  0  0  0  0  0  0  0
   20.0966    2.7310   65.1705 C   0  0  0  0  0  0  0  0  0  0  0  0
   20.1701    1.5471   64.2796 N   0  0  0  0  0  0  0  0  0  0  0  0
   20.5149    0.3210   65.0625 C   0  0  0  0  0  0  0  0  0  0  0  0
   20.7565   -0.9171   64.1818 C   0  0  0  0  0  0  0  0  0  0  0  0
   19.5248   -1.8276   64.0328 C   0  0  0  0  0  0  0  0  0  0  0  0
   19.8354   -2.9265   63.0277 C   0  0  0  0  0  0  0  0  0  0  0  0
   18.6445   -3.7885   63.0336 N   0  0  0  0  0  0  0  0  0  0  0  0
   18.5813   -4.8865   64.0385 C   0  0  0  0  0  0  0  0  0  0  0  0
   17.1956   -4.6094   64.6608 C   0  0  0  0  0  0  0  0  0  0  0  0
   15.9632   -5.0526   63.9140 C   0  0  0  0  0  0  0  0  0  0  0  0
   15.8799   -6.4820   63.6693 N   0  0  0  0  0  0  0  0  0  0  0  0
  1  2  1  0  0  0  0
  2  3  1  0  0  0  0
  3  4  1  0  0  0  0
  4  5  1  0  0  0  0
  5  6  1  0  0  0  0
  6  7  1  0  0  0  0
  7  8  1  0  0  0  0
  8  9  1  0  0  0  0
  9 10  1  0  0  0  0
 10 11  1  0  0  0  0
 11 12  1  0  0  0  0
 12 13  1  0  0  0  0
 13 14  1  0  0  0  0
M  END
>  <CHROM.1>
-179.15107996,-69.30485279,174.42009419,-173.80632317,-96.08531274,173.89817882
175.95278901,-87.19727363,128.42042525,78.75364898,60.23814183,19.23213963
-0.90017074,63.96643047,1.19166793,0.14609722,0.06297940

>  <Name>
1xpf_lig

>  <RI>
0

>  <Rbt.Current_Directory>
/home/afrankz/demos/rdock_decoys_rna/rnas/1xpf

>  <Rbt.Executable>
rbdock ($Id: //depot/dev/client3/rdock/2013.1/src/exe/rbdock.cxx#4 $)

>  <Rbt.Library>
libRbt.so (2013.1, Build901 2013/11/27)

>  <Rbt.Parameter_File>
/export/apps/rDock/src/rDock_2013.1_src/data/scripts/dock_solv.prm

>  <Rbt.Receptor>
prm/pocket_docking_2.prm

>  <SCORE>
-0.124486

>  <SCORE.INTER>
5.89138

>  <SCORE.INTER.CONST>
1

>  <SCORE.INTER.POLAR>
0

>  <SCORE.INTER.ROT>
11

>  <SCORE.INTER.SOLV>
4.59895

>  <SCORE.INTER.VDW>
-8.53873

>  <SCORE.INTER.norm>
0.420813

>  <SCORE.INTRA>
-6.04639

>  <SCORE.INTRA.DIHEDRAL>
-10.6772

>  <SCORE.INTRA.DIHEDRAL.0>
17.7811

>  <SCORE.INTRA.POLAR>
0

>  <SCORE.INTRA.POLAR.0>
0

>  <SCORE.INTRA.REPUL>
0

>  <SCORE.INTRA.REPUL.0>
0

>  <SCORE.INTRA.SOLV>
1.17121

>  <SCORE.INTRA.SOLV.lig_0>
-47.9565

>  <SCORE.INTRA.VDW>
-1.29342

>  <SCORE.INTRA.VDW.0>
0.515983

>  <SCORE.INTRA.norm>
-0.431885

>  <SCORE.RESTR>
0.0305218

>  <SCORE.RESTR.CAVITY>
0.0305218

>  <SCORE.RESTR.norm>
0.00218013

>  <SCORE.SYSTEM>
0

>  <SCORE.SYSTEM.CONST>
0

>  <SCORE.SYSTEM.DIHEDRAL>
0

>  <SCORE.SYSTEM.SOLV>
0

>  <SCORE.SYSTEM.norm>
0

>  <SCORE.heavy>
14

>  <SCORE.norm>
-0.00889188

>  <RMSD>
1.597

$$$$
1xpf_lig
 OpenBabel02141814123D
libRbt.so/2013.1/901 2013/11/27
 14 13  0  0  0  0  0  0  0  0999 V2000
   15.9977   -6.2076   65.5535 N   0  0  0  0  0  0  0  0  0  0  0  0
   16.3341   -5.0509   64.7442 C   0  0  0  0  0  0  0  0  0  0  0  0
   17.6778   -5.1995   64.1372 C   0  0  0  0  0  0  0  0  0  0  0  0
   17.9527   -3.9313   63.3907 C   0  0  0  0  0  0  0  0  0  0  0  0
   19.3311   -4.0488   62.8550 N   0  0  0  0  0  0  0  0  0  0  0  0
   20.0073   -2.7155   62.8472 C   0  0  0  0  0  0  0  0  0  0  0  0
   20.8917   -2.4730   64.0825 C   0  0  0  0  0  0  0  0  0  0  0  0
   21.1744   -0.9871   64.3664 C   0  0  0  0  0  0  0  0  0  0  0  0
   19.9728   -0.3768   65.0720 C   0  0  0  0  0  0  0  0  0  0  0  0
   20.4196    0.9617   65.4847 N   0  0  0  0  0  0  0  0  0  0  0  0
   19.7945    2.1418   64.8242 C   0  0  0  0  0  0  0  0  0  0  0  0
   20.9257    2.5437   63.8531 C   0  0  0  0  0  0  0  0  0  0  0  0
   20.7927    3.8291   63.0766 C   0  0  0  0  0  0  0  0  0  0  0  0
   20.7739    5.0330   63.8892 N   0  0  0  0  0  0  0  0  0  0  0  0
  1  2  1  0  0  0  0
  2  3  1  0  0  0  0
  3  4  1  0  0  0  0
  4  5  1  0  0  0  0
  5  6  1  0  0  0  0
  6  7  1  0  0  0  0
  7  8  1  0  0  0  0
  8  9  1  0  0  0  0
  9 10  1  0  0  0  0
 10 11  1  0  0  0  0
 11 12  1  0  0  0  0
 12 13  1  0  0  0  0
 13 14  1  0  0  0  0
M  END
>  <CHROM.1>
-177.04535252,176.57055521,-145.68186017,96.17243071,-158.80756986,79.89191372
171.30500189,112.28159235,-103.29065430,-172.47202163,64.09952280,19.43197901
-1.17727483,64.15534482,2.02311130,-0.54522766,-2.92758251

>  <Name>
1xpf_lig

>  <RI>
0

>  <Rbt.Current_Directory>
/home/afrankz/demos/rdock_decoys_rna/rnas/1xpf

>  <Rbt.Executable>
rbdock ($Id: //depot/dev/client3/rdock/2013.1/src/exe/rbdock.cxx#4 $)

>  <Rbt.Library>
libRbt.so (2013.1, Build901 2013/11/27)

>  <Rbt.Parameter_File>
/export/apps/rDock/src/rDock_2013.1_src/data/scripts/dock_solv.prm

>  <Rbt.Receptor>
prm/pocket_docking_2.prm

>  <SCORE>
-3.50572

>  <SCORE.INTER>
3.37413

>  <SCORE.INTER.CONST>
1

>  <SCORE.INTER.POLAR>
0

>  <SCORE.INTER.ROT>
11

>  <SCORE.INTER.SOLV>
4.73125

>  <SCORE.INTER.VDW>
-10.261

>  <SCORE.INTER.norm>
0.24101

>  <SCORE.INTRA>
-6.90434

>  <SCORE.INTRA.DIHEDRAL>
-10.4394

>  <SCORE.INTRA.DIHEDRAL.0>
17.7811

>  <SCORE.INTRA.POLAR>
0

>  <SCORE.INTRA.POLAR.0>
0

>  <SCORE.INTRA.REPUL>
0

>  <SCORE.INTRA.REPUL.0>
0

>  <SCORE.INTRA.SOLV>
-0.160162

>  <SCORE.INTRA.SOLV.lig_0>
-47.9565

>  <SCORE.INTRA.VDW>
-1.60456

>  <SCORE.INTRA.VDW.0>
0.515983

>  <SCORE.INTRA.norm>
-0.493167

>  <SCORE.RESTR>
0.0244865

>  <SCORE.RESTR.CAVITY>
0.0244865

>  <SCORE.RESTR.norm>
0.00174903

>  <SCORE.SYSTEM>
0

>  <SCORE.SYSTEM.CONST>
0

>  <SCORE.SYSTEM.DIHEDRAL>
0

>  <SCORE.SYSTEM.SOLV>
0

>  <SCORE.SYSTEM.norm>
0

>  <SCORE.heavy>
14

>  <SCORE.norm>
-0.250409

>  <RMSD>
1.627

$$$$
1xpf_lig
 OpenBabel02141814123D
libRbt.so/2013.1/901 2013/11/27
 14 13  0  0  0  0  0  0  0  0999 V2000
   16.2355   -6.2759   63.8865 N   0  0  0  0  0  0  0  0  0  0  0  0
   16.8942   -5.4643   64.8933 C   0  0  0  0  0  0  0  0  0  0  0  0
   17.3292   -4.1655   64.3279 C   0  0  0  0  0  0  0  0  0  0  0  0
   18.4682   -4.4615   63.4025 C   0  0  0  0  0  0  0  0  0  0  0  0
   18.9528   -3.1527   62.8997 N   0  0  0  0  0  0  0  0  0  0  0  0
   19.9521   -2.5646   63.8434 C   0  0  0  0  0  0  0  0  0  0  0  0
   20.2943   -1.0972   63.5329 C   0  0  0  0  0  0  0  0  0  0  0  0
   21.1825   -0.4247   64.5946 C   0  0  0  0  0  0  0  0  0  0  0  0
   20.3385   -0.0993   65.8176 C   0  0  0  0  0  0  0  0  0  0  0  0
   19.5908    1.1109   65.4467 N   0  0  0  0  0  0  0  0  0  0  0  0
   19.9813    2.3978   66.0877 C   0  0  0  0  0  0  0  0  0  0  0  0
   19.9637    3.3327   64.8589 C   0  0  0  0  0  0  0  0  0  0  0  0
   20.9780    3.1128   63.7653 C   0  0  0  0  0  0  0  0  0  0  0  0
   20.9953    4.1367   62.7350 N   0  0  0  0  0  0  0  0  0  0  0  0
  1  2  1  0  0  0  0
  2  3  1  0  0  0  0
  3  4  1  0  0  0  0
  4  5  1  0  0  0  0
  5  6  1  0  0  0  0
  6  7  1  0  0  0  0
  7  8  1  0  0  0  0
  8  9  1  0  0  0  0
  9 10  1  0  0  0  0
 10 11  1  0  0  0  0
 11 12  1  0  0  0  0
 12 13  1  0  0  0  0
 13 14  1  0  0  0  0
M  END
>  <CHROM.1>
-70.63290581,-176.75808140,86.22317973,-168.85629847,172.70998846,-75.59461565
-77.88863280,-108.11006663,135.67364057,-66.26814448,-172.62842728,19.36848303
-0.97246079,64.29250358,2.31729529,-0.99260425,-2.42974376

>  <Name>
1xpf_lig

>  <RI>
0

>  <Rbt.Current_Directory>
/home/afrankz/demos/rdock_decoys_rna/rnas/1xpf

>  <Rbt.Executable>
rbdock ($Id: //depot/dev/client3/rdock/2013.1/src/exe/rbdock.cxx#4 $)

>  <Rbt.Library>
libRbt.so (2013.1, Build901 2013/11/27)

>  <Rbt.Parameter_File>
/export/apps/rDock/src/rDock_2013.1_src/data/scripts/dock_solv.prm

>  <Rbt.Receptor>
prm/pocket_docking_2.prm

>  <SCORE>
-2.54143

>  <SCORE.INTER>
3.8577

>  <SCORE.INTER.CONST>
1

>  <SCORE.INTER.POLAR>
0

>  <SCORE.INTER.ROT>
11

>  <SCORE.INTER.SOLV>
4.55028

>  <SCORE.INTER.VDW>
-9.87829

>  <SCORE.INTER.norm>
0.27555

>  <SCORE.INTRA>
-6.40014

>  <SCORE.INTRA.DIHEDRAL>
-12.0084

>  <SCORE.INTRA.DIHEDRAL.0>
17.7811

>  <SCORE.INTRA.POLAR>
0

>  <SCORE.INTRA.POLAR.0>
0

>  <SCORE.INTRA.REPUL>
0

>  <SCORE.INTRA.REPUL.0>
0

>  <SCORE.INTRA.SOLV>
0.838371

>  <SCORE.INTRA.SOLV.lig_0>
-47.9565

>  <SCORE.INTRA.VDW>
-0.815145

>  <SCORE.INTRA.VDW.0>
0.515983

>  <SCORE.INTRA.norm>
-0.457153

>  <SCORE.RESTR>
0.00100681

>  <SCORE.RESTR.CAVITY>
0.00100681

>  <SCORE.RESTR.norm>
7.19147e-05

>  <SCORE.SYSTEM>
0

>  <SCORE.SYSTEM.CONST>
0

>  <SCORE.SYSTEM.DIHEDRAL>
0

>  <SCORE.SYSTEM.SOLV>
0

>  <SCORE.SYSTEM.norm>
0

>  <SCORE.heavy>
14

>  <SCORE.norm>
-0.181531

>  <RMSD>
1.645

$$$$
1xpf_lig
 OpenBabel02141814123D
libRbt.so/2013.1/901 2013/11/27
 14 13  0  0  0  0  0  0  0  0999 V2000
   20.8349    3.2459   62.2184 N   0  0  0  0  0  0  0  0  0  0  0  0
   19.5028    3.2944   62.7924 C   0  0  0  0  0  0  0  0  0  0  0  0
   19.4950    4.0747   64.0521 C   0  0  0  0  0  0  0  0  0  0  0  0
   20.2236    3.2527   65.0693 C   0  0  0  0  0  0  0  0  0  0  0  0
   19.3480    2.0966   65.3814 N   0  0  0  0  0  0  0  0  0  0  0  0
   20.0440    1.1428   66.2984 C   0  0  0  0  0  0  0  0  0  0  0  0
   20.1547   -0.2814   65.7273 C   0  0  0  0  0  0  0  0  0  0  0  0
   20.8870   -0.3574   64.3759 C   0  0  0  0  0  0  0  0  0  0  0  0
   21.2399   -1.8074   64.0806 C   0  0  0  0  0  0  0  0  0  0  0  0
   19.9444   -2.4899   63.9496 N   0  0  0  0  0  0  0  0  0  0  0  0
   19.6865   -3.2672   62.7051 C   0  0  0  0  0  0  0  0  0  0  0  0
   18.6336   -4.2713   63.2222 C   0  0  0  0  0  0  0  0  0  0  0  0
   17.3206   -3.7428   63.7416 C   0  0  0  0  0  0  0  0  0  0  0  0
   16.4147   -4.7568   64.2528 N   0  0  0  0  0  0  0  0  0  0  0  0
  1  2  1  0  0  0  0
  2  3  1  0  0  0  0
  3  4  1  0  0  0  0
  4  5  1  0  0  0  0
  5  6  1  0  0  0  0
  6  7  1  0  0  0  0
  7  8  1  0  0  0  0
  8  9  1  0  0  0  0
  9 10  1  0  0  0  0
 10 11  1  0  0  0  0
 11 12  1  0  0  0  0
 12 13  1  0  0  0  0
 13 14  1  0  0  0  0
M  END
>  <CHROM.1>
-70.47954577,-70.32284549,174.73042698,-122.47680031,57.84495129,166.08598625
63.89366822,125.80274086,155.31499362,61.97170189,-177.77620946,19.55229106
-0.27613524,64.13344746,-0.66591593,-1.25701066,-2.20184130

>  <Name>
1xpf_lig

>  <RI>
0

>  <Rbt.Current_Directory>
/home/afrankz/demos/rdock_decoys_rna/rnas/1xpf

>  <Rbt.Executable>
rbdock ($Id: //depot/dev/client3/rdock/2013.1/src/exe/rbdock.cxx#4 $)

>  <Rbt.Library>
libRbt.so (2013.1, Build901 2013/11/27)

>  <Rbt.Parameter_File>
/export/apps/rDock/src/rDock_2013.1_src/data/scripts/dock_solv.prm

>  <Rbt.Receptor>
prm/pocket_docking_2.prm

>  <SCORE>
-4.97281

>  <SCORE.INTER>
1.28031

>  <SCORE.INTER.CONST>
1

>  <SCORE.INTER.POLAR>
0

>  <SCORE.INTER.ROT>
11

>  <SCORE.INTER.SOLV>
3.44018

>  <SCORE.INTER.VDW>
-11.2265

>  <SCORE.INTER.norm>
0.0914509

>  <SCORE.INTRA>
-6.43853

>  <SCORE.INTRA.DIHEDRAL>
-13.2722

>  <SCORE.INTRA.DIHEDRAL.0>
17.7811

>  <SCORE.INTRA.POLAR>
0

>  <SCORE.INTRA.POLAR.0>
0

>  <SCORE.INTRA.REPUL>
0

>  <SCORE.INTRA.REPUL.0>
0

>  <SCORE.INTRA.SOLV>
2.44349

>  <SCORE.INTRA.SOLV.lig_0>
-47.9565

>  <SCORE.INTRA.VDW>
-1.02415

>  <SCORE.INTRA.VDW.0>
0.515983

>  <SCORE.INTRA.norm>
-0.459895

>  <SCORE.RESTR>
0.185408

>  <SCORE.RESTR.CAVITY>
0.185408

>  <SCORE.RESTR.norm>
0.0132434

>  <SCORE.SYSTEM>
0

>  <SCORE.SYSTEM.CONST>
0

>  <SCORE.SYSTEM.DIHEDRAL>
0

>  <SCORE.SYSTEM.SOLV>
0

>  <SCORE.SYSTEM.norm>
0

>  <SCORE.heavy>
14

>  <SCORE.norm>
-0.355201

>  <RMSD>
1.646

$$$$
1xpf_lig
 OpenBabel02141814123D
libRbt.so/2013.1/901 2013/11/27
 14 13  0  0  0  0  0  0  0  0999 V2000
   16.4981   -6.6636   65.1658 N   0  0  0  0  0  0  0  0  0  0  0  0
   16.5062   -5.4154   64.4255 C   0  0  0  0  0  0  0  0  0  0  0  0
   17.8924   -4.9685   64.1522 C   0  0  0  0  0  0  0  0  0  0  0  0
   17.7892   -3.6132   63.5247 C   0  0  0  0  0  0  0  0  0  0  0  0
   19.1786   -3.1241   63.3489 N   0  0  0  0  0  0  0  0  0  0  0  0
   19.1811   -1.6931   62.9160 C   0  0  0  0  0  0  0  0  0  0  0  0
   20.5261   -0.9857   63.1557 C   0  0  0  0  0  0  0  0  0  0  0  0
   20.9873   -1.0016   64.6238 C   0  0  0  0  0  0  0  0  0  0  0  0
   20.0391   -0.1494   65.4538 C   0  0  0  0  0  0  0  0  0  0  0  0
   20.3204    1.2339   65.0430 N   0  0  0  0  0  0  0  0  0  0  0  0
   20.0106    2.3263   66.0076 C   0  0  0  0  0  0  0  0  0  0  0  0
   20.6339    3.5300   65.2681 C   0  0  0  0  0  0  0  0  0  0  0  0
   19.9703    4.0320   64.0109 C   0  0  0  0  0  0  0  0  0  0  0  0
   19.9685    3.0903   62.9049 N   0  0  0  0  0  0  0  0  0  0  0  0
  1  2  1  0  0  0  0
  2  3  1  0  0  0  0
  3  4  1  0  0  0  0
  4  5  1  0  0  0  0
  5  6  1  0  0  0  0
  6  7  1  0  0  0  0
  7  8  1  0  0  0  0
  8  9  1  0  0  0  0
  9 10  1  0  0  0  0
 10 11  1  0  0  0  0
 11 12  1  0  0  0  0
 12 13  1  0  0  0  0
 13 14  1  0  0  0  0
M  END
>  <CHROM.1>
-173.95532588,175.71748811,-171.58480526,160.99452145,-57.84145806,-67.13981383
-70.64755969,-154.99156977,172.29622061,70.37891821,-64.44983299,19.25022138
-0.95713744,64.28584428,2.61332969,-1.15753598,-2.10162555

>  <Name>
1xpf_lig

>  <RI>
0

>  <Rbt.Current_Directory>
/home/afrankz/demos/rdock_decoys_rna/rnas/1xpf

>  <Rbt.Executable>
rbdock ($Id: //depot/dev/client3/rdock/2013.1/src/exe/rbdock.cxx#4 $)

>  <Rbt.Library>
libRbt.so (2013.1, Build901 2013/11/27)

>  <Rbt.Parameter_File>
/export/apps/rDock/src/rDock_2013.1_src/data/scripts/dock_solv.prm

>  <Rbt.Receptor>
prm/pocket_docking_2.prm

>  <SCORE>
-3.36004

>  <SCORE.INTER>
3.99532

>  <SCORE.INTER.CONST>
1

>  <SCORE.INTER.POLAR>
0

>  <SCORE.INTER.ROT>
11

>  <SCORE.INTER.SOLV>
3.89733

>  <SCORE.INTER.VDW>
-9.5689

>  <SCORE.INTER.norm>
0.28538

>  <SCORE.INTRA>
-7.41718

>  <SCORE.INTRA.DIHEDRAL>
-15.632

>  <SCORE.INTRA.DIHEDRAL.0>
17.7811

>  <SCORE.INTRA.POLAR>
0

>  <SCORE.INTRA.POLAR.0>
0

>  <SCORE.INTRA.REPUL>
0

>  <SCORE.INTRA.REPUL.0>
0

>  <SCORE.INTRA.SOLV>
3.58576

>  <SCORE.INTRA.SOLV.lig_0>
-47.9565

>  <SCORE.INTRA.VDW>
-1.39405

>  <SCORE.INTRA.VDW.0>
0.515983

>  <SCORE.INTRA.norm>
-0.529799

>  <SCORE.RESTR>
0.0618188

>  <SCORE.RESTR.CAVITY>
0.0618188

>  <SCORE.RESTR.norm>
0.00441563

>  <SCORE.SYSTEM>
0

>  <SCORE.SYSTEM.CONST>
0

>  <SCORE.SYSTEM.DIHEDRAL>
0

>  <SCORE.SYSTEM.SOLV>
0

>  <SCORE.SYSTEM.norm>
0

>  <SCORE.heavy>
14

>  <SCORE.norm>
-0.240003

>  <RMSD>
1.652

$$$$
1xpf_lig
 OpenBabel02141814123D
libRbt.so/2013.1/901 2013/11/27
 14 13  0  0  0  0  0  0  0  0999 V2000
   21.5895    5.1408   61.6934 N   0  0  0  0  0  0  0  0  0  0  0  0
   20.7119    4.9112   62.8263 C   0  0  0  0  0  0  0  0  0  0  0  0
   20.4137    3.4683   62.9837 C   0  0  0  0  0  0  0  0  0  0  0  0
   19.5660    3.3379   64.2108 C   0  0  0  0  0  0  0  0  0  0  0  0
   19.3367    1.8860   64.4114 N   0  0  0  0  0  0  0  0  0  0  0  0
   19.9399    1.4323   65.7019 C   0  0  0  0  0  0  0  0  0  0  0  0
   20.1962   -0.0837   65.7556 C   0  0  0  0  0  0  0  0  0  0  0  0
   21.0700   -0.6108   64.6036 C   0  0  0  0  0  0  0  0  0  0  0  0
   20.2000   -0.8210   63.3735 C   0  0  0  0  0  0  0  0  0  0  0  0
   19.4221   -2.0336   63.6666 N   0  0  0  0  0  0  0  0  0  0  0  0
   17.9422   -1.9703   63.5068 C   0  0  0  0  0  0  0  0  0  0  0  0
   17.5571   -3.3980   63.9513 C   0  0  0  0  0  0  0  0  0  0  0  0
   17.9886   -4.5643   63.0991 C   0  0  0  0  0  0  0  0  0  0  0  0
   17.3461   -4.6397   61.7984 N   0  0  0  0  0  0  0  0  0  0  0  0
  1  2  1  0  0  0  0
  2  3  1  0  0  0  0
  3  4  1  0  0  0  0
  4  5  1  0  0  0  0
  5  6  1  0  0  0  0
  6  7  1  0  0  0  0
  7  8  1  0  0  0  0
  8  9  1  0  0  0  0
  9 10  1  0  0  0  0
 10 11  1  0  0  0  0
 11 12  1  0  0  0  0
 12 13  1  0  0  0  0
 13 14  1  0  0  0  0
M  END
>  <CHROM.1>
177.19979151,-176.70303398,116.87177672,-159.30966077,55.59750290,-81.97995996
-74.05316111,128.29428221,-178.24068086,-66.64124754,-67.74246499,19.52004054
0.14683491,63.68478988,0.52292497,-1.19058906,-1.01268274

>  <Name>
1xpf_lig

>  <RI>
0

>  <Rbt.Current_Directory>
/home/afrankz/demos/rdock_decoys_rna/rnas/1xpf

>  <Rbt.Executable>
rbdock ($Id: //depot/dev/client3/rdock/2013.1/src/exe/rbdock.cxx#4 $)

>  <Rbt.Library>
libRbt.so (2013.1, Build901 2013/11/27)

>  <Rbt.Parameter_File>
/export/apps/rDock/src/rDock_2013.1_src/data/scripts/dock_solv.prm

>  <Rbt.Receptor>
prm/pocket_docking_2.prm

>  <SCORE>
-1.0792

>  <SCORE.INTER>
5.51399

>  <SCORE.INTER.CONST>
1

>  <SCORE.INTER.POLAR>
0

>  <SCORE.INTER.ROT>
11

>  <SCORE.INTER.SOLV>
4.49767

>  <SCORE.INTER.VDW>
-8.75656

>  <SCORE.INTER.norm>
0.393857

>  <SCORE.INTRA>
-6.61044

>  <SCORE.INTRA.DIHEDRAL>
-12.0642

>  <SCORE.INTRA.DIHEDRAL.0>
17.7811

>  <SCORE.INTRA.POLAR>
0

>  <SCORE.INTRA.POLAR.0>
0

>  <SCORE.INTRA.REPUL>
0

>  <SCORE.INTRA.REPUL.0>
0

>  <SCORE.INTRA.SOLV>
2.28396

>  <SCORE.INTRA.SOLV.lig_0>
-47.9565

>  <SCORE.INTRA.VDW>
-1.72031

>  <SCORE.INTRA.VDW.0>
0.515983

>  <SCORE.INTRA.norm>
-0.472174

>  <SCORE.RESTR>
0.0172433

>  <SCORE.RESTR.CAVITY>
0.0172433

>  <SCORE.RESTR.norm>
0.00123166

>  <SCORE.SYSTEM>
0

>  <SCORE.SYSTEM.CONST>
0

>  <SCORE.SYSTEM.DIHEDRAL>
0

>  <SCORE.SYSTEM.SOLV>
0

>  <SCORE.SYSTEM.norm>
0

>  <SCORE.heavy>
14

>  <SCORE.norm>
-0.0770858

>  <RMSD>
1.661

$$$$
1xpf_lig
 OpenBabel02141814123D
libRbt.so/2013.1/901 2013/11/27
 14 13  0  0  0  0  0  0  0  0999 V2000
   21.1030    3.9499   62.9444 N   0  0  0  0  0  0  0  0  0  0  0  0
   19.7193    4.0009   63.3789 C   0  0  0  0  0  0  0  0  0  0  0  0
   19.2071    2.6439   63.6825 C   0  0  0  0  0  0  0  0  0  0  0  0
   19.8428    2.2250   64.9716 C   0  0  0  0  0  0  0  0  0  0  0  0
   19.4102    0.8279   65.2195 N   0  0  0  0  0  0  0  0  0  0  0  0
   20.5937   -0.0817   65.3027 C   0  0  0  0  0  0  0  0  0  0  0  0
   20.6130   -1.1595   64.2051 C   0  0  0  0  0  0  0  0  0  0  0  0
   19.3246   -1.9979   64.1301 C   0  0  0  0  0  0  0  0  0  0  0  0
   19.4528   -3.0095   63.0013 C   0  0  0  0  0  0  0  0  0  0  0  0
   18.2750   -3.8785   63.1403 N   0  0  0  0  0  0  0  0  0  0  0  0
   17.8164   -4.6317   61.9395 C   0  0  0  0  0  0  0  0  0  0  0  0
   17.1593   -5.8539   62.6169 C   0  0  0  0  0  0  0  0  0  0  0  0
   15.9435   -5.6375   63.4817 C   0  0  0  0  0  0  0  0  0  0  0  0
   16.2039   -4.9630   64.7416 N   0  0  0  0  0  0  0  0  0  0  0  0
  1  2  1  0  0  0  0
  2  3  1  0  0  0  0
  3  4  1  0  0  0  0
  4  5  1  0  0  0  0
  5  6  1  0  0  0  0
  6  7  1  0  0  0  0
  7  8  1  0  0  0  0
  8  9  1  0  0  0  0
  9 10  1  0  0  0  0
 10 11  1  0  0  0  0
 11 12  1  0  0  0  0
 12 13  1  0  0  0  0
 13 14  1  0  0  0  0
M  END
>  <CHROM.1>
73.14041019,-175.76633942,120.42479609,-117.55490816,-53.84914557,179.14950998
171.89905155,157.45283721,151.93659199,64.44583277,-70.52802220,18.90467955
-1.25478251,63.76819477,-0.20040986,-1.19859619,-1.69193357

>  <Name>
1xpf_lig

>  <RI>
0

>  <Rbt.Current_Directory>
/home/afrankz/demos/rdock_decoys_rna/rnas/1xpf

>  <Rbt.Executable>
rbdock ($Id: //depot/dev/client3/rdock/2013.1/src/exe/rbdock.cxx#4 $)

>  <Rbt.Library>
libRbt.so (2013.1, Build901 2013/11/27)

>  <Rbt.Parameter_File>
/export/apps/rDock/src/rDock_2013.1_src/data/scripts/dock_solv.prm

>  <Rbt.Receptor>
prm/pocket_docking_2.prm

>  <SCORE>
-1.74186

>  <SCORE.INTER>
4.67926

>  <SCORE.INTER.CONST>
1

>  <SCORE.INTER.POLAR>
0

>  <SCORE.INTER.ROT>
11

>  <SCORE.INTER.SOLV>
2.82055

>  <SCORE.INTER.VDW>
-8.75401

>  <SCORE.INTER.norm>
0.334233

>  <SCORE.INTRA>
-6.45189

>  <SCORE.INTRA.DIHEDRAL>
-12.9069

>  <SCORE.INTRA.DIHEDRAL.0>
17.7811

>  <SCORE.INTRA.POLAR>
0

>  <SCORE.INTRA.POLAR.0>
0

>  <SCORE.INTRA.REPUL>
0

>  <SCORE.INTRA.REPUL.0>
0

>  <SCORE.INTRA.SOLV>
3.33525

>  <SCORE.INTRA.SOLV.lig_0>
-47.9565

>  <SCORE.INTRA.VDW>
-1.66607

>  <SCORE.INTRA.VDW.0>
0.515983

>  <SCORE.INTRA.norm>
-0.460849

>  <SCORE.RESTR>
0.0307667

>  <SCORE.RESTR.CAVITY>
0.0307667

>  <SCORE.RESTR.norm>
0.00219762

>  <SCORE.SYSTEM>
0

>  <SCORE.SYSTEM.CONST>
0

>  <SCORE.SYSTEM.DIHEDRAL>
0

>  <SCORE.SYSTEM.SOLV>
0

>  <SCORE.SYSTEM.norm>
0

>  <SCORE.heavy>
14

>  <SCORE.norm>
-0.124418

>  <RMSD>
1.669

$$$$
1xpf_lig
 OpenBabel02141814123D
libRbt.so/2013.1/901 2013/11/27
 14 13  0  0  0  0  0  0  0  0999 V2000
   21.4346    4.6563   62.1979 N   0  0  0  0  0  0  0  0  0  0  0  0
   21.1996    4.3729   63.6016 C   0  0  0  0  0  0  0  0  0  0  0  0
   19.8385    3.8265   63.8130 C   0  0  0  0  0  0  0  0  0  0  0  0
   19.7007    3.5775   65.2828 C   0  0  0  0  0  0  0  0  0  0  0  0
   20.6088    2.4498   65.6054 N   0  0  0  0  0  0  0  0  0  0  0  0
   19.8268    1.2573   66.0541 C   0  0  0  0  0  0  0  0  0  0  0  0
   20.4392   -0.0794   65.6011 C   0  0  0  0  0  0  0  0  0  0  0  0
   20.6142   -0.2018   64.0770 C   0  0  0  0  0  0  0  0  0  0  0  0
   21.2977   -1.5228   63.7578 C   0  0  0  0  0  0  0  0  0  0  0  0
   20.2928   -2.5501   64.0681 N   0  0  0  0  0  0  0  0  0  0  0  0
   19.2248   -2.8096   63.0623 C   0  0  0  0  0  0  0  0  0  0  0  0
   18.5839   -4.0789   63.6642 C   0  0  0  0  0  0  0  0  0  0  0  0
   17.2667   -4.5592   63.1098 C   0  0  0  0  0  0  0  0  0  0  0  0
   17.2757   -4.8558   61.6878 N   0  0  0  0  0  0  0  0  0  0  0  0
  1  2  1  0  0  0  0
  2  3  1  0  0  0  0
  3  4  1  0  0  0  0
  4  5  1  0  0  0  0
  5  6  1  0  0  0  0
  6  7  1  0  0  0  0
  7  8  1  0  0  0  0
  8  9  1  0  0  0  0
  9 10  1  0  0  0  0
 10 11  1  0  0  0  0
 11 12  1  0  0  0  0
 12 13  1  0  0  0  0
 13 14  1  0  0  0  0
M  END
>  <CHROM.1>
-179.75503819,-68.81652275,-114.74318187,144.62774355,-57.22682808,176.76493833
69.83226045,79.94729863,170.47667040,168.24442500,58.29047753,19.82884290
-0.03694295,63.97045248,0.49665011,-1.24400921,-0.90405007

>  <Name>
1xpf_lig

>  <RI>
0

>  <Rbt.Current_Directory>
/home/afrankz/demos/rdock_decoys_rna/rnas/1xpf

>  <Rbt.Executable>
rbdock ($Id: //depot/dev/client3/rdock/2013.1/src/exe/rbdock.cxx#4 $)

>  <Rbt.Library>
libRbt.so (2013.1, Build901 2013/11/27)

>  <Rbt.Parameter_File>
/export/apps/rDock/src/rDock_2013.1_src/data/scripts/dock_solv.prm

>  <Rbt.Receptor>
prm/pocket_docking_2.prm

>  <SCORE>
-3.56426

>  <SCORE.INTER>
3.93733

>  <SCORE.INTER.CONST>
1

>  <SCORE.INTER.POLAR>
0

>  <SCORE.INTER.ROT>
11

>  <SCORE.INTER.SOLV>
6.19977

>  <SCORE.INTER.VDW>
-10.375

>  <SCORE.INTER.norm>
0.281238

>  <SCORE.INTRA>
-7.51583

>  <SCORE.INTRA.DIHEDRAL>
-14.2282

>  <SCORE.INTRA.DIHEDRAL.0>
17.7811

>  <SCORE.INTRA.POLAR>
0

>  <SCORE.INTRA.POLAR.0>
0

>  <SCORE.INTRA.REPUL>
0

>  <SCORE.INTRA.REPUL.0>
0

>  <SCORE.INTRA.SOLV>
1.08634

>  <SCORE.INTRA.SOLV.lig_0>
-47.9565

>  <SCORE.INTRA.VDW>
-0.944914

>  <SCORE.INTRA.VDW.0>
0.515983

>  <SCORE.INTRA.norm>
-0.536845

>  <SCORE.RESTR>
0.014254

>  <SCORE.RESTR.CAVITY>
0.014254

>  <SCORE.RESTR.norm>
0.00101814

>  <SCORE.SYSTEM>
0

>  <SCORE.SYSTEM.CONST>
0

>  <SCORE.SYSTEM.DIHEDRAL>
0

>  <SCORE.SYSTEM.SOLV>
0

>  <SCORE.SYSTEM.norm>
0

>  <SCORE.heavy>
14

>  <SCORE.norm>
-0.25459

>  <RMSD>
1.681

$$$$
1xpf_lig
 OpenBabel02141814123D
libRbt.so/2013.1/901 2013/11/27
 14 13  0  0  0  0  0  0  0  0999 V2000
   17.1717   -4.3235   62.8455 N   0  0  0  0  0  0  0  0  0  0  0  0
   18.5441   -4.7163   62.5840 C   0  0  0  0  0  0  0  0  0  0  0  0
   19.4942   -3.6996   63.0934 C   0  0  0  0  0  0  0  0  0  0  0  0
   19.3384   -2.4931   62.2208 C   0  0  0  0  0  0  0  0  0  0  0  0
   20.3542   -1.5118   62.6744 N   0  0  0  0  0  0  0  0  0  0  0  0
   19.7222   -0.4554   63.5227 C   0  0  0  0  0  0  0  0  0  0  0  0
   20.0009   -0.6321   65.0254 C   0  0  0  0  0  0  0  0  0  0  0  0
   19.2736    0.3875   65.9198 C   0  0  0  0  0  0  0  0  0  0  0  0
   20.0284    1.7079   65.8866 C   0  0  0  0  0  0  0  0  0  0  0  0
   19.7931    2.2411   64.5368 N   0  0  0  0  0  0  0  0  0  0  0  0
   19.6296    3.7141   64.3859 C   0  0  0  0  0  0  0  0  0  0  0  0
   19.8545    3.8606   62.8653 C   0  0  0  0  0  0  0  0  0  0  0  0
   21.1928    3.4733   62.2892 C   0  0  0  0  0  0  0  0  0  0  0  0
   21.3461    3.7415   60.8698 N   0  0  0  0  0  0  0  0  0  0  0  0
  1  2  1  0  0  0  0
  2  3  1  0  0  0  0
  3  4  1  0  0  0  0
  4  5  1  0  0  0  0
  5  6  1  0  0  0  0
  6  7  1  0  0  0  0
  7  8  1  0  0  0  0
  8  9  1  0  0  0  0
  9 10  1  0  0  0  0
 10 11  1  0  0  0  0
 11 12  1  0  0  0  0
 12 13  1  0  0  0  0
 13 14  1  0  0  0  0
M  END
>  <CHROM.1>
-69.44672965,-176.24506174,-101.76823444,103.96440549,-175.79838541,-79.03443200
70.73180624,143.47655168,163.17784953,-62.51173000,-175.47109799,19.69599587
0.09247086,63.48026920,-2.41126101,1.25115739,0.86656531

>  <Name>
1xpf_lig

>  <RI>
0

>  <Rbt.Current_Directory>
/home/afrankz/demos/rdock_decoys_rna/rnas/1xpf

>  <Rbt.Executable>
rbdock ($Id: //depot/dev/client3/rdock/2013.1/src/exe/rbdock.cxx#4 $)

>  <Rbt.Library>
libRbt.so (2013.1, Build901 2013/11/27)

>  <Rbt.Parameter_File>
/export/apps/rDock/src/rDock_2013.1_src/data/scripts/dock_solv.prm

>  <Rbt.Receptor>
prm/pocket_docking_2.prm

>  <SCORE>
-2.43977

>  <SCORE.INTER>
3.81168

>  <SCORE.INTER.CONST>
1

>  <SCORE.INTER.POLAR>
0

>  <SCORE.INTER.ROT>
11

>  <SCORE.INTER.SOLV>
3.09238

>  <SCORE.INTER.VDW>
-9.423

>  <SCORE.INTER.norm>
0.272263

>  <SCORE.INTRA>
-6.32808

>  <SCORE.INTRA.DIHEDRAL>
-12.4406

>  <SCORE.INTRA.DIHEDRAL.0>
17.7811

>  <SCORE.INTRA.POLAR>
0

>  <SCORE.INTRA.POLAR.0>
0

>  <SCORE.INTRA.REPUL>
0

>  <SCORE.INTRA.REPUL.0>
0

>  <SCORE.INTRA.SOLV>
1.39974

>  <SCORE.INTRA.SOLV.lig_0>
-47.9565

>  <SCORE.INTRA.VDW>
-0.807633

>  <SCORE.INTRA.VDW.0>
0.515983

>  <SCORE.INTRA.norm>
-0.452006

>  <SCORE.RESTR>
0.0766272

>  <SCORE.RESTR.CAVITY>
0.0766272

>  <SCORE.RESTR.norm>
0.00547337

>  <SCORE.SYSTEM>
0

>  <SCORE.SYSTEM.CONST>
0

>  <SCORE.SYSTEM.DIHEDRAL>
0

>  <SCORE.SYSTEM.SOLV>
0

>  <SCORE.SYSTEM.norm>
0

>  <SCORE.heavy>
14

>  <SCORE.norm>
-0.174269

>  <RMSD>
1.695

$$$$
1xpf_lig
 OpenBabel02141814123D
libRbt.so/2013.1/901 2013/11/27
 14 13  0  0  0  0  0  0  0  0999 V2000
   21.4839    3.9839   62.3932 N   0  0  0  0  0  0  0  0  0  0  0  0
   20.0668    3.8359   62.6692 C   0  0  0  0  0  0  0  0  0  0  0  0
   19.7192    4.4130   63.9890 C   0  0  0  0  0  0  0  0  0  0  0  0
   20.3741    3.5478   65.0204 C   0  0  0  0  0  0  0  0  0  0  0  0
   19.6352    2.2615   65.0212 N   0  0  0  0  0  0  0  0  0  0  0  0
   20.1219    1.3766   66.1234 C   0  0  0  0  0  0  0  0  0  0  0  0
   19.9678   -0.1228   65.8150 C   0  0  0  0  0  0  0  0  0  0  0  0
   20.7960   -0.6008   64.6091 C   0  0  0  0  0  0  0  0  0  0  0  0
   20.0709   -0.2251   63.3257 C   0  0  0  0  0  0  0  0  0  0  0  0
   18.8681   -1.0706   63.3126 N   0  0  0  0  0  0  0  0  0  0  0  0
   18.7830   -2.1492   62.2885 C   0  0  0  0  0  0  0  0  0  0  0  0
   18.7406   -3.3927   63.2028 C   0  0  0  0  0  0  0  0  0  0  0  0
   18.5376   -4.7483   62.5750 C   0  0  0  0  0  0  0  0  0  0  0  0
   17.2744   -4.9137   61.8769 N   0  0  0  0  0  0  0  0  0  0  0  0
  1  2  1  0  0  0  0
  2  3  1  0  0  0  0
  3  4  1  0  0  0  0
  4  5  1  0  0  0  0
  5  6  1  0  0  0  0
  6  7  1  0  0  0  0
  7  8  1  0  0  0  0
  8  9  1  0  0  0  0
  9 10  1  0  0  0  0
 10 11  1  0  0  0  0
 11 12  1  0  0  0  0
 12 13  1  0  0  0  0
 13 14  1  0  0  0  0
M  END
>  <CHROM.1>
-67.68132157,-70.84663984,-173.97244774,-151.52338079,63.10079377,-79.52955540
-68.25510446,-111.18941945,117.18014340,175.07870874,-62.21276701,19.60294055
0.15685180,63.73038189,0.39346125,-1.28754239,-0.96911368

>  <Name>
1xpf_lig

>  <RI>
0

>  <Rbt.Current_Directory>
/home/afrankz/demos/rdock_decoys_rna/rnas/1xpf

>  <Rbt.Executable>
rbdock ($Id: //depot/dev/client3/rdock/2013.1/src/exe/rbdock.cxx#4 $)

>  <Rbt.Library>
libRbt.so (2013.1, Build901 2013/11/27)

>  <Rbt.Parameter_File>
/export/apps/rDock/src/rDock_2013.1_src/data/scripts/dock_solv.prm

>  <Rbt.Receptor>
prm/pocket_docking_2.prm

>  <SCORE>
-1.29834

>  <SCORE.INTER>
4.32684

>  <SCORE.INTER.CONST>
1

>  <SCORE.INTER.POLAR>
0

>  <SCORE.INTER.ROT>
11

>  <SCORE.INTER.SOLV>
4.22715

>  <SCORE.INTER.VDW>
-9.45782

>  <SCORE.INTER.norm>
0.30906

>  <SCORE.INTRA>
-5.65747

>  <SCORE.INTRA.DIHEDRAL>
-12.35

>  <SCORE.INTRA.DIHEDRAL.0>
17.7811

>  <SCORE.INTRA.POLAR>
0

>  <SCORE.INTRA.POLAR.0>
0

>  <SCORE.INTRA.REPUL>
0

>  <SCORE.INTRA.REPUL.0>
0

>  <SCORE.INTRA.SOLV>
3.27538

>  <SCORE.INTRA.SOLV.lig_0>
-47.9565

>  <SCORE.INTRA.VDW>
-1.12014

>  <SCORE.INTRA.VDW.0>
0.515983

>  <SCORE.INTRA.norm>
-0.404105

>  <SCORE.RESTR>
0.0322852

>  <SCORE.RESTR.CAVITY>
0.0322852

>  <SCORE.RESTR.norm>
0.00230608

>  <SCORE.SYSTEM>
0

>  <SCORE.SYSTEM.CONST>
0

>  <SCORE.SYSTEM.DIHEDRAL>
0

>  <SCORE.SYSTEM.SOLV>
0

>  <SCORE.SYSTEM.norm>
0

>  <SCORE.heavy>
14

>  <SCORE.norm>
-0.0927389

>  <RMSD>
1.696

$$$$
1xpf_lig
 OpenBabel02141814123D
libRbt.so/2013.1/901 2013/11/27
 14 13  0  0  0  0  0  0  0  0999 V2000
   15.9713   -6.9734   63.9481 N   0  0  0  0  0  0  0  0  0  0  0  0
   16.7216   -6.2317   64.9447 C   0  0  0  0  0  0  0  0  0  0  0  0
   16.9238   -4.8263   64.5206 C   0  0  0  0  0  0  0  0  0  0  0  0
   17.7885   -4.8682   63.2992 C   0  0  0  0  0  0  0  0  0  0  0  0
   18.0753   -3.4582   62.9382 N   0  0  0  0  0  0  0  0  0  0  0  0
   19.3423   -2.9977   63.5845 C   0  0  0  0  0  0  0  0  0  0  0  0
   19.4111   -1.4724   63.7738 C   0  0  0  0  0  0  0  0  0  0  0  0
   20.6758   -0.9902   64.5061 C   0  0  0  0  0  0  0  0  0  0  0  0
   20.9005    0.4822   64.1967 C   0  0  0  0  0  0  0  0  0  0  0  0
   19.7783    1.1774   64.8438 N   0  0  0  0  0  0  0  0  0  0  0  0
   20.0156    2.5521   65.3667 C   0  0  0  0  0  0  0  0  0  0  0  0
   20.0115    3.3523   64.0462 C   0  0  0  0  0  0  0  0  0  0  0  0
   20.4579    4.7922   64.0690 C   0  0  0  0  0  0  0  0  0  0  0  0
   20.4806    5.4439   62.7710 N   0  0  0  0  0  0  0  0  0  0  0  0
  1  2  1  0  0  0  0
  2  3  1  0  0  0  0
  3  4  1  0  0  0  0
  4  5  1  0  0  0  0
  5  6  1  0  0  0  0
  6  7  1  0  0  0  0
  7  8  1  0  0  0  0
  8  9  1  0  0  0  0
  9 10  1  0  0  0  0
 10 11  1  0  0  0  0
 11 12  1  0  0  0  0
 12 13  1  0  0  0  0
 13 14  1  0  0  0  0
M  END
>  <CHROM.1>
-64.96692910,-175.74262577,91.81880367,-155.43518020,176.88667957,159.37599444
67.23219927,148.16863870,75.83947474,-169.51251671,177.21496097,19.03976152
-1.00130475,64.05794601,1.93857298,0.35813650,3.00453266

>  <Name>
1xpf_lig

>  <RI>
0

>  <Rbt.Current_Directory>
/home/afrankz/demos/rdock_decoys_rna/rnas/1xpf

>  <Rbt.Executable>
rbdock ($Id: //depot/dev/client3/rdock/2013.1/src/exe/rbdock.cxx#4 $)

>  <Rbt.Library>
libRbt.so (2013.1, Build901 2013/11/27)

>  <Rbt.Parameter_File>
/export/apps/rDock/src/rDock_2013.1_src/data/scripts/dock_solv.prm

>  <Rbt.Receptor>
prm/pocket_docking_2.prm

>  <SCORE>
-0.211309

>  <SCORE.INTER>
6.22464

>  <SCORE.INTER.CONST>
1

>  <SCORE.INTER.POLAR>
0

>  <SCORE.INTER.ROT>
11

>  <SCORE.INTER.SOLV>
5.75535

>  <SCORE.INTER.VDW>
-8.70202

>  <SCORE.INTER.norm>
0.444617

>  <SCORE.INTRA>
-6.43595

>  <SCORE.INTRA.DIHEDRAL>
-13.3946

>  <SCORE.INTRA.DIHEDRAL.0>
17.7811

>  <SCORE.INTRA.POLAR>
0

>  <SCORE.INTRA.POLAR.0>
0

>  <SCORE.INTRA.REPUL>
0

>  <SCORE.INTRA.REPUL.0>
0

>  <SCORE.INTRA.SOLV>
0.353464

>  <SCORE.INTRA.SOLV.lig_0>
-47.9565

>  <SCORE.INTRA.VDW>
0.0846036

>  <SCORE.INTRA.VDW.0>
0.515983

>  <SCORE.INTRA.norm>
-0.459711

>  <SCORE.RESTR>
0

>  <SCORE.RESTR.CAVITY>
0

>  <SCORE.RESTR.norm>
0

>  <SCORE.SYSTEM>
0

>  <SCORE.SYSTEM.CONST>
0

>  <SCORE.SYSTEM.DIHEDRAL>
0

>  <SCORE.SYSTEM.SOLV>
0

>  <SCORE.SYSTEM.norm>
0

>  <SCORE.heavy>
14

>  <SCORE.norm>
-0.0150935

>  <RMSD>
1.716

$$$$
1xpf_lig
 OpenBabel02141814123D
libRbt.so/2013.1/901 2013/11/27
 14 13  0  0  0  0  0  0  0  0999 V2000
   17.1879   -4.4739   61.5110 N   0  0  0  0  0  0  0  0  0  0  0  0
   17.7277   -5.0403   62.7334 C   0  0  0  0  0  0  0  0  0  0  0  0
   19.0777   -4.4999   63.0186 C   0  0  0  0  0  0  0  0  0  0  0  0
   18.8948   -3.0572   63.3744 C   0  0  0  0  0  0  0  0  0  0  0  0
   20.2429   -2.5298   63.6988 N   0  0  0  0  0  0  0  0  0  0  0  0
   20.3739   -1.1102   63.2487 C   0  0  0  0  0  0  0  0  0  0  0  0
   20.6908   -0.1339   64.3947 C   0  0  0  0  0  0  0  0  0  0  0  0
   19.6171   -0.0944   65.4966 C   0  0  0  0  0  0  0  0  0  0  0  0
   19.9335    1.0388   66.4610 C   0  0  0  0  0  0  0  0  0  0  0  0
   19.6158    2.2657   65.7158 N   0  0  0  0  0  0  0  0  0  0  0  0
   20.7494    3.0939   65.2172 C   0  0  0  0  0  0  0  0  0  0  0  0
   19.9968    4.0372   64.2538 C   0  0  0  0  0  0  0  0  0  0  0  0
   20.7883    5.0441   63.4584 C   0  0  0  0  0  0  0  0  0  0  0  0
   21.7577    4.4702   62.5413 N   0  0  0  0  0  0  0  0  0  0  0  0
  1  2  1  0  0  0  0
  2  3  1  0  0  0  0
  3  4  1  0  0  0  0
  4  5  1  0  0  0  0
  5  6  1  0  0  0  0
  6  7  1  0  0  0  0
  7  8  1  0  0  0  0
  8  9  1  0  0  0  0
  9 10  1  0  0  0  0
 10 11  1  0  0  0  0
 11 12  1  0  0  0  0
 12 13  1  0  0  0  0
 13 14  1  0  0  0  0
M  END
>  <CHROM.1>
68.77185032,178.34674489,144.75064993,120.50813230,-60.49180877,-171.84798636
72.50773627,-106.35174145,167.36243648,-177.54635287,61.91716320,19.76105019
-0.07069790,63.93763360,-2.95527022,1.29380866,1.56737457

>  <Name>
1xpf_lig

>  <RI>
0

>  <Rbt.Current_Directory>
/home/afrankz/demos/rdock_decoys_rna/rnas/1xpf

>  <Rbt.Executable>
rbdock ($Id: //depot/dev/client3/rdock/2013.1/src/exe/rbdock.cxx#4 $)

>  <Rbt.Library>
libRbt.so (2013.1, Build901 2013/11/27)

>  <Rbt.Parameter_File>
/export/apps/rDock/src/rDock_2013.1_src/data/scripts/dock_solv.prm

>  <Rbt.Receptor>
prm/pocket_docking_2.prm

>  <SCORE>
-4.76318

>  <SCORE.INTER>
2.78051

>  <SCORE.INTER.CONST>
1

>  <SCORE.INTER.POLAR>
0

>  <SCORE.INTER.ROT>
11

>  <SCORE.INTER.SOLV>
4.12107

>  <SCORE.INTER.VDW>
-10.4533

>  <SCORE.INTER.norm>
0.198608

>  <SCORE.INTRA>
-7.54369

>  <SCORE.INTRA.DIHEDRAL>
-13.4591

>  <SCORE.INTRA.DIHEDRAL.0>
17.7811

>  <SCORE.INTRA.POLAR>
0

>  <SCORE.INTRA.POLAR.0>
0

>  <SCORE.INTRA.REPUL>
0

>  <SCORE.INTRA.REPUL.0>
0

>  <SCORE.INTRA.SOLV>
1.31013

>  <SCORE.INTRA.SOLV.lig_0>
-47.9565

>  <SCORE.INTRA.VDW>
-1.4692

>  <SCORE.INTRA.VDW.0>
0.515983

>  <SCORE.INTRA.norm>
-0.538835

>  <SCORE.RESTR>
0

>  <SCORE.RESTR.CAVITY>
0

>  <SCORE.RESTR.norm>
0

>  <SCORE.SYSTEM>
0

>  <SCORE.SYSTEM.CONST>
0

>  <SCORE.SYSTEM.DIHEDRAL>
0

>  <SCORE.SYSTEM.SOLV>
0

>  <SCORE.SYSTEM.norm>
0

>  <SCORE.heavy>
14

>  <SCORE.norm>
-0.340227

>  <RMSD>
1.719

$$$$
1xpf_lig
 OpenBabel02141814123D
libRbt.so/2013.1/901 2013/11/27
 14 13  0  0  0  0  0  0  0  0999 V2000
   16.3614   -7.0108   64.3365 N   0  0  0  0  0  0  0  0  0  0  0  0
   16.6090   -5.9165   63.4160 C   0  0  0  0  0  0  0  0  0  0  0  0
   17.5571   -4.9372   63.9971 C   0  0  0  0  0  0  0  0  0  0  0  0
   17.6938   -3.8297   62.9991 C   0  0  0  0  0  0  0  0  0  0  0  0
   18.6186   -2.8360   63.5973 N   0  0  0  0  0  0  0  0  0  0  0  0
   20.0018   -3.0147   63.0590 C   0  0  0  0  0  0  0  0  0  0  0  0
   21.0976   -2.5062   64.0117 C   0  0  0  0  0  0  0  0  0  0  0  0
   21.1451   -0.9740   64.1480 C   0  0  0  0  0  0  0  0  0  0  0  0
   20.0135   -0.5187   65.0571 C   0  0  0  0  0  0  0  0  0  0  0  0
   20.0119    0.9475   64.9491 N   0  0  0  0  0  0  0  0  0  0  0  0
   19.0641    1.5765   63.9870 C   0  0  0  0  0  0  0  0  0  0  0  0
   19.9286    2.7504   63.4783 C   0  0  0  0  0  0  0  0  0  0  0  0
   20.2280    3.8912   64.4174 C   0  0  0  0  0  0  0  0  0  0  0  0
   21.0134    4.9674   63.8384 N   0  0  0  0  0  0  0  0  0  0  0  0
  1  2  1  0  0  0  0
  2  3  1  0  0  0  0
  3  4  1  0  0  0  0
  4  5  1  0  0  0  0
  5  6  1  0  0  0  0
  6  7  1  0  0  0  0
  7  8  1  0  0  0  0
  8  9  1  0  0  0  0
  9 10  1  0  0  0  0
 10 11  1  0  0  0  0
 11 12  1  0  0  0  0
 12 13  1  0  0  0  0
 13 14  1  0  0  0  0
M  END
>  <CHROM.1>
-177.56988278,178.70534189,98.74091277,-154.51169046,-70.26543528,77.02120100
-171.19745711,96.30642211,-143.48471583,-70.03604263,-178.22305620,19.23894612
-1.24372769,63.94934779,1.91078103,0.07072632,-3.12119327

>  <Name>
1xpf_lig

>  <RI>
0

>  <Rbt.Current_Directory>
/home/afrankz/demos/rdock_decoys_rna/rnas/1xpf

>  <Rbt.Executable>
rbdock ($Id: //depot/dev/client3/rdock/2013.1/src/exe/rbdock.cxx#4 $)

>  <Rbt.Library>
libRbt.so (2013.1, Build901 2013/11/27)

>  <Rbt.Parameter_File>
/export/apps/rDock/src/rDock_2013.1_src/data/scripts/dock_solv.prm

>  <Rbt.Receptor>
prm/pocket_docking_2.prm

>  <SCORE>
-3.28504

>  <SCORE.INTER>
4.12534

>  <SCORE.INTER.CONST>
1

>  <SCORE.INTER.POLAR>
0

>  <SCORE.INTER.ROT>
11

>  <SCORE.INTER.SOLV>
3.25172

>  <SCORE.INTER.VDW>
-9.26701

>  <SCORE.INTER.norm>
0.294667

>  <SCORE.INTRA>
-7.42372

>  <SCORE.INTRA.DIHEDRAL>
-12.634

>  <SCORE.INTRA.DIHEDRAL.0>
17.7811

>  <SCORE.INTRA.POLAR>
0

>  <SCORE.INTRA.POLAR.0>
0

>  <SCORE.INTRA.REPUL>
0

>  <SCORE.INTRA.REPUL.0>
0

>  <SCORE.INTRA.SOLV>
0.547883

>  <SCORE.INTRA.SOLV.lig_0>
-47.9565

>  <SCORE.INTRA.VDW>
-1.38065

>  <SCORE.INTRA.VDW.0>
0.515983

>  <SCORE.INTRA.norm>
-0.530266

>  <SCORE.RESTR>
0.0133375

>  <SCORE.RESTR.CAVITY>
0.0133375

>  <SCORE.RESTR.norm>
0.000952681

>  <SCORE.SYSTEM>
0

>  <SCORE.SYSTEM.CONST>
0

>  <SCORE.SYSTEM.DIHEDRAL>
0

>  <SCORE.SYSTEM.SOLV>
0

>  <SCORE.SYSTEM.norm>
0

>  <SCORE.heavy>
14

>  <SCORE.norm>
-0.234646

>  <RMSD>
1.734

$$$$
1xpf_lig
 OpenBabel02141814123D
libRbt.so/2013.1/901 2013/11/27
 14 13  0  0  0  0  0  0  0  0999 V2000
   21.7672    5.4656   62.1464 N   0  0  0  0  0  0  0  0  0  0  0  0
   20.7640    5.1331   63.1410 C   0  0  0  0  0  0  0  0  0  0  0  0
   20.4874    3.6773   63.1508 C   0  0  0  0  0  0  0  0  0  0  0  0
   19.4670    3.4429   64.2209 C   0  0  0  0  0  0  0  0  0  0  0  0
   19.2185    1.9807   64.2522 N   0  0  0  0  0  0  0  0  0  0  0  0
   19.8290    1.3700   65.4726 C   0  0  0  0  0  0  0  0  0  0  0  0
   20.1196   -0.1333   65.3221 C   0  0  0  0  0  0  0  0  0  0  0  0
   21.1291   -0.4661   64.2092 C   0  0  0  0  0  0  0  0  0  0  0  0
   21.2707   -1.9767   64.0995 C   0  0  0  0  0  0  0  0  0  0  0  0
   19.9805   -2.4370   63.5656 N   0  0  0  0  0  0  0  0  0  0  0  0
   19.7619   -3.9048   63.4343 C   0  0  0  0  0  0  0  0  0  0  0  0
   18.5701   -3.9178   62.4526 C   0  0  0  0  0  0  0  0  0  0  0  0
   17.9611   -5.2424   62.0683 C   0  0  0  0  0  0  0  0  0  0  0  0
   16.9166   -5.1639   61.0619 N   0  0  0  0  0  0  0  0  0  0  0  0
  1  2  1  0  0  0  0
  2  3  1  0  0  0  0
  3  4  1  0  0  0  0
  4  5  1  0  0  0  0
  5  6  1  0  0  0  0
  6  7  1  0  0  0  0
  7  8  1  0  0  0  0
  8  9  1  0  0  0  0
  9 10  1  0  0  0  0
 10 11  1  0  0  0  0
 11 12  1  0  0  0  0
 12 13  1  0  0  0  0
 13 14  1  0  0  0  0
M  END
>  <CHROM.1>
178.95637573,-178.55741892,107.46846615,-156.81215451,61.90780318,-176.58499000
68.88386662,-175.57975122,-162.21788358,-177.54236531,-175.37796917,19.80317733
-0.15521864,63.47153100,1.10291656,-1.01095758,-0.28458261

>  <Name>
1xpf_lig

>  <RI>
0

>  <Rbt.Current_Directory>
/home/afrankz/demos/rdock_decoys_rna/rnas/1xpf

>  <Rbt.Executable>
rbdock ($Id: //depot/dev/client3/rdock/2013.1/src/exe/rbdock.cxx#4 $)

>  <Rbt.Library>
libRbt.so (2013.1, Build901 2013/11/27)

>  <Rbt.Parameter_File>
/export/apps/rDock/src/rDock_2013.1_src/data/scripts/dock_solv.prm

>  <Rbt.Receptor>
prm/pocket_docking_2.prm

>  <SCORE>
-6.23924

>  <SCORE.INTER>
2.81212

>  <SCORE.INTER.CONST>
1

>  <SCORE.INTER.POLAR>
0

>  <SCORE.INTER.ROT>
11

>  <SCORE.INTER.SOLV>
5.91633

>  <SCORE.INTER.VDW>
-11.0307

>  <SCORE.INTER.norm>
0.200866

>  <SCORE.INTRA>
-9.51428

>  <SCORE.INTRA.DIHEDRAL>
-15.5863

>  <SCORE.INTRA.DIHEDRAL.0>
17.7811

>  <SCORE.INTRA.POLAR>
0

>  <SCORE.INTRA.POLAR.0>
0

>  <SCORE.INTRA.REPUL>
0

>  <SCORE.INTRA.REPUL.0>
0

>  <SCORE.INTRA.SOLV>
-0.15723

>  <SCORE.INTRA.SOLV.lig_0>
-47.9565

>  <SCORE.INTRA.VDW>
-1.6425

>  <SCORE.INTRA.VDW.0>
0.515983

>  <SCORE.INTRA.norm>
-0.679591

>  <SCORE.RESTR>
0.462911

>  <SCORE.RESTR.CAVITY>
0.462911

>  <SCORE.RESTR.norm>
0.0330651

>  <SCORE.SYSTEM>
0

>  <SCORE.SYSTEM.CONST>
0

>  <SCORE.SYSTEM.DIHEDRAL>
0

>  <SCORE.SYSTEM.SOLV>
0

>  <SCORE.SYSTEM.norm>
0

>  <SCORE.heavy>
14

>  <SCORE.norm>
-0.44566

>  <RMSD>
1.740

$$$$
1xpf_lig
 OpenBabel02141814123D
libRbt.so/2013.1/901 2013/11/27
 14 13  0  0  0  0  0  0  0  0999 V2000
   16.5884   -5.0568   63.1459 N   0  0  0  0  0  0  0  0  0  0  0  0
   17.8065   -4.5712   63.7676 C   0  0  0  0  0  0  0  0  0  0  0  0
   18.9481   -4.6398   62.8253 C   0  0  0  0  0  0  0  0  0  0  0  0
   20.1633   -4.2232   63.5941 C   0  0  0  0  0  0  0  0  0  0  0  0
   20.0084   -2.7745   63.8732 N   0  0  0  0  0  0  0  0  0  0  0  0
   21.2100   -2.2458   64.5885 C   0  0  0  0  0  0  0  0  0  0  0  0
   21.0286   -0.8081   65.1052 C   0  0  0  0  0  0  0  0  0  0  0  0
   19.8542   -0.6400   66.0854 C   0  0  0  0  0  0  0  0  0  0  0  0
   18.7183    0.0881   65.3827 C   0  0  0  0  0  0  0  0  0  0  0  0
   19.1728    1.4825   65.2799 N   0  0  0  0  0  0  0  0  0  0  0  0
   19.3812    2.0512   63.9187 C   0  0  0  0  0  0  0  0  0  0  0  0
   19.8389    3.4796   64.2855 C   0  0  0  0  0  0  0  0  0  0  0  0
   20.2588    4.4134   63.1789 C   0  0  0  0  0  0  0  0  0  0  0  0
   21.4370    3.9928   62.4405 N   0  0  0  0  0  0  0  0  0  0  0  0
  1  2  1  0  0  0  0
  2  3  1  0  0  0  0
  3  4  1  0  0  0  0
  4  5  1  0  0  0  0
  5  6  1  0  0  0  0
  6  7  1  0  0  0  0
  7  8  1  0  0  0  0
  8  9  1  0  0  0  0
  9 10  1  0  0  0  0
 10 11  1  0  0  0  0
 11 12  1  0  0  0  0
 12 13  1  0  0  0  0
 13 14  1  0  0  0  0
M  END
>  <CHROM.1>
-175.59993178,-69.19828828,-177.39790514,-170.94784582,59.10106329,-106.62766233
-73.42089505,116.46020201,-179.98828878,175.98531807,-63.89710897,19.60117043
-0.67516363,64.10525953,1.79215032,0.30558288,3.10035209

>  <Name>
1xpf_lig

>  <RI>
0

>  <Rbt.Current_Directory>
/home/afrankz/demos/rdock_decoys_rna/rnas/1xpf

>  <Rbt.Executable>
rbdock ($Id: //depot/dev/client3/rdock/2013.1/src/exe/rbdock.cxx#4 $)

>  <Rbt.Library>
libRbt.so (2013.1, Build901 2013/11/27)

>  <Rbt.Parameter_File>
/export/apps/rDock/src/rDock_2013.1_src/data/scripts/dock_solv.prm

>  <Rbt.Receptor>
prm/pocket_docking_3.prm

>  <SCORE>
-6.21893

>  <SCORE.INTER>
-0.295103

>  <SCORE.INTER.CONST>
1

>  <SCORE.INTER.POLAR>
0

>  <SCORE.INTER.ROT>
11

>  <SCORE.INTER.SOLV>
3.67184

>  <SCORE.INTER.VDW>
-12.354

>  <SCORE.INTER.norm>
-0.0210788

>  <SCORE.INTRA>
-5.93115

>  <SCORE.INTRA.DIHEDRAL>
-9.95774

>  <SCORE.INTRA.DIHEDRAL.0>
17.7811

>  <SCORE.INTRA.POLAR>
0

>  <SCORE.INTRA.POLAR.0>
0

>  <SCORE.INTRA.REPUL>
0

>  <SCORE.INTRA.REPUL.0>
0

>  <SCORE.INTRA.SOLV>
1.32186

>  <SCORE.INTRA.SOLV.lig_0>
-47.9565

>  <SCORE.INTRA.VDW>
-1.61321

>  <SCORE.INTRA.VDW.0>
0.515983

>  <SCORE.INTRA.norm>
-0.423654

>  <SCORE.RESTR>
0.00732049

>  <SCORE.RESTR.CAVITY>
0.00732049

>  <SCORE.RESTR.norm>
0.000522892

>  <SCORE.SYSTEM>
0

>  <SCORE.SYSTEM.CONST>
0

>  <SCORE.SYSTEM.DIHEDRAL>
0

>  <SCORE.SYSTEM.SOLV>
0

>  <SCORE.SYSTEM.norm>
0

>  <SCORE.heavy>
14

>  <SCORE.norm>
-0.44421

>  <RMSD>
1.799

$$$$
1xpf_lig
 OpenBabel02141814123D
libRbt.so/2013.1/901 2013/11/27
 14 13  0  0  0  0  0  0  0  0999 V2000
   16.2246   -5.9369   65.5755 N   0  0  0  0  0  0  0  0  0  0  0  0
   16.1455   -5.2915   64.2781 C   0  0  0  0  0  0  0  0  0  0  0  0
   17.4977   -5.0197   63.7364 C   0  0  0  0  0  0  0  0  0  0  0  0
   17.3030   -4.2612   62.4604 C   0  0  0  0  0  0  0  0  0  0  0  0
   18.6475   -4.1090   61.8521 N   0  0  0  0  0  0  0  0  0  0  0  0
   19.2402   -2.7846   62.2121 C   0  0  0  0  0  0  0  0  0  0  0  0
   20.4991   -2.8979   63.0891 C   0  0  0  0  0  0  0  0  0  0  0  0
   21.0151   -1.5481   63.6185 C   0  0  0  0  0  0  0  0  0  0  0  0
   19.9998   -0.9744   64.5953 C   0  0  0  0  0  0  0  0  0  0  0  0
   20.5047    0.3686   64.9161 N   0  0  0  0  0  0  0  0  0  0  0  0
   20.0873    1.4998   64.0411 C   0  0  0  0  0  0  0  0  0  0  0  0
   20.3958    2.6937   64.9705 C   0  0  0  0  0  0  0  0  0  0  0  0
   20.1217    4.0902   64.4729 C   0  0  0  0  0  0  0  0  0  0  0  0
   20.8816    4.4785   63.2973 N   0  0  0  0  0  0  0  0  0  0  0  0
  1  2  1  0  0  0  0
  2  3  1  0  0  0  0
  3  4  1  0  0  0  0
  4  5  1  0  0  0  0
  5  6  1  0  0  0  0
  6  7  1  0  0  0  0
  7  8  1  0  0  0  0
  8  9  1  0  0  0  0
  9 10  1  0  0  0  0
 10 11  1  0  0  0  0
 11 12  1  0  0  0  0
 12 13  1  0  0  0  0
 13 14  1  0  0  0  0
M  END
>  <CHROM.1>
-175.56698119,-174.47236963,-95.90335587,114.83658988,-172.49761494,66.73522524
-173.57295356,88.41797011,161.24594930,179.77087064,-61.65329591,19.18317329
-1.40664250,63.79390579,2.14200133,-0.79507420,-2.64784827

>  <Name>
1xpf_lig

>  <RI>
0

>  <Rbt.Current_Directory>
/home/afrankz/demos/rdock_decoys_rna/rnas/1xpf

>  <Rbt.Executable>
rbdock ($Id: //depot/dev/client3/rdock/2013.1/src/exe/rbdock.cxx#4 $)

>  <Rbt.Library>
libRbt.so (2013.1, Build901 2013/11/27)

>  <Rbt.Parameter_File>
/export/apps/rDock/src/rDock_2013.1_src/data/scripts/dock_solv.prm

>  <Rbt.Receptor>
prm/pocket_docking_2.prm

>  <SCORE>
-3.06521

>  <SCORE.INTER>
5.02121

>  <SCORE.INTER.CONST>
1

>  <SCORE.INTER.POLAR>
0

>  <SCORE.INTER.ROT>
11

>  <SCORE.INTER.SOLV>
3.81819

>  <SCORE.INTER.VDW>
-8.85859

>  <SCORE.INTER.norm>
0.358658

>  <SCORE.INTRA>
-8.08642

>  <SCORE.INTRA.DIHEDRAL>
-14.2505

>  <SCORE.INTRA.DIHEDRAL.0>
17.7811

>  <SCORE.INTRA.POLAR>
0

>  <SCORE.INTRA.POLAR.0>
0

>  <SCORE.INTRA.REPUL>
0

>  <SCORE.INTRA.REPUL.0>
0

>  <SCORE.INTRA.SOLV>
-0.10651

>  <SCORE.INTRA.SOLV.lig_0>
-47.9565

>  <SCORE.INTRA.VDW>
-0.907897

>  <SCORE.INTRA.VDW.0>
0.515983

>  <SCORE.INTRA.norm>
-0.577601

>  <SCORE.RESTR>
0

>  <SCORE.RESTR.CAVITY>
0

>  <SCORE.RESTR.norm>
0

>  <SCORE.SYSTEM>
0

>  <SCORE.SYSTEM.CONST>
0

>  <SCORE.SYSTEM.DIHEDRAL>
0

>  <SCORE.SYSTEM.SOLV>
0

>  <SCORE.SYSTEM.norm>
0

>  <SCORE.heavy>
14

>  <SCORE.norm>
-0.218944

>  <RMSD>
1.802

$$$$
1xpf_lig
 OpenBabel02141814123D
libRbt.so/2013.1/901 2013/11/27
 14 13  0  0  0  0  0  0  0  0999 V2000
   21.1167    4.9464   63.7642 N   0  0  0  0  0  0  0  0  0  0  0  0
   20.0212    4.2705   63.0939 C   0  0  0  0  0  0  0  0  0  0  0  0
   19.3759    3.2843   63.9921 C   0  0  0  0  0  0  0  0  0  0  0  0
   20.3924    2.2176   64.2572 C   0  0  0  0  0  0  0  0  0  0  0  0
   19.7053    1.1696   65.0510 N   0  0  0  0  0  0  0  0  0  0  0  0
   20.4349   -0.1311   64.9473 C   0  0  0  0  0  0  0  0  0  0  0  0
   19.7164   -1.1647   64.0629 C   0  0  0  0  0  0  0  0  0  0  0  0
   20.4649   -2.5030   63.9322 C   0  0  0  0  0  0  0  0  0  0  0  0
   19.6807   -3.4253   63.0110 C   0  0  0  0  0  0  0  0  0  0  0  0
   18.5069   -3.8319   63.7974 N   0  0  0  0  0  0  0  0  0  0  0  0
   17.4962   -4.7087   63.1422 C   0  0  0  0  0  0  0  0  0  0  0  0
   16.3890   -4.7025   64.2184 C   0  0  0  0  0  0  0  0  0  0  0  0
   16.6521   -5.3905   65.5339 C   0  0  0  0  0  0  0  0  0  0  0  0
   16.8063   -6.8324   65.4476 N   0  0  0  0  0  0  0  0  0  0  0  0
  1  2  1  0  0  0  0
  2  3  1  0  0  0  0
  3  4  1  0  0  0  0
  4  5  1  0  0  0  0
  5  6  1  0  0  0  0
  6  7  1  0  0  0  0
  7  8  1  0  0  0  0
  8  9  1  0  0  0  0
  9 10  1  0  0  0  0
 10 11  1  0  0  0  0
 11 12  1  0  0  0  0
 12 13  1  0  0  0  0
 13 14  1  0  0  0  0
M  END
>  <CHROM.1>
-65.91714692,-174.82402196,159.21579004,-106.49955750,179.25988671,-178.54034446
-72.34541136,177.51558555,-172.12449164,-68.29583409,-66.01563394,19.05422292
-1.20014437,64.16065900,1.20991423,0.39998187,0.08058669

>  <Name>
1xpf_lig

>  <RI>
0

>  <Rbt.Current_Directory>
/home/afrankz/demos/rdock_decoys_rna/rnas/1xpf

>  <Rbt.Executable>
rbdock ($Id: //depot/dev/client3/rdock/2013.1/src/exe/rbdock.cxx#4 $)

>  <Rbt.Library>
libRbt.so (2013.1, Build901 2013/11/27)

>  <Rbt.Parameter_File>
/export/apps/rDock/src/rDock_2013.1_src/data/scripts/dock_solv.prm

>  <Rbt.Receptor>
prm/pocket_docking_2.prm

>  <SCORE>
-3.77977

>  <SCORE.INTER>
4.13411

>  <SCORE.INTER.CONST>
1

>  <SCORE.INTER.POLAR>
0

>  <SCORE.INTER.ROT>
11

>  <SCORE.INTER.SOLV>
4.14374

>  <SCORE.INTER.VDW>
-9.55851

>  <SCORE.INTER.norm>
0.295294

>  <SCORE.INTRA>
-7.97758

>  <SCORE.INTRA.DIHEDRAL>
-15.1558

>  <SCORE.INTRA.DIHEDRAL.0>
17.7811

>  <SCORE.INTRA.POLAR>
0

>  <SCORE.INTRA.POLAR.0>
0

>  <SCORE.INTRA.REPUL>
0

>  <SCORE.INTRA.REPUL.0>
0

>  <SCORE.INTRA.SOLV>
1.76948

>  <SCORE.INTRA.SOLV.lig_0>
-47.9565

>  <SCORE.INTRA.VDW>
-1.2844

>  <SCORE.INTRA.VDW.0>
0.515983

>  <SCORE.INTRA.norm>
-0.569827

>  <SCORE.RESTR>
0.0636933

>  <SCORE.RESTR.CAVITY>
0.0636933

>  <SCORE.RESTR.norm>
0.00454952

>  <SCORE.SYSTEM>
0

>  <SCORE.SYSTEM.CONST>
0

>  <SCORE.SYSTEM.DIHEDRAL>
0

>  <SCORE.SYSTEM.SOLV>
0

>  <SCORE.SYSTEM.norm>
0

>  <SCORE.heavy>
14

>  <SCORE.norm>
-0.269984

>  <RMSD>
1.803

$$$$
1xpf_lig
 OpenBabel02141814123D
libRbt.so/2013.1/901 2013/11/27
 14 13  0  0  0  0  0  0  0  0999 V2000
   17.9308   -5.3791   64.7912 N   0  0  0  0  0  0  0  0  0  0  0  0
   17.3143   -5.0313   63.5242 C   0  0  0  0  0  0  0  0  0  0  0  0
   18.3188   -4.9995   62.4353 C   0  0  0  0  0  0  0  0  0  0  0  0
   19.1182   -3.7482   62.6269 C   0  0  0  0  0  0  0  0  0  0  0  0
   19.9587   -3.9660   63.8297 N   0  0  0  0  0  0  0  0  0  0  0  0
   21.1115   -3.0142   63.8446 C   0  0  0  0  0  0  0  0  0  0  0  0
   21.0704   -2.0249   65.0220 C   0  0  0  0  0  0  0  0  0  0  0  0
   20.0147   -0.9156   64.8694 C   0  0  0  0  0  0  0  0  0  0  0  0
   20.0741   -0.0000   66.0828 C   0  0  0  0  0  0  0  0  0  0  0  0
   19.5343    1.2837   65.6114 N   0  0  0  0  0  0  0  0  0  0  0  0
   20.4896    2.2805   65.0518 C   0  0  0  0  0  0  0  0  0  0  0  0
   19.5056    3.3850   64.6091 C   0  0  0  0  0  0  0  0  0  0  0  0
   20.0412    4.5720   63.8495 C   0  0  0  0  0  0  0  0  0  0  0  0
   21.0860    5.3131   64.5345 N   0  0  0  0  0  0  0  0  0  0  0  0
  1  2  1  0  0  0  0
  2  3  1  0  0  0  0
  3  4  1  0  0  0  0
  4  5  1  0  0  0  0
  5  6  1  0  0  0  0
  6  7  1  0  0  0  0
  7  8  1  0  0  0  0
  8  9  1  0  0  0  0
  9 10  1  0  0  0  0
 10 11  1  0  0  0  0
 11 12  1  0  0  0  0
 12 13  1  0  0  0  0
 13 14  1  0  0  0  0
M  END
>  <CHROM.1>
-74.38570925,71.21141894,160.33855813,115.62250513,-73.95091233,-179.66484116
155.22312063,-90.55511146,176.20366864,-174.31819483,-57.23444293,19.68346373
-0.87469715,64.33432361,-1.81696987,-0.69935079,-0.02751870

>  <Name>
1xpf_lig

>  <RI>
0

>  <Rbt.Current_Directory>
/home/afrankz/demos/rdock_decoys_rna/rnas/1xpf

>  <Rbt.Executable>
rbdock ($Id: //depot/dev/client3/rdock/2013.1/src/exe/rbdock.cxx#4 $)

>  <Rbt.Library>
libRbt.so (2013.1, Build901 2013/11/27)

>  <Rbt.Parameter_File>
/export/apps/rDock/src/rDock_2013.1_src/data/scripts/dock_solv.prm

>  <Rbt.Receptor>
prm/pocket_docking_3.prm

>  <SCORE>
-4.89762

>  <SCORE.INTER>
0.54985

>  <SCORE.INTER.CONST>
1

>  <SCORE.INTER.POLAR>
0

>  <SCORE.INTER.ROT>
11

>  <SCORE.INTER.SOLV>
7.99694

>  <SCORE.INTER.VDW>
-13.2324

>  <SCORE.INTER.norm>
0.039275

>  <SCORE.INTRA>
-5.4555

>  <SCORE.INTRA.DIHEDRAL>
-11.5987

>  <SCORE.INTRA.DIHEDRAL.0>
17.7811

>  <SCORE.INTRA.POLAR>
0

>  <SCORE.INTRA.POLAR.0>
0

>  <SCORE.INTRA.REPUL>
0

>  <SCORE.INTRA.REPUL.0>
0

>  <SCORE.INTRA.SOLV>
3.17156

>  <SCORE.INTRA.SOLV.lig_0>
-47.9565

>  <SCORE.INTRA.VDW>
-1.24195

>  <SCORE.INTRA.VDW.0>
0.515983

>  <SCORE.INTRA.norm>
-0.389678

>  <SCORE.RESTR>
0.00802856

>  <SCORE.RESTR.CAVITY>
0.00802856

>  <SCORE.RESTR.norm>
0.000573469

>  <SCORE.SYSTEM>
0

>  <SCORE.SYSTEM.CONST>
0

>  <SCORE.SYSTEM.DIHEDRAL>
0

>  <SCORE.SYSTEM.SOLV>
0

>  <SCORE.SYSTEM.norm>
0

>  <SCORE.heavy>
14

>  <SCORE.norm>
-0.34983

>  <RMSD>
1.825

$$$$
1xpf_lig
 OpenBabel02141814123D
libRbt.so/2013.1/901 2013/11/27
 14 13  0  0  0  0  0  0  0  0999 V2000
   21.3750    3.6326   63.7351 N   0  0  0  0  0  0  0  0  0  0  0  0
   19.9462    3.5192   63.9630 C   0  0  0  0  0  0  0  0  0  0  0  0
   19.6341    3.5590   65.4110 C   0  0  0  0  0  0  0  0  0  0  0  0
   20.1805    2.2964   66.0015 C   0  0  0  0  0  0  0  0  0  0  0  0
   19.3521    1.1885   65.4658 N   0  0  0  0  0  0  0  0  0  0  0  0
   20.1329   -0.0861   65.4396 C   0  0  0  0  0  0  0  0  0  0  0  0
   19.8861   -0.9267   64.1749 C   0  0  0  0  0  0  0  0  0  0  0  0
   20.7186   -2.2196   64.1118 C   0  0  0  0  0  0  0  0  0  0  0  0
   20.3391   -2.9966   62.8602 C   0  0  0  0  0  0  0  0  0  0  0  0
   18.9186   -3.3293   63.0410 N   0  0  0  0  0  0  0  0  0  0  0  0
   18.5820   -4.6079   63.7277 C   0  0  0  0  0  0  0  0  0  0  0  0
   17.1315   -4.3105   64.1655 C   0  0  0  0  0  0  0  0  0  0  0  0
   16.3442   -5.3966   64.8537 C   0  0  0  0  0  0  0  0  0  0  0  0
   16.1159   -6.5857   64.0512 N   0  0  0  0  0  0  0  0  0  0  0  0
  1  2  1  0  0  0  0
  2  3  1  0  0  0  0
  3  4  1  0  0  0  0
  4  5  1  0  0  0  0
  5  6  1  0  0  0  0
  6  7  1  0  0  0  0
  7  8  1  0  0  0  0
  8  9  1  0  0  0  0
  9 10  1  0  0  0  0
 10 11  1  0  0  0  0
 11 12  1  0  0  0  0
 12 13  1  0  0  0  0
 13 14  1  0  0  0  0
M  END
>  <CHROM.1>
-68.07142052,-68.52707742,153.45019195,-139.66201628,178.07228394,177.13856840
-62.53109829,-89.71000074,159.81222909,176.59126109,-62.40356294,19.18986432
-1.16162499,64.35739392,-1.15659972,-0.56641083,-2.80835178

>  <Name>
1xpf_lig

>  <RI>
0

>  <Rbt.Current_Directory>
/home/afrankz/demos/rdock_decoys_rna/rnas/1xpf

>  <Rbt.Executable>
rbdock ($Id: //depot/dev/client3/rdock/2013.1/src/exe/rbdock.cxx#4 $)

>  <Rbt.Library>
libRbt.so (2013.1, Build901 2013/11/27)

>  <Rbt.Parameter_File>
/export/apps/rDock/src/rDock_2013.1_src/data/scripts/dock_solv.prm

>  <Rbt.Receptor>
prm/pocket_docking_2.prm

>  <SCORE>
-4.32021

>  <SCORE.INTER>
2.67947

>  <SCORE.INTER.CONST>
1

>  <SCORE.INTER.POLAR>
0

>  <SCORE.INTER.ROT>
11

>  <SCORE.INTER.SOLV>
3.71766

>  <SCORE.INTER.VDW>
-10.3862

>  <SCORE.INTER.norm>
0.191391

>  <SCORE.INTRA>
-7.01979

>  <SCORE.INTRA.DIHEDRAL>
-14.8321

>  <SCORE.INTRA.DIHEDRAL.0>
17.7811

>  <SCORE.INTRA.POLAR>
0

>  <SCORE.INTRA.POLAR.0>
0

>  <SCORE.INTRA.REPUL>
0

>  <SCORE.INTRA.REPUL.0>
0

>  <SCORE.INTRA.SOLV>
2.26124

>  <SCORE.INTRA.SOLV.lig_0>
-47.9565

>  <SCORE.INTRA.VDW>
-0.734347

>  <SCORE.INTRA.VDW.0>
0.515983

>  <SCORE.INTRA.norm>
-0.501414

>  <SCORE.RESTR>
0.020111

>  <SCORE.RESTR.CAVITY>
0.020111

>  <SCORE.RESTR.norm>
0.0014365

>  <SCORE.SYSTEM>
0

>  <SCORE.SYSTEM.CONST>
0

>  <SCORE.SYSTEM.DIHEDRAL>
0

>  <SCORE.SYSTEM.SOLV>
0

>  <SCORE.SYSTEM.norm>
0

>  <SCORE.heavy>
14

>  <SCORE.norm>
-0.308587

>  <RMSD>
1.877

$$$$
1xpf_lig
 OpenBabel02141814123D
libRbt.so/2013.1/901 2013/11/27
 14 13  0  0  0  0  0  0  0  0999 V2000
   19.9623    4.9067   63.8484 N   0  0  0  0  0  0  0  0  0  0  0  0
   19.4948    3.6369   64.3730 C   0  0  0  0  0  0  0  0  0  0  0  0
   20.3031    3.2144   65.5409 C   0  0  0  0  0  0  0  0  0  0  0  0
   19.6395    1.9954   66.1022 C   0  0  0  0  0  0  0  0  0  0  0  0
   19.7368    0.9454   65.0588 N   0  0  0  0  0  0  0  0  0  0  0  0
   20.6696   -0.1399   65.4911 C   0  0  0  0  0  0  0  0  0  0  0  0
   20.9596   -1.1708   64.3864 C   0  0  0  0  0  0  0  0  0  0  0  0
   19.7107   -1.9177   63.8856 C   0  0  0  0  0  0  0  0  0  0  0  0
   20.1241   -2.9235   62.8218 C   0  0  0  0  0  0  0  0  0  0  0  0
   18.8660   -3.5455   62.3840 N   0  0  0  0  0  0  0  0  0  0  0  0
   18.4594   -4.8271   63.0257 C   0  0  0  0  0  0  0  0  0  0  0  0
   17.4374   -4.3045   64.0584 C   0  0  0  0  0  0  0  0  0  0  0  0
   16.7899   -5.2879   65.0001 C   0  0  0  0  0  0  0  0  0  0  0  0
   15.8668   -6.2167   64.3713 N   0  0  0  0  0  0  0  0  0  0  0  0
  1  2  1  0  0  0  0
  2  3  1  0  0  0  0
  3  4  1  0  0  0  0
  4  5  1  0  0  0  0
  5  6  1  0  0  0  0
  6  7  1  0  0  0  0
  7  8  1  0  0  0  0
  8  9  1  0  0  0  0
  9 10  1  0  0  0  0
 10 11  1  0  0  0  0
 11 12  1  0  0  0  0
 12 13  1  0  0  0  0
 13 14  1  0  0  0  0
M  END
>  <CHROM.1>
173.19458778,64.34979690,111.10582893,-172.58370005,-60.82020584,-178.86791471
-178.25426898,-94.94304351,99.32056407,-177.56124140,-68.84137544,19.14448996
-1.11683800,64.31071545,1.20161513,0.61756378,0.34762460

>  <Name>
1xpf_lig

>  <RI>
0

>  <Rbt.Current_Directory>
/home/afrankz/demos/rdock_decoys_rna/rnas/1xpf

>  <Rbt.Executable>
rbdock ($Id: //depot/dev/client3/rdock/2013.1/src/exe/rbdock.cxx#4 $)

>  <Rbt.Library>
libRbt.so (2013.1, Build901 2013/11/27)

>  <Rbt.Parameter_File>
/export/apps/rDock/src/rDock_2013.1_src/data/scripts/dock_solv.prm

>  <Rbt.Receptor>
prm/pocket_docking_2.prm

>  <SCORE>
-4.68851

>  <SCORE.INTER>
2.98235

>  <SCORE.INTER.CONST>
1

>  <SCORE.INTER.POLAR>
0

>  <SCORE.INTER.ROT>
11

>  <SCORE.INTER.SOLV>
5.6203

>  <SCORE.INTER.VDW>
-10.8185

>  <SCORE.INTER.norm>
0.213025

>  <SCORE.INTRA>
-7.73687

>  <SCORE.INTRA.DIHEDRAL>
-14.3883

>  <SCORE.INTRA.DIHEDRAL.0>
17.7811

>  <SCORE.INTRA.POLAR>
0

>  <SCORE.INTRA.POLAR.0>
0

>  <SCORE.INTRA.REPUL>
0

>  <SCORE.INTRA.REPUL.0>
0

>  <SCORE.INTRA.SOLV>
0.559029

>  <SCORE.INTRA.SOLV.lig_0>
-47.9565

>  <SCORE.INTRA.VDW>
-0.822216

>  <SCORE.INTRA.VDW.0>
0.515983

>  <SCORE.INTRA.norm>
-0.552634

>  <SCORE.RESTR>
0.0660127

>  <SCORE.RESTR.CAVITY>
0.0660127

>  <SCORE.RESTR.norm>
0.00471519

>  <SCORE.SYSTEM>
0

>  <SCORE.SYSTEM.CONST>
0

>  <SCORE.SYSTEM.DIHEDRAL>
0

>  <SCORE.SYSTEM.SOLV>
0

>  <SCORE.SYSTEM.norm>
0

>  <SCORE.heavy>
14

>  <SCORE.norm>
-0.334894

>  <RMSD>
1.879

$$$$
1xpf_lig
 OpenBabel02141814123D
libRbt.so/2013.1/901 2013/11/27
 14 13  0  0  0  0  0  0  0  0999 V2000
   21.9630    4.2286   60.7811 N   0  0  0  0  0  0  0  0  0  0  0  0
   21.5446    3.9489   62.1423 C   0  0  0  0  0  0  0  0  0  0  0  0
   20.5748    4.9627   62.6193 C   0  0  0  0  0  0  0  0  0  0  0  0
   20.3212    4.6656   64.0646 C   0  0  0  0  0  0  0  0  0  0  0  0
   19.4844    3.4412   64.1018 N   0  0  0  0  0  0  0  0  0  0  0  0
   20.2561    2.2946   64.6717 C   0  0  0  0  0  0  0  0  0  0  0  0
   19.3949    1.0449   64.9235 C   0  0  0  0  0  0  0  0  0  0  0  0
   20.1479   -0.1029   65.6192 C   0  0  0  0  0  0  0  0  0  0  0  0
   21.0065   -0.8293   64.5947 C   0  0  0  0  0  0  0  0  0  0  0  0
   20.0569   -1.6326   63.8109 N   0  0  0  0  0  0  0  0  0  0  0  0
   20.5828   -2.8179   63.0774 C   0  0  0  0  0  0  0  0  0  0  0  0
   19.3385   -3.2010   62.2473 C   0  0  0  0  0  0  0  0  0  0  0  0
   18.1009   -3.6700   62.9694 C   0  0  0  0  0  0  0  0  0  0  0  0
   18.2607   -4.9085   63.7115 N   0  0  0  0  0  0  0  0  0  0  0  0
  1  2  1  0  0  0  0
  2  3  1  0  0  0  0
  3  4  1  0  0  0  0
  4  5  1  0  0  0  0
  5  6  1  0  0  0  0
  6  7  1  0  0  0  0
  7  8  1  0  0  0  0
  8  9  1  0  0  0  0
  9 10  1  0  0  0  0
 10 11  1  0  0  0  0
 11 12  1  0  0  0  0
 12 13  1  0  0  0  0
 13 14  1  0  0  0  0
M  END
>  <CHROM.1>
-174.25703348,-73.01066722,111.77596811,171.92594398,-175.12119118,-78.54916804
-75.20580119,-157.86261467,-171.44015213,-65.07260051,-63.60884382,20.07385624
0.53040211,63.52407080,-0.89924183,-1.21973008,-2.56777931

>  <Name>
1xpf_lig

>  <RI>
0

>  <Rbt.Current_Directory>
/home/afrankz/demos/rdock_decoys_rna/rnas/1xpf

>  <Rbt.Executable>
rbdock ($Id: //depot/dev/client3/rdock/2013.1/src/exe/rbdock.cxx#4 $)

>  <Rbt.Library>
libRbt.so (2013.1, Build901 2013/11/27)

>  <Rbt.Parameter_File>
/export/apps/rDock/src/rDock_2013.1_src/data/scripts/dock_solv.prm

>  <Rbt.Receptor>
prm/pocket_docking_2.prm

>  <SCORE>
-1.80907

>  <SCORE.INTER>
4.84148

>  <SCORE.INTER.CONST>
1

>  <SCORE.INTER.POLAR>
0

>  <SCORE.INTER.ROT>
11

>  <SCORE.INTER.SOLV>
5.42161

>  <SCORE.INTER.VDW>
-9.51288

>  <SCORE.INTER.norm>
0.34582

>  <SCORE.INTRA>
-6.65346

>  <SCORE.INTRA.DIHEDRAL>
-13.0257

>  <SCORE.INTRA.DIHEDRAL.0>
17.7811

>  <SCORE.INTRA.POLAR>
0

>  <SCORE.INTRA.POLAR.0>
0

>  <SCORE.INTRA.REPUL>
0

>  <SCORE.INTRA.REPUL.0>
0

>  <SCORE.INTRA.SOLV>
1.69604

>  <SCORE.INTRA.SOLV.lig_0>
-47.9565

>  <SCORE.INTRA.VDW>
-0.988644

>  <SCORE.INTRA.VDW.0>
0.515983

>  <SCORE.INTRA.norm>
-0.475247

>  <SCORE.RESTR>
0.0029121

>  <SCORE.RESTR.CAVITY>
0.0029121

>  <SCORE.RESTR.norm>
0.000208007

>  <SCORE.SYSTEM>
0

>  <SCORE.SYSTEM.CONST>
0

>  <SCORE.SYSTEM.DIHEDRAL>
0

>  <SCORE.SYSTEM.SOLV>
0

>  <SCORE.SYSTEM.norm>
0

>  <SCORE.heavy>
14

>  <SCORE.norm>
-0.129219

>  <RMSD>
1.890

$$$$
1xpf_lig
 OpenBabel02141814123D
libRbt.so/2013.1/901 2013/11/27
 14 13  0  0  0  0  0  0  0  0999 V2000
   15.9881   -6.2945   65.5693 N   0  0  0  0  0  0  0  0  0  0  0  0
   17.3011   -5.9643   65.0465 C   0  0  0  0  0  0  0  0  0  0  0  0
   17.2211   -4.8483   64.0749 C   0  0  0  0  0  0  0  0  0  0  0  0
   18.6052   -4.6450   63.5418 C   0  0  0  0  0  0  0  0  0  0  0  0
   18.5561   -3.4260   62.6978 N   0  0  0  0  0  0  0  0  0  0  0  0
   19.8881   -2.7476   62.6765 C   0  0  0  0  0  0  0  0  0  0  0  0
   20.2291   -2.0319   63.9950 C   0  0  0  0  0  0  0  0  0  0  0  0
   21.6053   -1.3430   63.9940 C   0  0  0  0  0  0  0  0  0  0  0  0
   21.5603   -0.1400   63.0640 C   0  0  0  0  0  0  0  0  0  0  0  0
   20.8746    0.9063   63.8365 N   0  0  0  0  0  0  0  0  0  0  0  0
   19.4842    1.2682   63.4426 C   0  0  0  0  0  0  0  0  0  0  0  0
   19.2825    2.5437   64.2892 C   0  0  0  0  0  0  0  0  0  0  0  0
   19.9787    3.8125   63.8667 C   0  0  0  0  0  0  0  0  0  0  0  0
   21.4297    3.7444   63.8781 N   0  0  0  0  0  0  0  0  0  0  0  0
  1  2  1  0  0  0  0
  2  3  1  0  0  0  0
  3  4  1  0  0  0  0
  4  5  1  0  0  0  0
  5  6  1  0  0  0  0
  6  7  1  0  0  0  0
  7  8  1  0  0  0  0
  8  9  1  0  0  0  0
  9 10  1  0  0  0  0
 10 11  1  0  0  0  0
 11 12  1  0  0  0  0
 12 13  1  0  0  0  0
 13 14  1  0  0  0  0
M  END
>  <CHROM.1>
-176.73802085,-173.27212671,151.74177816,-72.95056404,179.29997113,69.97474785
78.47007396,-107.84009001,-169.14451834,73.99129588,-62.54900371,19.42895225
-1.36900772,63.85517085,1.99136746,-0.41207444,-3.04446750

>  <Name>
1xpf_lig

>  <RI>
0

>  <Rbt.Current_Directory>
/home/afrankz/demos/rdock_decoys_rna/rnas/1xpf

>  <Rbt.Executable>
rbdock ($Id: //depot/dev/client3/rdock/2013.1/src/exe/rbdock.cxx#4 $)

>  <Rbt.Library>
libRbt.so (2013.1, Build901 2013/11/27)

>  <Rbt.Parameter_File>
/export/apps/rDock/src/rDock_2013.1_src/data/scripts/dock_solv.prm

>  <Rbt.Receptor>
prm/pocket_docking_2.prm

>  <SCORE>
-1.73994

>  <SCORE.INTER>
4.66321

>  <SCORE.INTER.CONST>
1

>  <SCORE.INTER.POLAR>
0

>  <SCORE.INTER.ROT>
11

>  <SCORE.INTER.SOLV>
2.23124

>  <SCORE.INTER.VDW>
-8.56827

>  <SCORE.INTER.norm>
0.333086

>  <SCORE.INTRA>
-6.40849

>  <SCORE.INTRA.DIHEDRAL>
-13.381

>  <SCORE.INTRA.DIHEDRAL.0>
17.7811

>  <SCORE.INTRA.POLAR>
0

>  <SCORE.INTRA.POLAR.0>
0

>  <SCORE.INTRA.REPUL>
0

>  <SCORE.INTRA.REPUL.0>
0

>  <SCORE.INTRA.SOLV>
2.53007

>  <SCORE.INTRA.SOLV.lig_0>
-47.9565

>  <SCORE.INTRA.VDW>
-0.983038

>  <SCORE.INTRA.VDW.0>
0.515983

>  <SCORE.INTRA.norm>
-0.457749

>  <SCORE.RESTR>
0.00533946

>  <SCORE.RESTR.CAVITY>
0.00533946

>  <SCORE.RESTR.norm>
0.00038139

>  <SCORE.SYSTEM>
0

>  <SCORE.SYSTEM.CONST>
0

>  <SCORE.SYSTEM.DIHEDRAL>
0

>  <SCORE.SYSTEM.SOLV>
0

>  <SCORE.SYSTEM.norm>
0

>  <SCORE.heavy>
14

>  <SCORE.norm>
-0.124282

>  <RMSD>
1.891

$$$$
1xpf_lig
 OpenBabel02141814123D
libRbt.so/2013.1/901 2013/11/27
 14 13  0  0  0  0  0  0  0  0999 V2000
   22.5128    4.5556   61.5177 N   0  0  0  0  0  0  0  0  0  0  0  0
   21.1938    5.1065   61.7685 C   0  0  0  0  0  0  0  0  0  0  0  0
   20.2699    4.0644   62.2746 C   0  0  0  0  0  0  0  0  0  0  0  0
   20.7207    3.7302   63.6625 C   0  0  0  0  0  0  0  0  0  0  0  0
   19.8664    2.6086   64.1238 N   0  0  0  0  0  0  0  0  0  0  0  0
   19.9773    2.4383   65.6049 C   0  0  0  0  0  0  0  0  0  0  0  0
   19.4210    1.0949   66.1077 C   0  0  0  0  0  0  0  0  0  0  0  0
   20.2728   -0.1229   65.7081 C   0  0  0  0  0  0  0  0  0  0  0  0
   19.9416   -0.5150   64.2760 C   0  0  0  0  0  0  0  0  0  0  0  0
   20.5622   -1.8355   64.0952 N   0  0  0  0  0  0  0  0  0  0  0  0
   20.4936   -2.4610   62.7448 C   0  0  0  0  0  0  0  0  0  0  0  0
   19.5580   -3.6529   63.0419 C   0  0  0  0  0  0  0  0  0  0  0  0
   18.1103   -3.3772   63.3600 C   0  0  0  0  0  0  0  0  0  0  0  0
   17.3130   -4.5578   63.6439 N   0  0  0  0  0  0  0  0  0  0  0  0
  1  2  1  0  0  0  0
  2  3  1  0  0  0  0
  3  4  1  0  0  0  0
  4  5  1  0  0  0  0
  5  6  1  0  0  0  0
  6  7  1  0  0  0  0
  7  8  1  0  0  0  0
  8  9  1  0  0  0  0
  9 10  1  0  0  0  0
 10 11  1  0  0  0  0
 11 12  1  0  0  0  0
 12 13  1  0  0  0  0
 13 14  1  0  0  0  0
M  END
>  <CHROM.1>
70.34977668,-175.37596742,-164.85214627,-165.13143305,69.99862379,-80.87455354
-167.74528327,-175.94501388,-112.35466640,68.99088157,-179.16691456,20.01522602
0.50557534,63.70940279,-0.68856310,-1.20451189,-2.40831102

>  <Name>
1xpf_lig

>  <RI>
0

>  <Rbt.Current_Directory>
/home/afrankz/demos/rdock_decoys_rna/rnas/1xpf

>  <Rbt.Executable>
rbdock ($Id: //depot/dev/client3/rdock/2013.1/src/exe/rbdock.cxx#4 $)

>  <Rbt.Library>
libRbt.so (2013.1, Build901 2013/11/27)

>  <Rbt.Parameter_File>
/export/apps/rDock/src/rDock_2013.1_src/data/scripts/dock_solv.prm

>  <Rbt.Receptor>
prm/pocket_docking_2.prm

>  <SCORE>
-3.35425

>  <SCORE.INTER>
3.89347

>  <SCORE.INTER.CONST>
1

>  <SCORE.INTER.POLAR>
0

>  <SCORE.INTER.ROT>
11

>  <SCORE.INTER.SOLV>
2.96577

>  <SCORE.INTER.VDW>
-9.32627

>  <SCORE.INTER.norm>
0.278105

>  <SCORE.INTRA>
-7.27827

>  <SCORE.INTRA.DIHEDRAL>
-12.9129

>  <SCORE.INTRA.DIHEDRAL.0>
17.7811

>  <SCORE.INTRA.POLAR>
0

>  <SCORE.INTRA.POLAR.0>
0

>  <SCORE.INTRA.REPUL>
0

>  <SCORE.INTRA.REPUL.0>
0

>  <SCORE.INTRA.SOLV>
1.2301

>  <SCORE.INTRA.SOLV.lig_0>
-47.9565

>  <SCORE.INTRA.VDW>
-1.43689

>  <SCORE.INTRA.VDW.0>
0.515983

>  <SCORE.INTRA.norm>
-0.519876

>  <SCORE.RESTR>
0.0305447

>  <SCORE.RESTR.CAVITY>
0.0305447

>  <SCORE.RESTR.norm>
0.00218176

>  <SCORE.SYSTEM>
0

>  <SCORE.SYSTEM.CONST>
0

>  <SCORE.SYSTEM.DIHEDRAL>
0

>  <SCORE.SYSTEM.SOLV>
0

>  <SCORE.SYSTEM.norm>
0

>  <SCORE.heavy>
14

>  <SCORE.norm>
-0.239589

>  <RMSD>
1.892

$$$$
1xpf_lig
 OpenBabel02141814123D
libRbt.so/2013.1/901 2013/11/27
 14 13  0  0  0  0  0  0  0  0999 V2000
   16.5409   -5.4833   63.0201 N   0  0  0  0  0  0  0  0  0  0  0  0
   17.7290   -5.0153   63.7097 C   0  0  0  0  0  0  0  0  0  0  0  0
   18.8523   -4.8229   62.7625 C   0  0  0  0  0  0  0  0  0  0  0  0
   20.0190   -4.3501   63.5727 C   0  0  0  0  0  0  0  0  0  0  0  0
   19.6463   -3.0184   64.1097 N   0  0  0  0  0  0  0  0  0  0  0  0
   20.8634   -2.1741   64.3119 C   0  0  0  0  0  0  0  0  0  0  0  0
   20.6455   -1.0175   65.3028 C   0  0  0  0  0  0  0  0  0  0  0  0
   19.3526   -0.2197   65.0573 C   0  0  0  0  0  0  0  0  0  0  0  0
   19.2210    0.8574   66.1235 C   0  0  0  0  0  0  0  0  0  0  0  0
   20.0877    1.9512   65.6611 N   0  0  0  0  0  0  0  0  0  0  0  0
   20.2665    3.1278   66.5573 C   0  0  0  0  0  0  0  0  0  0  0  0
   20.9878    4.0975   65.5961 C   0  0  0  0  0  0  0  0  0  0  0  0
   20.2353    4.6301   64.4032 C   0  0  0  0  0  0  0  0  0  0  0  0
   20.9934    5.5379   63.5599 N   0  0  0  0  0  0  0  0  0  0  0  0
  1  2  1  0  0  0  0
  2  3  1  0  0  0  0
  3  4  1  0  0  0  0
  4  5  1  0  0  0  0
  5  6  1  0  0  0  0
  6  7  1  0  0  0  0
  7  8  1  0  0  0  0
  8  9  1  0  0  0  0
  9 10  1  0  0  0  0
 10 11  1  0  0  0  0
 11 12  1  0  0  0  0
 12 13  1  0  0  0  0
 13 14  1  0  0  0  0
M  END
>  <CHROM.1>
-179.71032018,-65.13775998,-151.15006597,-159.33937562,-46.86483569,177.91961670
80.98414513,-175.00780597,-169.69327497,66.61735161,179.79526694,19.67448412
-0.42145736,64.55361412,2.03542026,1.03416717,2.92277764

>  <Name>
1xpf_lig

>  <RI>
0

>  <Rbt.Current_Directory>
/home/afrankz/demos/rdock_decoys_rna/rnas/1xpf

>  <Rbt.Executable>
rbdock ($Id: //depot/dev/client3/rdock/2013.1/src/exe/rbdock.cxx#4 $)

>  <Rbt.Library>
libRbt.so (2013.1, Build901 2013/11/27)

>  <Rbt.Parameter_File>
/export/apps/rDock/src/rDock_2013.1_src/data/scripts/dock_solv.prm

>  <Rbt.Receptor>
prm/pocket_docking_3.prm

>  <SCORE>
-8.41993

>  <SCORE.INTER>
-0.584522

>  <SCORE.INTER.CONST>
1

>  <SCORE.INTER.POLAR>
0

>  <SCORE.INTER.ROT>
11

>  <SCORE.INTER.SOLV>
5.73186

>  <SCORE.INTER.VDW>
-13.2336

>  <SCORE.INTER.norm>
-0.0417515

>  <SCORE.INTRA>
-7.83541

>  <SCORE.INTRA.DIHEDRAL>
-14.3791

>  <SCORE.INTRA.DIHEDRAL.0>
17.7811

>  <SCORE.INTRA.POLAR>
0

>  <SCORE.INTRA.POLAR.0>
0

>  <SCORE.INTRA.REPUL>
0

>  <SCORE.INTRA.REPUL.0>
0

>  <SCORE.INTRA.SOLV>
0.900547

>  <SCORE.INTRA.SOLV.lig_0>
-47.9565

>  <SCORE.INTRA.VDW>
-1.09613

>  <SCORE.INTRA.VDW.0>
0.515983

>  <SCORE.INTRA.norm>
-0.559672

>  <SCORE.RESTR>
0

>  <SCORE.RESTR.CAVITY>
0

>  <SCORE.RESTR.norm>
0

>  <SCORE.SYSTEM>
0

>  <SCORE.SYSTEM.CONST>
0

>  <SCORE.SYSTEM.DIHEDRAL>
0

>  <SCORE.SYSTEM.SOLV>
0

>  <SCORE.SYSTEM.norm>
0

>  <SCORE.heavy>
14

>  <SCORE.norm>
-0.601424

>  <RMSD>
1.918

$$$$
1xpf_lig
 OpenBabel02141814123D
libRbt.so/2013.1/901 2013/11/27
 14 13  0  0  0  0  0  0  0  0999 V2000
   19.8121    4.4646   64.0396 N   0  0  0  0  0  0  0  0  0  0  0  0
   19.4729    3.0540   64.0016 C   0  0  0  0  0  0  0  0  0  0  0  0
   20.3487    2.2721   64.9058 C   0  0  0  0  0  0  0  0  0  0  0  0
   19.9271    0.8413   64.7781 C   0  0  0  0  0  0  0  0  0  0  0  0
   20.3116    0.4097   63.4119 N   0  0  0  0  0  0  0  0  0  0  0  0
   21.7240   -0.0800   63.3936 C   0  0  0  0  0  0  0  0  0  0  0  0
   21.8471   -1.5740   63.0475 C   0  0  0  0  0  0  0  0  0  0  0  0
   21.0872   -2.5031   64.0108 C   0  0  0  0  0  0  0  0  0  0  0  0
   19.6189   -2.5393   63.6145 C   0  0  0  0  0  0  0  0  0  0  0  0
   19.5464   -3.5318   62.5323 N   0  0  0  0  0  0  0  0  0  0  0  0
   18.2252   -3.7640   61.8842 C   0  0  0  0  0  0  0  0  0  0  0  0
   17.8100   -5.0822   62.5727 C   0  0  0  0  0  0  0  0  0  0  0  0
   17.4834   -5.0605   64.0444 C   0  0  0  0  0  0  0  0  0  0  0  0
   16.9926   -6.3191   64.5784 N   0  0  0  0  0  0  0  0  0  0  0  0
  1  2  1  0  0  0  0
  2  3  1  0  0  0  0
  3  4  1  0  0  0  0
  4  5  1  0  0  0  0
  5  6  1  0  0  0  0
  6  7  1  0  0  0  0
  7  8  1  0  0  0  0
  8  9  1  0  0  0  0
  9 10  1  0  0  0  0
 10 11  1  0  0  0  0
 11 12  1  0  0  0  0
 12 13  1  0  0  0  0
 13 14  1  0  0  0  0
M  END
>  <CHROM.1>
-179.35223002,68.52961022,86.70948920,115.57749663,-58.58734490,81.43362962
82.91842060,-177.73006057,-101.82375994,68.20798588,174.91640044,19.58640489
-1.38664757,63.62966108,1.27488695,0.25448827,0.17914978

>  <Name>
1xpf_lig

>  <RI>
0

>  <Rbt.Current_Directory>
/home/afrankz/demos/rdock_decoys_rna/rnas/1xpf

>  <Rbt.Executable>
rbdock ($Id: //depot/dev/client3/rdock/2013.1/src/exe/rbdock.cxx#4 $)

>  <Rbt.Library>
libRbt.so (2013.1, Build901 2013/11/27)

>  <Rbt.Parameter_File>
/export/apps/rDock/src/rDock_2013.1_src/data/scripts/dock_solv.prm

>  <Rbt.Receptor>
prm/pocket_docking_2.prm

>  <SCORE>
-0.406831

>  <SCORE.INTER>
4.92033

>  <SCORE.INTER.CONST>
1

>  <SCORE.INTER.POLAR>
0

>  <SCORE.INTER.ROT>
11

>  <SCORE.INTER.SOLV>
6.15113

>  <SCORE.INTER.VDW>
-9.70349

>  <SCORE.INTER.norm>
0.351452

>  <SCORE.INTRA>
-5.32716

>  <SCORE.INTRA.DIHEDRAL>
-11.0266

>  <SCORE.INTRA.DIHEDRAL.0>
17.7811

>  <SCORE.INTRA.POLAR>
0

>  <SCORE.INTRA.POLAR.0>
0

>  <SCORE.INTRA.REPUL>
0

>  <SCORE.INTRA.REPUL.0>
0

>  <SCORE.INTRA.SOLV>
1.5113

>  <SCORE.INTRA.SOLV.lig_0>
-47.9565

>  <SCORE.INTRA.VDW>
-0.569526

>  <SCORE.INTRA.VDW.0>
0.515983

>  <SCORE.INTRA.norm>
-0.380511

>  <SCORE.RESTR>
0

>  <SCORE.RESTR.CAVITY>
0

>  <SCORE.RESTR.norm>
0

>  <SCORE.SYSTEM>
0

>  <SCORE.SYSTEM.CONST>
0

>  <SCORE.SYSTEM.DIHEDRAL>
0

>  <SCORE.SYSTEM.SOLV>
0

>  <SCORE.SYSTEM.norm>
0

>  <SCORE.heavy>
14

>  <SCORE.norm>
-0.0290594

>  <RMSD>
1.937

$$$$
1xpf_lig
 OpenBabel02141814123D
libRbt.so/2013.1/901 2013/11/27
 14 13  0  0  0  0  0  0  0  0999 V2000
   21.9976    3.5978   60.8758 N   0  0  0  0  0  0  0  0  0  0  0  0
   21.6433    3.7791   62.2714 C   0  0  0  0  0  0  0  0  0  0  0  0
   20.1722    3.8010   62.4478 C   0  0  0  0  0  0  0  0  0  0  0  0
   19.9189    3.8790   63.9213 C   0  0  0  0  0  0  0  0  0  0  0  0
   20.2920    2.5575   64.4827 N   0  0  0  0  0  0  0  0  0  0  0  0
   19.8940    2.4664   65.9209 C   0  0  0  0  0  0  0  0  0  0  0  0
   20.0386    1.0506   66.5052 C   0  0  0  0  0  0  0  0  0  0  0  0
   19.2876   -0.0328   65.7110 C   0  0  0  0  0  0  0  0  0  0  0  0
   20.1597   -0.4982   64.5547 C   0  0  0  0  0  0  0  0  0  0  0  0
   19.5240   -1.7357   64.0793 N   0  0  0  0  0  0  0  0  0  0  0  0
   19.9788   -2.2997   62.7775 C   0  0  0  0  0  0  0  0  0  0  0  0
   19.5942   -3.7824   62.9718 C   0  0  0  0  0  0  0  0  0  0  0  0
   18.1389   -4.1698   62.9008 C   0  0  0  0  0  0  0  0  0  0  0  0
   17.3249   -3.6859   64.0024 N   0  0  0  0  0  0  0  0  0  0  0  0
  1  2  1  0  0  0  0
  2  3  1  0  0  0  0
  3  4  1  0  0  0  0
  4  5  1  0  0  0  0
  5  6  1  0  0  0  0
  6  7  1  0  0  0  0
  7  8  1  0  0  0  0
  8  9  1  0  0  0  0
  9 10  1  0  0  0  0
 10 11  1  0  0  0  0
 11 12  1  0  0  0  0
 12 13  1  0  0  0  0
 13 14  1  0  0  0  0
M  END
>  <CHROM.1>
175.49979678,-71.01840667,-171.98134624,170.55186008,-54.71807735,84.26003724
166.10006713,167.99705048,155.68870348,73.72803062,-68.86972939,19.85465617
0.35200263,63.81609295,-0.66605770,-1.18880887,-2.33460540

>  <Name>
1xpf_lig

>  <RI>
0

>  <Rbt.Current_Directory>
/home/afrankz/demos/rdock_decoys_rna/rnas/1xpf

>  <Rbt.Executable>
rbdock ($Id: //depot/dev/client3/rdock/2013.1/src/exe/rbdock.cxx#4 $)

>  <Rbt.Library>
libRbt.so (2013.1, Build901 2013/11/27)

>  <Rbt.Parameter_File>
/export/apps/rDock/src/rDock_2013.1_src/data/scripts/dock_solv.prm

>  <Rbt.Receptor>
prm/pocket_docking_2.prm

>  <SCORE>
-2.94479

>  <SCORE.INTER>
3.27717

>  <SCORE.INTER.CONST>
1

>  <SCORE.INTER.POLAR>
0

>  <SCORE.INTER.ROT>
11

>  <SCORE.INTER.SOLV>
2.75388

>  <SCORE.INTER.VDW>
-9.66651

>  <SCORE.INTER.norm>
0.234084

>  <SCORE.INTRA>
-6.24088

>  <SCORE.INTRA.DIHEDRAL>
-12.6621

>  <SCORE.INTRA.DIHEDRAL.0>
17.7811

>  <SCORE.INTRA.POLAR>
0

>  <SCORE.INTRA.POLAR.0>
0

>  <SCORE.INTRA.REPUL>
0

>  <SCORE.INTRA.REPUL.0>
0

>  <SCORE.INTRA.SOLV>
3.3038

>  <SCORE.INTRA.SOLV.lig_0>
-47.9565

>  <SCORE.INTRA.VDW>
-1.56176

>  <SCORE.INTRA.VDW.0>
0.515983

>  <SCORE.INTRA.norm>
-0.445777

>  <SCORE.RESTR>
0.0189158

>  <SCORE.RESTR.CAVITY>
0.0189158

>  <SCORE.RESTR.norm>
0.00135113

>  <SCORE.SYSTEM>
0

>  <SCORE.SYSTEM.CONST>
0

>  <SCORE.SYSTEM.DIHEDRAL>
0

>  <SCORE.SYSTEM.SOLV>
0

>  <SCORE.SYSTEM.norm>
0

>  <SCORE.heavy>
14

>  <SCORE.norm>
-0.210342

>  <RMSD>
1.948

$$$$
1xpf_lig
 OpenBabel02141814123D
libRbt.so/2013.1/901 2013/11/27
 14 13  0  0  0  0  0  0  0  0999 V2000
   16.2612   -5.3633   65.2086 N   0  0  0  0  0  0  0  0  0  0  0  0
   17.5781   -5.1520   64.6365 C   0  0  0  0  0  0  0  0  0  0  0  0
   17.4980   -4.9812   63.1667 C   0  0  0  0  0  0  0  0  0  0  0  0
   18.9054   -4.8470   62.6741 C   0  0  0  0  0  0  0  0  0  0  0  0
   19.3710   -3.5019   63.0921 N   0  0  0  0  0  0  0  0  0  0  0  0
   20.0720   -2.8148   61.9645 C   0  0  0  0  0  0  0  0  0  0  0  0
   21.0488   -1.7210   62.4297 C   0  0  0  0  0  0  0  0  0  0  0  0
   20.3748   -0.5612   63.1840 C   0  0  0  0  0  0  0  0  0  0  0  0
   20.0437   -1.0118   64.5988 C   0  0  0  0  0  0  0  0  0  0  0  0
   19.2424    0.0837   65.1639 N   0  0  0  0  0  0  0  0  0  0  0  0
   19.9538    1.1523   65.9197 C   0  0  0  0  0  0  0  0  0  0  0  0
   20.0126    2.2572   64.8427 C   0  0  0  0  0  0  0  0  0  0  0  0
   20.7829    3.5189   65.1390 C   0  0  0  0  0  0  0  0  0  0  0  0
   20.7691    4.5060   64.0733 N   0  0  0  0  0  0  0  0  0  0  0  0
  1  2  1  0  0  0  0
  2  3  1  0  0  0  0
  3  4  1  0  0  0  0
  4  5  1  0  0  0  0
  5  6  1  0  0  0  0
  6  7  1  0  0  0  0
  7  8  1  0  0  0  0
  8  9  1  0  0  0  0
  9 10  1  0  0  0  0
 10 11  1  0  0  0  0
 11 12  1  0  0  0  0
 12 13  1  0  0  0  0
 13 14  1  0  0  0  0
M  END
>  <CHROM.1>
-176.96011838,-72.72458874,-134.61364797,-156.75792651,-62.33292359,76.56260811
-172.18311592,-92.39087670,100.67513165,-174.38376268,-179.33066109,19.42264073
-1.31695653,64.00653600,2.06239222,-0.84194966,-2.62352483

>  <Name>
1xpf_lig

>  <RI>
0

>  <Rbt.Current_Directory>
/home/afrankz/demos/rdock_decoys_rna/rnas/1xpf

>  <Rbt.Executable>
rbdock ($Id: //depot/dev/client3/rdock/2013.1/src/exe/rbdock.cxx#4 $)

>  <Rbt.Library>
libRbt.so (2013.1, Build901 2013/11/27)

>  <Rbt.Parameter_File>
/export/apps/rDock/src/rDock_2013.1_src/data/scripts/dock_solv.prm

>  <Rbt.Receptor>
prm/pocket_docking_2.prm

>  <SCORE>
-3.03566

>  <SCORE.INTER>
3.8234

>  <SCORE.INTER.CONST>
1

>  <SCORE.INTER.POLAR>
0

>  <SCORE.INTER.ROT>
11

>  <SCORE.INTER.SOLV>
3.26445

>  <SCORE.INTER.VDW>
-9.47255

>  <SCORE.INTER.norm>
0.2731

>  <SCORE.INTRA>
-6.86733

>  <SCORE.INTRA.DIHEDRAL>
-12.689

>  <SCORE.INTRA.DIHEDRAL.0>
17.7811

>  <SCORE.INTRA.POLAR>
0

>  <SCORE.INTRA.POLAR.0>
0

>  <SCORE.INTRA.REPUL>
0

>  <SCORE.INTRA.REPUL.0>
0

>  <SCORE.INTRA.SOLV>
0.668227

>  <SCORE.INTRA.SOLV.lig_0>
-47.9565

>  <SCORE.INTRA.VDW>
-0.856963

>  <SCORE.INTRA.VDW.0>
0.515983

>  <SCORE.INTRA.norm>
-0.490523

>  <SCORE.RESTR>
0.00826071

>  <SCORE.RESTR.CAVITY>
0.00826071

>  <SCORE.RESTR.norm>
0.000590051

>  <SCORE.SYSTEM>
0

>  <SCORE.SYSTEM.CONST>
0

>  <SCORE.SYSTEM.DIHEDRAL>
0

>  <SCORE.SYSTEM.SOLV>
0

>  <SCORE.SYSTEM.norm>
0

>  <SCORE.heavy>
14

>  <SCORE.norm>
-0.216833

>  <RMSD>
1.965

$$$$
1xpf_lig
 OpenBabel02141814123D
libRbt.so/2013.1/901 2013/11/27
 14 13  0  0  0  0  0  0  0  0999 V2000
   17.4009   -4.2989   62.6854 N   0  0  0  0  0  0  0  0  0  0  0  0
   18.3611   -3.5426   63.4678 C   0  0  0  0  0  0  0  0  0  0  0  0
   19.6146   -3.3275   62.7073 C   0  0  0  0  0  0  0  0  0  0  0  0
   20.5405   -2.5758   63.6123 C   0  0  0  0  0  0  0  0  0  0  0  0
   19.9877   -1.2047   63.7351 N   0  0  0  0  0  0  0  0  0  0  0  0
   20.9016   -0.3400   64.5425 C   0  0  0  0  0  0  0  0  0  0  0  0
   20.4027   -0.0980   65.9775 C   0  0  0  0  0  0  0  0  0  0  0  0
   19.2678    0.9366   66.0782 C   0  0  0  0  0  0  0  0  0  0  0  0
   19.8617    2.3358   66.0192 C   0  0  0  0  0  0  0  0  0  0  0  0
   20.2399    2.5242   64.6110 N   0  0  0  0  0  0  0  0  0  0  0  0
   20.0035    3.8606   63.9965 C   0  0  0  0  0  0  0  0  0  0  0  0
   21.0052    3.8039   62.8228 C   0  0  0  0  0  0  0  0  0  0  0  0
   21.1471    5.0112   61.9310 C   0  0  0  0  0  0  0  0  0  0  0  0
   22.0537    4.8373   60.8094 N   0  0  0  0  0  0  0  0  0  0  0  0
  1  2  1  0  0  0  0
  2  3  1  0  0  0  0
  3  4  1  0  0  0  0
  4  5  1  0  0  0  0
  5  6  1  0  0  0  0
  6  7  1  0  0  0  0
  7  8  1  0  0  0  0
  8  9  1  0  0  0  0
  9 10  1  0  0  0  0
 10 11  1  0  0  0  0
 11 12  1  0  0  0  0
 12 13  1  0  0  0  0
 13 14  1  0  0  0  0
M  END
>  <CHROM.1>
-178.53964269,-70.63817581,-175.76535294,-103.74010364,-77.07961033,-79.91304343
74.12030693,140.55258963,158.19279585,-177.63010862,-176.56258478,20.05633485
0.56591133,63.78576754,-2.71470654,1.27426893,1.04687994

>  <Name>
1xpf_lig

>  <RI>
0

>  <Rbt.Current_Directory>
/home/afrankz/demos/rdock_decoys_rna/rnas/1xpf

>  <Rbt.Executable>
rbdock ($Id: //depot/dev/client3/rdock/2013.1/src/exe/rbdock.cxx#4 $)

>  <Rbt.Library>
libRbt.so (2013.1, Build901 2013/11/27)

>  <Rbt.Parameter_File>
/export/apps/rDock/src/rDock_2013.1_src/data/scripts/dock_solv.prm

>  <Rbt.Receptor>
prm/pocket_docking_2.prm

>  <SCORE>
-3.07824

>  <SCORE.INTER>
3.37378

>  <SCORE.INTER.CONST>
1

>  <SCORE.INTER.POLAR>
0

>  <SCORE.INTER.ROT>
11

>  <SCORE.INTER.SOLV>
4.13803

>  <SCORE.INTER.VDW>
-10.0635

>  <SCORE.INTER.norm>
0.240984

>  <SCORE.INTRA>
-6.46199

>  <SCORE.INTRA.DIHEDRAL>
-11.7741

>  <SCORE.INTRA.DIHEDRAL.0>
17.7811

>  <SCORE.INTRA.POLAR>
0

>  <SCORE.INTRA.POLAR.0>
0

>  <SCORE.INTRA.REPUL>
0

>  <SCORE.INTRA.REPUL.0>
0

>  <SCORE.INTRA.SOLV>
1.20178

>  <SCORE.INTRA.SOLV.lig_0>
-47.9565

>  <SCORE.INTRA.VDW>
-1.17584

>  <SCORE.INTRA.VDW.0>
0.515983

>  <SCORE.INTRA.norm>
-0.461571

>  <SCORE.RESTR>
0.00997313

>  <SCORE.RESTR.CAVITY>
0.00997313

>  <SCORE.RESTR.norm>
0.000712367

>  <SCORE.SYSTEM>
0

>  <SCORE.SYSTEM.CONST>
0

>  <SCORE.SYSTEM.DIHEDRAL>
0

>  <SCORE.SYSTEM.SOLV>
0

>  <SCORE.SYSTEM.norm>
0

>  <SCORE.heavy>
14

>  <SCORE.norm>
-0.219874

>  <RMSD>
1.994

$$$$
1xpf_lig
 OpenBabel02141814123D
libRbt.so/2013.1/901 2013/11/27
 14 13  0  0  0  0  0  0  0  0999 V2000
   16.2089   -5.4864   63.7180 N   0  0  0  0  0  0  0  0  0  0  0  0
   17.0614   -5.9776   62.6512 C   0  0  0  0  0  0  0  0  0  0  0  0
   17.9873   -4.9203   62.1813 C   0  0  0  0  0  0  0  0  0  0  0  0
   18.9619   -4.6802   63.2920 C   0  0  0  0  0  0  0  0  0  0  0  0
   19.7045   -3.4450   62.9405 N   0  0  0  0  0  0  0  0  0  0  0  0
   20.7813   -3.1763   63.9421 C   0  0  0  0  0  0  0  0  0  0  0  0
   20.9074   -1.6899   64.3183 C   0  0  0  0  0  0  0  0  0  0  0  0
   20.9638   -0.7417   63.1074 C   0  0  0  0  0  0  0  0  0  0  0  0
   20.9894    0.6969   63.6011 C   0  0  0  0  0  0  0  0  0  0  0  0
   20.9858    1.5136   62.3786 N   0  0  0  0  0  0  0  0  0  0  0  0
   21.0805    2.9931   62.5260 C   0  0  0  0  0  0  0  0  0  0  0  0
   21.1599    3.4120   61.0419 C   0  0  0  0  0  0  0  0  0  0  0  0
   22.3627    2.9958   60.2339 C   0  0  0  0  0  0  0  0  0  0  0  0
   22.3928    3.5108   58.8760 N   0  0  0  0  0  0  0  0  0  0  0  0
  1  2  1  0  0  0  0
  2  3  1  0  0  0  0
  3  4  1  0  0  0  0
  4  5  1  0  0  0  0
  5  6  1  0  0  0  0
  6  7  1  0  0  0  0
  7  8  1  0  0  0  0
  8  9  1  0  0  0  0
  9 10  1  0  0  0  0
 10 11  1  0  0  0  0
 11 12  1  0  0  0  0
 12 13  1  0  0  0  0
 13 14  1  0  0  0  0
M  END
>  <CHROM.1>
69.05491450,-168.62948670,-175.62457390,-138.95890776,-48.95775283,176.07929642
-177.70809971,-176.82999783,175.56043190,-65.19755383,-176.03613332,20.11065775
-1.07113154,62.48651096,2.36406186,0.94225120,2.18232238

>  <Name>
1xpf_lig

>  <RI>
0

>  <Rbt.Current_Directory>
/home/afrankz/demos/rdock_decoys_rna/rnas/1xpf

>  <Rbt.Executable>
rbdock ($Id: //depot/dev/client3/rdock/2013.1/src/exe/rbdock.cxx#4 $)

>  <Rbt.Library>
libRbt.so (2013.1, Build901 2013/11/27)

>  <Rbt.Parameter_File>
/export/apps/rDock/src/rDock_2013.1_src/data/scripts/dock_solv.prm

>  <Rbt.Receptor>
prm/pocket_docking_3.prm

>  <SCORE>
-7.61198

>  <SCORE.INTER>
0.948226

>  <SCORE.INTER.CONST>
1

>  <SCORE.INTER.POLAR>
-0.946973

>  <SCORE.INTER.ROT>
11

>  <SCORE.INTER.SOLV>
6.83184

>  <SCORE.INTER.VDW>
-9.42189

>  <SCORE.INTER.norm>
0.0677304

>  <SCORE.INTRA>
-8.58423

>  <SCORE.INTRA.DIHEDRAL>
-15.3403

>  <SCORE.INTRA.DIHEDRAL.0>
17.7811

>  <SCORE.INTRA.POLAR>
0

>  <SCORE.INTRA.POLAR.0>
0

>  <SCORE.INTRA.REPUL>
0

>  <SCORE.INTRA.REPUL.0>
0

>  <SCORE.INTRA.SOLV>
0.878094

>  <SCORE.INTRA.SOLV.lig_0>
-47.9565

>  <SCORE.INTRA.VDW>
-1.35311

>  <SCORE.INTRA.VDW.0>
0.515983

>  <SCORE.INTRA.norm>
-0.613159

>  <SCORE.RESTR>
0.0240259

>  <SCORE.RESTR.CAVITY>
0.0240259

>  <SCORE.RESTR.norm>
0.00171614

>  <SCORE.SYSTEM>
0

>  <SCORE.SYSTEM.CONST>
0

>  <SCORE.SYSTEM.DIHEDRAL>
0

>  <SCORE.SYSTEM.SOLV>
0

>  <SCORE.SYSTEM.norm>
0

>  <SCORE.heavy>
14

>  <SCORE.norm>
-0.543713

>  <RMSD>
1.997

$$$$
1xpf_lig
 OpenBabel02141814123D
libRbt.so/2013.1/901 2013/11/27
 14 13  0  0  0  0  0  0  0  0999 V2000
   20.8676    4.7834   63.9289 N   0  0  0  0  0  0  0  0  0  0  0  0
   19.5962    4.1020   64.0876 C   0  0  0  0  0  0  0  0  0  0  0  0
   19.6269    2.7643   63.4510 C   0  0  0  0  0  0  0  0  0  0  0  0
   20.4245    1.8777   64.3561 C   0  0  0  0  0  0  0  0  0  0  0  0
   20.6219    0.6008   63.6274 N   0  0  0  0  0  0  0  0  0  0  0  0
   20.5636   -0.5572   64.5711 C   0  0  0  0  0  0  0  0  0  0  0  0
   20.4499   -1.9174   63.8613 C   0  0  0  0  0  0  0  0  0  0  0  0
   19.1912   -2.0629   62.9877 C   0  0  0  0  0  0  0  0  0  0  0  0
   19.3212   -3.3125   62.1299 C   0  0  0  0  0  0  0  0  0  0  0  0
   19.0540   -4.4284   63.0490 N   0  0  0  0  0  0  0  0  0  0  0  0
   17.6464   -4.8954   63.1909 C   0  0  0  0  0  0  0  0  0  0  0  0
   17.6123   -5.2081   64.7026 C   0  0  0  0  0  0  0  0  0  0  0  0
   16.3285   -5.7138   65.3101 C   0  0  0  0  0  0  0  0  0  0  0  0
   15.9335   -7.0441   64.8808 N   0  0  0  0  0  0  0  0  0  0  0  0
  1  2  1  0  0  0  0
  2  3  1  0  0  0  0
  3  4  1  0  0  0  0
  4  5  1  0  0  0  0
  5  6  1  0  0  0  0
  6  7  1  0  0  0  0
  7  8  1  0  0  0  0
  8  9  1  0  0  0  0
  9 10  1  0  0  0  0
 10 11  1  0  0  0  0
 11 12  1  0  0  0  0
 12 13  1  0  0  0  0
 13 14  1  0  0  0  0
M  END
>  <CHROM.1>
75.42686118,-171.93671445,-143.31089607,167.32124805,-60.42523200,168.81589388
76.18016752,90.21561969,-142.17600259,179.35791283,67.86355311,19.08839768
-1.50082998,63.86672751,1.13303354,0.66263973,0.24556158

>  <Name>
1xpf_lig

>  <RI>
0

>  <Rbt.Current_Directory>
/home/afrankz/demos/rdock_decoys_rna/rnas/1xpf

>  <Rbt.Executable>
rbdock ($Id: //depot/dev/client3/rdock/2013.1/src/exe/rbdock.cxx#4 $)

>  <Rbt.Library>
libRbt.so (2013.1, Build901 2013/11/27)

>  <Rbt.Parameter_File>
/export/apps/rDock/src/rDock_2013.1_src/data/scripts/dock_solv.prm

>  <Rbt.Receptor>
prm/pocket_docking_2.prm

>  <SCORE>
-1.91869

>  <SCORE.INTER>
5.31216

>  <SCORE.INTER.CONST>
1

>  <SCORE.INTER.POLAR>
0

>  <SCORE.INTER.ROT>
11

>  <SCORE.INTER.SOLV>
3.82963

>  <SCORE.INTER.VDW>
-8.66843

>  <SCORE.INTER.norm>
0.37944

>  <SCORE.INTRA>
-7.23802

>  <SCORE.INTRA.DIHEDRAL>
-12.6318

>  <SCORE.INTRA.DIHEDRAL.0>
17.7811

>  <SCORE.INTRA.POLAR>
0

>  <SCORE.INTRA.POLAR.0>
0

>  <SCORE.INTRA.REPUL>
0

>  <SCORE.INTRA.REPUL.0>
0

>  <SCORE.INTRA.SOLV>
1.18949

>  <SCORE.INTRA.SOLV.lig_0>
-47.9565

>  <SCORE.INTRA.VDW>
-1.51687

>  <SCORE.INTRA.VDW.0>
0.515983

>  <SCORE.INTRA.norm>
-0.517001

>  <SCORE.RESTR>
0.00716632

>  <SCORE.RESTR.CAVITY>
0.00716632

>  <SCORE.RESTR.norm>
0.00051188

>  <SCORE.SYSTEM>
0

>  <SCORE.SYSTEM.CONST>
0

>  <SCORE.SYSTEM.DIHEDRAL>
0

>  <SCORE.SYSTEM.SOLV>
0

>  <SCORE.SYSTEM.norm>
0

>  <SCORE.heavy>
14

>  <SCORE.norm>
-0.137049

>  <RMSD>
2.031

$$$$
1xpf_lig
 OpenBabel02141814123D
libRbt.so/2013.1/901 2013/11/27
 14 13  0  0  0  0  0  0  0  0999 V2000
   21.2154    6.8826   63.5428 N   0  0  0  0  0  0  0  0  0  0  0  0
   20.3319    5.9772   64.2541 C   0  0  0  0  0  0  0  0  0  0  0  0
   20.9912    4.6726   64.4970 C   0  0  0  0  0  0  0  0  0  0  0  0
   19.9936    3.8156   65.2124 C   0  0  0  0  0  0  0  0  0  0  0  0
   20.6361    2.4921   65.4032 N   0  0  0  0  0  0  0  0  0  0  0  0
   19.7186    1.5627   66.1309 C   0  0  0  0  0  0  0  0  0  0  0  0
   20.2553    0.1238   66.2228 C   0  0  0  0  0  0  0  0  0  0  0  0
   20.3927   -0.5798   64.8610 C   0  0  0  0  0  0  0  0  0  0  0  0
   21.0441   -1.9392   65.0654 C   0  0  0  0  0  0  0  0  0  0  0  0
   20.9754   -2.5903   63.7491 N   0  0  0  0  0  0  0  0  0  0  0  0
   20.4795   -3.9939   63.6885 C   0  0  0  0  0  0  0  0  0  0  0  0
   19.2270   -3.8044   62.8056 C   0  0  0  0  0  0  0  0  0  0  0  0
   18.2814   -4.9652   62.6291 C   0  0  0  0  0  0  0  0  0  0  0  0
   17.5173   -5.3147   63.8141 N   0  0  0  0  0  0  0  0  0  0  0  0
  1  2  1  0  0  0  0
  2  3  1  0  0  0  0
  3  4  1  0  0  0  0
  4  5  1  0  0  0  0
  5  6  1  0  0  0  0
  6  7  1  0  0  0  0
  7  8  1  0  0  0  0
  8  9  1  0  0  0  0
  9 10  1  0  0  0  0
 10 11  1  0  0  0  0
 11 12  1  0  0  0  0
 12 13  1  0  0  0  0
 13 14  1  0  0  0  0
M  END
>  <CHROM.1>
-179.19350326,177.67332387,179.25779312,173.41108380,-64.42623109,174.99561122
173.13660741,-132.24837300,118.31955041,-171.62687999,70.06472873,20.07567109
0.16698809,64.41983303,1.08287520,-1.22775946,-0.35177443

>  <Name>
1xpf_lig

>  <RI>
0

>  <Rbt.Current_Directory>
/home/afrankz/demos/rdock_decoys_rna/rnas/1xpf

>  <Rbt.Executable>
rbdock ($Id: //depot/dev/client3/rdock/2013.1/src/exe/rbdock.cxx#4 $)

>  <Rbt.Library>
libRbt.so (2013.1, Build901 2013/11/27)

>  <Rbt.Parameter_File>
/export/apps/rDock/src/rDock_2013.1_src/data/scripts/dock_solv.prm

>  <Rbt.Receptor>
prm/pocket_docking_3.prm

>  <SCORE>
-9.67661

>  <SCORE.INTER>
-0.467159

>  <SCORE.INTER.CONST>
1

>  <SCORE.INTER.POLAR>
0

>  <SCORE.INTER.ROT>
11

>  <SCORE.INTER.SOLV>
7.79384

>  <SCORE.INTER.VDW>
-13.8427

>  <SCORE.INTER.norm>
-0.0333685

>  <SCORE.INTRA>
-9.21564

>  <SCORE.INTRA.DIHEDRAL>
-14.4539

>  <SCORE.INTRA.DIHEDRAL.0>
17.7811

>  <SCORE.INTRA.POLAR>
0

>  <SCORE.INTRA.POLAR.0>
0

>  <SCORE.INTRA.REPUL>
0

>  <SCORE.INTRA.REPUL.0>
0

>  <SCORE.INTRA.SOLV>
-0.0568634

>  <SCORE.INTRA.SOLV.lig_0>
-47.9565

>  <SCORE.INTRA.VDW>
-1.96028

>  <SCORE.INTRA.VDW.0>
0.515983

>  <SCORE.INTRA.norm>
-0.65826

>  <SCORE.RESTR>
0.00618834

>  <SCORE.RESTR.CAVITY>
0.00618834

>  <SCORE.RESTR.norm>
0.000442024

>  <SCORE.SYSTEM>
0

>  <SCORE.SYSTEM.CONST>
0

>  <SCORE.SYSTEM.DIHEDRAL>
0

>  <SCORE.SYSTEM.SOLV>
0

>  <SCORE.SYSTEM.norm>
0

>  <SCORE.heavy>
14

>  <SCORE.norm>
-0.691186

>  <RMSD>
2.047

$$$$
1xpf_lig
 OpenBabel02141814123D
libRbt.so/2013.1/901 2013/11/27
 14 13  0  0  0  0  0  0  0  0999 V2000
   22.0117    5.3462   60.9755 N   0  0  0  0  0  0  0  0  0  0  0  0
   21.2963    5.2508   62.2346 C   0  0  0  0  0  0  0  0  0  0  0  0
   21.3373    3.8680   62.7658 C   0  0  0  0  0  0  0  0  0  0  0  0
   20.6129    3.8912   64.0757 C   0  0  0  0  0  0  0  0  0  0  0  0
   20.6903    2.5148   64.6237 N   0  0  0  0  0  0  0  0  0  0  0  0
   19.9742    2.4295   65.9332 C   0  0  0  0  0  0  0  0  0  0  0  0
   19.9890    1.0183   66.5457 C   0  0  0  0  0  0  0  0  0  0  0  0
   19.3230   -0.0525   65.6636 C   0  0  0  0  0  0  0  0  0  0  0  0
   20.3362   -0.5657   64.6515 C   0  0  0  0  0  0  0  0  0  0  0  0
   19.6749   -1.7083   64.0044 N   0  0  0  0  0  0  0  0  0  0  0  0
   20.5264   -2.6823   63.2657 C   0  0  0  0  0  0  0  0  0  0  0  0
   19.4801   -3.7705   62.9413 C   0  0  0  0  0  0  0  0  0  0  0  0
   18.3105   -3.4126   62.0598 C   0  0  0  0  0  0  0  0  0  0  0  0
   17.3561   -4.4869   61.8474 N   0  0  0  0  0  0  0  0  0  0  0  0
  1  2  1  0  0  0  0
  2  3  1  0  0  0  0
  3  4  1  0  0  0  0
  4  5  1  0  0  0  0
  5  6  1  0  0  0  0
  6  7  1  0  0  0  0
  7  8  1  0  0  0  0
  8  9  1  0  0  0  0
  9 10  1  0  0  0  0
 10 11  1  0  0  0  0
 11 12  1  0  0  0  0
 12 13  1  0  0  0  0
 13 14  1  0  0  0  0
M  END
>  <CHROM.1>
178.28287020,-178.36814062,-179.24386226,178.76411588,-60.27243436,84.54149934
171.75718413,-161.84620948,172.51502171,62.81154095,-178.01984703,20.06569447
0.54576513,63.68517288,-0.22648230,-1.26538376,-1.78630893

>  <Name>
1xpf_lig

>  <RI>
0

>  <Rbt.Current_Directory>
/home/afrankz/demos/rdock_decoys_rna/rnas/1xpf

>  <Rbt.Executable>
rbdock ($Id: //depot/dev/client3/rdock/2013.1/src/exe/rbdock.cxx#4 $)

>  <Rbt.Library>
libRbt.so (2013.1, Build901 2013/11/27)

>  <Rbt.Parameter_File>
/export/apps/rDock/src/rDock_2013.1_src/data/scripts/dock_solv.prm

>  <Rbt.Receptor>
prm/pocket_docking_2.prm

>  <SCORE>
-5.25919

>  <SCORE.INTER>
3.55857

>  <SCORE.INTER.CONST>
1

>  <SCORE.INTER.POLAR>
0

>  <SCORE.INTER.ROT>
11

>  <SCORE.INTER.SOLV>
5.39033

>  <SCORE.INTER.VDW>
-10.3577

>  <SCORE.INTER.norm>
0.254184

>  <SCORE.INTRA>
-8.83437

>  <SCORE.INTRA.DIHEDRAL>
-14.9661

>  <SCORE.INTRA.DIHEDRAL.0>
17.7811

>  <SCORE.INTRA.POLAR>
0

>  <SCORE.INTRA.POLAR.0>
0

>  <SCORE.INTRA.REPUL>
0

>  <SCORE.INTRA.REPUL.0>
0

>  <SCORE.INTRA.SOLV>
0.458534

>  <SCORE.INTRA.SOLV.lig_0>
-47.9565

>  <SCORE.INTRA.VDW>
-1.58061

>  <SCORE.INTRA.VDW.0>
0.515983

>  <SCORE.INTRA.norm>
-0.631027

>  <SCORE.RESTR>
0.0166138

>  <SCORE.RESTR.CAVITY>
0.0166138

>  <SCORE.RESTR.norm>
0.0011867

>  <SCORE.SYSTEM>
0

>  <SCORE.SYSTEM.CONST>
0

>  <SCORE.SYSTEM.DIHEDRAL>
0

>  <SCORE.SYSTEM.SOLV>
0

>  <SCORE.SYSTEM.norm>
0

>  <SCORE.heavy>
14

>  <SCORE.norm>
-0.375656

>  <RMSD>
2.048

$$$$
1xpf_lig
 OpenBabel02141814123D
libRbt.so/2013.1/901 2013/11/27
 14 13  0  0  0  0  0  0  0  0999 V2000
   22.2676    3.7366   58.9544 N   0  0  0  0  0  0  0  0  0  0  0  0
   21.8365    3.8616   60.3345 C   0  0  0  0  0  0  0  0  0  0  0  0
   20.7888    2.8644   60.6565 C   0  0  0  0  0  0  0  0  0  0  0  0
   20.4763    3.0267   62.1116 C   0  0  0  0  0  0  0  0  0  0  0  0
   19.6520    1.8554   62.4981 N   0  0  0  0  0  0  0  0  0  0  0  0
   19.6208    1.7025   63.9849 C   0  0  0  0  0  0  0  0  0  0  0  0
   19.8081    0.2489   64.4526 C   0  0  0  0  0  0  0  0  0  0  0  0
   21.1445   -0.3794   64.0195 C   0  0  0  0  0  0  0  0  0  0  0  0
   21.2579   -1.7731   64.6186 C   0  0  0  0  0  0  0  0  0  0  0  0
   20.3369   -2.5993   63.8245 N   0  0  0  0  0  0  0  0  0  0  0  0
   20.5215   -4.0773   63.8540 C   0  0  0  0  0  0  0  0  0  0  0  0
   19.3490   -4.5182   62.9512 C   0  0  0  0  0  0  0  0  0  0  0  0
   17.9408   -4.1929   63.3803 C   0  0  0  0  0  0  0  0  0  0  0  0
   17.5267   -4.8082   64.6293 N   0  0  0  0  0  0  0  0  0  0  0  0
  1  2  1  0  0  0  0
  2  3  1  0  0  0  0
  3  4  1  0  0  0  0
  4  5  1  0  0  0  0
  5  6  1  0  0  0  0
  6  7  1  0  0  0  0
  7  8  1  0  0  0  0
  8  9  1  0  0  0  0
  9 10  1  0  0  0  0
 10 11  1  0  0  0  0
 11 12  1  0  0  0  0
 12 13  1  0  0  0  0
 13 14  1  0  0  0  0
M  END
>  <CHROM.1>
176.78847341,-168.27090678,163.37527840,-135.99572046,60.17884918,176.05525181
74.35682069,160.75770778,178.23187092,-61.65226901,-62.51238449,20.18062588
-0.36085224,62.87659525,-0.65257750,-1.23448775,-2.66352253

>  <Name>
1xpf_lig

>  <RI>
0

>  <Rbt.Current_Directory>
/home/afrankz/demos/rdock_decoys_rna/rnas/1xpf

>  <Rbt.Executable>
rbdock ($Id: //depot/dev/client3/rdock/2013.1/src/exe/rbdock.cxx#4 $)

>  <Rbt.Library>
libRbt.so (2013.1, Build901 2013/11/27)

>  <Rbt.Parameter_File>
/export/apps/rDock/src/rDock_2013.1_src/data/scripts/dock_solv.prm

>  <Rbt.Receptor>
prm/pocket_docking_3.prm

>  <SCORE>
-8.65027

>  <SCORE.INTER>
-0.20279

>  <SCORE.INTER.CONST>
1

>  <SCORE.INTER.POLAR>
-0.882098

>  <SCORE.INTER.ROT>
11

>  <SCORE.INTER.SOLV>
8.43303

>  <SCORE.INTER.VDW>
-10.9392

>  <SCORE.INTER.norm>
-0.014485

>  <SCORE.INTRA>
-8.44748

>  <SCORE.INTRA.DIHEDRAL>
-14.8976

>  <SCORE.INTRA.DIHEDRAL.0>
17.7811

>  <SCORE.INTRA.POLAR>
0

>  <SCORE.INTRA.POLAR.0>
0

>  <SCORE.INTRA.REPUL>
0

>  <SCORE.INTRA.REPUL.0>
0

>  <SCORE.INTRA.SOLV>
1.45707

>  <SCORE.INTRA.SOLV.lig_0>
-47.9565

>  <SCORE.INTRA.VDW>
-1.72721

>  <SCORE.INTRA.VDW.0>
0.515983

>  <SCORE.INTRA.norm>
-0.603392

>  <SCORE.RESTR>
0

>  <SCORE.RESTR.CAVITY>
0

>  <SCORE.RESTR.norm>
0

>  <SCORE.SYSTEM>
0

>  <SCORE.SYSTEM.CONST>
0

>  <SCORE.SYSTEM.DIHEDRAL>
0

>  <SCORE.SYSTEM.SOLV>
0

>  <SCORE.SYSTEM.norm>
0

>  <SCORE.heavy>
14

>  <SCORE.norm>
-0.617877

>  <RMSD>
2.100

$$$$
1xpf_lig
 OpenBabel02141814123D
libRbt.so/2013.1/901 2013/11/27
 14 13  0  0  0  0  0  0  0  0999 V2000
   19.8775    3.2213   61.0557 N   0  0  0  0  0  0  0  0  0  0  0  0
   20.4722    4.1372   62.0115 C   0  0  0  0  0  0  0  0  0  0  0  0
   21.0889    3.4012   63.1401 C   0  0  0  0  0  0  0  0  0  0  0  0
   19.9651    2.7880   63.9162 C   0  0  0  0  0  0  0  0  0  0  0  0
   20.5890    1.9295   64.9528 N   0  0  0  0  0  0  0  0  0  0  0  0
   19.5501    1.3884   65.8817 C   0  0  0  0  0  0  0  0  0  0  0  0
   19.9590    0.0637   66.5488 C   0  0  0  0  0  0  0  0  0  0  0  0
   20.0493   -1.1244   65.5748 C   0  0  0  0  0  0  0  0  0  0  0  0
   21.3069   -0.9829   64.7306 C   0  0  0  0  0  0  0  0  0  0  0  0
   21.5264   -2.3188   64.1572 N   0  0  0  0  0  0  0  0  0  0  0  0
   20.6500   -2.7491   63.0319 C   0  0  0  0  0  0  0  0  0  0  0  0
   20.0526   -4.0419   63.6285 C   0  0  0  0  0  0  0  0  0  0  0  0
   18.9927   -4.7782   62.8492 C   0  0  0  0  0  0  0  0  0  0  0  0
   17.7743   -4.0232   62.6137 N   0  0  0  0  0  0  0  0  0  0  0  0
  1  2  1  0  0  0  0
  2  3  1  0  0  0  0
  3  4  1  0  0  0  0
  4  5  1  0  0  0  0
  5  6  1  0  0  0  0
  6  7  1  0  0  0  0
  7  8  1  0  0  0  0
  8  9  1  0  0  0  0
  9 10  1  0  0  0  0
 10 11  1  0  0  0  0
 11 12  1  0  0  0  0
 12 13  1  0  0  0  0
 13 14  1  0  0  0  0
M  END
>  <CHROM.1>
-68.53933265,173.81402478,173.69285960,154.17899152,-67.91061001,74.26640914
162.97064685,75.49318481,-122.65361134,175.18010664,-61.86196056,20.13250026
-0.22062868,63.86405471,0.99277862,-1.36079883,-0.61021578

>  <Name>
1xpf_lig

>  <RI>
0

>  <Rbt.Current_Directory>
/home/afrankz/demos/rdock_decoys_rna/rnas/1xpf

>  <Rbt.Executable>
rbdock ($Id: //depot/dev/client3/rdock/2013.1/src/exe/rbdock.cxx#4 $)

>  <Rbt.Library>
libRbt.so (2013.1, Build901 2013/11/27)

>  <Rbt.Parameter_File>
/export/apps/rDock/src/rDock_2013.1_src/data/scripts/dock_solv.prm

>  <Rbt.Receptor>
prm/pocket_docking_3.prm

>  <SCORE>
-6.33364

>  <SCORE.INTER>
0.350191

>  <SCORE.INTER.CONST>
1

>  <SCORE.INTER.POLAR>
0

>  <SCORE.INTER.ROT>
11

>  <SCORE.INTER.SOLV>
7.94156

>  <SCORE.INTER.VDW>
-13.3471

>  <SCORE.INTER.norm>
0.0250136

>  <SCORE.INTRA>
-6.68383

>  <SCORE.INTRA.DIHEDRAL>
-13.308

>  <SCORE.INTRA.DIHEDRAL.0>
17.7811

>  <SCORE.INTRA.POLAR>
0

>  <SCORE.INTRA.POLAR.0>
0

>  <SCORE.INTRA.REPUL>
0

>  <SCORE.INTRA.REPUL.0>
0

>  <SCORE.INTRA.SOLV>
1.5146

>  <SCORE.INTRA.SOLV.lig_0>
-47.9565

>  <SCORE.INTRA.VDW>
-0.787148

>  <SCORE.INTRA.VDW.0>
0.515983

>  <SCORE.INTRA.norm>
-0.477416

>  <SCORE.RESTR>
0

>  <SCORE.RESTR.CAVITY>
0

>  <SCORE.RESTR.norm>
0

>  <SCORE.SYSTEM>
0

>  <SCORE.SYSTEM.CONST>
0

>  <SCORE.SYSTEM.DIHEDRAL>
0

>  <SCORE.SYSTEM.SOLV>
0

>  <SCORE.SYSTEM.norm>
0

>  <SCORE.heavy>
14

>  <SCORE.norm>
-0.452403

>  <RMSD>
2.118

$$$$
1xpf_lig
 OpenBabel02141814123D
libRbt.so/2013.1/901 2013/11/27
 14 13  0  0  0  0  0  0  0  0999 V2000
   17.2479   -4.7014   63.0898 N   0  0  0  0  0  0  0  0  0  0  0  0
   18.5342   -4.6411   62.4205 C   0  0  0  0  0  0  0  0  0  0  0  0
   19.6310   -4.4317   63.3946 C   0  0  0  0  0  0  0  0  0  0  0  0
   19.4960   -3.0274   63.8958 C   0  0  0  0  0  0  0  0  0  0  0  0
   20.1385   -2.1555   62.8821 N   0  0  0  0  0  0  0  0  0  0  0  0
   19.8261   -0.7185   63.1513 C   0  0  0  0  0  0  0  0  0  0  0  0
   20.5650   -0.1527   64.3763 C   0  0  0  0  0  0  0  0  0  0  0  0
   20.1729    1.2929   64.7297 C   0  0  0  0  0  0  0  0  0  0  0  0
   20.8990    2.2493   63.7958 C   0  0  0  0  0  0  0  0  0  0  0  0
   20.1977    2.1230   62.5098 N   0  0  0  0  0  0  0  0  0  0  0  0
   19.6252    3.3568   61.9017 C   0  0  0  0  0  0  0  0  0  0  0  0
   20.2546    3.2859   60.4935 C   0  0  0  0  0  0  0  0  0  0  0  0
   21.7500    3.4220   60.3594 C   0  0  0  0  0  0  0  0  0  0  0  0
   22.2431    3.4109   58.9930 N   0  0  0  0  0  0  0  0  0  0  0  0
  1  2  1  0  0  0  0
  2  3  1  0  0  0  0
  3  4  1  0  0  0  0
  4  5  1  0  0  0  0
  5  6  1  0  0  0  0
  6  7  1  0  0  0  0
  7  8  1  0  0  0  0
  8  9  1  0  0  0  0
  9 10  1  0  0  0  0
 10 11  1  0  0  0  0
 11 12  1  0  0  0  0
 12 13  1  0  0  0  0
 13 14  1  0  0  0  0
M  END
>  <CHROM.1>
-70.55363186,-82.07643207,168.91733288,72.44657866,-175.60670946,-79.21951502
74.52387740,123.23282169,127.08052552,-65.65783112,-177.00983173,20.04155152
-0.04899587,62.57123476,3.12777732,1.28464149,1.28364035

>  <Name>
1xpf_lig

>  <RI>
0

>  <Rbt.Current_Directory>
/home/afrankz/demos/rdock_decoys_rna/rnas/1xpf

>  <Rbt.Executable>
rbdock ($Id: //depot/dev/client3/rdock/2013.1/src/exe/rbdock.cxx#4 $)

>  <Rbt.Library>
libRbt.so (2013.1, Build901 2013/11/27)

>  <Rbt.Parameter_File>
/export/apps/rDock/src/rDock_2013.1_src/data/scripts/dock_solv.prm

>  <Rbt.Receptor>
prm/pocket_docking_3.prm

>  <SCORE>
-3.34482

>  <SCORE.INTER>
1.47194

>  <SCORE.INTER.CONST>
1

>  <SCORE.INTER.POLAR>
-0.861518

>  <SCORE.INTER.ROT>
11

>  <SCORE.INTER.SOLV>
6.89016

>  <SCORE.INTER.VDW>
-9.37703

>  <SCORE.INTER.norm>
0.105139

>  <SCORE.INTRA>
-4.81676

>  <SCORE.INTRA.DIHEDRAL>
-10.7409

>  <SCORE.INTRA.DIHEDRAL.0>
17.7811

>  <SCORE.INTRA.POLAR>
0

>  <SCORE.INTRA.POLAR.0>
0

>  <SCORE.INTRA.REPUL>
0

>  <SCORE.INTRA.REPUL.0>
0

>  <SCORE.INTRA.SOLV>
1.94793

>  <SCORE.INTRA.SOLV.lig_0>
-47.9565

>  <SCORE.INTRA.VDW>
-0.420271

>  <SCORE.INTRA.VDW.0>
0.515983

>  <SCORE.INTRA.norm>
-0.344054

>  <SCORE.RESTR>
0

>  <SCORE.RESTR.CAVITY>
0

>  <SCORE.RESTR.norm>
0

>  <SCORE.SYSTEM>
0

>  <SCORE.SYSTEM.CONST>
0

>  <SCORE.SYSTEM.DIHEDRAL>
0

>  <SCORE.SYSTEM.SOLV>
0

>  <SCORE.SYSTEM.norm>
0

>  <SCORE.heavy>
14

>  <SCORE.norm>
-0.238916

>  <RMSD>
2.121

$$$$
1xpf_lig
 OpenBabel02141814123D
libRbt.so/2013.1/901 2013/11/27
 14 13  0  0  0  0  0  0  0  0999 V2000
   16.9703   -5.8252   62.8227 N   0  0  0  0  0  0  0  0  0  0  0  0
   17.3598   -4.4640   62.5039 C   0  0  0  0  0  0  0  0  0  0  0  0
   18.3151   -3.9360   63.5062 C   0  0  0  0  0  0  0  0  0  0  0  0
   19.6299   -4.5985   63.2348 C   0  0  0  0  0  0  0  0  0  0  0  0
   20.5915   -4.0438   64.2189 N   0  0  0  0  0  0  0  0  0  0  0  0
   21.2064   -2.7839   63.6999 C   0  0  0  0  0  0  0  0  0  0  0  0
   21.2168   -1.6411   64.7299 C   0  0  0  0  0  0  0  0  0  0  0  0
   19.8203   -1.2550   65.2488 C   0  0  0  0  0  0  0  0  0  0  0  0
   19.9470   -0.0568   66.1775 C   0  0  0  0  0  0  0  0  0  0  0  0
   20.3950    1.0437   65.3116 N   0  0  0  0  0  0  0  0  0  0  0  0
   19.3583    1.8210   64.5762 C   0  0  0  0  0  0  0  0  0  0  0  0
   20.2578    2.6865   63.6675 C   0  0  0  0  0  0  0  0  0  0  0  0
   21.1973    3.6767   64.3077 C   0  0  0  0  0  0  0  0  0  0  0  0
   20.5490    4.7086   65.0983 N   0  0  0  0  0  0  0  0  0  0  0  0
  1  2  1  0  0  0  0
  2  3  1  0  0  0  0
  3  4  1  0  0  0  0
  4  5  1  0  0  0  0
  5  6  1  0  0  0  0
  6  7  1  0  0  0  0
  7  8  1  0  0  0  0
  8  9  1  0  0  0  0
  9 10  1  0  0  0  0
 10 11  1  0  0  0  0
 11 12  1  0  0  0  0
 12 13  1  0  0  0  0
 13 14  1  0  0  0  0
M  END
>  <CHROM.1>
74.30173710,178.68439125,-86.90626009,133.06518337,-58.38926845,-175.95686611
66.03212107,85.42142952,-171.90860768,-63.41843415,-61.14303351,19.77252250
-1.04770528,64.22165626,1.84291261,0.44100273,-3.06439650

>  <Name>
1xpf_lig

>  <RI>
0

>  <Rbt.Current_Directory>
/home/afrankz/demos/rdock_decoys_rna/rnas/1xpf

>  <Rbt.Executable>
rbdock ($Id: //depot/dev/client3/rdock/2013.1/src/exe/rbdock.cxx#4 $)

>  <Rbt.Library>
libRbt.so (2013.1, Build901 2013/11/27)

>  <Rbt.Parameter_File>
/export/apps/rDock/src/rDock_2013.1_src/data/scripts/dock_solv.prm

>  <Rbt.Receptor>
prm/pocket_docking_3.prm

>  <SCORE>
-6.07712

>  <SCORE.INTER>
0.857449

>  <SCORE.INTER.CONST>
1

>  <SCORE.INTER.POLAR>
0

>  <SCORE.INTER.ROT>
11

>  <SCORE.INTER.SOLV>
7.8922

>  <SCORE.INTER.VDW>
-12.9924

>  <SCORE.INTER.norm>
0.0612463

>  <SCORE.INTRA>
-6.93457

>  <SCORE.INTRA.DIHEDRAL>
-14.6937

>  <SCORE.INTRA.DIHEDRAL.0>
17.7811

>  <SCORE.INTRA.POLAR>
0

>  <SCORE.INTRA.POLAR.0>
0

>  <SCORE.INTRA.REPUL>
0

>  <SCORE.INTRA.REPUL.0>
0

>  <SCORE.INTRA.SOLV>
2.2854

>  <SCORE.INTRA.SOLV.lig_0>
-47.9565

>  <SCORE.INTRA.VDW>
-0.730422

>  <SCORE.INTRA.VDW.0>
0.515983

>  <SCORE.INTRA.norm>
-0.495326

>  <SCORE.RESTR>
0

>  <SCORE.RESTR.CAVITY>
0

>  <SCORE.RESTR.norm>
0

>  <SCORE.SYSTEM>
0

>  <SCORE.SYSTEM.CONST>
0

>  <SCORE.SYSTEM.DIHEDRAL>
0

>  <SCORE.SYSTEM.SOLV>
0

>  <SCORE.SYSTEM.norm>
0

>  <SCORE.heavy>
14

>  <SCORE.norm>
-0.43408

>  <RMSD>
2.128

$$$$
1xpf_lig
 OpenBabel02141814123D
libRbt.so/2013.1/901 2013/11/27
 14 13  0  0  0  0  0  0  0  0999 V2000
   16.0367   -5.5371   61.2745 N   0  0  0  0  0  0  0  0  0  0  0  0
   17.1532   -5.6712   62.1918 C   0  0  0  0  0  0  0  0  0  0  0  0
   18.1077   -4.5486   62.0350 C   0  0  0  0  0  0  0  0  0  0  0  0
   19.1877   -4.7603   63.0500 C   0  0  0  0  0  0  0  0  0  0  0  0
   20.1054   -3.6003   62.9359 N   0  0  0  0  0  0  0  0  0  0  0  0
   20.9624   -3.4864   64.1556 C   0  0  0  0  0  0  0  0  0  0  0  0
   21.3052   -2.0333   64.5267 C   0  0  0  0  0  0  0  0  0  0  0  0
   20.0864   -1.0944   64.5660 C   0  0  0  0  0  0  0  0  0  0  0  0
   20.5426    0.2983   64.9739 C   0  0  0  0  0  0  0  0  0  0  0  0
   19.4078    1.1750   64.6497 N   0  0  0  0  0  0  0  0  0  0  0  0
   19.6555    2.6425   64.5814 C   0  0  0  0  0  0  0  0  0  0  0  0
   18.6185    3.0461   63.5109 C   0  0  0  0  0  0  0  0  0  0  0  0
   18.7482    2.4727   62.1226 C   0  0  0  0  0  0  0  0  0  0  0  0
   20.0056    2.7661   61.4569 N   0  0  0  0  0  0  0  0  0  0  0  0
  1  2  1  0  0  0  0
  2  3  1  0  0  0  0
  3  4  1  0  0  0  0
  4  5  1  0  0  0  0
  5  6  1  0  0  0  0
  6  7  1  0  0  0  0
  7  8  1  0  0  0  0
  8  9  1  0  0  0  0
  9 10  1  0  0  0  0
 10 11  1  0  0  0  0
 11 12  1  0  0  0  0
 12 13  1  0  0  0  0
 13 14  1  0  0  0  0
M  END
>  <CHROM.1>
178.20473591,-177.27770059,162.49604229,-146.71831251,49.25572933,178.67055564
165.85178574,-163.71316438,148.85486582,-62.10494906,-58.75397814,19.28037342
-1.30935517,63.28821394,1.83121495,0.71400257,3.12390891

>  <Name>
1xpf_lig

>  <RI>
0

>  <Rbt.Current_Directory>
/home/afrankz/demos/rdock_decoys_rna/rnas/1xpf

>  <Rbt.Executable>
rbdock ($Id: //depot/dev/client3/rdock/2013.1/src/exe/rbdock.cxx#4 $)

>  <Rbt.Library>
libRbt.so (2013.1, Build901 2013/11/27)

>  <Rbt.Parameter_File>
/export/apps/rDock/src/rDock_2013.1_src/data/scripts/dock_solv.prm

>  <Rbt.Receptor>
prm/pocket_docking_3.prm

>  <SCORE>
-8.023

>  <SCORE.INTER>
0.389839

>  <SCORE.INTER.CONST>
1

>  <SCORE.INTER.POLAR>
0

>  <SCORE.INTER.ROT>
11

>  <SCORE.INTER.SOLV>
5.41225

>  <SCORE.INTER.VDW>
-12.4775

>  <SCORE.INTER.norm>
0.0278456

>  <SCORE.INTRA>
-8.41284

>  <SCORE.INTRA.DIHEDRAL>
-14.7836

>  <SCORE.INTRA.DIHEDRAL.0>
17.7811

>  <SCORE.INTRA.POLAR>
0

>  <SCORE.INTRA.POLAR.0>
0

>  <SCORE.INTRA.REPUL>
0

>  <SCORE.INTRA.REPUL.0>
0

>  <SCORE.INTRA.SOLV>
1.49829

>  <SCORE.INTRA.SOLV.lig_0>
-47.9565

>  <SCORE.INTRA.VDW>
-1.77021

>  <SCORE.INTRA.VDW.0>
0.515983

>  <SCORE.INTRA.norm>
-0.600917

>  <SCORE.RESTR>
0

>  <SCORE.RESTR.CAVITY>
0

>  <SCORE.RESTR.norm>
0

>  <SCORE.SYSTEM>
0

>  <SCORE.SYSTEM.CONST>
0

>  <SCORE.SYSTEM.DIHEDRAL>
0

>  <SCORE.SYSTEM.SOLV>
0

>  <SCORE.SYSTEM.norm>
0

>  <SCORE.heavy>
14

>  <SCORE.norm>
-0.573072

>  <RMSD>
2.135

$$$$
1xpf_lig
 OpenBabel02141814123D
libRbt.so/2013.1/901 2013/11/27
 14 13  0  0  0  0  0  0  0  0999 V2000
   19.7856    4.5663   64.0150 N   0  0  0  0  0  0  0  0  0  0  0  0
   19.7708    3.4659   64.9611 C   0  0  0  0  0  0  0  0  0  0  0  0
   19.7289    2.1617   64.2588 C   0  0  0  0  0  0  0  0  0  0  0  0
   19.7897    1.1039   65.3165 C   0  0  0  0  0  0  0  0  0  0  0  0
   19.8196   -0.1988   64.6075 N   0  0  0  0  0  0  0  0  0  0  0  0
   21.2289   -0.6155   64.3334 C   0  0  0  0  0  0  0  0  0  0  0  0
   21.3720   -2.1156   64.0230 C   0  0  0  0  0  0  0  0  0  0  0  0
   20.8287   -2.5223   62.6418 C   0  0  0  0  0  0  0  0  0  0  0  0
   19.3082   -2.5364   62.6882 C   0  0  0  0  0  0  0  0  0  0  0  0
   18.8994   -3.1498   61.4161 N   0  0  0  0  0  0  0  0  0  0  0  0
   17.4424   -3.3315   61.1641 C   0  0  0  0  0  0  0  0  0  0  0  0
   17.3315   -4.8664   61.2912 C   0  0  0  0  0  0  0  0  0  0  0  0
   17.0736   -5.4651   62.6506 C   0  0  0  0  0  0  0  0  0  0  0  0
   18.0849   -5.1669   63.6498 N   0  0  0  0  0  0  0  0  0  0  0  0
  1  2  1  0  0  0  0
  2  3  1  0  0  0  0
  3  4  1  0  0  0  0
  4  5  1  0  0  0  0
  5  6  1  0  0  0  0
  6  7  1  0  0  0  0
  7  8  1  0  0  0  0
  8  9  1  0  0  0  0
  9 10  1  0  0  0  0
 10 11  1  0  0  0  0
 11 12  1  0  0  0  0
 12 13  1  0  0  0  0
 13 14  1  0  0  0  0
M  END
>  <CHROM.1>
177.08232534,-177.09510885,90.38409020,161.51983506,72.27458775,-75.02069234
-170.64678798,178.91662968,-108.80562251,88.52293680,-59.87170931,19.31893513
-1.33375056,63.35834619,1.26136983,-0.55153497,0.16075716

>  <Name>
1xpf_lig

>  <RI>
0

>  <Rbt.Current_Directory>
/home/afrankz/demos/rdock_decoys_rna/rnas/1xpf

>  <Rbt.Executable>
rbdock ($Id: //depot/dev/client3/rdock/2013.1/src/exe/rbdock.cxx#4 $)

>  <Rbt.Library>
libRbt.so (2013.1, Build901 2013/11/27)

>  <Rbt.Parameter_File>
/export/apps/rDock/src/rDock_2013.1_src/data/scripts/dock_solv.prm

>  <Rbt.Receptor>
prm/pocket_docking_2.prm

>  <SCORE>
-0.209776

>  <SCORE.INTER>
4.93697

>  <SCORE.INTER.CONST>
1

>  <SCORE.INTER.POLAR>
0

>  <SCORE.INTER.ROT>
11

>  <SCORE.INTER.SOLV>
6.62128

>  <SCORE.INTER.VDW>
-9.84911

>  <SCORE.INTER.norm>
0.352641

>  <SCORE.INTRA>
-5.15345

>  <SCORE.INTRA.DIHEDRAL>
-11.424

>  <SCORE.INTRA.DIHEDRAL.0>
17.7811

>  <SCORE.INTRA.POLAR>
0

>  <SCORE.INTRA.POLAR.0>
0

>  <SCORE.INTRA.REPUL>
0

>  <SCORE.INTRA.REPUL.0>
0

>  <SCORE.INTRA.SOLV>
3.92695

>  <SCORE.INTRA.SOLV.lig_0>
-47.9565

>  <SCORE.INTRA.VDW>
-1.4049

>  <SCORE.INTRA.VDW.0>
0.515983

>  <SCORE.INTRA.norm>
-0.368103

>  <SCORE.RESTR>
0.00669971

>  <SCORE.RESTR.CAVITY>
0.00669971

>  <SCORE.RESTR.norm>
0.000478551

>  <SCORE.SYSTEM>
0

>  <SCORE.SYSTEM.CONST>
0

>  <SCORE.SYSTEM.DIHEDRAL>
0

>  <SCORE.SYSTEM.SOLV>
0

>  <SCORE.SYSTEM.norm>
0

>  <SCORE.heavy>
14

>  <SCORE.norm>
-0.014984

>  <RMSD>
2.139

$$$$
1xpf_lig
 OpenBabel02141814123D
libRbt.so/2013.1/901 2013/11/27
 14 13  0  0  0  0  0  0  0  0999 V2000
   21.1719    5.1145   63.5396 N   0  0  0  0  0  0  0  0  0  0  0  0
   20.3338    4.4799   64.5402 C   0  0  0  0  0  0  0  0  0  0  0  0
   21.1560    3.7959   65.5659 C   0  0  0  0  0  0  0  0  0  0  0  0
   20.2034    3.2511   66.5844 C   0  0  0  0  0  0  0  0  0  0  0  0
   19.4402    2.1716   65.9114 N   0  0  0  0  0  0  0  0  0  0  0  0
   19.5969    0.8799   66.6475 C   0  0  0  0  0  0  0  0  0  0  0  0
   20.5114   -0.1257   65.9269 C   0  0  0  0  0  0  0  0  0  0  0  0
   20.0881   -0.4285   64.4786 C   0  0  0  0  0  0  0  0  0  0  0  0
   20.9903   -1.5144   63.9119 C   0  0  0  0  0  0  0  0  0  0  0  0
   20.6059   -2.7364   64.6333 N   0  0  0  0  0  0  0  0  0  0  0  0
   20.9612   -4.0487   64.0243 C   0  0  0  0  0  0  0  0  0  0  0  0
   19.7185   -4.2856   63.1389 C   0  0  0  0  0  0  0  0  0  0  0  0
   18.3818   -4.4919   63.8050 C   0  0  0  0  0  0  0  0  0  0  0  0
   17.2623   -4.6421   62.8916 N   0  0  0  0  0  0  0  0  0  0  0  0
  1  2  1  0  0  0  0
  2  3  1  0  0  0  0
  3  4  1  0  0  0  0
  4  5  1  0  0  0  0
  5  6  1  0  0  0  0
  6  7  1  0  0  0  0
  7  8  1  0  0  0  0
  8  9  1  0  0  0  0
  9 10  1  0  0  0  0
 10 11  1  0  0  0  0
 11 12  1  0  0  0  0
 12 13  1  0  0  0  0
 13 14  1  0  0  0  0
M  END
>  <CHROM.1>
176.68293601,67.97410895,122.54954668,-106.41908679,-54.84419105,-175.31081239
70.15687424,160.07399004,-88.23950217,-65.55214913,177.14404659,20.03030060
-0.18436346,64.68585991,-1.01545557,-1.26212487,-2.40777818

>  <Name>
1xpf_lig

>  <RI>
0

>  <Rbt.Current_Directory>
/home/afrankz/demos/rdock_decoys_rna/rnas/1xpf

>  <Rbt.Executable>
rbdock ($Id: //depot/dev/client3/rdock/2013.1/src/exe/rbdock.cxx#4 $)

>  <Rbt.Library>
libRbt.so (2013.1, Build901 2013/11/27)

>  <Rbt.Parameter_File>
/export/apps/rDock/src/rDock_2013.1_src/data/scripts/dock_solv.prm

>  <Rbt.Receptor>
prm/pocket_docking_3.prm

>  <SCORE>
-7.7755

>  <SCORE.INTER>
-0.557333

>  <SCORE.INTER.CONST>
1

>  <SCORE.INTER.POLAR>
0

>  <SCORE.INTER.ROT>
11

>  <SCORE.INTER.SOLV>
6.38744

>  <SCORE.INTER.VDW>
-13.434

>  <SCORE.INTER.norm>
-0.0398095

>  <SCORE.INTRA>
-7.21816

>  <SCORE.INTRA.DIHEDRAL>
-13.6909

>  <SCORE.INTRA.DIHEDRAL.0>
17.7811

>  <SCORE.INTRA.POLAR>
0

>  <SCORE.INTRA.POLAR.0>
0

>  <SCORE.INTRA.REPUL>
0

>  <SCORE.INTRA.REPUL.0>
0

>  <SCORE.INTRA.SOLV>
0.916285

>  <SCORE.INTRA.SOLV.lig_0>
-47.9565

>  <SCORE.INTRA.VDW>
-0.830847

>  <SCORE.INTRA.VDW.0>
0.515983

>  <SCORE.INTRA.norm>
-0.515583

>  <SCORE.RESTR>
0

>  <SCORE.RESTR.CAVITY>
0

>  <SCORE.RESTR.norm>
0

>  <SCORE.SYSTEM>
0

>  <SCORE.SYSTEM.CONST>
0

>  <SCORE.SYSTEM.DIHEDRAL>
0

>  <SCORE.SYSTEM.SOLV>
0

>  <SCORE.SYSTEM.norm>
0

>  <SCORE.heavy>
14

>  <SCORE.norm>
-0.555393

>  <RMSD>
2.146

$$$$
1xpf_lig
 OpenBabel02141814123D
libRbt.so/2013.1/901 2013/11/27
 14 13  0  0  0  0  0  0  0  0999 V2000
   16.2571   -5.5289   65.4259 N   0  0  0  0  0  0  0  0  0  0  0  0
   17.4225   -5.4143   64.5687 C   0  0  0  0  0  0  0  0  0  0  0  0
   17.5079   -4.0635   63.9654 C   0  0  0  0  0  0  0  0  0  0  0  0
   18.6988   -4.0744   63.0582 C   0  0  0  0  0  0  0  0  0  0  0  0
   18.8035   -2.7103   62.4849 N   0  0  0  0  0  0  0  0  0  0  0  0
   20.0282   -2.5896   61.6362 C   0  0  0  0  0  0  0  0  0  0  0  0
   20.9997   -1.4986   62.1189 C   0  0  0  0  0  0  0  0  0  0  0  0
   21.5959   -1.7652   63.5124 C   0  0  0  0  0  0  0  0  0  0  0  0
   20.5391   -1.4823   64.5695 C   0  0  0  0  0  0  0  0  0  0  0  0
   20.4058   -0.0182   64.5849 N   0  0  0  0  0  0  0  0  0  0  0  0
   19.6339    0.6018   65.6981 C   0  0  0  0  0  0  0  0  0  0  0  0
   20.1452    2.0561   65.6096 C   0  0  0  0  0  0  0  0  0  0  0  0
   19.6987    2.9130   64.4524 C   0  0  0  0  0  0  0  0  0  0  0  0
   20.1941    2.4900   63.1540 N   0  0  0  0  0  0  0  0  0  0  0  0
  1  2  1  0  0  0  0
  2  3  1  0  0  0  0
  3  4  1  0  0  0  0
  4  5  1  0  0  0  0
  5  6  1  0  0  0  0
  6  7  1  0  0  0  0
  7  8  1  0  0  0  0
  8  9  1  0  0  0  0
  9 10  1  0  0  0  0
 10 11  1  0  0  0  0
 11 12  1  0  0  0  0
 12 13  1  0  0  0  0
 13 14  1  0  0  0  0
M  END
>  <CHROM.1>
-177.42409044,-178.47663695,175.87247922,-120.48526160,63.70806543,-75.10685878
-72.02660830,-168.51593338,161.46516067,71.82848691,-66.90988000,19.42380822
-1.50605679,63.91707689,2.16503391,-0.83902424,-2.62364178

>  <Name>
1xpf_lig

>  <RI>
0

>  <Rbt.Current_Directory>
/home/afrankz/demos/rdock_decoys_rna/rnas/1xpf

>  <Rbt.Executable>
rbdock ($Id: //depot/dev/client3/rdock/2013.1/src/exe/rbdock.cxx#4 $)

>  <Rbt.Library>
libRbt.so (2013.1, Build901 2013/11/27)

>  <Rbt.Parameter_File>
/export/apps/rDock/src/rDock_2013.1_src/data/scripts/dock_solv.prm

>  <Rbt.Receptor>
prm/pocket_docking_2.prm

>  <SCORE>
-3.81267

>  <SCORE.INTER>
3.02175

>  <SCORE.INTER.CONST>
1

>  <SCORE.INTER.POLAR>
0

>  <SCORE.INTER.ROT>
11

>  <SCORE.INTER.SOLV>
2.65872

>  <SCORE.INTER.VDW>
-9.80507

>  <SCORE.INTER.norm>
0.215839

>  <SCORE.INTRA>
-6.83853

>  <SCORE.INTRA.DIHEDRAL>
-13.9862

>  <SCORE.INTRA.DIHEDRAL.0>
17.7811

>  <SCORE.INTRA.POLAR>
0

>  <SCORE.INTRA.POLAR.0>
0

>  <SCORE.INTRA.REPUL>
0

>  <SCORE.INTRA.REPUL.0>
0

>  <SCORE.INTRA.SOLV>
4.01549

>  <SCORE.INTRA.SOLV.lig_0>
-47.9565

>  <SCORE.INTRA.VDW>
-1.85316

>  <SCORE.INTRA.VDW.0>
0.515983

>  <SCORE.INTRA.norm>
-0.488467

>  <SCORE.RESTR>
0.00411433

>  <SCORE.RESTR.CAVITY>
0.00411433

>  <SCORE.RESTR.norm>
0.000293881

>  <SCORE.SYSTEM>
0

>  <SCORE.SYSTEM.CONST>
0

>  <SCORE.SYSTEM.DIHEDRAL>
0

>  <SCORE.SYSTEM.SOLV>
0

>  <SCORE.SYSTEM.norm>
0

>  <SCORE.heavy>
14

>  <SCORE.norm>
-0.272333

>  <RMSD>
2.155

$$$$
1xpf_lig
 OpenBabel02141814123D
libRbt.so/2013.1/901 2013/11/27
 14 13  0  0  0  0  0  0  0  0999 V2000
   21.4639    5.0828   64.0831 N   0  0  0  0  0  0  0  0  0  0  0  0
   20.5173    4.6250   65.0833 C   0  0  0  0  0  0  0  0  0  0  0  0
   20.8491    3.2554   65.5417 C   0  0  0  0  0  0  0  0  0  0  0  0
   19.7875    2.8633   66.5218 C   0  0  0  0  0  0  0  0  0  0  0  0
   20.1011    1.4779   66.9497 N   0  0  0  0  0  0  0  0  0  0  0  0
   19.0445    0.5308   66.4790 C   0  0  0  0  0  0  0  0  0  0  0  0
   19.5968   -0.8470   66.0745 C   0  0  0  0  0  0  0  0  0  0  0  0
   20.7359   -0.7847   65.0415 C   0  0  0  0  0  0  0  0  0  0  0  0
   21.0311   -2.1899   64.5391 C   0  0  0  0  0  0  0  0  0  0  0  0
   19.8537   -2.5578   63.7393 N   0  0  0  0  0  0  0  0  0  0  0  0
   19.7350   -3.9696   63.2786 C   0  0  0  0  0  0  0  0  0  0  0  0
   18.1994   -4.1318   63.2844 C   0  0  0  0  0  0  0  0  0  0  0  0
   17.6077   -5.4521   62.8606 C   0  0  0  0  0  0  0  0  0  0  0  0
   16.1576   -5.5165   62.9173 N   0  0  0  0  0  0  0  0  0  0  0  0
  1  2  1  0  0  0  0
  2  3  1  0  0  0  0
  3  4  1  0  0  0  0
  4  5  1  0  0  0  0
  5  6  1  0  0  0  0
  6  7  1  0  0  0  0
  7  8  1  0  0  0  0
  8  9  1  0  0  0  0
  9 10  1  0  0  0  0
 10 11  1  0  0  0  0
 11 12  1  0  0  0  0
 12 13  1  0  0  0  0
 13 14  1  0  0  0  0
M  END
>  <CHROM.1>
-177.76639699,178.43858753,-113.73069240,144.19237498,-53.56278142,-170.14237689
69.39037841,-170.54101018,148.04202169,179.52657536,179.13231943,19.62013925
-0.54394815,64.74256733,-1.05938293,-0.94542240,-2.44285112

>  <Name>
1xpf_lig

>  <RI>
0

>  <Rbt.Current_Directory>
/home/afrankz/demos/rdock_decoys_rna/rnas/1xpf

>  <Rbt.Executable>
rbdock ($Id: //depot/dev/client3/rdock/2013.1/src/exe/rbdock.cxx#4 $)

>  <Rbt.Library>
libRbt.so (2013.1, Build901 2013/11/27)

>  <Rbt.Parameter_File>
/export/apps/rDock/src/rDock_2013.1_src/data/scripts/dock_solv.prm

>  <Rbt.Receptor>
prm/pocket_docking_3.prm

>  <SCORE>
-9.31073

>  <SCORE.INTER>
-0.38476

>  <SCORE.INTER.CONST>
1

>  <SCORE.INTER.POLAR>
0

>  <SCORE.INTER.ROT>
11

>  <SCORE.INTER.SOLV>
5.23066

>  <SCORE.INTER.VDW>
-12.9334

>  <SCORE.INTER.norm>
-0.0274828

>  <SCORE.INTRA>
-8.93487

>  <SCORE.INTRA.DIHEDRAL>
-14.1873

>  <SCORE.INTRA.DIHEDRAL.0>
17.7811

>  <SCORE.INTRA.POLAR>
0

>  <SCORE.INTRA.POLAR.0>
0

>  <SCORE.INTRA.REPUL>
0

>  <SCORE.INTRA.REPUL.0>
0

>  <SCORE.INTRA.SOLV>
-0.128965

>  <SCORE.INTRA.SOLV.lig_0>
-47.9565

>  <SCORE.INTRA.VDW>
-1.77673

>  <SCORE.INTRA.VDW.0>
0.515983

>  <SCORE.INTRA.norm>
-0.638205

>  <SCORE.RESTR>
0.00889519

>  <SCORE.RESTR.CAVITY>
0.00889519

>  <SCORE.RESTR.norm>
0.00063537

>  <SCORE.SYSTEM>
0

>  <SCORE.SYSTEM.CONST>
0

>  <SCORE.SYSTEM.DIHEDRAL>
0

>  <SCORE.SYSTEM.SOLV>
0

>  <SCORE.SYSTEM.norm>
0

>  <SCORE.heavy>
14

>  <SCORE.norm>
-0.665052

>  <RMSD>
2.194

$$$$
1xpf_lig
 OpenBabel02141814123D
libRbt.so/2013.1/901 2013/11/27
 14 13  0  0  0  0  0  0  0  0999 V2000
   16.1060   -5.8025   63.4135 N   0  0  0  0  0  0  0  0  0  0  0  0
   16.3968   -5.0381   64.6124 C   0  0  0  0  0  0  0  0  0  0  0  0
   17.0669   -3.7594   64.2780 C   0  0  0  0  0  0  0  0  0  0  0  0
   18.4272   -4.1114   63.7613 C   0  0  0  0  0  0  0  0  0  0  0  0
   19.1429   -2.8289   63.5527 N   0  0  0  0  0  0  0  0  0  0  0  0
   20.5188   -3.0752   63.0225 C   0  0  0  0  0  0  0  0  0  0  0  0
   21.5112   -1.9473   63.3542 C   0  0  0  0  0  0  0  0  0  0  0  0
   21.2397   -0.6341   62.5991 C   0  0  0  0  0  0  0  0  0  0  0  0
   20.0157    0.0419   63.1982 C   0  0  0  0  0  0  0  0  0  0  0  0
   20.4691    0.5547   64.4994 N   0  0  0  0  0  0  0  0  0  0  0  0
   19.4362    0.8605   65.5286 C   0  0  0  0  0  0  0  0  0  0  0  0
   20.0038    2.1761   66.1042 C   0  0  0  0  0  0  0  0  0  0  0  0
   19.9427    3.4235   65.2596 C   0  0  0  0  0  0  0  0  0  0  0  0
   20.7180    3.3673   64.0325 N   0  0  0  0  0  0  0  0  0  0  0  0
  1  2  1  0  0  0  0
  2  3  1  0  0  0  0
  3  4  1  0  0  0  0
  4  5  1  0  0  0  0
  5  6  1  0  0  0  0
  6  7  1  0  0  0  0
  7  8  1  0  0  0  0
  8  9  1  0  0  0  0
  9 10  1  0  0  0  0
 10 11  1  0  0  0  0
 11 12  1  0  0  0  0
 12 13  1  0  0  0  0
 13 14  1  0  0  0  0
M  END
>  <CHROM.1>
-68.39293194,-174.60563378,-179.52697985,-154.43319884,-69.78794993,73.75997706
72.49206497,-159.79770592,-139.12446913,71.44626478,-63.61976818,19.35689384
-1.19808097,64.08695577,2.05389662,-0.52617654,-2.75159872

>  <Name>
1xpf_lig

>  <RI>
0

>  <Rbt.Current_Directory>
/home/afrankz/demos/rdock_decoys_rna/rnas/1xpf

>  <Rbt.Executable>
rbdock ($Id: //depot/dev/client3/rdock/2013.1/src/exe/rbdock.cxx#4 $)

>  <Rbt.Library>
libRbt.so (2013.1, Build901 2013/11/27)

>  <Rbt.Parameter_File>
/export/apps/rDock/src/rDock_2013.1_src/data/scripts/dock_solv.prm

>  <Rbt.Receptor>
prm/pocket_docking_2.prm

>  <SCORE>
-1.26475

>  <SCORE.INTER>
4.20684

>  <SCORE.INTER.CONST>
1

>  <SCORE.INTER.POLAR>
0

>  <SCORE.INTER.ROT>
11

>  <SCORE.INTER.SOLV>
2.28793

>  <SCORE.INTER.VDW>
-8.89142

>  <SCORE.INTER.norm>
0.300488

>  <SCORE.INTRA>
-5.48905

>  <SCORE.INTRA.DIHEDRAL>
-13.5032

>  <SCORE.INTRA.DIHEDRAL.0>
17.7811

>  <SCORE.INTRA.POLAR>
0

>  <SCORE.INTRA.POLAR.0>
0

>  <SCORE.INTRA.REPUL>
0

>  <SCORE.INTRA.REPUL.0>
0

>  <SCORE.INTRA.SOLV>
5.34341

>  <SCORE.INTRA.SOLV.lig_0>
-47.9565

>  <SCORE.INTRA.VDW>
-1.40917

>  <SCORE.INTRA.VDW.0>
0.515983

>  <SCORE.INTRA.norm>
-0.392075

>  <SCORE.RESTR>
0.017462

>  <SCORE.RESTR.CAVITY>
0.017462

>  <SCORE.RESTR.norm>
0.00124729

>  <SCORE.SYSTEM>
0

>  <SCORE.SYSTEM.CONST>
0

>  <SCORE.SYSTEM.DIHEDRAL>
0

>  <SCORE.SYSTEM.SOLV>
0

>  <SCORE.SYSTEM.norm>
0

>  <SCORE.heavy>
14

>  <SCORE.norm>
-0.0903395

>  <RMSD>
2.243

$$$$
1xpf_lig
 OpenBabel02141814123D
libRbt.so/2013.1/901 2013/11/27
 14 13  0  0  0  0  0  0  0  0999 V2000
   17.8905   -3.6208   62.4715 N   0  0  0  0  0  0  0  0  0  0  0  0
   18.4308   -4.1430   63.7131 C   0  0  0  0  0  0  0  0  0  0  0  0
   19.8231   -4.6160   63.5294 C   0  0  0  0  0  0  0  0  0  0  0  0
   20.6595   -3.3990   63.2830 C   0  0  0  0  0  0  0  0  0  0  0  0
   20.8219   -2.7273   64.5956 N   0  0  0  0  0  0  0  0  0  0  0  0
   21.4748   -1.3932   64.4259 C   0  0  0  0  0  0  0  0  0  0  0  0
   20.5767   -0.2167   64.8459 C   0  0  0  0  0  0  0  0  0  0  0  0
   20.1319   -0.2650   66.3184 C   0  0  0  0  0  0  0  0  0  0  0  0
   19.3343    0.9898   66.6399 C   0  0  0  0  0  0  0  0  0  0  0  0
   20.3058    2.0886   66.5380 N   0  0  0  0  0  0  0  0  0  0  0  0
   19.7873    3.4557   66.2520 C   0  0  0  0  0  0  0  0  0  0  0  0
   20.7691    3.8952   65.1443 C   0  0  0  0  0  0  0  0  0  0  0  0
   20.5843    5.2486   64.5061 C   0  0  0  0  0  0  0  0  0  0  0  0
   21.4985    5.5379   63.4150 N   0  0  0  0  0  0  0  0  0  0  0  0
  1  2  1  0  0  0  0
  2  3  1  0  0  0  0
  3  4  1  0  0  0  0
  4  5  1  0  0  0  0
  5  6  1  0  0  0  0
  6  7  1  0  0  0  0
  7  8  1  0  0  0  0
  8  9  1  0  0  0  0
  9 10  1  0  0  0  0
 10 11  1  0  0  0  0
 11 12  1  0  0  0  0
 12 13  1  0  0  0  0
 13 14  1  0  0  0  0
M  END
>  <CHROM.1>
68.50173300,75.34980395,-171.72512768,116.58078644,59.66277802,176.13929872
-66.47984247,155.83712904,-133.59598289,178.05898147,-176.08547903,20.14919370
0.05952388,64.69146421,-2.20373914,1.33637657,0.80472490

>  <Name>
1xpf_lig

>  <RI>
0

>  <Rbt.Current_Directory>
/home/afrankz/demos/rdock_decoys_rna/rnas/1xpf

>  <Rbt.Executable>
rbdock ($Id: //depot/dev/client3/rdock/2013.1/src/exe/rbdock.cxx#4 $)

>  <Rbt.Library>
libRbt.so (2013.1, Build901 2013/11/27)

>  <Rbt.Parameter_File>
/export/apps/rDock/src/rDock_2013.1_src/data/scripts/dock_solv.prm

>  <Rbt.Receptor>
prm/pocket_docking_3.prm

>  <SCORE>
-8.52769

>  <SCORE.INTER>
-1.15187

>  <SCORE.INTER.CONST>
1

>  <SCORE.INTER.POLAR>
0

>  <SCORE.INTER.ROT>
11

>  <SCORE.INTER.SOLV>
6.64312

>  <SCORE.INTER.VDW>
-13.9156

>  <SCORE.INTER.norm>
-0.0822762

>  <SCORE.INTRA>
-7.37764

>  <SCORE.INTRA.DIHEDRAL>
-13.656

>  <SCORE.INTRA.DIHEDRAL.0>
17.7811

>  <SCORE.INTRA.POLAR>
0

>  <SCORE.INTRA.POLAR.0>
0

>  <SCORE.INTRA.REPUL>
0

>  <SCORE.INTRA.REPUL.0>
0

>  <SCORE.INTRA.SOLV>
1.54123

>  <SCORE.INTRA.SOLV.lig_0>
-47.9565

>  <SCORE.INTRA.VDW>
-1.32027

>  <SCORE.INTRA.VDW.0>
0.515983

>  <SCORE.INTRA.norm>
-0.526974

>  <SCORE.RESTR>
0.00181501

>  <SCORE.RESTR.CAVITY>
0.00181501

>  <SCORE.RESTR.norm>
0.000129643

>  <SCORE.SYSTEM>
0

>  <SCORE.SYSTEM.CONST>
0

>  <SCORE.SYSTEM.DIHEDRAL>
0

>  <SCORE.SYSTEM.SOLV>
0

>  <SCORE.SYSTEM.norm>
0

>  <SCORE.heavy>
14

>  <SCORE.norm>
-0.609121

>  <RMSD>
2.280

$$$$
1xpf_lig
 OpenBabel02141814123D
libRbt.so/2013.1/901 2013/11/27
 14 13  0  0  0  0  0  0  0  0999 V2000
   21.1329    5.5207   64.9342 N   0  0  0  0  0  0  0  0  0  0  0  0
   21.0971    4.2478   65.6304 C   0  0  0  0  0  0  0  0  0  0  0  0
   20.0907    3.3414   65.0294 C   0  0  0  0  0  0  0  0  0  0  0  0
   20.1337    2.0703   65.8193 C   0  0  0  0  0  0  0  0  0  0  0  0
   19.2206    1.1203   65.1377 N   0  0  0  0  0  0  0  0  0  0  0  0
   19.1650   -0.1775   65.8776 C   0  0  0  0  0  0  0  0  0  0  0  0
   20.3153   -1.1340   65.5187 C   0  0  0  0  0  0  0  0  0  0  0  0
   20.4470   -1.4148   64.0113 C   0  0  0  0  0  0  0  0  0  0  0  0
   21.4061   -2.5770   63.8024 C   0  0  0  0  0  0  0  0  0  0  0  0
   20.6301   -3.7733   64.1605 N   0  0  0  0  0  0  0  0  0  0  0  0
   19.7595   -4.3806   63.1151 C   0  0  0  0  0  0  0  0  0  0  0  0
   18.5051   -4.7025   63.9559 C   0  0  0  0  0  0  0  0  0  0  0  0
   17.3003   -5.2901   63.2659 C   0  0  0  0  0  0  0  0  0  0  0  0
   16.7183   -4.4492   62.2342 N   0  0  0  0  0  0  0  0  0  0  0  0
  1  2  1  0  0  0  0
  2  3  1  0  0  0  0
  3  4  1  0  0  0  0
  4  5  1  0  0  0  0
  5  6  1  0  0  0  0
  6  7  1  0  0  0  0
  7  8  1  0  0  0  0
  8  9  1  0  0  0  0
  9 10  1  0  0  0  0
 10 11  1  0  0  0  0
 11 12  1  0  0  0  0
 12 13  1  0  0  0  0
 13 14  1  0  0  0  0
M  END
>  <CHROM.1>
-179.84130727,-174.73262536,-178.44154459,-83.70008546,-54.23068060,-168.25412983
76.12920748,84.59216315,-138.18911200,177.08488646,-61.15483587,19.70880068
-0.82863554,64.46391481,1.33185527,-0.17217880,0.20034511

>  <Name>
1xpf_lig

>  <RI>
0

>  <Rbt.Current_Directory>
/home/afrankz/demos/rdock_decoys_rna/rnas/1xpf

>  <Rbt.Executable>
rbdock ($Id: //depot/dev/client3/rdock/2013.1/src/exe/rbdock.cxx#4 $)

>  <Rbt.Library>
libRbt.so (2013.1, Build901 2013/11/27)

>  <Rbt.Parameter_File>
/export/apps/rDock/src/rDock_2013.1_src/data/scripts/dock_solv.prm

>  <Rbt.Receptor>
prm/pocket_docking_3.prm

>  <SCORE>
-8.43276

>  <SCORE.INTER>
-0.152544

>  <SCORE.INTER.CONST>
1

>  <SCORE.INTER.POLAR>
0

>  <SCORE.INTER.ROT>
11

>  <SCORE.INTER.SOLV>
4.38353

>  <SCORE.INTER.VDW>
-12.4962

>  <SCORE.INTER.norm>
-0.010896

>  <SCORE.INTRA>
-8.28183

>  <SCORE.INTRA.DIHEDRAL>
-14.2389

>  <SCORE.INTRA.DIHEDRAL.0>
17.7811

>  <SCORE.INTRA.POLAR>
0

>  <SCORE.INTRA.POLAR.0>
0

>  <SCORE.INTRA.REPUL>
0

>  <SCORE.INTRA.REPUL.0>
0

>  <SCORE.INTRA.SOLV>
0.460163

>  <SCORE.INTRA.SOLV.lig_0>
-47.9565

>  <SCORE.INTRA.VDW>
-1.39247

>  <SCORE.INTRA.VDW.0>
0.515983

>  <SCORE.INTRA.norm>
-0.591559

>  <SCORE.RESTR>
0.00161066

>  <SCORE.RESTR.CAVITY>
0.00161066

>  <SCORE.RESTR.norm>
0.000115047

>  <SCORE.SYSTEM>
0

>  <SCORE.SYSTEM.CONST>
0

>  <SCORE.SYSTEM.DIHEDRAL>
0

>  <SCORE.SYSTEM.SOLV>
0

>  <SCORE.SYSTEM.norm>
0

>  <SCORE.heavy>
14

>  <SCORE.norm>
-0.60234

>  <RMSD>
2.316

$$$$
1xpf_lig
 OpenBabel02141814123D
libRbt.so/2013.1/901 2013/11/27
 14 13  0  0  0  0  0  0  0  0999 V2000
   19.2301    1.9520   61.2076 N   0  0  0  0  0  0  0  0  0  0  0  0
   18.4929    2.9476   61.9636 C   0  0  0  0  0  0  0  0  0  0  0  0
   19.1515    3.2242   63.2619 C   0  0  0  0  0  0  0  0  0  0  0  0
   19.0383    1.9720   64.0746 C   0  0  0  0  0  0  0  0  0  0  0  0
   19.6995    2.2518   65.3727 N   0  0  0  0  0  0  0  0  0  0  0  0
   19.3680    1.1893   66.3709 C   0  0  0  0  0  0  0  0  0  0  0  0
   20.3214   -0.0169   66.3170 C   0  0  0  0  0  0  0  0  0  0  0  0
   20.0773   -0.9532   65.1203 C   0  0  0  0  0  0  0  0  0  0  0  0
   21.1988   -1.9788   65.0523 C   0  0  0  0  0  0  0  0  0  0  0  0
   20.6540   -3.0779   64.2421 N   0  0  0  0  0  0  0  0  0  0  0  0
   20.6471   -2.9176   62.7609 C   0  0  0  0  0  0  0  0  0  0  0  0
   19.1777   -3.2783   62.4528 C   0  0  0  0  0  0  0  0  0  0  0  0
   18.6854   -4.6636   62.7865 C   0  0  0  0  0  0  0  0  0  0  0  0
   17.2948   -4.9140   62.4494 N   0  0  0  0  0  0  0  0  0  0  0  0
  1  2  1  0  0  0  0
  2  3  1  0  0  0  0
  3  4  1  0  0  0  0
  4  5  1  0  0  0  0
  5  6  1  0  0  0  0
  6  7  1  0  0  0  0
  7  8  1  0  0  0  0
  8  9  1  0  0  0  0
  9 10  1  0  0  0  0
 10 11  1  0  0  0  0
 11 12  1  0  0  0  0
 12 13  1  0  0  0  0
 13 14  1  0  0  0  0
M  END
>  <CHROM.1>
-66.60727583,179.94961472,166.77703417,87.22157164,-75.32207904,171.50355748
160.02955431,79.79019905,-129.59782531,-62.15910547,-179.44159106,19.50274907
-0.59011624,63.81680985,1.54543854,-1.15839772,0.09624688

>  <Name>
1xpf_lig

>  <RI>
0

>  <Rbt.Current_Directory>
/home/afrankz/demos/rdock_decoys_rna/rnas/1xpf

>  <Rbt.Executable>
rbdock ($Id: //depot/dev/client3/rdock/2013.1/src/exe/rbdock.cxx#4 $)

>  <Rbt.Library>
libRbt.so (2013.1, Build901 2013/11/27)

>  <Rbt.Parameter_File>
/export/apps/rDock/src/rDock_2013.1_src/data/scripts/dock_solv.prm

>  <Rbt.Receptor>
prm/pocket_docking_4.prm

>  <SCORE>
-6.38093

>  <SCORE.INTER>
0.476312

>  <SCORE.INTER.CONST>
1

>  <SCORE.INTER.POLAR>
0

>  <SCORE.INTER.ROT>
11

>  <SCORE.INTER.SOLV>
7.7045

>  <SCORE.INTER.VDW>
-13.184

>  <SCORE.INTER.norm>
0.0340223

>  <SCORE.INTRA>
-6.85725

>  <SCORE.INTRA.DIHEDRAL>
-13.0117

>  <SCORE.INTRA.DIHEDRAL.0>
17.7811

>  <SCORE.INTRA.POLAR>
0

>  <SCORE.INTRA.POLAR.0>
0

>  <SCORE.INTRA.REPUL>
0

>  <SCORE.INTRA.REPUL.0>
0

>  <SCORE.INTRA.SOLV>
0.757734

>  <SCORE.INTRA.SOLV.lig_0>
-47.9565

>  <SCORE.INTRA.VDW>
-0.730252

>  <SCORE.INTRA.VDW.0>
0.515983

>  <SCORE.INTRA.norm>
-0.489803

>  <SCORE.RESTR>
0

>  <SCORE.RESTR.CAVITY>
0

>  <SCORE.RESTR.norm>
0

>  <SCORE.SYSTEM>
0

>  <SCORE.SYSTEM.CONST>
0

>  <SCORE.SYSTEM.DIHEDRAL>
0

>  <SCORE.SYSTEM.SOLV>
0

>  <SCORE.SYSTEM.norm>
0

>  <SCORE.heavy>
14

>  <SCORE.norm>
-0.455781

>  <RMSD>
2.329

$$$$
1xpf_lig
 OpenBabel02141814123D
libRbt.so/2013.1/901 2013/11/27
 14 13  0  0  0  0  0  0  0  0999 V2000
   22.1754    2.7978   58.8331 N   0  0  0  0  0  0  0  0  0  0  0  0
   22.1304    2.8694   60.2819 C   0  0  0  0  0  0  0  0  0  0  0  0
   21.0346    2.0307   60.8217 C   0  0  0  0  0  0  0  0  0  0  0  0
   21.1400    2.0970   62.3136 C   0  0  0  0  0  0  0  0  0  0  0  0
   20.0566    1.2376   62.8506 N   0  0  0  0  0  0  0  0  0  0  0  0
   20.1554    1.1361   64.3388 C   0  0  0  0  0  0  0  0  0  0  0  0
   20.2469   -0.3133   64.8465 C   0  0  0  0  0  0  0  0  0  0  0  0
   21.5469   -1.0341   64.4476 C   0  0  0  0  0  0  0  0  0  0  0  0
   21.3961   -2.5228   64.7215 C   0  0  0  0  0  0  0  0  0  0  0  0
   20.6661   -3.0467   63.5578 N   0  0  0  0  0  0  0  0  0  0  0  0
   19.1991   -3.2675   63.6943 C   0  0  0  0  0  0  0  0  0  0  0  0
   19.0562   -4.6202   62.9637 C   0  0  0  0  0  0  0  0  0  0  0  0
   17.6783   -5.2044   62.7814 C   0  0  0  0  0  0  0  0  0  0  0  0
   16.7851   -4.4124   61.9537 N   0  0  0  0  0  0  0  0  0  0  0  0
  1  2  1  0  0  0  0
  2  3  1  0  0  0  0
  3  4  1  0  0  0  0
  4  5  1  0  0  0  0
  5  6  1  0  0  0  0
  6  7  1  0  0  0  0
  7  8  1  0  0  0  0
  8  9  1  0  0  0  0
  9 10  1  0  0  0  0
 10 11  1  0  0  0  0
 11 12  1  0  0  0  0
 12 13  1  0  0  0  0
 13 14  1  0  0  0  0
M  END
>  <CHROM.1>
175.97873903,-179.03188180,174.76450487,-124.14656985,66.73428278,-167.34634580
81.75243088,-99.38911493,-138.34729966,-176.26256768,63.65999750,20.23349617
-0.87519427,62.74368674,0.75102615,-1.01643600,-1.07073847

>  <Name>
1xpf_lig

>  <RI>
0

>  <Rbt.Current_Directory>
/home/afrankz/demos/rdock_decoys_rna/rnas/1xpf

>  <Rbt.Executable>
rbdock ($Id: //depot/dev/client3/rdock/2013.1/src/exe/rbdock.cxx#4 $)

>  <Rbt.Library>
libRbt.so (2013.1, Build901 2013/11/27)

>  <Rbt.Parameter_File>
/export/apps/rDock/src/rDock_2013.1_src/data/scripts/dock_solv.prm

>  <Rbt.Receptor>
prm/pocket_docking_4.prm

>  <SCORE>
-8.04327

>  <SCORE.INTER>
-0.367354

>  <SCORE.INTER.CONST>
1

>  <SCORE.INTER.POLAR>
-1.01325

>  <SCORE.INTER.ROT>
11

>  <SCORE.INTER.SOLV>
7.98804

>  <SCORE.INTER.VDW>
-10.4634

>  <SCORE.INTER.norm>
-0.0262396

>  <SCORE.INTRA>
-7.6783

>  <SCORE.INTRA.DIHEDRAL>
-12.156

>  <SCORE.INTRA.DIHEDRAL.0>
17.7811

>  <SCORE.INTRA.POLAR>
0

>  <SCORE.INTRA.POLAR.0>
0

>  <SCORE.INTRA.REPUL>
0

>  <SCORE.INTRA.REPUL.0>
0

>  <SCORE.INTRA.SOLV>
0.430454

>  <SCORE.INTRA.SOLV.lig_0>
-47.9565

>  <SCORE.INTRA.VDW>
-1.81552

>  <SCORE.INTRA.VDW.0>
0.515983

>  <SCORE.INTRA.norm>
-0.54845

>  <SCORE.RESTR>
0.00238952

>  <SCORE.RESTR.CAVITY>
0.00238952

>  <SCORE.RESTR.norm>
0.00017068

>  <SCORE.SYSTEM>
0

>  <SCORE.SYSTEM.CONST>
0

>  <SCORE.SYSTEM.DIHEDRAL>
0

>  <SCORE.SYSTEM.SOLV>
0

>  <SCORE.SYSTEM.norm>
0

>  <SCORE.heavy>
14

>  <SCORE.norm>
-0.574519

>  <RMSD>
2.337

$$$$
1xpf_lig
 OpenBabel02141814123D
libRbt.so/2013.1/901 2013/11/27
 14 13  0  0  0  0  0  0  0  0999 V2000
   21.8620    3.8084   60.6568 N   0  0  0  0  0  0  0  0  0  0  0  0
   21.6293    3.9343   62.0838 C   0  0  0  0  0  0  0  0  0  0  0  0
   20.7185    5.0661   62.3759 C   0  0  0  0  0  0  0  0  0  0  0  0
   20.5175    5.0817   63.8594 C   0  0  0  0  0  0  0  0  0  0  0  0
   19.6636    3.9119   64.1806 N   0  0  0  0  0  0  0  0  0  0  0  0
   19.9445    3.4206   65.5643 C   0  0  0  0  0  0  0  0  0  0  0  0
   19.7024    1.9110   65.7364 C   0  0  0  0  0  0  0  0  0  0  0  0
   20.4192    1.0400   64.6895 C   0  0  0  0  0  0  0  0  0  0  0  0
   20.1148   -0.4245   64.9663 C   0  0  0  0  0  0  0  0  0  0  0  0
   20.9237   -1.1674   63.9889 N   0  0  0  0  0  0  0  0  0  0  0  0
   20.8483   -2.6552   64.0058 C   0  0  0  0  0  0  0  0  0  0  0  0
   19.7469   -2.8859   62.9484 C   0  0  0  0  0  0  0  0  0  0  0  0
   19.2226   -4.2840   62.7402 C   0  0  0  0  0  0  0  0  0  0  0  0
   18.4883   -4.8338   63.8666 N   0  0  0  0  0  0  0  0  0  0  0  0
  1  2  1  0  0  0  0
  2  3  1  0  0  0  0
  3  4  1  0  0  0  0
  4  5  1  0  0  0  0
  5  6  1  0  0  0  0
  6  7  1  0  0  0  0
  7  8  1  0  0  0  0
  8  9  1  0  0  0  0
  9 10  1  0  0  0  0
 10 11  1  0  0  0  0
 11 12  1  0  0  0  0
 12 13  1  0  0  0  0
 13 14  1  0  0  0  0
M  END
>  <CHROM.1>
178.45944216,-71.81233094,151.47779804,-150.65309686,51.95687681,179.59811734
-175.63001411,179.80170239,93.62847814,-173.24854587,66.61187290,20.27155603
0.85182895,63.69041825,-1.13311544,-1.21167953,-2.78582357

>  <Name>
1xpf_lig

>  <RI>
0

>  <Rbt.Current_Directory>
/home/afrankz/demos/rdock_decoys_rna/rnas/1xpf

>  <Rbt.Executable>
rbdock ($Id: //depot/dev/client3/rdock/2013.1/src/exe/rbdock.cxx#4 $)

>  <Rbt.Library>
libRbt.so (2013.1, Build901 2013/11/27)

>  <Rbt.Parameter_File>
/export/apps/rDock/src/rDock_2013.1_src/data/scripts/dock_solv.prm

>  <Rbt.Receptor>
prm/pocket_docking_2.prm

>  <SCORE>
-4.10136

>  <SCORE.INTER>
4.44349

>  <SCORE.INTER.CONST>
1

>  <SCORE.INTER.POLAR>
0

>  <SCORE.INTER.ROT>
11

>  <SCORE.INTER.SOLV>
6.86957

>  <SCORE.INTER.VDW>
-10.2609

>  <SCORE.INTER.norm>
0.317392

>  <SCORE.INTRA>
-8.60487

>  <SCORE.INTRA.DIHEDRAL>
-14.7662

>  <SCORE.INTRA.DIHEDRAL.0>
17.7811

>  <SCORE.INTRA.POLAR>
0

>  <SCORE.INTRA.POLAR.0>
0

>  <SCORE.INTRA.REPUL>
0

>  <SCORE.INTRA.REPUL.0>
0

>  <SCORE.INTRA.SOLV>
0.59856

>  <SCORE.INTRA.SOLV.lig_0>
-47.9565

>  <SCORE.INTRA.VDW>
-1.52106

>  <SCORE.INTRA.VDW.0>
0.515983

>  <SCORE.INTRA.norm>
-0.614634

>  <SCORE.RESTR>
0.0600273

>  <SCORE.RESTR.CAVITY>
0.0600273

>  <SCORE.RESTR.norm>
0.00428766

>  <SCORE.SYSTEM>
0

>  <SCORE.SYSTEM.CONST>
0

>  <SCORE.SYSTEM.DIHEDRAL>
0

>  <SCORE.SYSTEM.SOLV>
0

>  <SCORE.SYSTEM.norm>
0

>  <SCORE.heavy>
14

>  <SCORE.norm>
-0.292954

>  <RMSD>
2.362

$$$$
1xpf_lig
 OpenBabel02141814123D
libRbt.so/2013.1/901 2013/11/27
 14 13  0  0  0  0  0  0  0  0999 V2000
   15.1251   -7.0500   63.4345 N   0  0  0  0  0  0  0  0  0  0  0  0
   16.3515   -6.5264   62.8619 C   0  0  0  0  0  0  0  0  0  0  0  0
   16.9671   -5.5175   63.7557 C   0  0  0  0  0  0  0  0  0  0  0  0
   18.1826   -5.0039   63.0484 C   0  0  0  0  0  0  0  0  0  0  0  0
   18.8495   -4.0663   63.9847 N   0  0  0  0  0  0  0  0  0  0  0  0
   20.1509   -3.5959   63.4192 C   0  0  0  0  0  0  0  0  0  0  0  0
   20.8263   -2.5051   64.2682 C   0  0  0  0  0  0  0  0  0  0  0  0
   19.9510   -1.2601   64.4970 C   0  0  0  0  0  0  0  0  0  0  0  0
   20.5975   -0.3843   65.5596 C   0  0  0  0  0  0  0  0  0  0  0  0
   19.6831    0.7567   65.7129 N   0  0  0  0  0  0  0  0  0  0  0  0
   19.9414    1.9744   64.8943 C   0  0  0  0  0  0  0  0  0  0  0  0
   20.4273    2.9451   65.9924 C   0  0  0  0  0  0  0  0  0  0  0  0
   20.9904    4.2819   65.5817 C   0  0  0  0  0  0  0  0  0  0  0  0
   20.0637    5.1387   64.8625 N   0  0  0  0  0  0  0  0  0  0  0  0
  1  2  1  0  0  0  0
  2  3  1  0  0  0  0
  3  4  1  0  0  0  0
  4  5  1  0  0  0  0
  5  6  1  0  0  0  0
  6  7  1  0  0  0  0
  7  8  1  0  0  0  0
  8  9  1  0  0  0  0
  9 10  1  0  0  0  0
 10 11  1  0  0  0  0
 11 12  1  0  0  0  0
 12 13  1  0  0  0  0
 13 14  1  0  0  0  0
M  END
>  <CHROM.1>
-177.60628297,-176.07258987,174.58874108,173.82904187,-56.93396867,168.88195311
-179.31630820,-92.72649733,-109.00368778,171.74743815,61.14024718,19.15082948
-1.48669346,64.41946429,1.92178220,0.05984355,-2.94216468

>  <Name>
1xpf_lig

>  <RI>
0

>  <Rbt.Current_Directory>
/home/afrankz/demos/rdock_decoys_rna/rnas/1xpf

>  <Rbt.Executable>
rbdock ($Id: //depot/dev/client3/rdock/2013.1/src/exe/rbdock.cxx#4 $)

>  <Rbt.Library>
libRbt.so (2013.1, Build901 2013/11/27)

>  <Rbt.Parameter_File>
/export/apps/rDock/src/rDock_2013.1_src/data/scripts/dock_solv.prm

>  <Rbt.Receptor>
prm/pocket_docking_3.prm

>  <SCORE>
-7.57333

>  <SCORE.INTER>
1.42712

>  <SCORE.INTER.CONST>
1

>  <SCORE.INTER.POLAR>
0

>  <SCORE.INTER.ROT>
11

>  <SCORE.INTER.SOLV>
5.0818

>  <SCORE.INTER.VDW>
-11.6759

>  <SCORE.INTER.norm>
0.101937

>  <SCORE.INTRA>
-9.00045

>  <SCORE.INTRA.DIHEDRAL>
-15.0578

>  <SCORE.INTRA.DIHEDRAL.0>
17.7811

>  <SCORE.INTRA.POLAR>
0

>  <SCORE.INTRA.POLAR.0>
0

>  <SCORE.INTRA.REPUL>
0

>  <SCORE.INTRA.REPUL.0>
0

>  <SCORE.INTRA.SOLV>
0.0782717

>  <SCORE.INTRA.SOLV.lig_0>
-47.9565

>  <SCORE.INTRA.VDW>
-1.51068

>  <SCORE.INTRA.VDW.0>
0.515983

>  <SCORE.INTRA.norm>
-0.642889

>  <SCORE.RESTR>
0

>  <SCORE.RESTR.CAVITY>
0

>  <SCORE.RESTR.norm>
0

>  <SCORE.SYSTEM>
0

>  <SCORE.SYSTEM.CONST>
0

>  <SCORE.SYSTEM.DIHEDRAL>
0

>  <SCORE.SYSTEM.SOLV>
0

>  <SCORE.SYSTEM.norm>
0

>  <SCORE.heavy>
14

>  <SCORE.norm>
-0.540952

>  <RMSD>
2.369

$$$$
1xpf_lig
 OpenBabel02141814123D
libRbt.so/2013.1/901 2013/11/27
 14 13  0  0  0  0  0  0  0  0999 V2000
   18.0734   -4.5716   63.7903 N   0  0  0  0  0  0  0  0  0  0  0  0
   19.3022   -4.6132   63.0193 C   0  0  0  0  0  0  0  0  0  0  0  0
   20.4164   -3.9763   63.7601 C   0  0  0  0  0  0  0  0  0  0  0  0
   20.0783   -2.5223   63.8746 C   0  0  0  0  0  0  0  0  0  0  0  0
   21.2065   -1.8836   64.5956 N   0  0  0  0  0  0  0  0  0  0  0  0
   20.7361   -0.6787   65.3453 C   0  0  0  0  0  0  0  0  0  0  0  0
   20.3685    0.5032   64.4314 C   0  0  0  0  0  0  0  0  0  0  0  0
   20.0290    1.7979   65.1909 C   0  0  0  0  0  0  0  0  0  0  0  0
   19.5446    2.8452   64.1995 C   0  0  0  0  0  0  0  0  0  0  0  0
   20.7195    3.1482   63.3693 N   0  0  0  0  0  0  0  0  0  0  0  0
   20.8733    4.5386   62.8566 C   0  0  0  0  0  0  0  0  0  0  0  0
   21.7132    4.2719   61.5887 C   0  0  0  0  0  0  0  0  0  0  0  0
   21.0960    3.4824   60.4623 C   0  0  0  0  0  0  0  0  0  0  0  0
   21.8746    3.4590   59.2362 N   0  0  0  0  0  0  0  0  0  0  0  0
  1  2  1  0  0  0  0
  2  3  1  0  0  0  0
  3  4  1  0  0  0  0
  4  5  1  0  0  0  0
  5  6  1  0  0  0  0
  6  7  1  0  0  0  0
  7  8  1  0  0  0  0
  8  9  1  0  0  0  0
  9 10  1  0  0  0  0
 10 11  1  0  0  0  0
 11 12  1  0  0  0  0
 12 13  1  0  0  0  0
 13 14  1  0  0  0  0
M  END
>  <CHROM.1>
-66.11576094,-179.03190718,-151.96363023,-71.06116412,-173.72574534,-174.15587316
-66.42578964,-146.75065516,-153.75524563,65.39021584,170.82701929,20.43081026
0.41450940,63.26593138,-2.55358207,1.33961792,0.68727127

>  <Name>
1xpf_lig

>  <RI>
0

>  <Rbt.Current_Directory>
/home/afrankz/demos/rdock_decoys_rna/rnas/1xpf

>  <Rbt.Executable>
rbdock ($Id: //depot/dev/client3/rdock/2013.1/src/exe/rbdock.cxx#4 $)

>  <Rbt.Library>
libRbt.so (2013.1, Build901 2013/11/27)

>  <Rbt.Parameter_File>
/export/apps/rDock/src/rDock_2013.1_src/data/scripts/dock_solv.prm

>  <Rbt.Receptor>
prm/pocket_docking_3.prm

>  <SCORE>
-7.36036

>  <SCORE.INTER>
0.274519

>  <SCORE.INTER.CONST>
1

>  <SCORE.INTER.POLAR>
-0.626182

>  <SCORE.INTER.ROT>
11

>  <SCORE.INTER.SOLV>
9.97604

>  <SCORE.INTER.VDW>
-11.9884

>  <SCORE.INTER.norm>
0.0196085

>  <SCORE.INTRA>
-7.63488

>  <SCORE.INTRA.DIHEDRAL>
-14.9506

>  <SCORE.INTRA.DIHEDRAL.0>
17.7811

>  <SCORE.INTRA.POLAR>
0

>  <SCORE.INTRA.POLAR.0>
0

>  <SCORE.INTRA.REPUL>
0

>  <SCORE.INTRA.REPUL.0>
0

>  <SCORE.INTRA.SOLV>
0.77973

>  <SCORE.INTRA.SOLV.lig_0>
-47.9565

>  <SCORE.INTRA.VDW>
-0.549437

>  <SCORE.INTRA.VDW.0>
0.515983

>  <SCORE.INTRA.norm>
-0.545349

>  <SCORE.RESTR>
0

>  <SCORE.RESTR.CAVITY>
0

>  <SCORE.RESTR.norm>
0

>  <SCORE.SYSTEM>
0

>  <SCORE.SYSTEM.CONST>
0

>  <SCORE.SYSTEM.DIHEDRAL>
0

>  <SCORE.SYSTEM.SOLV>
0

>  <SCORE.SYSTEM.norm>
0

>  <SCORE.heavy>
14

>  <SCORE.norm>
-0.52574

>  <RMSD>
2.396

$$$$
1xpf_lig
 OpenBabel02141814123D
libRbt.so/2013.1/901 2013/11/27
 14 13  0  0  0  0  0  0  0  0999 V2000
   17.8470   -4.1187   62.6829 N   0  0  0  0  0  0  0  0  0  0  0  0
   18.7382   -3.4510   63.6137 C   0  0  0  0  0  0  0  0  0  0  0  0
   20.1448   -3.8590   63.3884 C   0  0  0  0  0  0  0  0  0  0  0  0
   20.9818   -3.0457   64.3261 C   0  0  0  0  0  0  0  0  0  0  0  0
   20.9354   -1.6492   63.8279 N   0  0  0  0  0  0  0  0  0  0  0  0
   20.2707   -0.7569   64.8264 C   0  0  0  0  0  0  0  0  0  0  0  0
   20.6027    0.7324   64.6297 C   0  0  0  0  0  0  0  0  0  0  0  0
   19.8021    1.6769   65.5437 C   0  0  0  0  0  0  0  0  0  0  0  0
   20.4848    3.0359   65.5773 C   0  0  0  0  0  0  0  0  0  0  0  0
   20.5019    3.4822   64.1766 N   0  0  0  0  0  0  0  0  0  0  0  0
   21.4930    4.5240   63.7869 C   0  0  0  0  0  0  0  0  0  0  0  0
   20.5437    5.6975   63.4613 C   0  0  0  0  0  0  0  0  0  0  0  0
   21.1362    7.0590   63.2003 C   0  0  0  0  0  0  0  0  0  0  0  0
   21.9617    7.1462   62.0081 N   0  0  0  0  0  0  0  0  0  0  0  0
  1  2  1  0  0  0  0
  2  3  1  0  0  0  0
  3  4  1  0  0  0  0
  4  5  1  0  0  0  0
  5  6  1  0  0  0  0
  6  7  1  0  0  0  0
  7  8  1  0  0  0  0
  8  9  1  0  0  0  0
  9 10  1  0  0  0  0
 10 11  1  0  0  0  0
 11 12  1  0  0  0  0
 12 13  1  0  0  0  0
 13 14  1  0  0  0  0
M  END
>  <CHROM.1>
176.04993665,-69.69596351,116.05778489,160.09991749,173.32740705,163.01649807
59.07991461,-159.10990532,-113.11302446,171.32609387,65.28854021,20.38889374
1.17667972,63.93238618,2.50452168,1.35233525,2.18760861

>  <Name>
1xpf_lig

>  <RI>
0

>  <Rbt.Current_Directory>
/home/afrankz/demos/rdock_decoys_rna/rnas/1xpf

>  <Rbt.Executable>
rbdock ($Id: //depot/dev/client3/rdock/2013.1/src/exe/rbdock.cxx#4 $)

>  <Rbt.Library>
libRbt.so (2013.1, Build901 2013/11/27)

>  <Rbt.Parameter_File>
/export/apps/rDock/src/rDock_2013.1_src/data/scripts/dock_solv.prm

>  <Rbt.Receptor>
prm/pocket_docking_3.prm

>  <SCORE>
-6.54186

>  <SCORE.INTER>
0.14601

>  <SCORE.INTER.CONST>
1

>  <SCORE.INTER.POLAR>
-0.715531

>  <SCORE.INTER.ROT>
11

>  <SCORE.INTER.SOLV>
7.33261

>  <SCORE.INTER.VDW>
-10.8951

>  <SCORE.INTER.norm>
0.0104293

>  <SCORE.INTRA>
-6.73407

>  <SCORE.INTRA.DIHEDRAL>
-12.7166

>  <SCORE.INTRA.DIHEDRAL.0>
17.7811

>  <SCORE.INTRA.POLAR>
0

>  <SCORE.INTRA.POLAR.0>
0

>  <SCORE.INTRA.REPUL>
0

>  <SCORE.INTRA.REPUL.0>
0

>  <SCORE.INTRA.SOLV>
0.778494

>  <SCORE.INTRA.SOLV.lig_0>
-47.9565

>  <SCORE.INTRA.VDW>
-0.765034

>  <SCORE.INTRA.VDW.0>
0.515983

>  <SCORE.INTRA.norm>
-0.481005

>  <SCORE.RESTR>
0.0461988

>  <SCORE.RESTR.CAVITY>
0.0461988

>  <SCORE.RESTR.norm>
0.00329991

>  <SCORE.SYSTEM>
0

>  <SCORE.SYSTEM.CONST>
0

>  <SCORE.SYSTEM.DIHEDRAL>
0

>  <SCORE.SYSTEM.SOLV>
0

>  <SCORE.SYSTEM.norm>
0

>  <SCORE.heavy>
14

>  <SCORE.norm>
-0.467275

>  <RMSD>
2.410

$$$$
1xpf_lig
 OpenBabel02141814123D
libRbt.so/2013.1/901 2013/11/27
 14 13  0  0  0  0  0  0  0  0999 V2000
   17.3457   -4.5642   62.3887 N   0  0  0  0  0  0  0  0  0  0  0  0
   18.6336   -4.7328   63.0360 C   0  0  0  0  0  0  0  0  0  0  0  0
   19.4484   -3.4998   62.9278 C   0  0  0  0  0  0  0  0  0  0  0  0
   20.7128   -3.7543   63.6880 C   0  0  0  0  0  0  0  0  0  0  0  0
   21.3561   -2.4327   63.8889 N   0  0  0  0  0  0  0  0  0  0  0  0
   20.7941   -1.7528   65.0959 C   0  0  0  0  0  0  0  0  0  0  0  0
   19.7363   -0.6877   64.7589 C   0  0  0  0  0  0  0  0  0  0  0  0
   18.9109   -0.2215   65.9713 C   0  0  0  0  0  0  0  0  0  0  0  0
   19.8324    0.4659   66.9675 C   0  0  0  0  0  0  0  0  0  0  0  0
   20.3738    1.6238   66.2411 N   0  0  0  0  0  0  0  0  0  0  0  0
   19.8069    2.9675   66.5455 C   0  0  0  0  0  0  0  0  0  0  0  0
   20.9252    3.8709   65.9820 C   0  0  0  0  0  0  0  0  0  0  0  0
   21.2676    3.7734   64.5170 C   0  0  0  0  0  0  0  0  0  0  0  0
   20.1852    4.1230   63.6135 N   0  0  0  0  0  0  0  0  0  0  0  0
  1  2  1  0  0  0  0
  2  3  1  0  0  0  0
  3  4  1  0  0  0  0
  4  5  1  0  0  0  0
  5  6  1  0  0  0  0
  6  7  1  0  0  0  0
  7  8  1  0  0  0  0
  8  9  1  0  0  0  0
  9 10  1  0  0  0  0
 10 11  1  0  0  0  0
 11 12  1  0  0  0  0
 12 13  1  0  0  0  0
 13 14  1  0  0  0  0
M  END
>  <CHROM.1>
176.89743708,-165.27200039,84.60104751,-100.02247763,166.10960446,63.87420813
61.77719286,102.93101120,161.57388859,60.19680979,61.98196388,19.95212194
-0.34439552,64.68755973,-2.98259375,1.39683371,1.71939994

>  <Name>
1xpf_lig

>  <RI>
0

>  <Rbt.Current_Directory>
/home/afrankz/demos/rdock_decoys_rna/rnas/1xpf

>  <Rbt.Executable>
rbdock ($Id: //depot/dev/client3/rdock/2013.1/src/exe/rbdock.cxx#4 $)

>  <Rbt.Library>
libRbt.so (2013.1, Build901 2013/11/27)

>  <Rbt.Parameter_File>
/export/apps/rDock/src/rDock_2013.1_src/data/scripts/dock_solv.prm

>  <Rbt.Receptor>
prm/pocket_docking_3.prm

>  <SCORE>
-7.53283

>  <SCORE.INTER>
-1.4354

>  <SCORE.INTER.CONST>
1

>  <SCORE.INTER.POLAR>
0

>  <SCORE.INTER.ROT>
11

>  <SCORE.INTER.SOLV>
6.51676

>  <SCORE.INTER.VDW>
-14.0625

>  <SCORE.INTER.norm>
-0.102528

>  <SCORE.INTRA>
-6.09743

>  <SCORE.INTRA.DIHEDRAL>
-13.6085

>  <SCORE.INTRA.DIHEDRAL.0>
17.7811

>  <SCORE.INTRA.POLAR>
0

>  <SCORE.INTRA.POLAR.0>
0

>  <SCORE.INTRA.REPUL>
0

>  <SCORE.INTRA.REPUL.0>
0

>  <SCORE.INTRA.SOLV>
1.50864

>  <SCORE.INTRA.SOLV.lig_0>
-47.9565

>  <SCORE.INTRA.VDW>
-0.047497

>  <SCORE.INTRA.VDW.0>
0.515983

>  <SCORE.INTRA.norm>
-0.435531

>  <SCORE.RESTR>
0

>  <SCORE.RESTR.CAVITY>
0

>  <SCORE.RESTR.norm>
0

>  <SCORE.SYSTEM>
0

>  <SCORE.SYSTEM.CONST>
0

>  <SCORE.SYSTEM.DIHEDRAL>
0

>  <SCORE.SYSTEM.SOLV>
0

>  <SCORE.SYSTEM.norm>
0

>  <SCORE.heavy>
14

>  <SCORE.norm>
-0.538059

>  <RMSD>
2.423

$$$$
1xpf_lig
 OpenBabel02141814123D
libRbt.so/2013.1/901 2013/11/27
 14 13  0  0  0  0  0  0  0  0999 V2000
   22.3085    3.7529   58.9214 N   0  0  0  0  0  0  0  0  0  0  0  0
   21.9535    4.2892   60.2224 C   0  0  0  0  0  0  0  0  0  0  0  0
   21.4166    3.2279   61.1063 C   0  0  0  0  0  0  0  0  0  0  0  0
   22.5861    2.4001   61.5402 C   0  0  0  0  0  0  0  0  0  0  0  0
   22.0284    1.2266   62.2562 N   0  0  0  0  0  0  0  0  0  0  0  0
   23.1061    0.2366   62.5616 C   0  0  0  0  0  0  0  0  0  0  0  0
   22.5678   -1.1574   62.9277 C   0  0  0  0  0  0  0  0  0  0  0  0
   21.7703   -1.1933   64.2435 C   0  0  0  0  0  0  0  0  0  0  0  0
   21.3880   -2.6322   64.5559 C   0  0  0  0  0  0  0  0  0  0  0  0
   20.4240   -3.0004   63.5088 N   0  0  0  0  0  0  0  0  0  0  0  0
   19.7493   -4.3246   63.6141 C   0  0  0  0  0  0  0  0  0  0  0  0
   18.7015   -4.1888   62.4882 C   0  0  0  0  0  0  0  0  0  0  0  0
   17.6939   -5.2940   62.2976 C   0  0  0  0  0  0  0  0  0  0  0  0
   16.7171   -5.4191   63.3655 N   0  0  0  0  0  0  0  0  0  0  0  0
  1  2  1  0  0  0  0
  2  3  1  0  0  0  0
  3  4  1  0  0  0  0
  4  5  1  0  0  0  0
  5  6  1  0  0  0  0
  6  7  1  0  0  0  0
  7  8  1  0  0  0  0
  8  9  1  0  0  0  0
  9 10  1  0  0  0  0
 10 11  1  0  0  0  0
 11 12  1  0  0  0  0
 12 13  1  0  0  0  0
 13 14  1  0  0  0  0
M  END
>  <CHROM.1>
74.56232402,-171.80994279,171.93033770,-163.42570480,-65.76759534,-175.49709325
-67.67366763,-174.01933354,171.27922055,-175.31329921,68.68831527,20.88672680
-0.86262223,62.40082359,1.05435282,-0.58362225,-0.62275072

>  <Name>
1xpf_lig

>  <RI>
0

>  <Rbt.Current_Directory>
/home/afrankz/demos/rdock_decoys_rna/rnas/1xpf

>  <Rbt.Executable>
rbdock ($Id: //depot/dev/client3/rdock/2013.1/src/exe/rbdock.cxx#4 $)

>  <Rbt.Library>
libRbt.so (2013.1, Build901 2013/11/27)

>  <Rbt.Parameter_File>
/export/apps/rDock/src/rDock_2013.1_src/data/scripts/dock_solv.prm

>  <Rbt.Receptor>
prm/pocket_docking_3.prm

>  <SCORE>
-9.27742

>  <SCORE.INTER>
-0.608917

>  <SCORE.INTER.CONST>
1

>  <SCORE.INTER.POLAR>
-0.907116

>  <SCORE.INTER.ROT>
11

>  <SCORE.INTER.SOLV>
7.57966

>  <SCORE.INTER.VDW>
-10.8421

>  <SCORE.INTER.norm>
-0.0434941

>  <SCORE.INTRA>
-8.67462

>  <SCORE.INTRA.DIHEDRAL>
-15.6187

>  <SCORE.INTRA.DIHEDRAL.0>
17.7811

>  <SCORE.INTRA.POLAR>
0

>  <SCORE.INTRA.POLAR.0>
0

>  <SCORE.INTRA.REPUL>
0

>  <SCORE.INTRA.REPUL.0>
0

>  <SCORE.INTRA.SOLV>
1.2128

>  <SCORE.INTRA.SOLV.lig_0>
-47.9565

>  <SCORE.INTRA.VDW>
-1.47166

>  <SCORE.INTRA.VDW.0>
0.515983

>  <SCORE.INTRA.norm>
-0.619616

>  <SCORE.RESTR>
0.00611778

>  <SCORE.RESTR.CAVITY>
0.00611778

>  <SCORE.RESTR.norm>
0.000436984

>  <SCORE.SYSTEM>
0

>  <SCORE.SYSTEM.CONST>
0

>  <SCORE.SYSTEM.DIHEDRAL>
0

>  <SCORE.SYSTEM.SOLV>
0

>  <SCORE.SYSTEM.norm>
0

>  <SCORE.heavy>
14

>  <SCORE.norm>
-0.662673

>  <RMSD>
2.452

$$$$
1xpf_lig
 OpenBabel02141814123D
libRbt.so/2013.1/901 2013/11/27
 14 13  0  0  0  0  0  0  0  0999 V2000
   16.9502   -4.1676   63.3886 N   0  0  0  0  0  0  0  0  0  0  0  0
   18.1831   -4.9305   63.4520 C   0  0  0  0  0  0  0  0  0  0  0  0
   19.2926   -4.2035   62.7913 C   0  0  0  0  0  0  0  0  0  0  0  0
   19.5944   -3.0134   63.6480 C   0  0  0  0  0  0  0  0  0  0  0  0
   20.6048   -2.2124   62.9144 N   0  0  0  0  0  0  0  0  0  0  0  0
   19.9416   -1.1483   62.1003 C   0  0  0  0  0  0  0  0  0  0  0  0
   19.3698    0.0009   62.9484 C   0  0  0  0  0  0  0  0  0  0  0  0
   18.6029    1.0572   62.1331 C   0  0  0  0  0  0  0  0  0  0  0  0
   17.9384    2.0380   63.0874 C   0  0  0  0  0  0  0  0  0  0  0  0
   19.0531    2.7292   63.7518 N   0  0  0  0  0  0  0  0  0  0  0  0
   19.7031    3.8599   63.0318 C   0  0  0  0  0  0  0  0  0  0  0  0
   20.2685    4.6572   64.2272 C   0  0  0  0  0  0  0  0  0  0  0  0
   19.3091    5.2036   65.2538 C   0  0  0  0  0  0  0  0  0  0  0  0
   19.9350    5.9107   66.3576 N   0  0  0  0  0  0  0  0  0  0  0  0
  1  2  1  0  0  0  0
  2  3  1  0  0  0  0
  3  4  1  0  0  0  0
  4  5  1  0  0  0  0
  5  6  1  0  0  0  0
  6  7  1  0  0  0  0
  7  8  1  0  0  0  0
  8  9  1  0  0  0  0
  9 10  1  0  0  0  0
 10 11  1  0  0  0  0
 11 12  1  0  0  0  0
 12 13  1  0  0  0  0
 13 14  1  0  0  0  0
M  END
>  <CHROM.1>
68.75634581,-174.21223393,94.15967677,72.27167050,-176.16954873,172.84400471
65.53301150,81.63752856,154.88106992,-61.08449776,178.56386600,19.19621305
0.41286921,63.50587960,1.71745591,-0.85187499,-2.84716081

>  <Name>
1xpf_lig

>  <RI>
0

>  <Rbt.Current_Directory>
/home/afrankz/demos/rdock_decoys_rna/rnas/1xpf

>  <Rbt.Executable>
rbdock ($Id: //depot/dev/client3/rdock/2013.1/src/exe/rbdock.cxx#4 $)

>  <Rbt.Library>
libRbt.so (2013.1, Build901 2013/11/27)

>  <Rbt.Parameter_File>
/export/apps/rDock/src/rDock_2013.1_src/data/scripts/dock_solv.prm

>  <Rbt.Receptor>
prm/pocket_docking_4.prm

>  <SCORE>
-1.09603

>  <SCORE.INTER>
5.93949

>  <SCORE.INTER.CONST>
1

>  <SCORE.INTER.POLAR>
0

>  <SCORE.INTER.ROT>
11

>  <SCORE.INTER.SOLV>
2.69956

>  <SCORE.INTER.VDW>
-7.87352

>  <SCORE.INTER.norm>
0.42425

>  <SCORE.INTRA>
-7.03552

>  <SCORE.INTRA.DIHEDRAL>
-15.3322

>  <SCORE.INTRA.DIHEDRAL.0>
17.7811

>  <SCORE.INTRA.POLAR>
0

>  <SCORE.INTRA.POLAR.0>
0

>  <SCORE.INTRA.REPUL>
0

>  <SCORE.INTRA.REPUL.0>
0

>  <SCORE.INTRA.SOLV>
1.1016

>  <SCORE.INTRA.SOLV.lig_0>
-47.9565

>  <SCORE.INTRA.VDW>
0.0797615

>  <SCORE.INTRA.VDW.0>
0.515983

>  <SCORE.INTRA.norm>
-0.502537

>  <SCORE.RESTR>
0

>  <SCORE.RESTR.CAVITY>
0

>  <SCORE.RESTR.norm>
0

>  <SCORE.SYSTEM>
0

>  <SCORE.SYSTEM.CONST>
0

>  <SCORE.SYSTEM.DIHEDRAL>
0

>  <SCORE.SYSTEM.SOLV>
0

>  <SCORE.SYSTEM.norm>
0

>  <SCORE.heavy>
14

>  <SCORE.norm>
-0.0782876

>  <RMSD>
2.512

$$$$
1xpf_lig
 OpenBabel02141814123D
libRbt.so/2013.1/901 2013/11/27
 14 13  0  0  0  0  0  0  0  0999 V2000
   21.9999    7.1420   62.0128 N   0  0  0  0  0  0  0  0  0  0  0  0
   20.9720    6.9145   63.0118 C   0  0  0  0  0  0  0  0  0  0  0  0
   21.0871    5.5563   63.5930 C   0  0  0  0  0  0  0  0  0  0  0  0
   19.9733    5.4192   64.5841 C   0  0  0  0  0  0  0  0  0  0  0  0
   20.1097    4.0703   65.1863 N   0  0  0  0  0  0  0  0  0  0  0  0
   19.4460    3.0421   64.3278 C   0  0  0  0  0  0  0  0  0  0  0  0
   20.0566    1.6377   64.4755 C   0  0  0  0  0  0  0  0  0  0  0  0
   19.8437    1.0067   65.8629 C   0  0  0  0  0  0  0  0  0  0  0  0
   20.4983   -0.3661   65.8923 C   0  0  0  0  0  0  0  0  0  0  0  0
   19.8128   -1.1316   64.8408 N   0  0  0  0  0  0  0  0  0  0  0  0
   20.4677   -2.3724   64.3399 C   0  0  0  0  0  0  0  0  0  0  0  0
   19.2666   -3.0584   63.6534 C   0  0  0  0  0  0  0  0  0  0  0  0
   19.4491   -4.4432   63.0860 C   0  0  0  0  0  0  0  0  0  0  0  0
   18.2890   -4.9755   62.3925 N   0  0  0  0  0  0  0  0  0  0  0  0
  1  2  1  0  0  0  0
  2  3  1  0  0  0  0
  3  4  1  0  0  0  0
  4  5  1  0  0  0  0
  5  6  1  0  0  0  0
  6  7  1  0  0  0  0
  7  8  1  0  0  0  0
  8  9  1  0  0  0  0
  9 10  1  0  0  0  0
 10 11  1  0  0  0  0
 11 12  1  0  0  0  0
 12 13  1  0  0  0  0
 13 14  1  0  0  0  0
M  END
>  <CHROM.1>
-178.96297462,-178.74606667,-84.47132772,153.04785313,66.45186943,-179.48005092
-60.44178233,162.54431984,162.44535508,-174.96641814,-176.60165816,20.09086200
1.31727592,64.09013324,-0.37852421,-1.39626698,-1.96804148

>  <Name>
1xpf_lig

>  <RI>
0

>  <Rbt.Current_Directory>
/home/afrankz/demos/rdock_decoys_rna/rnas/1xpf

>  <Rbt.Executable>
rbdock ($Id: //depot/dev/client3/rdock/2013.1/src/exe/rbdock.cxx#4 $)

>  <Rbt.Library>
libRbt.so (2013.1, Build901 2013/11/27)

>  <Rbt.Parameter_File>
/export/apps/rDock/src/rDock_2013.1_src/data/scripts/dock_solv.prm

>  <Rbt.Receptor>
prm/pocket_docking_3.prm

>  <SCORE>
-8.94641

>  <SCORE.INTER>
-0.00487649

>  <SCORE.INTER.CONST>
1

>  <SCORE.INTER.POLAR>
-0.72298

>  <SCORE.INTER.ROT>
11

>  <SCORE.INTER.SOLV>
11.5195

>  <SCORE.INTER.VDW>
-12.3665

>  <SCORE.INTER.norm>
-0.000348321

>  <SCORE.INTRA>
-8.9835

>  <SCORE.INTRA.DIHEDRAL>
-16.0712

>  <SCORE.INTRA.DIHEDRAL.0>
17.7811

>  <SCORE.INTRA.POLAR>
0

>  <SCORE.INTRA.POLAR.0>
0

>  <SCORE.INTRA.REPUL>
0

>  <SCORE.INTRA.REPUL.0>
0

>  <SCORE.INTRA.SOLV>
-0.13556

>  <SCORE.INTRA.SOLV.lig_0>
-47.9565

>  <SCORE.INTRA.VDW>
-0.880133

>  <SCORE.INTRA.VDW.0>
0.515983

>  <SCORE.INTRA.norm>
-0.641679

>  <SCORE.RESTR>
0.0419674

>  <SCORE.RESTR.CAVITY>
0.0419674

>  <SCORE.RESTR.norm>
0.00299767

>  <SCORE.SYSTEM>
0

>  <SCORE.SYSTEM.CONST>
0

>  <SCORE.SYSTEM.DIHEDRAL>
0

>  <SCORE.SYSTEM.SOLV>
0

>  <SCORE.SYSTEM.norm>
0

>  <SCORE.heavy>
14

>  <SCORE.norm>
-0.639029

>  <RMSD>
2.610

$$$$
1xpf_lig
 OpenBabel02141814123D
libRbt.so/2013.1/901 2013/11/27
 14 13  0  0  0  0  0  0  0  0999 V2000
   18.3742   -4.8531   63.8685 N   0  0  0  0  0  0  0  0  0  0  0  0
   19.4942   -4.4379   63.0442 C   0  0  0  0  0  0  0  0  0  0  0  0
   20.4259   -3.5757   63.8086 C   0  0  0  0  0  0  0  0  0  0  0  0
   19.6717   -2.3284   64.1506 C   0  0  0  0  0  0  0  0  0  0  0  0
   20.5697   -1.5153   65.0068 N   0  0  0  0  0  0  0  0  0  0  0  0
   19.7738   -0.6630   65.9423 C   0  0  0  0  0  0  0  0  0  0  0  0
   20.0050    0.8445   65.7403 C   0  0  0  0  0  0  0  0  0  0  0  0
   19.6063    1.3562   64.3447 C   0  0  0  0  0  0  0  0  0  0  0  0
   19.9684    2.8294   64.2313 C   0  0  0  0  0  0  0  0  0  0  0  0
   19.6411    3.1908   62.8443 N   0  0  0  0  0  0  0  0  0  0  0  0
   20.3277    4.3714   62.2490 C   0  0  0  0  0  0  0  0  0  0  0  0
   20.9283    3.7283   60.9802 C   0  0  0  0  0  0  0  0  0  0  0  0
   21.9188    4.5202   60.1649 C   0  0  0  0  0  0  0  0  0  0  0  0
   22.3134    3.8981   58.9129 N   0  0  0  0  0  0  0  0  0  0  0  0
  1  2  1  0  0  0  0
  2  3  1  0  0  0  0
  3  4  1  0  0  0  0
  4  5  1  0  0  0  0
  5  6  1  0  0  0  0
  6  7  1  0  0  0  0
  7  8  1  0  0  0  0
  8  9  1  0  0  0  0
  9 10  1  0  0  0  0
 10 11  1  0  0  0  0
 11 12  1  0  0  0  0
 12 13  1  0  0  0  0
 13 14  1  0  0  0  0
M  END
>  <CHROM.1>
-64.66880914,175.58747046,-151.15673087,-118.71842539,61.45483185,-176.09080254
176.00805011,-157.19285269,125.35899641,-170.02527185,-173.33204769,20.21560680
0.52624033,63.23512081,-2.31234477,1.27241487,0.30785842

>  <Name>
1xpf_lig

>  <RI>
0

>  <Rbt.Current_Directory>
/home/afrankz/demos/rdock_decoys_rna/rnas/1xpf

>  <Rbt.Executable>
rbdock ($Id: //depot/dev/client3/rdock/2013.1/src/exe/rbdock.cxx#4 $)

>  <Rbt.Library>
libRbt.so (2013.1, Build901 2013/11/27)

>  <Rbt.Parameter_File>
/export/apps/rDock/src/rDock_2013.1_src/data/scripts/dock_solv.prm

>  <Rbt.Receptor>
prm/pocket_docking_3.prm

>  <SCORE>
-9.32901

>  <SCORE.INTER>
-1.16501

>  <SCORE.INTER.CONST>
1

>  <SCORE.INTER.POLAR>
-0.877864

>  <SCORE.INTER.ROT>
11

>  <SCORE.INTER.SOLV>
11.3171

>  <SCORE.INTER.VDW>
-12.5562

>  <SCORE.INTER.norm>
-0.0832148

>  <SCORE.INTRA>
-8.164

>  <SCORE.INTRA.DIHEDRAL>
-13.6411

>  <SCORE.INTRA.DIHEDRAL.0>
17.7811

>  <SCORE.INTRA.POLAR>
0

>  <SCORE.INTRA.POLAR.0>
0

>  <SCORE.INTRA.REPUL>
0

>  <SCORE.INTRA.REPUL.0>
0

>  <SCORE.INTRA.SOLV>
0.371097

>  <SCORE.INTRA.SOLV.lig_0>
-47.9565

>  <SCORE.INTRA.VDW>
-1.52902

>  <SCORE.INTRA.VDW.0>
0.515983

>  <SCORE.INTRA.norm>
-0.583143

>  <SCORE.RESTR>
0

>  <SCORE.RESTR.CAVITY>
0

>  <SCORE.RESTR.norm>
0

>  <SCORE.SYSTEM>
0

>  <SCORE.SYSTEM.CONST>
0

>  <SCORE.SYSTEM.DIHEDRAL>
0

>  <SCORE.SYSTEM.SOLV>
0

>  <SCORE.SYSTEM.norm>
0

>  <SCORE.heavy>
14

>  <SCORE.norm>
-0.666358

>  <RMSD>
2.636

$$$$
1xpf_lig
 OpenBabel02141814123D
libRbt.so/2013.1/901 2013/11/27
 14 13  0  0  0  0  0  0  0  0999 V2000
   22.1025    5.0956   62.8241 N   0  0  0  0  0  0  0  0  0  0  0  0
   20.6674    5.2058   62.6385 C   0  0  0  0  0  0  0  0  0  0  0  0
   19.9708    4.0038   63.1542 C   0  0  0  0  0  0  0  0  0  0  0  0
   20.1350    4.0194   64.6422 C   0  0  0  0  0  0  0  0  0  0  0  0
   19.4626    2.7995   65.1524 N   0  0  0  0  0  0  0  0  0  0  0  0
   20.1410    2.3039   66.3890 C   0  0  0  0  0  0  0  0  0  0  0  0
   19.4122    1.1228   67.0528 C   0  0  0  0  0  0  0  0  0  0  0  0
   19.2148   -0.0900   66.1261 C   0  0  0  0  0  0  0  0  0  0  0  0
   20.5761   -0.6260   65.7094 C   0  0  0  0  0  0  0  0  0  0  0  0
   20.2849   -1.8824   65.0035 N   0  0  0  0  0  0  0  0  0  0  0  0
   21.3253   -2.4261   64.0862 C   0  0  0  0  0  0  0  0  0  0  0  0
   20.8743   -3.9006   64.0034 C   0  0  0  0  0  0  0  0  0  0  0  0
   19.5017   -4.2102   63.4621 C   0  0  0  0  0  0  0  0  0  0  0  0
   19.2452   -3.7035   62.1250 N   0  0  0  0  0  0  0  0  0  0  0  0
  1  2  1  0  0  0  0
  2  3  1  0  0  0  0
  3  4  1  0  0  0  0
  4  5  1  0  0  0  0
  5  6  1  0  0  0  0
  6  7  1  0  0  0  0
  7  8  1  0  0  0  0
  8  9  1  0  0  0  0
  9 10  1  0  0  0  0
 10 11  1  0  0  0  0
 11 12  1  0  0  0  0
 12 13  1  0  0  0  0
 13 14  1  0  0  0  0
M  END
>  <CHROM.1>
67.85086647,-178.77796244,148.90047448,174.23033964,57.07975651,62.05196048
171.85114914,160.01150240,159.92291627,60.46954082,56.93610797,20.20810199
0.55084578,64.45519846,-1.31439148,-1.33239973,-2.88984022

>  <Name>
1xpf_lig

>  <RI>
0

>  <Rbt.Current_Directory>
/home/afrankz/demos/rdock_decoys_rna/rnas/1xpf

>  <Rbt.Executable>
rbdock ($Id: //depot/dev/client3/rdock/2013.1/src/exe/rbdock.cxx#4 $)

>  <Rbt.Library>
libRbt.so (2013.1, Build901 2013/11/27)

>  <Rbt.Parameter_File>
/export/apps/rDock/src/rDock_2013.1_src/data/scripts/dock_solv.prm

>  <Rbt.Receptor>
prm/pocket_docking_3.prm

>  <SCORE>
-9.54038

>  <SCORE.INTER>
-2.18932

>  <SCORE.INTER.CONST>
1

>  <SCORE.INTER.POLAR>
0

>  <SCORE.INTER.ROT>
11

>  <SCORE.INTER.SOLV>
7.82265

>  <SCORE.INTER.VDW>
-15.0004

>  <SCORE.INTER.norm>
-0.15638

>  <SCORE.INTRA>
-7.35106

>  <SCORE.INTRA.DIHEDRAL>
-15.9485

>  <SCORE.INTRA.DIHEDRAL.0>
17.7811

>  <SCORE.INTRA.POLAR>
0

>  <SCORE.INTRA.POLAR.0>
0

>  <SCORE.INTRA.REPUL>
0

>  <SCORE.INTRA.REPUL.0>
0

>  <SCORE.INTRA.SOLV>
2.53734

>  <SCORE.INTRA.SOLV.lig_0>
-47.9565

>  <SCORE.INTRA.VDW>
-0.645498

>  <SCORE.INTRA.VDW.0>
0.515983

>  <SCORE.INTRA.norm>
-0.525076

>  <SCORE.RESTR>
0

>  <SCORE.RESTR.CAVITY>
0

>  <SCORE.RESTR.norm>
0

>  <SCORE.SYSTEM>
0

>  <SCORE.SYSTEM.CONST>
0

>  <SCORE.SYSTEM.DIHEDRAL>
0

>  <SCORE.SYSTEM.SOLV>
0

>  <SCORE.SYSTEM.norm>
0

>  <SCORE.heavy>
14

>  <SCORE.norm>
-0.681455

>  <RMSD>
2.697

$$$$
1xpf_lig
 OpenBabel02141814123D
libRbt.so/2013.1/901 2013/11/27
 14 13  0  0  0  0  0  0  0  0999 V2000
   19.8324    2.3333   62.4281 N   0  0  0  0  0  0  0  0  0  0  0  0
   20.3102    3.7034   62.4020 C   0  0  0  0  0  0  0  0  0  0  0  0
   21.4022    3.9043   63.3832 C   0  0  0  0  0  0  0  0  0  0  0  0
   20.7712    3.8634   64.7402 C   0  0  0  0  0  0  0  0  0  0  0  0
   20.5069    2.4345   65.0384 N   0  0  0  0  0  0  0  0  0  0  0  0
   19.6732    2.3007   66.2722 C   0  0  0  0  0  0  0  0  0  0  0  0
   19.9970    1.0406   67.0933 C   0  0  0  0  0  0  0  0  0  0  0  0
   19.6809   -0.2779   66.3652 C   0  0  0  0  0  0  0  0  0  0  0  0
   20.7514   -0.5373   65.3160 C   0  0  0  0  0  0  0  0  0  0  0  0
   20.5299   -1.9267   64.8892 N   0  0  0  0  0  0  0  0  0  0  0  0
   21.4678   -2.5084   63.8885 C   0  0  0  0  0  0  0  0  0  0  0  0
   21.0269   -3.9878   63.9271 C   0  0  0  0  0  0  0  0  0  0  0  0
   19.6032   -4.3301   63.5684 C   0  0  0  0  0  0  0  0  0  0  0  0
   19.1694   -3.8485   62.2684 N   0  0  0  0  0  0  0  0  0  0  0  0
  1  2  1  0  0  0  0
  2  3  1  0  0  0  0
  3  4  1  0  0  0  0
  4  5  1  0  0  0  0
  5  6  1  0  0  0  0
  6  7  1  0  0  0  0
  7  8  1  0  0  0  0
  8  9  1  0  0  0  0
  9 10  1  0  0  0  0
 10 11  1  0  0  0  0
 11 12  1  0  0  0  0
 12 13  1  0  0  0  0
 13 14  1  0  0  0  0
M  END
>  <CHROM.1>
-71.52864022,76.80129977,-170.65150021,-146.82595460,-64.57904369,75.68762894
168.22240681,-177.61562156,170.76027041,59.98744085,54.97605678,20.33746556
0.15469891,64.39888727,-0.75599897,-1.51481004,-2.25106434

>  <Name>
1xpf_lig

>  <RI>
0

>  <Rbt.Current_Directory>
/home/afrankz/demos/rdock_decoys_rna/rnas/1xpf

>  <Rbt.Executable>
rbdock ($Id: //depot/dev/client3/rdock/2013.1/src/exe/rbdock.cxx#4 $)

>  <Rbt.Library>
libRbt.so (2013.1, Build901 2013/11/27)

>  <Rbt.Parameter_File>
/export/apps/rDock/src/rDock_2013.1_src/data/scripts/dock_solv.prm

>  <Rbt.Receptor>
prm/pocket_docking_3.prm

>  <SCORE>
-6.97043

>  <SCORE.INTER>
-1.74142

>  <SCORE.INTER.CONST>
1

>  <SCORE.INTER.POLAR>
0

>  <SCORE.INTER.ROT>
11

>  <SCORE.INTER.SOLV>
7.98154

>  <SCORE.INTER.VDW>
-14.7548

>  <SCORE.INTER.norm>
-0.124387

>  <SCORE.INTRA>
-5.22901

>  <SCORE.INTRA.DIHEDRAL>
-13.7914

>  <SCORE.INTRA.DIHEDRAL.0>
17.7811

>  <SCORE.INTRA.POLAR>
0

>  <SCORE.INTRA.POLAR.0>
0

>  <SCORE.INTRA.REPUL>
0

>  <SCORE.INTRA.REPUL.0>
0

>  <SCORE.INTRA.SOLV>
5.41152

>  <SCORE.INTRA.SOLV.lig_0>
-47.9565

>  <SCORE.INTRA.VDW>
-1.03907

>  <SCORE.INTRA.VDW.0>
0.515983

>  <SCORE.INTRA.norm>
-0.373501

>  <SCORE.RESTR>
0

>  <SCORE.RESTR.CAVITY>
0

>  <SCORE.RESTR.norm>
0

>  <SCORE.SYSTEM>
0

>  <SCORE.SYSTEM.CONST>
0

>  <SCORE.SYSTEM.DIHEDRAL>
0

>  <SCORE.SYSTEM.SOLV>
0

>  <SCORE.SYSTEM.norm>
0

>  <SCORE.heavy>
14

>  <SCORE.norm>
-0.497888

>  <RMSD>
2.700

$$$$
1xpf_lig
 OpenBabel02141814123D
libRbt.so/2013.1/901 2013/11/27
 14 13  0  0  0  0  0  0  0  0999 V2000
   16.5045   -3.0279   63.5281 N   0  0  0  0  0  0  0  0  0  0  0  0
   17.0475   -4.1579   64.2592 C   0  0  0  0  0  0  0  0  0  0  0  0
   17.7113   -5.1145   63.3426 C   0  0  0  0  0  0  0  0  0  0  0  0
   18.9879   -4.4688   62.9013 C   0  0  0  0  0  0  0  0  0  0  0  0
   19.9094   -4.5214   64.0626 N   0  0  0  0  0  0  0  0  0  0  0  0
   21.1560   -3.7462   63.7798 C   0  0  0  0  0  0  0  0  0  0  0  0
   21.3901   -2.5873   64.7641 C   0  0  0  0  0  0  0  0  0  0  0  0
   20.3208   -1.4826   64.6942 C   0  0  0  0  0  0  0  0  0  0  0  0
   20.6155   -0.4352   65.7573 C   0  0  0  0  0  0  0  0  0  0  0  0
   19.5817    0.5929   65.5681 N   0  0  0  0  0  0  0  0  0  0  0  0
   19.6434    1.8118   66.4226 C   0  0  0  0  0  0  0  0  0  0  0  0
   19.8315    2.8965   65.3400 C   0  0  0  0  0  0  0  0  0  0  0  0
   19.8026    4.3462   65.7527 C   0  0  0  0  0  0  0  0  0  0  0  0
   20.8164    4.7245   66.7219 N   0  0  0  0  0  0  0  0  0  0  0  0
  1  2  1  0  0  0  0
  2  3  1  0  0  0  0
  3  4  1  0  0  0  0
  4  5  1  0  0  0  0
  5  6  1  0  0  0  0
  6  7  1  0  0  0  0
  7  8  1  0  0  0  0
  8  9  1  0  0  0  0
  9 10  1  0  0  0  0
 10 11  1  0  0  0  0
 11 12  1  0  0  0  0
 12 13  1  0  0  0  0
 13 14  1  0  0  0  0
M  END
>  <CHROM.1>
72.57860630,73.29828617,-172.84603309,119.96833099,-64.62938670,176.99721200
177.60691239,-176.63258506,118.33739689,173.70689942,59.67123842,19.52288686
-1.08379372,64.77809525,1.76006389,0.13592026,-2.86025633

>  <Name>
1xpf_lig

>  <RI>
0

>  <Rbt.Current_Directory>
/home/afrankz/demos/rdock_decoys_rna/rnas/1xpf

>  <Rbt.Executable>
rbdock ($Id: //depot/dev/client3/rdock/2013.1/src/exe/rbdock.cxx#4 $)

>  <Rbt.Library>
libRbt.so (2013.1, Build901 2013/11/27)

>  <Rbt.Parameter_File>
/export/apps/rDock/src/rDock_2013.1_src/data/scripts/dock_solv.prm

>  <Rbt.Receptor>
prm/pocket_docking_4.prm

>  <SCORE>
-9.22842

>  <SCORE.INTER>
-1.61494

>  <SCORE.INTER.CONST>
1

>  <SCORE.INTER.POLAR>
0

>  <SCORE.INTER.ROT>
11

>  <SCORE.INTER.SOLV>
7.14575

>  <SCORE.INTER.VDW>
-14.3919

>  <SCORE.INTER.norm>
-0.115353

>  <SCORE.INTRA>
-7.61348

>  <SCORE.INTRA.DIHEDRAL>
-13.8237

>  <SCORE.INTRA.DIHEDRAL.0>
17.7811

>  <SCORE.INTRA.POLAR>
0

>  <SCORE.INTRA.POLAR.0>
0

>  <SCORE.INTRA.REPUL>
0

>  <SCORE.INTRA.REPUL.0>
0

>  <SCORE.INTRA.SOLV>
1.91574

>  <SCORE.INTRA.SOLV.lig_0>
-47.9565

>  <SCORE.INTRA.VDW>
-1.65948

>  <SCORE.INTRA.VDW.0>
0.515983

>  <SCORE.INTRA.norm>
-0.54382

>  <SCORE.RESTR>
0

>  <SCORE.RESTR.CAVITY>
0

>  <SCORE.RESTR.norm>
0

>  <SCORE.SYSTEM>
0

>  <SCORE.SYSTEM.CONST>
0

>  <SCORE.SYSTEM.DIHEDRAL>
0

>  <SCORE.SYSTEM.SOLV>
0

>  <SCORE.SYSTEM.norm>
0

>  <SCORE.heavy>
14

>  <SCORE.norm>
-0.659173

>  <RMSD>
2.710

$$$$
1xpf_lig
 OpenBabel02141814123D
libRbt.so/2013.1/901 2013/11/27
 14 13  0  0  0  0  0  0  0  0999 V2000
   18.5959   -3.4244   63.6439 N   0  0  0  0  0  0  0  0  0  0  0  0
   19.8014   -3.9588   63.0378 C   0  0  0  0  0  0  0  0  0  0  0  0
   20.8969   -4.0574   64.0309 C   0  0  0  0  0  0  0  0  0  0  0  0
   21.3018   -2.6546   64.3620 C   0  0  0  0  0  0  0  0  0  0  0  0
   22.0171   -2.1314   63.1723 N   0  0  0  0  0  0  0  0  0  0  0  0
   22.5092   -0.7423   63.4240 C   0  0  0  0  0  0  0  0  0  0  0  0
   21.6623    0.3396   62.7317 C   0  0  0  0  0  0  0  0  0  0  0  0
   20.2582    0.5160   63.3367 C   0  0  0  0  0  0  0  0  0  0  0  0
   19.4481    1.4520   62.4526 C   0  0  0  0  0  0  0  0  0  0  0  0
   20.0890    2.7657   62.6100 N   0  0  0  0  0  0  0  0  0  0  0  0
   20.2579    3.6112   61.3950 C   0  0  0  0  0  0  0  0  0  0  0  0
   21.7969    3.7301   61.3554 C   0  0  0  0  0  0  0  0  0  0  0  0
   22.4395    4.4474   60.1954 C   0  0  0  0  0  0  0  0  0  0  0  0
   22.3344    3.7602   58.9199 N   0  0  0  0  0  0  0  0  0  0  0  0
  1  2  1  0  0  0  0
  2  3  1  0  0  0  0
  3  4  1  0  0  0  0
  4  5  1  0  0  0  0
  5  6  1  0  0  0  0
  6  7  1  0  0  0  0
  7  8  1  0  0  0  0
  8  9  1  0  0  0  0
  9 10  1  0  0  0  0
 10 11  1  0  0  0  0
 11 12  1  0  0  0  0
 12 13  1  0  0  0  0
 13 14  1  0  0  0  0
M  END
>  <CHROM.1>
-69.36653769,-71.90007814,-177.93592007,-103.73949390,69.88865971,-171.66659137
-68.35315171,138.85842059,-118.69142789,175.76744082,-68.78819288,20.95783931
0.26094173,62.47641851,1.71776378,-0.24927122,2.77032578

>  <Name>
1xpf_lig

>  <RI>
0

>  <Rbt.Current_Directory>
/home/afrankz/demos/rdock_decoys_rna/rnas/1xpf

>  <Rbt.Executable>
rbdock ($Id: //depot/dev/client3/rdock/2013.1/src/exe/rbdock.cxx#4 $)

>  <Rbt.Library>
libRbt.so (2013.1, Build901 2013/11/27)

>  <Rbt.Parameter_File>
/export/apps/rDock/src/rDock_2013.1_src/data/scripts/dock_solv.prm

>  <Rbt.Receptor>
prm/pocket_docking_3.prm

>  <SCORE>
-6.21292

>  <SCORE.INTER>
0.441692

>  <SCORE.INTER.CONST>
1

>  <SCORE.INTER.POLAR>
-0.916472

>  <SCORE.INTER.ROT>
11

>  <SCORE.INTER.SOLV>
7.09938

>  <SCORE.INTER.VDW>
-9.95043

>  <SCORE.INTER.norm>
0.0315494

>  <SCORE.INTRA>
-6.65461

>  <SCORE.INTRA.DIHEDRAL>
-12.5463

>  <SCORE.INTRA.DIHEDRAL.0>
17.7811

>  <SCORE.INTRA.POLAR>
0

>  <SCORE.INTRA.POLAR.0>
0

>  <SCORE.INTRA.REPUL>
0

>  <SCORE.INTRA.REPUL.0>
0

>  <SCORE.INTRA.SOLV>
2.35636

>  <SCORE.INTRA.SOLV.lig_0>
-47.9565

>  <SCORE.INTRA.VDW>
-1.55964

>  <SCORE.INTRA.VDW.0>
0.515983

>  <SCORE.INTRA.norm>
-0.475329

>  <SCORE.RESTR>
0

>  <SCORE.RESTR.CAVITY>
0

>  <SCORE.RESTR.norm>
0

>  <SCORE.SYSTEM>
0

>  <SCORE.SYSTEM.CONST>
0

>  <SCORE.SYSTEM.DIHEDRAL>
0

>  <SCORE.SYSTEM.SOLV>
0

>  <SCORE.SYSTEM.norm>
0

>  <SCORE.heavy>
14

>  <SCORE.norm>
-0.44378

>  <RMSD>
2.748

$$$$
1xpf_lig
 OpenBabel02141814123D
libRbt.so/2013.1/901 2013/11/27
 14 13  0  0  0  0  0  0  0  0999 V2000
   20.4487    4.2249   64.6256 N   0  0  0  0  0  0  0  0  0  0  0  0
   19.9139    3.8715   63.3236 C   0  0  0  0  0  0  0  0  0  0  0  0
   20.5204    2.6157   62.8229 C   0  0  0  0  0  0  0  0  0  0  0  0
   19.9210    2.3585   61.4753 C   0  0  0  0  0  0  0  0  0  0  0  0
   20.4581    1.0535   61.0180 N   0  0  0  0  0  0  0  0  0  0  0  0
   19.4500   -0.0309   61.2243 C   0  0  0  0  0  0  0  0  0  0  0  0
   20.0074   -1.4403   60.9600 C   0  0  0  0  0  0  0  0  0  0  0  0
   19.0147   -2.5737   61.2734 C   0  0  0  0  0  0  0  0  0  0  0  0
   17.9134   -2.5766   60.2240 C   0  0  0  0  0  0  0  0  0  0  0  0
   16.9122   -3.5253   60.7330 N   0  0  0  0  0  0  0  0  0  0  0  0
   17.1586   -4.9799   60.5258 C   0  0  0  0  0  0  0  0  0  0  0  0
   17.4681   -5.4147   61.9747 C   0  0  0  0  0  0  0  0  0  0  0  0
   16.3787   -5.3107   63.0117 C   0  0  0  0  0  0  0  0  0  0  0  0
   16.7810   -5.6805   64.3576 N   0  0  0  0  0  0  0  0  0  0  0  0
  1  2  1  0  0  0  0
  2  3  1  0  0  0  0
  3  4  1  0  0  0  0
  4  5  1  0  0  0  0
  5  6  1  0  0  0  0
  6  7  1  0  0  0  0
  7  8  1  0  0  0  0
  8  9  1  0  0  0  0
  9 10  1  0  0  0  0
 10 11  1  0  0  0  0
 11 12  1  0  0  0  0
 12 13  1  0  0  0  0
 13 14  1  0  0  0  0
M  END
>  <CHROM.1>
-179.04705010,-176.15138220,100.96018706,-171.79989488,175.49460267,71.41841798
-170.66764058,-80.44196466,109.26885427,64.74602554,-177.14846589,18.73906346
-1.24357020,61.96755782,0.53383584,1.12526946,1.09477290

>  <Name>
1xpf_lig

>  <RI>
0

>  <Rbt.Current_Directory>
/home/afrankz/demos/rdock_decoys_rna/rnas/1xpf

>  <Rbt.Executable>
rbdock ($Id: //depot/dev/client3/rdock/2013.1/src/exe/rbdock.cxx#4 $)

>  <Rbt.Library>
libRbt.so (2013.1, Build901 2013/11/27)

>  <Rbt.Parameter_File>
/export/apps/rDock/src/rDock_2013.1_src/data/scripts/dock_solv.prm

>  <Rbt.Receptor>
prm/pocket_docking_3.prm

>  <SCORE>
-0.319235

>  <SCORE.INTER>
7.48553

>  <SCORE.INTER.CONST>
1

>  <SCORE.INTER.POLAR>
0

>  <SCORE.INTER.ROT>
11

>  <SCORE.INTER.SOLV>
3.93313

>  <SCORE.INTER.VDW>
-7.25402

>  <SCORE.INTER.norm>
0.534681

>  <SCORE.INTRA>
-7.80477

>  <SCORE.INTRA.DIHEDRAL>
-14.276

>  <SCORE.INTRA.DIHEDRAL.0>
17.7811

>  <SCORE.INTRA.POLAR>
0

>  <SCORE.INTRA.POLAR.0>
0

>  <SCORE.INTRA.REPUL>
0

>  <SCORE.INTRA.REPUL.0>
0

>  <SCORE.INTRA.SOLV>
-0.286885

>  <SCORE.INTRA.SOLV.lig_0>
-47.9565

>  <SCORE.INTRA.VDW>
-0.523315

>  <SCORE.INTRA.VDW.0>
0.515983

>  <SCORE.INTRA.norm>
-0.557483

>  <SCORE.RESTR>
0

>  <SCORE.RESTR.CAVITY>
0

>  <SCORE.RESTR.norm>
0

>  <SCORE.SYSTEM>
0

>  <SCORE.SYSTEM.CONST>
0

>  <SCORE.SYSTEM.DIHEDRAL>
0

>  <SCORE.SYSTEM.SOLV>
0

>  <SCORE.SYSTEM.norm>
0

>  <SCORE.heavy>
14

>  <SCORE.norm>
-0.0228025

>  <RMSD>
2.750

$$$$
1xpf_lig
 OpenBabel02141814123D
libRbt.so/2013.1/901 2013/11/27
 14 13  0  0  0  0  0  0  0  0999 V2000
   18.3700   -2.8971   60.9003 N   0  0  0  0  0  0  0  0  0  0  0  0
   17.3535   -3.7419   61.4994 C   0  0  0  0  0  0  0  0  0  0  0  0
   17.9403   -5.0085   61.9966 C   0  0  0  0  0  0  0  0  0  0  0  0
   18.6586   -4.6774   63.2677 C   0  0  0  0  0  0  0  0  0  0  0  0
   19.9327   -4.0277   62.8740 N   0  0  0  0  0  0  0  0  0  0  0  0
   20.9126   -4.0658   64.0024 C   0  0  0  0  0  0  0  0  0  0  0  0
   21.3440   -2.6695   64.4832 C   0  0  0  0  0  0  0  0  0  0  0  0
   20.1698   -1.7445   64.8491 C   0  0  0  0  0  0  0  0  0  0  0  0
   20.7174   -0.4473   65.4249 C   0  0  0  0  0  0  0  0  0  0  0  0
   19.5333    0.3971   65.6409 N   0  0  0  0  0  0  0  0  0  0  0  0
   19.5093    1.7435   65.0036 C   0  0  0  0  0  0  0  0  0  0  0  0
   20.0744    2.6023   66.1558 C   0  0  0  0  0  0  0  0  0  0  0  0
   20.0946    4.1018   66.0006 C   0  0  0  0  0  0  0  0  0  0  0  0
   20.8674    4.5873   64.8704 N   0  0  0  0  0  0  0  0  0  0  0  0
  1  2  1  0  0  0  0
  2  3  1  0  0  0  0
  3  4  1  0  0  0  0
  4  5  1  0  0  0  0
  5  6  1  0  0  0  0
  6  7  1  0  0  0  0
  7  8  1  0  0  0  0
  8  9  1  0  0  0  0
  9 10  1  0  0  0  0
 10 11  1  0  0  0  0
 11 12  1  0  0  0  0
 12 13  1  0  0  0  0
 13 14  1  0  0  0  0
M  END
>  <CHROM.1>
75.97479116,-77.15099686,-161.23074609,-118.95499305,53.68257585,174.96149751
175.74782093,-124.46194372,-93.35938264,-173.57291196,-59.66572130,19.67699551
-1.13225350,64.06940601,1.83107566,0.79961337,-2.91851812

>  <Name>
1xpf_lig

>  <RI>
0

>  <Rbt.Current_Directory>
/home/afrankz/demos/rdock_decoys_rna/rnas/1xpf

>  <Rbt.Executable>
rbdock ($Id: //depot/dev/client3/rdock/2013.1/src/exe/rbdock.cxx#4 $)

>  <Rbt.Library>
libRbt.so (2013.1, Build901 2013/11/27)

>  <Rbt.Parameter_File>
/export/apps/rDock/src/rDock_2013.1_src/data/scripts/dock_solv.prm

>  <Rbt.Receptor>
prm/pocket_docking_3.prm

>  <SCORE>
-6.57201

>  <SCORE.INTER>
-0.807401

>  <SCORE.INTER.CONST>
1

>  <SCORE.INTER.POLAR>
0

>  <SCORE.INTER.ROT>
11

>  <SCORE.INTER.SOLV>
6.95728

>  <SCORE.INTER.VDW>
-13.7907

>  <SCORE.INTER.norm>
-0.0576715

>  <SCORE.INTRA>
-5.76677

>  <SCORE.INTRA.DIHEDRAL>
-11.9967

>  <SCORE.INTRA.DIHEDRAL.0>
17.7811

>  <SCORE.INTRA.POLAR>
0

>  <SCORE.INTRA.POLAR.0>
0

>  <SCORE.INTRA.REPUL>
0

>  <SCORE.INTRA.REPUL.0>
0

>  <SCORE.INTRA.SOLV>
3.12128

>  <SCORE.INTRA.SOLV.lig_0>
-47.9565

>  <SCORE.INTRA.VDW>
-1.32907

>  <SCORE.INTRA.VDW.0>
0.515983

>  <SCORE.INTRA.norm>
-0.411912

>  <SCORE.RESTR>
0.00215889

>  <SCORE.RESTR.CAVITY>
0.00215889

>  <SCORE.RESTR.norm>
0.000154206

>  <SCORE.SYSTEM>
0

>  <SCORE.SYSTEM.CONST>
0

>  <SCORE.SYSTEM.DIHEDRAL>
0

>  <SCORE.SYSTEM.SOLV>
0

>  <SCORE.SYSTEM.norm>
0

>  <SCORE.heavy>
14

>  <SCORE.norm>
-0.46943

>  <RMSD>
2.770

$$$$
1xpf_lig
 OpenBabel02141814123D
libRbt.so/2013.1/901 2013/11/27
 14 13  0  0  0  0  0  0  0  0999 V2000
   22.3575    3.6555   58.8976 N   0  0  0  0  0  0  0  0  0  0  0  0
   22.4667    3.1756   60.2628 C   0  0  0  0  0  0  0  0  0  0  0  0
   21.3125    3.6230   61.0774 C   0  0  0  0  0  0  0  0  0  0  0  0
   21.5894    3.1929   62.4844 C   0  0  0  0  0  0  0  0  0  0  0  0
   20.4216    3.6213   63.2928 N   0  0  0  0  0  0  0  0  0  0  0  0
   20.6944    3.4336   64.7506 C   0  0  0  0  0  0  0  0  0  0  0  0
   20.0002    2.1968   65.3467 C   0  0  0  0  0  0  0  0  0  0  0  0
   20.3563    0.8781   64.6377 C   0  0  0  0  0  0  0  0  0  0  0  0
   19.6851   -0.2767   65.3657 C   0  0  0  0  0  0  0  0  0  0  0  0
   19.9348   -1.4513   64.5174 N   0  0  0  0  0  0  0  0  0  0  0  0
   21.2037   -2.2046   64.7225 C   0  0  0  0  0  0  0  0  0  0  0  0
   21.0948   -3.2406   63.5827 C   0  0  0  0  0  0  0  0  0  0  0  0
   19.9951   -4.2702   63.6408 C   0  0  0  0  0  0  0  0  0  0  0  0
   18.6513   -3.7351   63.5071 N   0  0  0  0  0  0  0  0  0  0  0  0
  1  2  1  0  0  0  0
  2  3  1  0  0  0  0
  3  4  1  0  0  0  0
  4  5  1  0  0  0  0
  5  6  1  0  0  0  0
  6  7  1  0  0  0  0
  7  8  1  0  0  0  0
  8  9  1  0  0  0  0
  9 10  1  0  0  0  0
 10 11  1  0  0  0  0
 11 12  1  0  0  0  0
 12 13  1  0  0  0  0
 13 14  1  0  0  0  0
M  END
>  <CHROM.1>
-174.58454072,-179.03971981,-170.96325621,-103.10228191,56.72287882,176.42047413
172.67340331,86.91683984,-175.70191510,-65.62232834,66.60914069,20.69752985
0.61421325,63.29216858,-0.87433733,-1.21487468,-2.87969367

>  <Name>
1xpf_lig

>  <RI>
0

>  <Rbt.Current_Directory>
/home/afrankz/demos/rdock_decoys_rna/rnas/1xpf

>  <Rbt.Executable>
rbdock ($Id: //depot/dev/client3/rdock/2013.1/src/exe/rbdock.cxx#4 $)

>  <Rbt.Library>
libRbt.so (2013.1, Build901 2013/11/27)

>  <Rbt.Parameter_File>
/export/apps/rDock/src/rDock_2013.1_src/data/scripts/dock_solv.prm

>  <Rbt.Receptor>
prm/pocket_docking_3.prm

>  <SCORE>
-9.50916

>  <SCORE.INTER>
-1.49493

>  <SCORE.INTER.CONST>
1

>  <SCORE.INTER.POLAR>
-0.941818

>  <SCORE.INTER.ROT>
11

>  <SCORE.INTER.SOLV>
7.6301

>  <SCORE.INTER.VDW>
-11.3339

>  <SCORE.INTER.norm>
-0.106781

>  <SCORE.INTRA>
-8.02416

>  <SCORE.INTRA.DIHEDRAL>
-15.5256

>  <SCORE.INTRA.DIHEDRAL.0>
17.7811

>  <SCORE.INTRA.POLAR>
0

>  <SCORE.INTRA.POLAR.0>
0

>  <SCORE.INTRA.REPUL>
0

>  <SCORE.INTRA.REPUL.0>
0

>  <SCORE.INTRA.SOLV>
2.37651

>  <SCORE.INTRA.SOLV.lig_0>
-47.9565

>  <SCORE.INTRA.VDW>
-1.44962

>  <SCORE.INTRA.VDW.0>
0.515983

>  <SCORE.INTRA.norm>
-0.573154

>  <SCORE.RESTR>
0.00993386

>  <SCORE.RESTR.CAVITY>
0.00993386

>  <SCORE.RESTR.norm>
0.000709561

>  <SCORE.SYSTEM>
0

>  <SCORE.SYSTEM.CONST>
0

>  <SCORE.SYSTEM.DIHEDRAL>
0

>  <SCORE.SYSTEM.SOLV>
0

>  <SCORE.SYSTEM.norm>
0

>  <SCORE.heavy>
14

>  <SCORE.norm>
-0.679225

>  <RMSD>
2.830

$$$$
1xpf_lig
 OpenBabel02141814123D
libRbt.so/2013.1/901 2013/11/27
 14 13  0  0  0  0  0  0  0  0999 V2000
   21.8064    2.5696   58.9618 N   0  0  0  0  0  0  0  0  0  0  0  0
   21.5006    2.8928   60.3432 C   0  0  0  0  0  0  0  0  0  0  0  0
   21.1555    1.6730   61.1106 C   0  0  0  0  0  0  0  0  0  0  0  0
   20.8564    2.1172   62.5086 C   0  0  0  0  0  0  0  0  0  0  0  0
   20.4855    0.8976   63.2673 N   0  0  0  0  0  0  0  0  0  0  0  0
   20.1113    1.2462   64.6721 C   0  0  0  0  0  0  0  0  0  0  0  0
   20.3427    0.0967   65.6681 C   0  0  0  0  0  0  0  0  0  0  0  0
   19.4917   -1.1544   65.3868 C   0  0  0  0  0  0  0  0  0  0  0  0
   18.0427   -0.8633   65.7468 C   0  0  0  0  0  0  0  0  0  0  0  0
   17.3146   -2.0914   65.3958 N   0  0  0  0  0  0  0  0  0  0  0  0
   16.7570   -2.9147   66.5052 C   0  0  0  0  0  0  0  0  0  0  0  0
   16.2387   -4.1322   65.7093 C   0  0  0  0  0  0  0  0  0  0  0  0
   17.2311   -4.9863   64.9620 C   0  0  0  0  0  0  0  0  0  0  0  0
   16.6402   -6.0115   64.1193 N   0  0  0  0  0  0  0  0  0  0  0  0
  1  2  1  0  0  0  0
  2  3  1  0  0  0  0
  3  4  1  0  0  0  0
  4  5  1  0  0  0  0
  5  6  1  0  0  0  0
  6  7  1  0  0  0  0
  7  8  1  0  0  0  0
  8  9  1  0  0  0  0
  9 10  1  0  0  0  0
 10 11  1  0  0  0  0
 11 12  1  0  0  0  0
 12 13  1  0  0  0  0
 13 14  1  0  0  0  0
M  END
>  <CHROM.1>
-179.83951882,178.91192780,-177.65556369,-153.38866308,-62.77240766,-72.04867468
177.90778783,111.08652226,-174.18573932,63.28356480,-173.15977405,19.14105083
-0.76130521,63.88301393,0.23751735,-1.03319119,-1.90407865

>  <Name>
1xpf_lig

>  <RI>
0

>  <Rbt.Current_Directory>
/home/afrankz/demos/rdock_decoys_rna/rnas/1xpf

>  <Rbt.Executable>
rbdock ($Id: //depot/dev/client3/rdock/2013.1/src/exe/rbdock.cxx#4 $)

>  <Rbt.Library>
libRbt.so (2013.1, Build901 2013/11/27)

>  <Rbt.Parameter_File>
/export/apps/rDock/src/rDock_2013.1_src/data/scripts/dock_solv.prm

>  <Rbt.Receptor>
prm/pocket_docking_4.prm

>  <SCORE>
-7.59826

>  <SCORE.INTER>
1.21556

>  <SCORE.INTER.CONST>
1

>  <SCORE.INTER.POLAR>
-0.911439

>  <SCORE.INTER.ROT>
11

>  <SCORE.INTER.SOLV>
9.53112

>  <SCORE.INTER.VDW>
-10.2619

>  <SCORE.INTER.norm>
0.0868259

>  <SCORE.INTRA>
-8.81382

>  <SCORE.INTRA.DIHEDRAL>
-15.2641

>  <SCORE.INTRA.DIHEDRAL.0>
17.7811

>  <SCORE.INTRA.POLAR>
0

>  <SCORE.INTRA.POLAR.0>
0

>  <SCORE.INTRA.REPUL>
0

>  <SCORE.INTRA.REPUL.0>
0

>  <SCORE.INTRA.SOLV>
0.244671

>  <SCORE.INTRA.SOLV.lig_0>
-47.9565

>  <SCORE.INTRA.VDW>
-1.30412

>  <SCORE.INTRA.VDW.0>
0.515983

>  <SCORE.INTRA.norm>
-0.629559

>  <SCORE.RESTR>
0

>  <SCORE.RESTR.CAVITY>
0

>  <SCORE.RESTR.norm>
0

>  <SCORE.SYSTEM>
0

>  <SCORE.SYSTEM.CONST>
0

>  <SCORE.SYSTEM.DIHEDRAL>
0

>  <SCORE.SYSTEM.SOLV>
0

>  <SCORE.SYSTEM.norm>
0

>  <SCORE.heavy>
14

>  <SCORE.norm>
-0.542733

>  <RMSD>
2.866

$$$$
1xpf_lig
 OpenBabel02141814123D
libRbt.so/2013.1/901 2013/11/27
 14 13  0  0  0  0  0  0  0  0999 V2000
   22.3707    3.6755   58.8909 N   0  0  0  0  0  0  0  0  0  0  0  0
   22.6317    4.6445   59.9392 C   0  0  0  0  0  0  0  0  0  0  0  0
   21.5715    4.6069   60.9737 C   0  0  0  0  0  0  0  0  0  0  0  0
   21.6644    3.2661   61.6332 C   0  0  0  0  0  0  0  0  0  0  0  0
   20.5724    3.2139   62.6360 N   0  0  0  0  0  0  0  0  0  0  0  0
   21.1330    3.1574   64.0207 C   0  0  0  0  0  0  0  0  0  0  0  0
   20.2574    2.3578   65.0010 C   0  0  0  0  0  0  0  0  0  0  0  0
   20.0812    0.8779   64.6169 C   0  0  0  0  0  0  0  0  0  0  0  0
   19.2426    0.1833   65.6792 C   0  0  0  0  0  0  0  0  0  0  0  0
   18.8950   -1.1186   65.0912 N   0  0  0  0  0  0  0  0  0  0  0  0
   17.4571   -1.5063   65.0519 C   0  0  0  0  0  0  0  0  0  0  0  0
   17.5708   -2.9193   64.4398 C   0  0  0  0  0  0  0  0  0  0  0  0
   18.0015   -3.0543   63.0013 C   0  0  0  0  0  0  0  0  0  0  0  0
   17.9811   -4.4115   62.4837 N   0  0  0  0  0  0  0  0  0  0  0  0
  1  2  1  0  0  0  0
  2  3  1  0  0  0  0
  3  4  1  0  0  0  0
  4  5  1  0  0  0  0
  5  6  1  0  0  0  0
  6  7  1  0  0  0  0
  7  8  1  0  0  0  0
  8  9  1  0  0  0  0
  9 10  1  0  0  0  0
 10 11  1  0  0  0  0
 11 12  1  0  0  0  0
 12 13  1  0  0  0  0
 13 14  1  0  0  0  0
M  END
>  <CHROM.1>
65.48459741,-178.10247071,-114.02342105,-147.95898940,61.62745046,178.04273346
168.37214263,-126.89736104,-177.42777612,-68.74845122,-175.50361078,19.95930867
0.92689575,63.10453177,0.00384163,-1.08422637,-2.03072575

>  <Name>
1xpf_lig

>  <RI>
0

>  <Rbt.Current_Directory>
/home/afrankz/demos/rdock_decoys_rna/rnas/1xpf

>  <Rbt.Executable>
rbdock ($Id: //depot/dev/client3/rdock/2013.1/src/exe/rbdock.cxx#4 $)

>  <Rbt.Library>
libRbt.so (2013.1, Build901 2013/11/27)

>  <Rbt.Parameter_File>
/export/apps/rDock/src/rDock_2013.1_src/data/scripts/dock_solv.prm

>  <Rbt.Receptor>
prm/pocket_docking_3.prm

>  <SCORE>
-4.44768

>  <SCORE.INTER>
3.41522

>  <SCORE.INTER.CONST>
1

>  <SCORE.INTER.POLAR>
-0.94751

>  <SCORE.INTER.ROT>
11

>  <SCORE.INTER.SOLV>
6.99984

>  <SCORE.INTER.VDW>
-7.83143

>  <SCORE.INTER.norm>
0.243944

>  <SCORE.INTRA>
-7.87205

>  <SCORE.INTRA.DIHEDRAL>
-13.7702

>  <SCORE.INTRA.DIHEDRAL.0>
17.7811

>  <SCORE.INTRA.POLAR>
0

>  <SCORE.INTRA.POLAR.0>
0

>  <SCORE.INTRA.REPUL>
0

>  <SCORE.INTRA.REPUL.0>
0

>  <SCORE.INTRA.SOLV>
0.736944

>  <SCORE.INTRA.SOLV.lig_0>
-47.9565

>  <SCORE.INTRA.VDW>
-1.35543

>  <SCORE.INTRA.VDW.0>
0.515983

>  <SCORE.INTRA.norm>
-0.562289

>  <SCORE.RESTR>
0.00914774

>  <SCORE.RESTR.CAVITY>
0.00914774

>  <SCORE.RESTR.norm>
0.00065341

>  <SCORE.SYSTEM>
0

>  <SCORE.SYSTEM.CONST>
0

>  <SCORE.SYSTEM.DIHEDRAL>
0

>  <SCORE.SYSTEM.SOLV>
0

>  <SCORE.SYSTEM.norm>
0

>  <SCORE.heavy>
14

>  <SCORE.norm>
-0.317692

>  <RMSD>
2.889

$$$$
1xpf_lig
 OpenBabel02141814123D
libRbt.so/2013.1/901 2013/11/27
 14 13  0  0  0  0  0  0  0  0999 V2000
   19.4495   -4.8045   63.1103 N   0  0  0  0  0  0  0  0  0  0  0  0
   19.8609   -3.4262   63.3026 C   0  0  0  0  0  0  0  0  0  0  0  0
   21.0688   -3.3463   64.1573 C   0  0  0  0  0  0  0  0  0  0  0  0
   21.2793   -1.8966   64.4663 C   0  0  0  0  0  0  0  0  0  0  0  0
   20.1540   -1.4852   65.3410 N   0  0  0  0  0  0  0  0  0  0  0  0
   20.3375   -0.0761   65.8053 C   0  0  0  0  0  0  0  0  0  0  0  0
   19.9405    0.9705   64.7498 C   0  0  0  0  0  0  0  0  0  0  0  0
   20.1911    2.4247   65.1868 C   0  0  0  0  0  0  0  0  0  0  0  0
   19.7331    3.3637   64.0812 C   0  0  0  0  0  0  0  0  0  0  0  0
   20.6133    3.0613   62.9431 N   0  0  0  0  0  0  0  0  0  0  0  0
   21.9756    3.6642   62.9335 C   0  0  0  0  0  0  0  0  0  0  0  0
   22.4152    3.3255   61.4926 C   0  0  0  0  0  0  0  0  0  0  0  0
   21.7252    4.0143   60.3426 C   0  0  0  0  0  0  0  0  0  0  0  0
   22.1922    3.6175   59.0256 N   0  0  0  0  0  0  0  0  0  0  0  0
  1  2  1  0  0  0  0
  2  3  1  0  0  0  0
  3  4  1  0  0  0  0
  4  5  1  0  0  0  0
  5  6  1  0  0  0  0
  6  7  1  0  0  0  0
  7  8  1  0  0  0  0
  8  9  1  0  0  0  0
  9 10  1  0  0  0  0
 10 11  1  0  0  0  0
 11 12  1  0  0  0  0
 12 13  1  0  0  0  0
 13 14  1  0  0  0  0
M  END
>  <CHROM.1>
-171.35995205,67.99735689,175.04546520,79.30592668,-177.05723460,-178.71591299
-63.99718819,-80.51676968,-169.55317312,68.64297750,-179.13281725,20.78123726
0.67214986,63.35301431,-2.23393403,1.25625337,0.25660397

>  <Name>
1xpf_lig

>  <RI>
0

>  <Rbt.Current_Directory>
/home/afrankz/demos/rdock_decoys_rna/rnas/1xpf

>  <Rbt.Executable>
rbdock ($Id: //depot/dev/client3/rdock/2013.1/src/exe/rbdock.cxx#4 $)

>  <Rbt.Library>
libRbt.so (2013.1, Build901 2013/11/27)

>  <Rbt.Parameter_File>
/export/apps/rDock/src/rDock_2013.1_src/data/scripts/dock_solv.prm

>  <Rbt.Receptor>
prm/pocket_docking_3.prm

>  <SCORE>
-7.91852

>  <SCORE.INTER>
0.1324

>  <SCORE.INTER.CONST>
1

>  <SCORE.INTER.POLAR>
-0.83761

>  <SCORE.INTER.ROT>
11

>  <SCORE.INTER.SOLV>
13.1861

>  <SCORE.INTER.VDW>
-12.4484

>  <SCORE.INTER.norm>
0.00945717

>  <SCORE.INTRA>
-8.05289

>  <SCORE.INTRA.DIHEDRAL>
-16.1813

>  <SCORE.INTRA.DIHEDRAL.0>
17.7811

>  <SCORE.INTRA.POLAR>
0

>  <SCORE.INTRA.POLAR.0>
0

>  <SCORE.INTRA.REPUL>
0

>  <SCORE.INTRA.REPUL.0>
0

>  <SCORE.INTRA.SOLV>
0.618807

>  <SCORE.INTRA.SOLV.lig_0>
-47.9565

>  <SCORE.INTRA.VDW>
-0.271622

>  <SCORE.INTRA.VDW.0>
0.515983

>  <SCORE.INTRA.norm>
-0.575207

>  <SCORE.RESTR>
0.00196936

>  <SCORE.RESTR.CAVITY>
0.00196936

>  <SCORE.RESTR.norm>
0.000140668

>  <SCORE.SYSTEM>
0

>  <SCORE.SYSTEM.CONST>
0

>  <SCORE.SYSTEM.DIHEDRAL>
0

>  <SCORE.SYSTEM.SOLV>
0

>  <SCORE.SYSTEM.norm>
0

>  <SCORE.heavy>
14

>  <SCORE.norm>
-0.565609

>  <RMSD>
2.935

$$$$
1xpf_lig
 OpenBabel02141814123D
libRbt.so/2013.1/901 2013/11/27
 14 13  0  0  0  0  0  0  0  0999 V2000
   18.8755   -3.3063   63.6130 N   0  0  0  0  0  0  0  0  0  0  0  0
   20.2667   -3.7140   63.6800 C   0  0  0  0  0  0  0  0  0  0  0  0
   21.1685   -2.5402   63.6098 C   0  0  0  0  0  0  0  0  0  0  0  0
   21.1069   -1.8725   64.9483 C   0  0  0  0  0  0  0  0  0  0  0  0
   19.8611   -1.0672   64.9598 N   0  0  0  0  0  0  0  0  0  0  0  0
   19.5381   -0.6187   66.3488 C   0  0  0  0  0  0  0  0  0  0  0  0
   19.1290    0.8620   66.4320 C   0  0  0  0  0  0  0  0  0  0  0  0
   20.1987    1.8361   65.9074 C   0  0  0  0  0  0  0  0  0  0  0  0
   19.7688    3.2624   66.2158 C   0  0  0  0  0  0  0  0  0  0  0  0
   20.7440    4.1088   65.5129 N   0  0  0  0  0  0  0  0  0  0  0  0
   20.3221    4.7479   64.2350 C   0  0  0  0  0  0  0  0  0  0  0  0
   21.6904    4.8869   63.5331 C   0  0  0  0  0  0  0  0  0  0  0  0
   21.7429    5.5161   62.1640 C   0  0  0  0  0  0  0  0  0  0  0  0
   23.0621    5.5445   61.5564 N   0  0  0  0  0  0  0  0  0  0  0  0
  1  2  1  0  0  0  0
  2  3  1  0  0  0  0
  3  4  1  0  0  0  0
  4  5  1  0  0  0  0
  5  6  1  0  0  0  0
  6  7  1  0  0  0  0
  7  8  1  0  0  0  0
  8  9  1  0  0  0  0
  9 10  1  0  0  0  0
 10 11  1  0  0  0  0
 11 12  1  0  0  0  0
 12 13  1  0  0  0  0
 13 14  1  0  0  0  0
M  END
>  <CHROM.1>
75.36324208,-79.81257674,166.72246592,134.91789680,-58.53411271,-172.20367928
-172.09511755,102.75380781,-152.90009011,-179.55649883,-177.12136995,20.53387535
1.26038269,64.47997308,-1.98482064,1.05718399,0.22492291

>  <Name>
1xpf_lig

>  <RI>
0

>  <Rbt.Current_Directory>
/home/afrankz/demos/rdock_decoys_rna/rnas/1xpf

>  <Rbt.Executable>
rbdock ($Id: //depot/dev/client3/rdock/2013.1/src/exe/rbdock.cxx#4 $)

>  <Rbt.Library>
libRbt.so (2013.1, Build901 2013/11/27)

>  <Rbt.Parameter_File>
/export/apps/rDock/src/rDock_2013.1_src/data/scripts/dock_solv.prm

>  <Rbt.Receptor>
prm/pocket_docking_3.prm

>  <SCORE>
-6.42038

>  <SCORE.INTER>
0.201266

>  <SCORE.INTER.CONST>
1

>  <SCORE.INTER.POLAR>
0

>  <SCORE.INTER.ROT>
11

>  <SCORE.INTER.SOLV>
4.59595

>  <SCORE.INTER.VDW>
-12.3311

>  <SCORE.INTER.norm>
0.0143762

>  <SCORE.INTRA>
-6.62165

>  <SCORE.INTRA.DIHEDRAL>
-12.4078

>  <SCORE.INTRA.DIHEDRAL.0>
17.7811

>  <SCORE.INTRA.POLAR>
0

>  <SCORE.INTRA.POLAR.0>
0

>  <SCORE.INTRA.REPUL>
0

>  <SCORE.INTRA.REPUL.0>
0

>  <SCORE.INTRA.SOLV>
2.43872

>  <SCORE.INTRA.SOLV.lig_0>
-47.9565

>  <SCORE.INTRA.VDW>
-1.63709

>  <SCORE.INTRA.VDW.0>
0.515983

>  <SCORE.INTRA.norm>
-0.472975

>  <SCORE.RESTR>
0

>  <SCORE.RESTR.CAVITY>
0

>  <SCORE.RESTR.norm>
0

>  <SCORE.SYSTEM>
0

>  <SCORE.SYSTEM.CONST>
0

>  <SCORE.SYSTEM.DIHEDRAL>
0

>  <SCORE.SYSTEM.SOLV>
0

>  <SCORE.SYSTEM.norm>
0

>  <SCORE.heavy>
14

>  <SCORE.norm>
-0.458599

>  <RMSD>
2.954

$$$$
1xpf_lig
 OpenBabel02141814123D
libRbt.so/2013.1/901 2013/11/27
 14 13  0  0  0  0  0  0  0  0999 V2000
   22.3215    3.7440   58.9074 N   0  0  0  0  0  0  0  0  0  0  0  0
   21.9390    4.1856   60.2359 C   0  0  0  0  0  0  0  0  0  0  0  0
   20.7111    3.4934   60.6931 C   0  0  0  0  0  0  0  0  0  0  0  0
   20.4541    3.9579   62.0930 C   0  0  0  0  0  0  0  0  0  0  0  0
   19.2587    3.2194   62.5684 N   0  0  0  0  0  0  0  0  0  0  0  0
   19.0399    3.4578   64.0280 C   0  0  0  0  0  0  0  0  0  0  0  0
   19.8760    2.5327   64.9291 C   0  0  0  0  0  0  0  0  0  0  0  0
   19.4978    1.0450   64.8193 C   0  0  0  0  0  0  0  0  0  0  0  0
   20.4280    0.2273   65.7027 C   0  0  0  0  0  0  0  0  0  0  0  0
   19.9534   -1.1576   65.5671 N   0  0  0  0  0  0  0  0  0  0  0  0
   20.5650   -2.0054   64.5056 C   0  0  0  0  0  0  0  0  0  0  0  0
   19.2989   -2.6669   63.9196 C   0  0  0  0  0  0  0  0  0  0  0  0
   19.4594   -3.7416   62.8744 C   0  0  0  0  0  0  0  0  0  0  0  0
   18.2169   -4.2078   62.2837 N   0  0  0  0  0  0  0  0  0  0  0  0
  1  2  1  0  0  0  0
  2  3  1  0  0  0  0
  3  4  1  0  0  0  0
  4  5  1  0  0  0  0
  5  6  1  0  0  0  0
  6  7  1  0  0  0  0
  7  8  1  0  0  0  0
  8  9  1  0  0  0  0
  9 10  1  0  0  0  0
 10 11  1  0  0  0  0
 11 12  1  0  0  0  0
 12 13  1  0  0  0  0
 13 14  1  0  0  0  0
M  END
>  <CHROM.1>
176.71719939,-177.60760973,171.45078263,-83.97703614,-65.43552325,177.46799731
177.89500333,91.56624006,-135.50811483,-173.90105875,-173.97852180,20.07288797
0.86330753,63.08083226,-0.62064963,-1.30032965,-2.62464447

>  <Name>
1xpf_lig

>  <RI>
0

>  <Rbt.Current_Directory>
/home/afrankz/demos/rdock_decoys_rna/rnas/1xpf

>  <Rbt.Executable>
rbdock ($Id: //depot/dev/client3/rdock/2013.1/src/exe/rbdock.cxx#4 $)

>  <Rbt.Library>
libRbt.so (2013.1, Build901 2013/11/27)

>  <Rbt.Parameter_File>
/export/apps/rDock/src/rDock_2013.1_src/data/scripts/dock_solv.prm

>  <Rbt.Receptor>
prm/pocket_docking_3.prm

>  <SCORE>
-9.25844

>  <SCORE.INTER>
0.202321

>  <SCORE.INTER.CONST>
1

>  <SCORE.INTER.POLAR>
-0.914494

>  <SCORE.INTER.ROT>
11

>  <SCORE.INTER.SOLV>
11.0945

>  <SCORE.INTER.VDW>
-11.4483

>  <SCORE.INTER.norm>
0.0144515

>  <SCORE.INTRA>
-9.46393

>  <SCORE.INTRA.DIHEDRAL>
-15.1536

>  <SCORE.INTRA.DIHEDRAL.0>
17.7811

>  <SCORE.INTRA.POLAR>
0

>  <SCORE.INTRA.POLAR.0>
0

>  <SCORE.INTRA.REPUL>
0

>  <SCORE.INTRA.REPUL.0>
0

>  <SCORE.INTRA.SOLV>
-0.640506

>  <SCORE.INTRA.SOLV.lig_0>
-47.9565

>  <SCORE.INTRA.VDW>
-1.56689

>  <SCORE.INTRA.VDW.0>
0.515983

>  <SCORE.INTRA.norm>
-0.675995

>  <SCORE.RESTR>
0.00316603

>  <SCORE.RESTR.CAVITY>
0.00316603

>  <SCORE.RESTR.norm>
0.000226145

>  <SCORE.SYSTEM>
0

>  <SCORE.SYSTEM.CONST>
0

>  <SCORE.SYSTEM.DIHEDRAL>
0

>  <SCORE.SYSTEM.SOLV>
0

>  <SCORE.SYSTEM.norm>
0

>  <SCORE.heavy>
14

>  <SCORE.norm>
-0.661317

>  <RMSD>
2.975

$$$$
1xpf_lig
 OpenBabel02141814123D
libRbt.so/2013.1/901 2013/11/27
 14 13  0  0  0  0  0  0  0  0999 V2000
   22.3246    3.5518   58.9252 N   0  0  0  0  0  0  0  0  0  0  0  0
   23.0363    3.9789   60.1156 C   0  0  0  0  0  0  0  0  0  0  0  0
   22.1091    4.5825   61.1014 C   0  0  0  0  0  0  0  0  0  0  0  0
   21.2202    3.4789   61.5844 C   0  0  0  0  0  0  0  0  0  0  0  0
   20.4896    4.0114   62.7605 N   0  0  0  0  0  0  0  0  0  0  0  0
   19.3125    3.1480   63.0829 C   0  0  0  0  0  0  0  0  0  0  0  0
   19.6120    2.0828   64.1518 C   0  0  0  0  0  0  0  0  0  0  0  0
   20.5117    0.9366   63.6566 C   0  0  0  0  0  0  0  0  0  0  0  0
   20.5525   -0.1574   64.7128 C   0  0  0  0  0  0  0  0  0  0  0  0
   21.3809   -1.2188   64.1222 N   0  0  0  0  0  0  0  0  0  0  0  0
   21.4769   -2.5161   64.8483 C   0  0  0  0  0  0  0  0  0  0  0  0
   20.8399   -3.4612   63.8065 C   0  0  0  0  0  0  0  0  0  0  0  0
   19.3971   -3.2513   63.4229 C   0  0  0  0  0  0  0  0  0  0  0  0
   18.8885   -4.1825   62.4307 N   0  0  0  0  0  0  0  0  0  0  0  0
  1  2  1  0  0  0  0
  2  3  1  0  0  0  0
  3  4  1  0  0  0  0
  4  5  1  0  0  0  0
  5  6  1  0  0  0  0
  6  7  1  0  0  0  0
  7  8  1  0  0  0  0
  8  9  1  0  0  0  0
  9 10  1  0  0  0  0
 10 11  1  0  0  0  0
 11 12  1  0  0  0  0
 12 13  1  0  0  0  0
 13 14  1  0  0  0  0
M  END
>  <CHROM.1>
67.24078875,168.58389671,164.03410741,94.47658589,-71.91277421,-170.87627298
177.59304025,-172.52344566,117.19132888,-62.94293524,179.62363669,20.79657556
0.78465895,62.76612270,-1.12463386,-1.09405894,-3.12400422

>  <Name>
1xpf_lig

>  <RI>
0

>  <Rbt.Current_Directory>
/home/afrankz/demos/rdock_decoys_rna/rnas/1xpf

>  <Rbt.Executable>
rbdock ($Id: //depot/dev/client3/rdock/2013.1/src/exe/rbdock.cxx#4 $)

>  <Rbt.Library>
libRbt.so (2013.1, Build901 2013/11/27)

>  <Rbt.Parameter_File>
/export/apps/rDock/src/rDock_2013.1_src/data/scripts/dock_solv.prm

>  <Rbt.Receptor>
prm/pocket_docking_3.prm

>  <SCORE>
-6.72463

>  <SCORE.INTER>
1.28538

>  <SCORE.INTER.CONST>
1

>  <SCORE.INTER.POLAR>
-0.925131

>  <SCORE.INTER.ROT>
11

>  <SCORE.INTER.SOLV>
9.94295

>  <SCORE.INTER.VDW>
-10.307

>  <SCORE.INTER.norm>
0.0918125

>  <SCORE.INTRA>
-8.01001

>  <SCORE.INTRA.DIHEDRAL>
-14.0131

>  <SCORE.INTRA.DIHEDRAL.0>
17.7811

>  <SCORE.INTRA.POLAR>
0

>  <SCORE.INTRA.POLAR.0>
0

>  <SCORE.INTRA.REPUL>
0

>  <SCORE.INTRA.REPUL.0>
0

>  <SCORE.INTRA.SOLV>
0.659301

>  <SCORE.INTRA.SOLV.lig_0>
-47.9565

>  <SCORE.INTRA.VDW>
-1.33311

>  <SCORE.INTRA.VDW.0>
0.515983

>  <SCORE.INTRA.norm>
-0.572144

>  <SCORE.RESTR>
0

>  <SCORE.RESTR.CAVITY>
0

>  <SCORE.RESTR.norm>
0

>  <SCORE.SYSTEM>
0

>  <SCORE.SYSTEM.CONST>
0

>  <SCORE.SYSTEM.DIHEDRAL>
0

>  <SCORE.SYSTEM.SOLV>
0

>  <SCORE.SYSTEM.norm>
0

>  <SCORE.heavy>
14

>  <SCORE.norm>
-0.480331

>  <RMSD>
2.980

$$$$
1xpf_lig
 OpenBabel02141814123D
libRbt.so/2013.1/901 2013/11/27
 14 13  0  0  0  0  0  0  0  0999 V2000
   15.8019   -5.8466   62.9647 N   0  0  0  0  0  0  0  0  0  0  0  0
   17.1995   -5.6610   62.6206 C   0  0  0  0  0  0  0  0  0  0  0  0
   17.8496   -4.6969   63.5391 C   0  0  0  0  0  0  0  0  0  0  0  0
   19.2779   -4.5876   63.1039 C   0  0  0  0  0  0  0  0  0  0  0  0
   19.9157   -3.5921   64.0000 N   0  0  0  0  0  0  0  0  0  0  0  0
   21.3007   -3.2768   63.5337 C   0  0  0  0  0  0  0  0  0  0  0  0
   21.3389   -2.2624   62.3776 C   0  0  0  0  0  0  0  0  0  0  0  0
   22.7513   -1.9940   61.8285 C   0  0  0  0  0  0  0  0  0  0  0  0
   22.6656   -0.9610   60.7151 C   0  0  0  0  0  0  0  0  0  0  0  0
   22.2583    0.2819   61.3865 N   0  0  0  0  0  0  0  0  0  0  0  0
   21.6333    1.3512   60.5586 C   0  0  0  0  0  0  0  0  0  0  0  0
   22.6144    2.5134   60.8255 C   0  0  0  0  0  0  0  0  0  0  0  0
   22.3846    3.8311   60.1300 C   0  0  0  0  0  0  0  0  0  0  0  0
   22.5146    3.7878   58.6838 N   0  0  0  0  0  0  0  0  0  0  0  0
  1  2  1  0  0  0  0
  2  3  1  0  0  0  0
  3  4  1  0  0  0  0
  4  5  1  0  0  0  0
  5  6  1  0  0  0  0
  6  7  1  0  0  0  0
  7  8  1  0  0  0  0
  8  9  1  0  0  0  0
  9 10  1  0  0  0  0
 10 11  1  0  0  0  0
 11 12  1  0  0  0  0
 12 13  1  0  0  0  0
 13 14  1  0  0  0  0
M  END
>  <CHROM.1>
179.62977219,178.37803878,-172.56157580,80.61750794,-176.39753957,-178.89369036
67.23468248,-159.15960548,-121.64281501,178.12649475,-64.73582746,20.67925280
-1.50812695,61.87630517,2.09498000,0.20093535,2.63733739

>  <Name>
1xpf_lig

>  <RI>
0

>  <Rbt.Current_Directory>
/home/afrankz/demos/rdock_decoys_rna/rnas/1xpf

>  <Rbt.Executable>
rbdock ($Id: //depot/dev/client3/rdock/2013.1/src/exe/rbdock.cxx#4 $)

>  <Rbt.Library>
libRbt.so (2013.1, Build901 2013/11/27)

>  <Rbt.Parameter_File>
/export/apps/rDock/src/rDock_2013.1_src/data/scripts/dock_solv.prm

>  <Rbt.Receptor>
prm/pocket_docking_4.prm

>  <SCORE>
-9.03027

>  <SCORE.INTER>
0.0279074

>  <SCORE.INTER.CONST>
1

>  <SCORE.INTER.POLAR>
-0.979796

>  <SCORE.INTER.ROT>
11

>  <SCORE.INTER.SOLV>
7.39056

>  <SCORE.INTER.VDW>
-10.1123

>  <SCORE.INTER.norm>
0.00199338

>  <SCORE.INTRA>
-9.05818

>  <SCORE.INTRA.DIHEDRAL>
-15.5403

>  <SCORE.INTRA.DIHEDRAL.0>
17.7811

>  <SCORE.INTRA.POLAR>
0

>  <SCORE.INTRA.POLAR.0>
0

>  <SCORE.INTRA.REPUL>
0

>  <SCORE.INTRA.REPUL.0>
0

>  <SCORE.INTRA.SOLV>
0.0773774

>  <SCORE.INTRA.SOLV.lig_0>
-47.9565

>  <SCORE.INTRA.VDW>
-1.32669

>  <SCORE.INTRA.VDW.0>
0.515983

>  <SCORE.INTRA.norm>
-0.647013

>  <SCORE.RESTR>
0

>  <SCORE.RESTR.CAVITY>
0

>  <SCORE.RESTR.norm>
0

>  <SCORE.SYSTEM>
0

>  <SCORE.SYSTEM.CONST>
0

>  <SCORE.SYSTEM.DIHEDRAL>
0

>  <SCORE.SYSTEM.SOLV>
0

>  <SCORE.SYSTEM.norm>
0

>  <SCORE.heavy>
14

>  <SCORE.norm>
-0.645019

>  <RMSD>
3.000

$$$$
1xpf_lig
 OpenBabel02141814123D
libRbt.so/2013.1/901 2013/11/27
 14 13  0  0  0  0  0  0  0  0999 V2000
   19.2144   -3.8810   62.3267 N   0  0  0  0  0  0  0  0  0  0  0  0
   19.6330   -3.1765   63.5244 C   0  0  0  0  0  0  0  0  0  0  0  0
   21.1052   -3.2289   63.6847 C   0  0  0  0  0  0  0  0  0  0  0  0
   21.4256   -2.4834   64.9428 C   0  0  0  0  0  0  0  0  0  0  0  0
   21.1905   -1.0477   64.6525 N   0  0  0  0  0  0  0  0  0  0  0  0
   20.0567   -0.5242   65.4743 C   0  0  0  0  0  0  0  0  0  0  0  0
   20.1148    0.9973   65.6948 C   0  0  0  0  0  0  0  0  0  0  0  0
   20.2939    1.8098   64.4001 C   0  0  0  0  0  0  0  0  0  0  0  0
   18.9477    1.9423   63.7042 C   0  0  0  0  0  0  0  0  0  0  0  0
   19.2765    2.2846   62.3127 N   0  0  0  0  0  0  0  0  0  0  0  0
   19.8680    3.6252   62.0437 C   0  0  0  0  0  0  0  0  0  0  0  0
   20.5986    3.3406   60.7135 C   0  0  0  0  0  0  0  0  0  0  0  0
   21.6188    4.3345   60.2190 C   0  0  0  0  0  0  0  0  0  0  0  0
   22.1717    4.0395   58.9085 N   0  0  0  0  0  0  0  0  0  0  0  0
  1  2  1  0  0  0  0
  2  3  1  0  0  0  0
  3  4  1  0  0  0  0
  4  5  1  0  0  0  0
  5  6  1  0  0  0  0
  6  7  1  0  0  0  0
  7  8  1  0  0  0  0
  8  9  1  0  0  0  0
  9 10  1  0  0  0  0
 10 11  1  0  0  0  0
 11 12  1  0  0  0  0
 12 13  1  0  0  0  0
 13 14  1  0  0  0  0
M  END
>  <CHROM.1>
-179.76934134,-71.34990640,114.64874323,155.76187734,51.10744028,80.26891402
-160.58131835,-68.69645340,156.16462876,-165.61934435,-175.10631038,20.39393710
0.57381392,63.04339743,-1.95331770,1.35012469,-0.12944551

>  <Name>
1xpf_lig

>  <RI>
0

>  <Rbt.Current_Directory>
/home/afrankz/demos/rdock_decoys_rna/rnas/1xpf

>  <Rbt.Executable>
rbdock ($Id: //depot/dev/client3/rdock/2013.1/src/exe/rbdock.cxx#4 $)

>  <Rbt.Library>
libRbt.so (2013.1, Build901 2013/11/27)

>  <Rbt.Parameter_File>
/export/apps/rDock/src/rDock_2013.1_src/data/scripts/dock_solv.prm

>  <Rbt.Receptor>
prm/pocket_docking_3.prm

>  <SCORE>
-6.46892

>  <SCORE.INTER>
-0.703792

>  <SCORE.INTER.CONST>
1

>  <SCORE.INTER.POLAR>
-0.780447

>  <SCORE.INTER.ROT>
11

>  <SCORE.INTER.SOLV>
11.949

>  <SCORE.INTER.VDW>
-12.784

>  <SCORE.INTER.norm>
-0.0502708

>  <SCORE.INTRA>
-5.76513

>  <SCORE.INTRA.DIHEDRAL>
-11.2331

>  <SCORE.INTRA.DIHEDRAL.0>
17.7811

>  <SCORE.INTRA.POLAR>
0

>  <SCORE.INTRA.POLAR.0>
0

>  <SCORE.INTRA.REPUL>
0

>  <SCORE.INTRA.REPUL.0>
0

>  <SCORE.INTRA.SOLV>
0.368274

>  <SCORE.INTRA.SOLV.lig_0>
-47.9565

>  <SCORE.INTRA.VDW>
-0.332703

>  <SCORE.INTRA.VDW.0>
0.515983

>  <SCORE.INTRA.norm>
-0.411795

>  <SCORE.RESTR>
0

>  <SCORE.RESTR.CAVITY>
0

>  <SCORE.RESTR.norm>
0

>  <SCORE.SYSTEM>
0

>  <SCORE.SYSTEM.CONST>
0

>  <SCORE.SYSTEM.DIHEDRAL>
0

>  <SCORE.SYSTEM.SOLV>
0

>  <SCORE.SYSTEM.norm>
0

>  <SCORE.heavy>
14

>  <SCORE.norm>
-0.462066

>  <RMSD>
3.006

$$$$
1xpf_lig
 OpenBabel02141814123D
libRbt.so/2013.1/901 2013/11/27
 14 13  0  0  0  0  0  0  0  0999 V2000
   21.5700    6.0931   65.0338 N   0  0  0  0  0  0  0  0  0  0  0  0
   20.2016    6.0475   65.5151 C   0  0  0  0  0  0  0  0  0  0  0  0
   19.5881    4.7253   65.2484 C   0  0  0  0  0  0  0  0  0  0  0  0
   20.2670    3.7475   66.1563 C   0  0  0  0  0  0  0  0  0  0  0  0
   19.6483    2.4259   65.8893 N   0  0  0  0  0  0  0  0  0  0  0  0
   19.8560    1.5048   67.0483 C   0  0  0  0  0  0  0  0  0  0  0  0
   18.7775    0.4133   67.1608 C   0  0  0  0  0  0  0  0  0  0  0  0
   18.7033   -0.5198   65.9393 C   0  0  0  0  0  0  0  0  0  0  0  0
   17.5102   -1.4508   66.0946 C   0  0  0  0  0  0  0  0  0  0  0  0
   17.5489   -2.3125   64.9040 N   0  0  0  0  0  0  0  0  0  0  0  0
   16.6788   -3.5217   64.8878 C   0  0  0  0  0  0  0  0  0  0  0  0
   16.8157   -3.9382   63.4072 C   0  0  0  0  0  0  0  0  0  0  0  0
   16.0027   -5.1035   62.9032 C   0  0  0  0  0  0  0  0  0  0  0  0
   16.1490   -5.3807   61.4848 N   0  0  0  0  0  0  0  0  0  0  0  0
  1  2  1  0  0  0  0
  2  3  1  0  0  0  0
  3  4  1  0  0  0  0
  4  5  1  0  0  0  0
  5  6  1  0  0  0  0
  6  7  1  0  0  0  0
  7  8  1  0  0  0  0
  8  9  1  0  0  0  0
  9 10  1  0  0  0  0
 10 11  1  0  0  0  0
 11 12  1  0  0  0  0
 12 13  1  0  0  0  0
 13 14  1  0  0  0  0
M  END
>  <CHROM.1>
69.82537874,179.85978652,-158.60532121,153.90210020,60.79406065,-173.76270621
-178.68172252,167.57632965,169.16300590,-175.93138282,177.18964158,18.52257538
0.19500258,65.11981246,0.05673742,-1.17781590,-1.25429825

>  <Name>
1xpf_lig

>  <RI>
0

>  <Rbt.Current_Directory>
/home/afrankz/demos/rdock_decoys_rna/rnas/1xpf

>  <Rbt.Executable>
rbdock ($Id: //depot/dev/client3/rdock/2013.1/src/exe/rbdock.cxx#4 $)

>  <Rbt.Library>
libRbt.so (2013.1, Build901 2013/11/27)

>  <Rbt.Parameter_File>
/export/apps/rDock/src/rDock_2013.1_src/data/scripts/dock_solv.prm

>  <Rbt.Receptor>
prm/pocket_docking_4.prm

>  <SCORE>
-8.23338

>  <SCORE.INTER>
1.27008

>  <SCORE.INTER.CONST>
1

>  <SCORE.INTER.POLAR>
0

>  <SCORE.INTER.ROT>
11

>  <SCORE.INTER.SOLV>
3.92209

>  <SCORE.INTER.VDW>
-11.394

>  <SCORE.INTER.norm>
0.0907202

>  <SCORE.INTRA>
-9.50347

>  <SCORE.INTRA.DIHEDRAL>
-16.1273

>  <SCORE.INTRA.DIHEDRAL.0>
17.7811

>  <SCORE.INTRA.POLAR>
0

>  <SCORE.INTRA.POLAR.0>
0

>  <SCORE.INTRA.REPUL>
0

>  <SCORE.INTRA.REPUL.0>
0

>  <SCORE.INTRA.SOLV>
0.246565

>  <SCORE.INTRA.SOLV.lig_0>
-47.9565

>  <SCORE.INTRA.VDW>
-1.5631

>  <SCORE.INTRA.VDW.0>
0.515983

>  <SCORE.INTRA.norm>
-0.678819

>  <SCORE.RESTR>
0

>  <SCORE.RESTR.CAVITY>
0

>  <SCORE.RESTR.norm>
0

>  <SCORE.SYSTEM>
0

>  <SCORE.SYSTEM.CONST>
0

>  <SCORE.SYSTEM.DIHEDRAL>
0

>  <SCORE.SYSTEM.SOLV>
0

>  <SCORE.SYSTEM.norm>
0

>  <SCORE.heavy>
14

>  <SCORE.norm>
-0.588099

>  <RMSD>
3.083

$$$$
1xpf_lig
 OpenBabel02141814123D
libRbt.so/2013.1/901 2013/11/27
 14 13  0  0  0  0  0  0  0  0999 V2000
   15.8384   -6.0463   66.0895 N   0  0  0  0  0  0  0  0  0  0  0  0
   15.9236   -4.7995   65.3518 C   0  0  0  0  0  0  0  0  0  0  0  0
   16.5705   -3.7435   66.1656 C   0  0  0  0  0  0  0  0  0  0  0  0
   16.6726   -2.5321   65.2918 C   0  0  0  0  0  0  0  0  0  0  0  0
   17.4616   -1.5312   66.0509 N   0  0  0  0  0  0  0  0  0  0  0  0
   17.8123   -0.3681   65.1795 C   0  0  0  0  0  0  0  0  0  0  0  0
   18.9560    0.4930   65.7428 C   0  0  0  0  0  0  0  0  0  0  0  0
   20.2594   -0.2860   65.9935 C   0  0  0  0  0  0  0  0  0  0  0  0
   20.7959   -0.8010   64.6664 C   0  0  0  0  0  0  0  0  0  0  0  0
   21.1383    0.4090   63.9048 N   0  0  0  0  0  0  0  0  0  0  0  0
   21.7065    0.2375   62.5383 C   0  0  0  0  0  0  0  0  0  0  0  0
   21.9642    1.7125   62.1613 C   0  0  0  0  0  0  0  0  0  0  0  0
   22.5536    2.0234   60.8090 C   0  0  0  0  0  0  0  0  0  0  0  0
   22.7930    3.4340   60.5580 N   0  0  0  0  0  0  0  0  0  0  0  0
  1  2  1  0  0  0  0
  2  3  1  0  0  0  0
  3  4  1  0  0  0  0
  4  5  1  0  0  0  0
  5  6  1  0  0  0  0
  6  7  1  0  0  0  0
  7  8  1  0  0  0  0
  8  9  1  0  0  0  0
  9 10  1  0  0  0  0
 10 11  1  0  0  0  0
 11 12  1  0  0  0  0
 12 13  1  0  0  0  0
 13 14  1  0  0  0  0
M  END
>  <CHROM.1>
177.07192423,-173.47579669,170.70990827,-162.80682233,57.48701347,63.89899369
64.89818193,179.69445700,-177.53206722,-179.81065332,-178.44073073,19.31757248
-0.84270639,64.32172388,-3.10113383,0.89223669,0.91784801

>  <Name>
1xpf_lig

>  <RI>
0

>  <Rbt.Current_Directory>
/home/afrankz/demos/rdock_decoys_rna/rnas/1xpf

>  <Rbt.Executable>
rbdock ($Id: //depot/dev/client3/rdock/2013.1/src/exe/rbdock.cxx#4 $)

>  <Rbt.Library>
libRbt.so (2013.1, Build901 2013/11/27)

>  <Rbt.Parameter_File>
/export/apps/rDock/src/rDock_2013.1_src/data/scripts/dock_solv.prm

>  <Rbt.Receptor>
prm/pocket_docking_4.prm

>  <SCORE>
-5.85474

>  <SCORE.INTER>
3.50438

>  <SCORE.INTER.CONST>
1

>  <SCORE.INTER.POLAR>
0

>  <SCORE.INTER.ROT>
11

>  <SCORE.INTER.SOLV>
3.03923

>  <SCORE.INTER.VDW>
-9.61016

>  <SCORE.INTER.norm>
0.250313

>  <SCORE.INTRA>
-9.37324

>  <SCORE.INTRA.DIHEDRAL>
-17.1004

>  <SCORE.INTRA.DIHEDRAL.0>
17.7811

>  <SCORE.INTRA.POLAR>
0

>  <SCORE.INTRA.POLAR.0>
0

>  <SCORE.INTRA.REPUL>
0

>  <SCORE.INTRA.REPUL.0>
0

>  <SCORE.INTRA.SOLV>
0.378501

>  <SCORE.INTRA.SOLV.lig_0>
-47.9565

>  <SCORE.INTRA.VDW>
-1.01229

>  <SCORE.INTRA.VDW.0>
0.515983

>  <SCORE.INTRA.norm>
-0.669517

>  <SCORE.RESTR>
0.0141169

>  <SCORE.RESTR.CAVITY>
0.0141169

>  <SCORE.RESTR.norm>
0.00100835

>  <SCORE.SYSTEM>
0

>  <SCORE.SYSTEM.CONST>
0

>  <SCORE.SYSTEM.DIHEDRAL>
0

>  <SCORE.SYSTEM.SOLV>
0

>  <SCORE.SYSTEM.norm>
0

>  <SCORE.heavy>
14

>  <SCORE.norm>
-0.418196

>  <RMSD>
3.091

$$$$
1xpf_lig
 OpenBabel02141814123D
libRbt.so/2013.1/901 2013/11/27
 14 13  0  0  0  0  0  0  0  0999 V2000
   22.3764    3.3015   58.8397 N   0  0  0  0  0  0  0  0  0  0  0  0
   21.8913    2.7075   60.0718 C   0  0  0  0  0  0  0  0  0  0  0  0
   20.4167    2.5627   60.0474 C   0  0  0  0  0  0  0  0  0  0  0  0
   20.0335    1.8718   61.3191 C   0  0  0  0  0  0  0  0  0  0  0  0
   20.2584    2.8486   62.4128 N   0  0  0  0  0  0  0  0  0  0  0  0
   19.5643    2.4082   63.6615 C   0  0  0  0  0  0  0  0  0  0  0  0
   20.2482    1.2150   64.3511 C   0  0  0  0  0  0  0  0  0  0  0  0
   19.4800    0.6735   65.5698 C   0  0  0  0  0  0  0  0  0  0  0  0
   20.2420   -0.5053   66.1561 C   0  0  0  0  0  0  0  0  0  0  0  0
   20.1310   -1.5653   65.1434 N   0  0  0  0  0  0  0  0  0  0  0  0
   21.3817   -2.0372   64.4856 C   0  0  0  0  0  0  0  0  0  0  0  0
   20.9728   -3.4815   64.1235 C   0  0  0  0  0  0  0  0  0  0  0  0
   19.9064   -3.6935   63.0791 C   0  0  0  0  0  0  0  0  0  0  0  0
   18.5757   -3.2616   63.4703 N   0  0  0  0  0  0  0  0  0  0  0  0
  1  2  1  0  0  0  0
  2  3  1  0  0  0  0
  3  4  1  0  0  0  0
  4  5  1  0  0  0  0
  5  6  1  0  0  0  0
  6  7  1  0  0  0  0
  7  8  1  0  0  0  0
  8  9  1  0  0  0  0
  9 10  1  0  0  0  0
 10 11  1  0  0  0  0
 11 12  1  0  0  0  0
 12 13  1  0  0  0  0
 13 14  1  0  0  0  0
M  END
>  <CHROM.1>
176.71915478,70.39447672,164.37833837,72.94547005,-175.04507002,179.46240108
-68.29002326,116.12088834,152.74491576,67.59163019,-67.79957724,20.39134078
0.21741239,63.05246571,-0.91995423,-1.30328605,3.10549078

>  <Name>
1xpf_lig

>  <RI>
0

>  <Rbt.Current_Directory>
/home/afrankz/demos/rdock_decoys_rna/rnas/1xpf

>  <Rbt.Executable>
rbdock ($Id: //depot/dev/client3/rdock/2013.1/src/exe/rbdock.cxx#4 $)

>  <Rbt.Library>
libRbt.so (2013.1, Build901 2013/11/27)

>  <Rbt.Parameter_File>
/export/apps/rDock/src/rDock_2013.1_src/data/scripts/dock_solv.prm

>  <Rbt.Receptor>
prm/pocket_docking_4.prm

>  <SCORE>
-8.87175

>  <SCORE.INTER>
-2.20889

>  <SCORE.INTER.CONST>
1

>  <SCORE.INTER.POLAR>
-0.843713

>  <SCORE.INTER.ROT>
11

>  <SCORE.INTER.SOLV>
8.50731

>  <SCORE.INTER.VDW>
-12.4293

>  <SCORE.INTER.norm>
-0.157778

>  <SCORE.INTRA>
-6.66286

>  <SCORE.INTRA.DIHEDRAL>
-14.5258

>  <SCORE.INTRA.DIHEDRAL.0>
17.7811

>  <SCORE.INTRA.POLAR>
0

>  <SCORE.INTRA.POLAR.0>
0

>  <SCORE.INTRA.REPUL>
0

>  <SCORE.INTRA.REPUL.0>
0

>  <SCORE.INTRA.SOLV>
2.90527

>  <SCORE.INTRA.SOLV.lig_0>
-47.9565

>  <SCORE.INTRA.VDW>
-0.852573

>  <SCORE.INTRA.VDW.0>
0.515983

>  <SCORE.INTRA.norm>
-0.475919

>  <SCORE.RESTR>
0

>  <SCORE.RESTR.CAVITY>
0

>  <SCORE.RESTR.norm>
0

>  <SCORE.SYSTEM>
0

>  <SCORE.SYSTEM.CONST>
0

>  <SCORE.SYSTEM.DIHEDRAL>
0

>  <SCORE.SYSTEM.SOLV>
0

>  <SCORE.SYSTEM.norm>
0

>  <SCORE.heavy>
14

>  <SCORE.norm>
-0.633697

>  <RMSD>
3.123

$$$$
1xpf_lig
 OpenBabel02141814123D
libRbt.so/2013.1/901 2013/11/27
 14 13  0  0  0  0  0  0  0  0999 V2000
   15.3286   -6.2216   64.8391 N   0  0  0  0  0  0  0  0  0  0  0  0
   15.5551   -4.8695   64.3630 C   0  0  0  0  0  0  0  0  0  0  0  0
   16.4535   -4.1273   65.2782 C   0  0  0  0  0  0  0  0  0  0  0  0
   16.6258   -2.7600   64.6931 C   0  0  0  0  0  0  0  0  0  0  0  0
   17.5300   -2.0216   65.6085 N   0  0  0  0  0  0  0  0  0  0  0  0
   17.8422   -0.6669   65.0587 C   0  0  0  0  0  0  0  0  0  0  0  0
   18.8925    0.0983   65.8821 C   0  0  0  0  0  0  0  0  0  0  0  0
   18.4530    0.4052   67.3247 C   0  0  0  0  0  0  0  0  0  0  0  0
   19.5054    1.2778   67.9920 C   0  0  0  0  0  0  0  0  0  0  0  0
   19.3601    2.5948   67.3549 N   0  0  0  0  0  0  0  0  0  0  0  0
   20.2926    2.9416   66.2460 C   0  0  0  0  0  0  0  0  0  0  0  0
   19.8187    4.3763   65.9278 C   0  0  0  0  0  0  0  0  0  0  0  0
   20.4844    5.1276   64.8029 C   0  0  0  0  0  0  0  0  0  0  0  0
   20.0276    6.4955   64.6292 N   0  0  0  0  0  0  0  0  0  0  0  0
  1  2  1  0  0  0  0
  2  3  1  0  0  0  0
  3  4  1  0  0  0  0
  4  5  1  0  0  0  0
  5  6  1  0  0  0  0
  6  7  1  0  0  0  0
  7  8  1  0  0  0  0
  8  9  1  0  0  0  0
  9 10  1  0  0  0  0
 10 11  1  0  0  0  0
 11 12  1  0  0  0  0
 12 13  1  0  0  0  0
 13 14  1  0  0  0  0
M  END
>  <CHROM.1>
179.63465470,-179.77125305,176.05415150,-173.91314501,-62.71539198,-174.41669584
71.94959860,-98.09769924,-178.26662293,-178.34822871,-176.51710792,18.29792680
0.18929198,65.71435512,2.63168084,1.08984543,2.22969158

>  <Name>
1xpf_lig

>  <RI>
0

>  <Rbt.Current_Directory>
/home/afrankz/demos/rdock_decoys_rna/rnas/1xpf

>  <Rbt.Executable>
rbdock ($Id: //depot/dev/client3/rdock/2013.1/src/exe/rbdock.cxx#4 $)

>  <Rbt.Library>
libRbt.so (2013.1, Build901 2013/11/27)

>  <Rbt.Parameter_File>
/export/apps/rDock/src/rDock_2013.1_src/data/scripts/dock_solv.prm

>  <Rbt.Receptor>
prm/pocket_docking_4.prm

>  <SCORE>
-8.75511

>  <SCORE.INTER>
0.760822

>  <SCORE.INTER.CONST>
1

>  <SCORE.INTER.POLAR>
0

>  <SCORE.INTER.ROT>
11

>  <SCORE.INTER.SOLV>
6.13469

>  <SCORE.INTER.VDW>
-12.471

>  <SCORE.INTER.norm>
0.0543444

>  <SCORE.INTRA>
-9.51818

>  <SCORE.INTRA.DIHEDRAL>
-16.1515

>  <SCORE.INTRA.DIHEDRAL.0>
17.7811

>  <SCORE.INTRA.POLAR>
0

>  <SCORE.INTRA.POLAR.0>
0

>  <SCORE.INTRA.REPUL>
0

>  <SCORE.INTRA.REPUL.0>
0

>  <SCORE.INTRA.SOLV>
-0.190224

>  <SCORE.INTRA.SOLV.lig_0>
-47.9565

>  <SCORE.INTRA.VDW>
-1.34732

>  <SCORE.INTRA.VDW.0>
0.515983

>  <SCORE.INTRA.norm>
-0.67987

>  <SCORE.RESTR>
0.00224779

>  <SCORE.RESTR.CAVITY>
0.00224779

>  <SCORE.RESTR.norm>
0.000160557

>  <SCORE.SYSTEM>
0

>  <SCORE.SYSTEM.CONST>
0

>  <SCORE.SYSTEM.DIHEDRAL>
0

>  <SCORE.SYSTEM.SOLV>
0

>  <SCORE.SYSTEM.norm>
0

>  <SCORE.heavy>
14

>  <SCORE.norm>
-0.625365

>  <RMSD>
3.178

$$$$
1xpf_lig
 OpenBabel02141814123D
libRbt.so/2013.1/901 2013/11/27
 14 13  0  0  0  0  0  0  0  0999 V2000
   21.2626    5.6601   62.6817 N   0  0  0  0  0  0  0  0  0  0  0  0
   21.5016    4.9891   63.9462 C   0  0  0  0  0  0  0  0  0  0  0  0
   20.4204    4.0216   64.2473 C   0  0  0  0  0  0  0  0  0  0  0  0
   20.7828    3.3643   65.5426 C   0  0  0  0  0  0  0  0  0  0  0  0
   19.7009    2.3935   65.8390 N   0  0  0  0  0  0  0  0  0  0  0  0
   19.9038    1.7754   67.1850 C   0  0  0  0  0  0  0  0  0  0  0  0
   18.7046    0.9355   67.6574 C   0  0  0  0  0  0  0  0  0  0  0  0
   18.4601   -0.3315   66.8187 C   0  0  0  0  0  0  0  0  0  0  0  0
   17.2049   -1.0283   67.3218 C   0  0  0  0  0  0  0  0  0  0  0  0
   17.1854   -2.3198   66.6197 N   0  0  0  0  0  0  0  0  0  0  0  0
   16.5709   -2.3689   65.2634 C   0  0  0  0  0  0  0  0  0  0  0  0
   16.5123   -3.8962   65.0440 C   0  0  0  0  0  0  0  0  0  0  0  0
   15.9400   -4.4221   63.7521 C   0  0  0  0  0  0  0  0  0  0  0  0
   15.9080   -5.8704   63.6446 N   0  0  0  0  0  0  0  0  0  0  0  0
  1  2  1  0  0  0  0
  2  3  1  0  0  0  0
  3  4  1  0  0  0  0
  4  5  1  0  0  0  0
  5  6  1  0  0  0  0
  6  7  1  0  0  0  0
  7  8  1  0  0  0  0
  8  9  1  0  0  0  0
  9 10  1  0  0  0  0
 10 11  1  0  0  0  0
 11 12  1  0  0  0  0
 12 13  1  0  0  0  0
 13 14  1  0  0  0  0
M  END
>  <CHROM.1>
178.47277857,-179.82828372,-174.56282388,170.52771437,66.63323111,-176.44048667
-170.89237506,-85.59809735,-169.30979486,-179.99435732,-179.13057328,18.57561950
0.20739380,65.39766121,-0.02070037,-1.07124831,-1.64050363

>  <Name>
1xpf_lig

>  <RI>
0

>  <Rbt.Current_Directory>
/home/afrankz/demos/rdock_decoys_rna/rnas/1xpf

>  <Rbt.Executable>
rbdock ($Id: //depot/dev/client3/rdock/2013.1/src/exe/rbdock.cxx#4 $)

>  <Rbt.Library>
libRbt.so (2013.1, Build901 2013/11/27)

>  <Rbt.Parameter_File>
/export/apps/rDock/src/rDock_2013.1_src/data/scripts/dock_solv.prm

>  <Rbt.Receptor>
prm/pocket_docking_7.prm

>  <SCORE>
-9.95

>  <SCORE.INTER>
0.225289

>  <SCORE.INTER.CONST>
1

>  <SCORE.INTER.POLAR>
0

>  <SCORE.INTER.ROT>
11

>  <SCORE.INTER.SOLV>
7.0218

>  <SCORE.INTER.VDW>
-13.1237

>  <SCORE.INTER.norm>
0.0160921

>  <SCORE.INTRA>
-10.1753

>  <SCORE.INTRA.DIHEDRAL>
-16.5926

>  <SCORE.INTRA.DIHEDRAL.0>
17.7811

>  <SCORE.INTRA.POLAR>
0

>  <SCORE.INTRA.POLAR.0>
0

>  <SCORE.INTRA.REPUL>
0

>  <SCORE.INTRA.REPUL.0>
0

>  <SCORE.INTRA.SOLV>
-0.641245

>  <SCORE.INTRA.SOLV.lig_0>
-47.9565

>  <SCORE.INTRA.VDW>
-1.55836

>  <SCORE.INTRA.VDW.0>
0.515983

>  <SCORE.INTRA.norm>
-0.726807

>  <SCORE.RESTR>
0

>  <SCORE.RESTR.CAVITY>
0

>  <SCORE.RESTR.norm>
0

>  <SCORE.SYSTEM>
0

>  <SCORE.SYSTEM.CONST>
0

>  <SCORE.SYSTEM.DIHEDRAL>
0

>  <SCORE.SYSTEM.SOLV>
0

>  <SCORE.SYSTEM.norm>
0

>  <SCORE.heavy>
14

>  <SCORE.norm>
-0.710715

>  <RMSD>
3.181

$$$$
1xpf_lig
 OpenBabel02141814123D
libRbt.so/2013.1/901 2013/11/27
 14 13  0  0  0  0  0  0  0  0999 V2000
   17.6086   -4.3382   63.1577 N   0  0  0  0  0  0  0  0  0  0  0  0
   17.6584   -3.0440   63.8125 C   0  0  0  0  0  0  0  0  0  0  0  0
   16.4113   -2.7829   64.5692 C   0  0  0  0  0  0  0  0  0  0  0  0
   16.5100   -1.3813   65.0861 C   0  0  0  0  0  0  0  0  0  0  0  0
   17.5970   -1.3807   66.0956 N   0  0  0  0  0  0  0  0  0  0  0  0
   17.6224   -0.0843   66.8396 C   0  0  0  0  0  0  0  0  0  0  0  0
   19.0236    0.3022   67.3438 C   0  0  0  0  0  0  0  0  0  0  0  0
   20.0613    0.4892   66.2228 C   0  0  0  0  0  0  0  0  0  0  0  0
   19.7216    1.7441   65.4329 C   0  0  0  0  0  0  0  0  0  0  0  0
   20.6795    1.7566   64.3176 N   0  0  0  0  0  0  0  0  0  0  0  0
   20.2552    2.3922   63.0388 C   0  0  0  0  0  0  0  0  0  0  0  0
   21.2723    1.7569   62.0661 C   0  0  0  0  0  0  0  0  0  0  0  0
   21.2232    2.1444   60.6099 C   0  0  0  0  0  0  0  0  0  0  0  0
   22.1874    1.4618   59.7647 N   0  0  0  0  0  0  0  0  0  0  0  0
  1  2  1  0  0  0  0
  2  3  1  0  0  0  0
  3  4  1  0  0  0  0
  4  5  1  0  0  0  0
  5  6  1  0  0  0  0
  6  7  1  0  0  0  0
  7  8  1  0  0  0  0
  8  9  1  0  0  0  0
  9 10  1  0  0  0  0
 10 11  1  0  0  0  0
 11 12  1  0  0  0  0
 12 13  1  0  0  0  0
 13 14  1  0  0  0  0
M  END
>  <CHROM.1>
-174.48665821,-67.59938755,-170.37895900,-150.91954396,61.01171192,69.70833000
-174.48655755,150.27354765,-160.69954020,-179.14187550,-177.97465067,19.13068816
-0.06862966,64.16872065,2.93503557,0.91638089,1.09263080

>  <Name>
1xpf_lig

>  <RI>
0

>  <Rbt.Current_Directory>
/home/afrankz/demos/rdock_decoys_rna/rnas/1xpf

>  <Rbt.Executable>
rbdock ($Id: //depot/dev/client3/rdock/2013.1/src/exe/rbdock.cxx#4 $)

>  <Rbt.Library>
libRbt.so (2013.1, Build901 2013/11/27)

>  <Rbt.Parameter_File>
/export/apps/rDock/src/rDock_2013.1_src/data/scripts/dock_solv.prm

>  <Rbt.Receptor>
prm/pocket_docking_4.prm

>  <SCORE>
-9.47913

>  <SCORE.INTER>
-0.761474

>  <SCORE.INTER.CONST>
1

>  <SCORE.INTER.POLAR>
-0.894427

>  <SCORE.INTER.ROT>
11

>  <SCORE.INTER.SOLV>
6.90367

>  <SCORE.INTER.VDW>
-10.7608

>  <SCORE.INTER.norm>
-0.054391

>  <SCORE.INTRA>
-8.71766

>  <SCORE.INTRA.DIHEDRAL>
-15.4097

>  <SCORE.INTRA.DIHEDRAL.0>
17.7811

>  <SCORE.INTRA.POLAR>
0

>  <SCORE.INTRA.POLAR.0>
0

>  <SCORE.INTRA.REPUL>
0

>  <SCORE.INTRA.REPUL.0>
0

>  <SCORE.INTRA.SOLV>
0.29358

>  <SCORE.INTRA.SOLV.lig_0>
-47.9565

>  <SCORE.INTRA.VDW>
-1.15958

>  <SCORE.INTRA.VDW.0>
0.515983

>  <SCORE.INTRA.norm>
-0.62269

>  <SCORE.RESTR>
0

>  <SCORE.RESTR.CAVITY>
0

>  <SCORE.RESTR.norm>
0

>  <SCORE.SYSTEM>
0

>  <SCORE.SYSTEM.CONST>
0

>  <SCORE.SYSTEM.DIHEDRAL>
0

>  <SCORE.SYSTEM.SOLV>
0

>  <SCORE.SYSTEM.norm>
0

>  <SCORE.heavy>
14

>  <SCORE.norm>
-0.677081

>  <RMSD>
3.199

$$$$
1xpf_lig
 OpenBabel02141814123D
libRbt.so/2013.1/901 2013/11/27
 14 13  0  0  0  0  0  0  0  0999 V2000
   17.2673   -4.2923   61.6624 N   0  0  0  0  0  0  0  0  0  0  0  0
   18.2171   -4.8316   62.6180 C   0  0  0  0  0  0  0  0  0  0  0  0
   18.8506   -3.7488   63.4066 C   0  0  0  0  0  0  0  0  0  0  0  0
   17.7645   -3.1248   64.2266 C   0  0  0  0  0  0  0  0  0  0  0  0
   18.4059   -2.0563   65.0312 N   0  0  0  0  0  0  0  0  0  0  0  0
   17.4067   -1.4065   65.9336 C   0  0  0  0  0  0  0  0  0  0  0  0
   18.0495   -0.5837   67.0635 C   0  0  0  0  0  0  0  0  0  0  0  0
   19.0103    0.5123   66.5693 C   0  0  0  0  0  0  0  0  0  0  0  0
   19.5518    1.2781   67.7670 C   0  0  0  0  0  0  0  0  0  0  0  0
   20.3047    2.3995   67.1865 N   0  0  0  0  0  0  0  0  0  0  0  0
   19.8892    3.7832   67.5503 C   0  0  0  0  0  0  0  0  0  0  0  0
   20.3497    4.5479   66.2903 C   0  0  0  0  0  0  0  0  0  0  0  0
   21.8237    4.6156   65.9811 C   0  0  0  0  0  0  0  0  0  0  0  0
   22.1602    5.3503   64.7739 N   0  0  0  0  0  0  0  0  0  0  0  0
  1  2  1  0  0  0  0
  2  3  1  0  0  0  0
  3  4  1  0  0  0  0
  4  5  1  0  0  0  0
  5  6  1  0  0  0  0
  6  7  1  0  0  0  0
  7  8  1  0  0  0  0
  8  9  1  0  0  0  0
  9 10  1  0  0  0  0
 10 11  1  0  0  0  0
 11 12  1  0  0  0  0
 12 13  1  0  0  0  0
 13 14  1  0  0  0  0
M  END
>  <CHROM.1>
65.45218435,179.08872502,-177.59366486,163.69996447,56.54929103,178.50987574
-172.69739454,121.07033351,-152.28460291,-64.85711595,179.73580499,19.21781657
0.17442148,65.43320152,-2.21871564,0.98843226,0.93743477

>  <Name>
1xpf_lig

>  <RI>
0

>  <Rbt.Current_Directory>
/home/afrankz/demos/rdock_decoys_rna/rnas/1xpf

>  <Rbt.Executable>
rbdock ($Id: //depot/dev/client3/rdock/2013.1/src/exe/rbdock.cxx#4 $)

>  <Rbt.Library>
libRbt.so (2013.1, Build901 2013/11/27)

>  <Rbt.Parameter_File>
/export/apps/rDock/src/rDock_2013.1_src/data/scripts/dock_solv.prm

>  <Rbt.Receptor>
prm/pocket_docking_4.prm

>  <SCORE>
-8.91311

>  <SCORE.INTER>
-0.308815

>  <SCORE.INTER.CONST>
1

>  <SCORE.INTER.POLAR>
0

>  <SCORE.INTER.ROT>
11

>  <SCORE.INTER.SOLV>
5.54882

>  <SCORE.INTER.VDW>
-12.9888

>  <SCORE.INTER.norm>
-0.0220582

>  <SCORE.INTRA>
-8.6043

>  <SCORE.INTRA.DIHEDRAL>
-15.3859

>  <SCORE.INTRA.DIHEDRAL.0>
17.7811

>  <SCORE.INTRA.POLAR>
0

>  <SCORE.INTRA.POLAR.0>
0

>  <SCORE.INTRA.REPUL>
0

>  <SCORE.INTRA.REPUL.0>
0

>  <SCORE.INTRA.SOLV>
0.809898

>  <SCORE.INTRA.SOLV.lig_0>
-47.9565

>  <SCORE.INTRA.VDW>
-1.31632

>  <SCORE.INTRA.VDW.0>
0.515983

>  <SCORE.INTRA.norm>
-0.614593

>  <SCORE.RESTR>
0

>  <SCORE.RESTR.CAVITY>
0

>  <SCORE.RESTR.norm>
0

>  <SCORE.SYSTEM>
0

>  <SCORE.SYSTEM.CONST>
0

>  <SCORE.SYSTEM.DIHEDRAL>
0

>  <SCORE.SYSTEM.SOLV>
0

>  <SCORE.SYSTEM.norm>
0

>  <SCORE.heavy>
14

>  <SCORE.norm>
-0.636651

>  <RMSD>
3.207

$$$$
1xpf_lig
 OpenBabel02141814123D
libRbt.so/2013.1/901 2013/11/27
 14 13  0  0  0  0  0  0  0  0999 V2000
   16.7653   -4.8564   62.5781 N   0  0  0  0  0  0  0  0  0  0  0  0
   17.9533   -4.9922   63.4005 C   0  0  0  0  0  0  0  0  0  0  0  0
   19.0558   -4.1467   62.8854 C   0  0  0  0  0  0  0  0  0  0  0  0
   20.2182   -4.3514   63.8064 C   0  0  0  0  0  0  0  0  0  0  0  0
   21.2641   -3.3876   63.3844 N   0  0  0  0  0  0  0  0  0  0  0  0
   21.4183   -2.3016   64.4001 C   0  0  0  0  0  0  0  0  0  0  0  0
   22.5128   -1.2818   64.0412 C   0  0  0  0  0  0  0  0  0  0  0  0
   22.2049   -0.4521   62.7821 C   0  0  0  0  0  0  0  0  0  0  0  0
   23.3645    0.4950   62.5129 C   0  0  0  0  0  0  0  0  0  0  0  0
   22.9181    1.3239   61.3837 N   0  0  0  0  0  0  0  0  0  0  0  0
   23.9246    2.1957   60.7156 C   0  0  0  0  0  0  0  0  0  0  0  0
   23.0242    2.9174   59.6896 C   0  0  0  0  0  0  0  0  0  0  0  0
   23.6460    3.9370   58.7693 C   0  0  0  0  0  0  0  0  0  0  0  0
   22.7135    4.5976   57.8726 N   0  0  0  0  0  0  0  0  0  0  0  0
  1  2  1  0  0  0  0
  2  3  1  0  0  0  0
  3  4  1  0  0  0  0
  4  5  1  0  0  0  0
  5  6  1  0  0  0  0
  6  7  1  0  0  0  0
  7  8  1  0  0  0  0
  8  9  1  0  0  0  0
  9 10  1  0  0  0  0
 10 11  1  0  0  0  0
 11 12  1  0  0  0  0
 12 13  1  0  0  0  0
 13 14  1  0  0  0  0
M  END
>  <CHROM.1>
179.50008580,-173.51590096,109.45749985,178.65301784,65.66265991,-178.84339313
-174.60071983,-169.25828942,-176.72016889,179.63725855,-177.88622348,21.49906563
-0.73601029,62.01613086,2.13364497,0.55677047,2.34497652

>  <Name>
1xpf_lig

>  <RI>
0

>  <Rbt.Current_Directory>
/home/afrankz/demos/rdock_decoys_rna/rnas/1xpf

>  <Rbt.Executable>
rbdock ($Id: //depot/dev/client3/rdock/2013.1/src/exe/rbdock.cxx#4 $)

>  <Rbt.Library>
libRbt.so (2013.1, Build901 2013/11/27)

>  <Rbt.Parameter_File>
/export/apps/rDock/src/rDock_2013.1_src/data/scripts/dock_solv.prm

>  <Rbt.Receptor>
prm/pocket_docking_8.prm

>  <SCORE>
-11.0669

>  <SCORE.INTER>
-0.876354

>  <SCORE.INTER.CONST>
1

>  <SCORE.INTER.POLAR>
-1.05646

>  <SCORE.INTER.ROT>
11

>  <SCORE.INTER.SOLV>
9.22959

>  <SCORE.INTER.VDW>
-11.0726

>  <SCORE.INTER.norm>
-0.0625967

>  <SCORE.INTRA>
-10.1906

>  <SCORE.INTRA.DIHEDRAL>
-16.156

>  <SCORE.INTRA.DIHEDRAL.0>
17.7811

>  <SCORE.INTRA.POLAR>
0

>  <SCORE.INTRA.POLAR.0>
0

>  <SCORE.INTRA.REPUL>
0

>  <SCORE.INTRA.REPUL.0>
0

>  <SCORE.INTRA.SOLV>
-0.640551

>  <SCORE.INTRA.SOLV.lig_0>
-47.9565

>  <SCORE.INTRA.VDW>
-1.79231

>  <SCORE.INTRA.VDW.0>
0.515983

>  <SCORE.INTRA.norm>
-0.727898

>  <SCORE.RESTR>
0

>  <SCORE.RESTR.CAVITY>
0

>  <SCORE.RESTR.norm>
0

>  <SCORE.SYSTEM>
0

>  <SCORE.SYSTEM.CONST>
0

>  <SCORE.SYSTEM.DIHEDRAL>
0

>  <SCORE.SYSTEM.SOLV>
0

>  <SCORE.SYSTEM.norm>
0

>  <SCORE.heavy>
14

>  <SCORE.norm>
-0.790495

>  <RMSD>
3.237

$$$$
1xpf_lig
 OpenBabel02141814123D
libRbt.so/2013.1/901 2013/11/27
 14 13  0  0  0  0  0  0  0  0999 V2000
   21.2305    6.9390   63.6126 N   0  0  0  0  0  0  0  0  0  0  0  0
   20.3659    6.3716   64.6308 C   0  0  0  0  0  0  0  0  0  0  0  0
   20.7676    4.9827   64.9555 C   0  0  0  0  0  0  0  0  0  0  0  0
   19.8705    4.5258   66.0636 C   0  0  0  0  0  0  0  0  0  0  0  0
   20.3228    3.1629   66.4361 N   0  0  0  0  0  0  0  0  0  0  0  0
   19.5540    2.6580   67.6146 C   0  0  0  0  0  0  0  0  0  0  0  0
   19.9142    1.2141   68.0047 C   0  0  0  0  0  0  0  0  0  0  0  0
   19.6184    0.1779   66.9060 C   0  0  0  0  0  0  0  0  0  0  0  0
   18.1122    0.0257   66.7563 C   0  0  0  0  0  0  0  0  0  0  0  0
   17.9397   -1.0628   65.7833 N   0  0  0  0  0  0  0  0  0  0  0  0
   16.6235   -1.1837   65.0958 C   0  0  0  0  0  0  0  0  0  0  0  0
   16.7251   -2.6288   64.5613 C   0  0  0  0  0  0  0  0  0  0  0  0
   17.7732   -2.9472   63.5254 C   0  0  0  0  0  0  0  0  0  0  0  0
   17.7397   -4.3098   63.0232 N   0  0  0  0  0  0  0  0  0  0  0  0
  1  2  1  0  0  0  0
  2  3  1  0  0  0  0
  3  4  1  0  0  0  0
  4  5  1  0  0  0  0
  5  6  1  0  0  0  0
  6  7  1  0  0  0  0
  7  8  1  0  0  0  0
  8  9  1  0  0  0  0
  9 10  1  0  0  0  0
 10 11  1  0  0  0  0
 11 12  1  0  0  0  0
 12 13  1  0  0  0  0
 13 14  1  0  0  0  0
M  END
>  <CHROM.1>
176.72195678,-177.00836588,175.52808454,176.58930287,-61.72382526,-69.95016342
-174.96120905,-161.22735333,-162.97579310,-64.93428889,-176.40481906,19.03970836
1.28042014,65.49811364,0.12731345,-1.19940608,-1.34114880

>  <Name>
1xpf_lig

>  <RI>
0

>  <Rbt.Current_Directory>
/home/afrankz/demos/rdock_decoys_rna/rnas/1xpf

>  <Rbt.Executable>
rbdock ($Id: //depot/dev/client3/rdock/2013.1/src/exe/rbdock.cxx#4 $)

>  <Rbt.Library>
libRbt.so (2013.1, Build901 2013/11/27)

>  <Rbt.Parameter_File>
/export/apps/rDock/src/rDock_2013.1_src/data/scripts/dock_solv.prm

>  <Rbt.Receptor>
prm/pocket_docking_4.prm

>  <SCORE>
-9.42785

>  <SCORE.INTER>
0.0610795

>  <SCORE.INTER.CONST>
1

>  <SCORE.INTER.POLAR>
0

>  <SCORE.INTER.ROT>
11

>  <SCORE.INTER.SOLV>
5.91031

>  <SCORE.INTER.VDW>
-12.8627

>  <SCORE.INTER.norm>
0.00436282

>  <SCORE.INTRA>
-9.48893

>  <SCORE.INTRA.DIHEDRAL>
-16.5375

>  <SCORE.INTRA.DIHEDRAL.0>
17.7811

>  <SCORE.INTRA.POLAR>
0

>  <SCORE.INTRA.POLAR.0>
0

>  <SCORE.INTRA.REPUL>
0

>  <SCORE.INTRA.REPUL.0>
0

>  <SCORE.INTRA.SOLV>
0.153619

>  <SCORE.INTRA.SOLV.lig_0>
-47.9565

>  <SCORE.INTRA.VDW>
-1.29699

>  <SCORE.INTRA.VDW.0>
0.515983

>  <SCORE.INTRA.norm>
-0.67778

>  <SCORE.RESTR>
0

>  <SCORE.RESTR.CAVITY>
0

>  <SCORE.RESTR.norm>
0

>  <SCORE.SYSTEM>
0

>  <SCORE.SYSTEM.CONST>
0

>  <SCORE.SYSTEM.DIHEDRAL>
0

>  <SCORE.SYSTEM.SOLV>
0

>  <SCORE.SYSTEM.norm>
0

>  <SCORE.heavy>
14

>  <SCORE.norm>
-0.673418

>  <RMSD>
3.365

$$$$
1xpf_lig
 OpenBabel02141814123D
libRbt.so/2013.1/901 2013/11/27
 14 13  0  0  0  0  0  0  0  0999 V2000
   16.4593   -1.8765   62.0053 N   0  0  0  0  0  0  0  0  0  0  0  0
   16.9372   -2.1040   63.3565 C   0  0  0  0  0  0  0  0  0  0  0  0
   18.0532   -1.1869   63.6870 C   0  0  0  0  0  0  0  0  0  0  0  0
   18.4615   -1.4989   65.0932 C   0  0  0  0  0  0  0  0  0  0  0  0
   19.5121   -0.5157   65.4542 N   0  0  0  0  0  0  0  0  0  0  0  0
   19.0959    0.2838   66.6469 C   0  0  0  0  0  0  0  0  0  0  0  0
   19.9358    1.5564   66.8514 C   0  0  0  0  0  0  0  0  0  0  0  0
   19.8393    2.5619   65.6903 C   0  0  0  0  0  0  0  0  0  0  0  0
   20.7332    3.7560   65.9888 C   0  0  0  0  0  0  0  0  0  0  0  0
   20.5724    4.6448   64.8288 N   0  0  0  0  0  0  0  0  0  0  0  0
   21.3970    4.3708   63.6186 C   0  0  0  0  0  0  0  0  0  0  0  0
   20.6190    5.1895   62.5656 C   0  0  0  0  0  0  0  0  0  0  0  0
   20.7569    6.6908   62.5671 C   0  0  0  0  0  0  0  0  0  0  0  0
   22.0173    7.1877   62.0431 N   0  0  0  0  0  0  0  0  0  0  0  0
  1  2  1  0  0  0  0
  2  3  1  0  0  0  0
  3  4  1  0  0  0  0
  4  5  1  0  0  0  0
  5  6  1  0  0  0  0
  6  7  1  0  0  0  0
  7  8  1  0  0  0  0
  8  9  1  0  0  0  0
  9 10  1  0  0  0  0
 10 11  1  0  0  0  0
 11 12  1  0  0  0  0
 12 13  1  0  0  0  0
 13 14  1  0  0  0  0
M  END
>  <CHROM.1>
179.69268303,-176.05652028,120.99048835,-164.41274978,61.83771413,-178.61594501
179.85432420,-83.38621470,162.84413172,75.31174403,74.56304171,19.59927012
2.07557308,64.31436251,2.53554668,1.03733169,2.12001970

>  <Name>
1xpf_lig

>  <RI>
0

>  <Rbt.Current_Directory>
/home/afrankz/demos/rdock_decoys_rna/rnas/1xpf

>  <Rbt.Executable>
rbdock ($Id: //depot/dev/client3/rdock/2013.1/src/exe/rbdock.cxx#4 $)

>  <Rbt.Library>
libRbt.so (2013.1, Build901 2013/11/27)

>  <Rbt.Parameter_File>
/export/apps/rDock/src/rDock_2013.1_src/data/scripts/dock_solv.prm

>  <Rbt.Receptor>
prm/pocket_docking_3.prm

>  <SCORE>
-7.43123

>  <SCORE.INTER>
0.768136

>  <SCORE.INTER.CONST>
1

>  <SCORE.INTER.POLAR>
-0.761496

>  <SCORE.INTER.ROT>
11

>  <SCORE.INTER.SOLV>
6.4611

>  <SCORE.INTER.VDW>
-10.0366

>  <SCORE.INTER.norm>
0.0548668

>  <SCORE.INTRA>
-8.30055

>  <SCORE.INTRA.DIHEDRAL>
-14.0857

>  <SCORE.INTRA.DIHEDRAL.0>
17.7811

>  <SCORE.INTRA.POLAR>
0

>  <SCORE.INTRA.POLAR.0>
0

>  <SCORE.INTRA.REPUL>
0

>  <SCORE.INTRA.REPUL.0>
0

>  <SCORE.INTRA.SOLV>
0.553171

>  <SCORE.INTRA.SOLV.lig_0>
-47.9565

>  <SCORE.INTRA.VDW>
-1.53428

>  <SCORE.INTRA.VDW.0>
0.515983

>  <SCORE.INTRA.norm>
-0.592896

>  <SCORE.RESTR>
0.101186

>  <SCORE.RESTR.CAVITY>
0.101186

>  <SCORE.RESTR.norm>
0.00722761

>  <SCORE.SYSTEM>
0

>  <SCORE.SYSTEM.CONST>
0

>  <SCORE.SYSTEM.DIHEDRAL>
0

>  <SCORE.SYSTEM.SOLV>
0

>  <SCORE.SYSTEM.norm>
0

>  <SCORE.heavy>
14

>  <SCORE.norm>
-0.530802

>  <RMSD>
3.374

$$$$
1xpf_lig
 OpenBabel02141814123D
libRbt.so/2013.1/901 2013/11/27
 14 13  0  0  0  0  0  0  0  0999 V2000
   20.0422   -3.6194   62.8228 N   0  0  0  0  0  0  0  0  0  0  0  0
   20.9601   -3.8242   63.9280 C   0  0  0  0  0  0  0  0  0  0  0  0
   21.4871   -2.5325   64.4277 C   0  0  0  0  0  0  0  0  0  0  0  0
   20.3235   -1.7924   65.0106 C   0  0  0  0  0  0  0  0  0  0  0  0
   20.8741   -0.5594   65.6247 N   0  0  0  0  0  0  0  0  0  0  0  0
   19.8951    0.0297   66.5888 C   0  0  0  0  0  0  0  0  0  0  0  0
   19.9528    1.5657   66.6546 C   0  0  0  0  0  0  0  0  0  0  0  0
   19.6552    2.2599   65.3137 C   0  0  0  0  0  0  0  0  0  0  0  0
   19.9903    3.7390   65.4327 C   0  0  0  0  0  0  0  0  0  0  0  0
   19.7349    4.2908   64.0941 N   0  0  0  0  0  0  0  0  0  0  0  0
   20.5463    3.7715   62.9575 C   0  0  0  0  0  0  0  0  0  0  0  0
   20.8884    5.0942   62.2380 C   0  0  0  0  0  0  0  0  0  0  0  0
   21.7831    6.0883   62.9339 C   0  0  0  0  0  0  0  0  0  0  0  0
   22.1220    7.2600   62.1450 N   0  0  0  0  0  0  0  0  0  0  0  0
  1  2  1  0  0  0  0
  2  3  1  0  0  0  0
  3  4  1  0  0  0  0
  4  5  1  0  0  0  0
  5  6  1  0  0  0  0
  6  7  1  0  0  0  0
  7  8  1  0  0  0  0
  8  9  1  0  0  0  0
  9 10  1  0  0  0  0
 10 11  1  0  0  0  0
 11 12  1  0  0  0  0
 12 13  1  0  0  0  0
 13 14  1  0  0  0  0
M  END
>  <CHROM.1>
65.74905600,174.72537309,-162.27653265,-147.15259424,60.08607523,-169.61037477
177.36360190,-62.18303172,-135.88268231,66.48613493,176.02856817,20.58961850
1.55495232,64.29826491,-1.75965337,1.22954225,0.00334430

>  <Name>
1xpf_lig

>  <RI>
0

>  <Rbt.Current_Directory>
/home/afrankz/demos/rdock_decoys_rna/rnas/1xpf

>  <Rbt.Executable>
rbdock ($Id: //depot/dev/client3/rdock/2013.1/src/exe/rbdock.cxx#4 $)

>  <Rbt.Library>
libRbt.so (2013.1, Build901 2013/11/27)

>  <Rbt.Parameter_File>
/export/apps/rDock/src/rDock_2013.1_src/data/scripts/dock_solv.prm

>  <Rbt.Receptor>
prm/pocket_docking_3.prm

>  <SCORE>
-9.85686

>  <SCORE.INTER>
-2.94798

>  <SCORE.INTER.CONST>
1

>  <SCORE.INTER.POLAR>
-0.837565

>  <SCORE.INTER.ROT>
11

>  <SCORE.INTER.SOLV>
12.9181

>  <SCORE.INTER.VDW>
-14.4128

>  <SCORE.INTER.norm>
-0.21057

>  <SCORE.INTRA>
-7.15371

>  <SCORE.INTRA.DIHEDRAL>
-14.9297

>  <SCORE.INTRA.DIHEDRAL.0>
17.7811

>  <SCORE.INTRA.POLAR>
0

>  <SCORE.INTRA.POLAR.0>
0

>  <SCORE.INTRA.REPUL>
0

>  <SCORE.INTRA.REPUL.0>
0

>  <SCORE.INTRA.SOLV>
0.756564

>  <SCORE.INTRA.SOLV.lig_0>
-47.9565

>  <SCORE.INTRA.VDW>
-0.0671516

>  <SCORE.INTRA.VDW.0>
0.515983

>  <SCORE.INTRA.norm>
-0.510979

>  <SCORE.RESTR>
0.244833

>  <SCORE.RESTR.CAVITY>
0.244833

>  <SCORE.RESTR.norm>
0.0174881

>  <SCORE.SYSTEM>
0

>  <SCORE.SYSTEM.CONST>
0

>  <SCORE.SYSTEM.DIHEDRAL>
0

>  <SCORE.SYSTEM.SOLV>
0

>  <SCORE.SYSTEM.norm>
0

>  <SCORE.heavy>
14

>  <SCORE.norm>
-0.704062

>  <RMSD>
3.388

$$$$
1xpf_lig
 OpenBabel02141814123D
libRbt.so/2013.1/901 2013/11/27
 14 13  0  0  0  0  0  0  0  0999 V2000
   19.6972   -3.3556   62.6213 N   0  0  0  0  0  0  0  0  0  0  0  0
   20.4344   -3.7731   63.7996 C   0  0  0  0  0  0  0  0  0  0  0  0
   21.1906   -2.6400   64.3826 C   0  0  0  0  0  0  0  0  0  0  0  0
   20.1757   -1.6794   64.9197 C   0  0  0  0  0  0  0  0  0  0  0  0
   20.9354   -0.5947   65.5882 N   0  0  0  0  0  0  0  0  0  0  0  0
   20.0030    0.3775   66.2364 C   0  0  0  0  0  0  0  0  0  0  0  0
   19.5094    1.4785   65.2818 C   0  0  0  0  0  0  0  0  0  0  0  0
   20.6367    2.1904   64.5132 C   0  0  0  0  0  0  0  0  0  0  0  0
   20.0324    3.2698   63.6279 C   0  0  0  0  0  0  0  0  0  0  0  0
   21.1358    3.7038   62.7587 N   0  0  0  0  0  0  0  0  0  0  0  0
   21.1246    5.1089   62.2636 C   0  0  0  0  0  0  0  0  0  0  0  0
   22.0217    4.9669   61.0149 C   0  0  0  0  0  0  0  0  0  0  0  0
   22.4766    6.2154   60.3026 C   0  0  0  0  0  0  0  0  0  0  0  0
   23.1109    5.9862   59.0160 N   0  0  0  0  0  0  0  0  0  0  0  0
  1  2  1  0  0  0  0
  2  3  1  0  0  0  0
  3  4  1  0  0  0  0
  4  5  1  0  0  0  0
  5  6  1  0  0  0  0
  6  7  1  0  0  0  0
  7  8  1  0  0  0  0
  8  9  1  0  0  0  0
  9 10  1  0  0  0  0
 10 11  1  0  0  0  0
 11 12  1  0  0  0  0
 12 13  1  0  0  0  0
 13 14  1  0  0  0  0
M  END
>  <CHROM.1>
67.64283190,176.03998334,-176.42444008,-85.99666183,-50.51422345,-178.88450730
-169.42218931,-150.86793441,-157.64229714,-170.27650729,-169.56280749,20.89161883
1.51823008,63.30936761,-2.18570103,1.20780142,0.13391035

>  <Name>
1xpf_lig

>  <RI>
0

>  <Rbt.Current_Directory>
/home/afrankz/demos/rdock_decoys_rna/rnas/1xpf

>  <Rbt.Executable>
rbdock ($Id: //depot/dev/client3/rdock/2013.1/src/exe/rbdock.cxx#4 $)

>  <Rbt.Library>
libRbt.so (2013.1, Build901 2013/11/27)

>  <Rbt.Parameter_File>
/export/apps/rDock/src/rDock_2013.1_src/data/scripts/dock_solv.prm

>  <Rbt.Receptor>
prm/pocket_docking_3.prm

>  <SCORE>
-6.91794

>  <SCORE.INTER>
1.49385

>  <SCORE.INTER.CONST>
1

>  <SCORE.INTER.POLAR>
-0.33559

>  <SCORE.INTER.ROT>
11

>  <SCORE.INTER.SOLV>
11.3954

>  <SCORE.INTER.VDW>
-12.6173

>  <SCORE.INTER.norm>
0.106704

>  <SCORE.INTRA>
-8.42268

>  <SCORE.INTRA.DIHEDRAL>
-14.5759

>  <SCORE.INTRA.DIHEDRAL.0>
17.7811

>  <SCORE.INTRA.POLAR>
0

>  <SCORE.INTRA.POLAR.0>
0

>  <SCORE.INTRA.REPUL>
0

>  <SCORE.INTRA.REPUL.0>
0

>  <SCORE.INTRA.SOLV>
0.307401

>  <SCORE.INTRA.SOLV.lig_0>
-47.9565

>  <SCORE.INTRA.VDW>
-1.28842

>  <SCORE.INTRA.VDW.0>
0.515983

>  <SCORE.INTRA.norm>
-0.60162

>  <SCORE.RESTR>
0.0108858

>  <SCORE.RESTR.CAVITY>
0.0108858

>  <SCORE.RESTR.norm>
0.000777556

>  <SCORE.SYSTEM>
0

>  <SCORE.SYSTEM.CONST>
0

>  <SCORE.SYSTEM.DIHEDRAL>
0

>  <SCORE.SYSTEM.SOLV>
0

>  <SCORE.SYSTEM.norm>
0

>  <SCORE.heavy>
14

>  <SCORE.norm>
-0.494139

>  <RMSD>
3.390

$$$$
1xpf_lig
 OpenBabel02141814123D
libRbt.so/2013.1/901 2013/11/27
 14 13  0  0  0  0  0  0  0  0999 V2000
   22.4732    2.6882   58.4174 N   0  0  0  0  0  0  0  0  0  0  0  0
   23.2126    3.0906   59.5996 C   0  0  0  0  0  0  0  0  0  0  0  0
   23.7951    1.9148   60.2880 C   0  0  0  0  0  0  0  0  0  0  0  0
   22.6473    1.1402   60.8574 C   0  0  0  0  0  0  0  0  0  0  0  0
   22.2945    0.1096   59.8504 N   0  0  0  0  0  0  0  0  0  0  0  0
   21.0820   -0.6518   60.2806 C   0  0  0  0  0  0  0  0  0  0  0  0
   21.3372   -1.5762   61.4836 C   0  0  0  0  0  0  0  0  0  0  0  0
   20.1218   -2.4315   61.8831 C   0  0  0  0  0  0  0  0  0  0  0  0
   20.4315   -3.1632   63.1803 C   0  0  0  0  0  0  0  0  0  0  0  0
   19.1900   -3.8759   63.5151 N   0  0  0  0  0  0  0  0  0  0  0  0
   18.0380   -3.0755   64.0170 C   0  0  0  0  0  0  0  0  0  0  0  0
   16.9764   -4.1867   64.1667 C   0  0  0  0  0  0  0  0  0  0  0  0
   17.0847   -5.1418   65.3282 C   0  0  0  0  0  0  0  0  0  0  0  0
   16.0404   -6.1498   65.3878 N   0  0  0  0  0  0  0  0  0  0  0  0
  1  2  1  0  0  0  0
  2  3  1  0  0  0  0
  3  4  1  0  0  0  0
  4  5  1  0  0  0  0
  5  6  1  0  0  0  0
  6  7  1  0  0  0  0
  7  8  1  0  0  0  0
  8  9  1  0  0  0  0
  9 10  1  0  0  0  0
 10 11  1  0  0  0  0
 11 12  1  0  0  0  0
 12 13  1  0  0  0  0
 13 14  1  0  0  0  0
M  END
>  <CHROM.1>
-68.57391920,93.83113149,-175.51560621,-70.13092840,-176.40765318,-172.76115369
176.55081354,-73.08585817,177.49252535,75.09838146,179.85218480,20.33762658
-1.52195799,62.01831440,0.97961920,0.03074605,-0.62070575

>  <Name>
1xpf_lig

>  <RI>
0

>  <Rbt.Current_Directory>
/home/afrankz/demos/rdock_decoys_rna/rnas/1xpf

>  <Rbt.Executable>
rbdock ($Id: //depot/dev/client3/rdock/2013.1/src/exe/rbdock.cxx#4 $)

>  <Rbt.Library>
libRbt.so (2013.1, Build901 2013/11/27)

>  <Rbt.Parameter_File>
/export/apps/rDock/src/rDock_2013.1_src/data/scripts/dock_solv.prm

>  <Rbt.Receptor>
prm/pocket_docking_5.prm

>  <SCORE>
-8.11171

>  <SCORE.INTER>
-2.48531

>  <SCORE.INTER.CONST>
1

>  <SCORE.INTER.POLAR>
-2.14749

>  <SCORE.INTER.ROT>
11

>  <SCORE.INTER.SOLV>
8.73493

>  <SCORE.INTER.VDW>
-8.34356

>  <SCORE.INTER.norm>
-0.177522

>  <SCORE.INTRA>
-5.6264

>  <SCORE.INTRA.DIHEDRAL>
-12.8289

>  <SCORE.INTRA.DIHEDRAL.0>
17.7811

>  <SCORE.INTRA.POLAR>
0

>  <SCORE.INTRA.POLAR.0>
0

>  <SCORE.INTRA.REPUL>
0

>  <SCORE.INTRA.REPUL.0>
0

>  <SCORE.INTRA.SOLV>
2.17821

>  <SCORE.INTRA.SOLV.lig_0>
-47.9565

>  <SCORE.INTRA.VDW>
-0.301078

>  <SCORE.INTRA.VDW.0>
0.515983

>  <SCORE.INTRA.norm>
-0.401886

>  <SCORE.RESTR>
0

>  <SCORE.RESTR.CAVITY>
0

>  <SCORE.RESTR.norm>
0

>  <SCORE.SYSTEM>
0

>  <SCORE.SYSTEM.CONST>
0

>  <SCORE.SYSTEM.DIHEDRAL>
0

>  <SCORE.SYSTEM.SOLV>
0

>  <SCORE.SYSTEM.norm>
0

>  <SCORE.heavy>
14

>  <SCORE.norm>
-0.579408

>  <RMSD>
3.401

$$$$
1xpf_lig
 OpenBabel02141814123D
libRbt.so/2013.1/901 2013/11/27
 14 13  0  0  0  0  0  0  0  0999 V2000
   19.9525   -3.5249   63.7053 N   0  0  0  0  0  0  0  0  0  0  0  0
   21.1433   -2.6995   63.7882 C   0  0  0  0  0  0  0  0  0  0  0  0
   21.4710   -2.1055   62.4707 C   0  0  0  0  0  0  0  0  0  0  0  0
   22.6549   -1.2146   62.6855 C   0  0  0  0  0  0  0  0  0  0  0  0
   22.1813   -0.0778   63.5126 N   0  0  0  0  0  0  0  0  0  0  0  0
   21.8011    1.0798   62.6462 C   0  0  0  0  0  0  0  0  0  0  0  0
   21.4679    2.3536   63.4420 C   0  0  0  0  0  0  0  0  0  0  0  0
   20.2704    2.1988   64.3962 C   0  0  0  0  0  0  0  0  0  0  0  0
   20.1665    3.4387   65.2714 C   0  0  0  0  0  0  0  0  0  0  0  0
   19.8555    4.5318   64.3387 N   0  0  0  0  0  0  0  0  0  0  0  0
   19.7326    5.9094   64.8924 C   0  0  0  0  0  0  0  0  0  0  0  0
   20.9806    6.5689   64.2664 C   0  0  0  0  0  0  0  0  0  0  0  0
   21.0430    6.7276   62.7685 C   0  0  0  0  0  0  0  0  0  0  0  0
   22.2398    7.3865   62.2747 N   0  0  0  0  0  0  0  0  0  0  0  0
  1  2  1  0  0  0  0
  2  3  1  0  0  0  0
  3  4  1  0  0  0  0
  4  5  1  0  0  0  0
  5  6  1  0  0  0  0
  6  7  1  0  0  0  0
  7  8  1  0  0  0  0
  8  9  1  0  0  0  0
  9 10  1  0  0  0  0
 10 11  1  0  0  0  0
 11 12  1  0  0  0  0
 12 13  1  0  0  0  0
 13 14  1  0  0  0  0
M  END
>  <CHROM.1>
176.61186664,-68.27312723,-94.91326100,-172.78375805,-61.50884966,171.60518621
64.91244511,-178.02201169,111.63586274,65.27903515,178.60988079,21.06860276
2.18381968,63.60426704,1.50283500,-0.77449958,-3.13607565

>  <Name>
1xpf_lig

>  <RI>
0

>  <Rbt.Current_Directory>
/home/afrankz/demos/rdock_decoys_rna/rnas/1xpf

>  <Rbt.Executable>
rbdock ($Id: //depot/dev/client3/rdock/2013.1/src/exe/rbdock.cxx#4 $)

>  <Rbt.Library>
libRbt.so (2013.1, Build901 2013/11/27)

>  <Rbt.Parameter_File>
/export/apps/rDock/src/rDock_2013.1_src/data/scripts/dock_solv.prm

>  <Rbt.Receptor>
prm/pocket_docking_4.prm

>  <SCORE>
-6.0792

>  <SCORE.INTER>
1.79016

>  <SCORE.INTER.CONST>
1

>  <SCORE.INTER.POLAR>
-0.916515

>  <SCORE.INTER.ROT>
11

>  <SCORE.INTER.SOLV>
8.45317

>  <SCORE.INTER.VDW>
-9.50257

>  <SCORE.INTER.norm>
0.127869

>  <SCORE.INTRA>
-7.86936

>  <SCORE.INTRA.DIHEDRAL>
-15.0389

>  <SCORE.INTRA.DIHEDRAL.0>
17.7811

>  <SCORE.INTRA.POLAR>
0

>  <SCORE.INTRA.POLAR.0>
0

>  <SCORE.INTRA.REPUL>
0

>  <SCORE.INTRA.REPUL.0>
0

>  <SCORE.INTRA.SOLV>
0.93774

>  <SCORE.INTRA.SOLV.lig_0>
-47.9565

>  <SCORE.INTRA.VDW>
-0.818773

>  <SCORE.INTRA.VDW.0>
0.515983

>  <SCORE.INTRA.norm>
-0.562097

>  <SCORE.RESTR>
0

>  <SCORE.RESTR.CAVITY>
0

>  <SCORE.RESTR.norm>
0

>  <SCORE.SYSTEM>
0

>  <SCORE.SYSTEM.CONST>
0

>  <SCORE.SYSTEM.DIHEDRAL>
0

>  <SCORE.SYSTEM.SOLV>
0

>  <SCORE.SYSTEM.norm>
0

>  <SCORE.heavy>
14

>  <SCORE.norm>
-0.434228

>  <RMSD>
3.404

$$$$
1xpf_lig
 OpenBabel02141814123D
libRbt.so/2013.1/901 2013/11/27
 14 13  0  0  0  0  0  0  0  0999 V2000
   16.0680   -5.1404   61.7285 N   0  0  0  0  0  0  0  0  0  0  0  0
   16.7188   -5.1435   60.4313 C   0  0  0  0  0  0  0  0  0  0  0  0
   16.2352   -4.0225   59.5914 C   0  0  0  0  0  0  0  0  0  0  0  0
   16.7624   -2.7655   60.2106 C   0  0  0  0  0  0  0  0  0  0  0  0
   16.2635   -1.6445   59.3768 N   0  0  0  0  0  0  0  0  0  0  0  0
   17.1424   -0.4448   59.5292 C   0  0  0  0  0  0  0  0  0  0  0  0
   16.9544    0.2824   60.8718 C   0  0  0  0  0  0  0  0  0  0  0  0
   18.0466    1.3228   61.1771 C   0  0  0  0  0  0  0  0  0  0  0  0
   17.7163    2.0232   62.4865 C   0  0  0  0  0  0  0  0  0  0  0  0
   18.8784    2.8825   62.7562 N   0  0  0  0  0  0  0  0  0  0  0  0
   18.9790    3.5211   64.0984 C   0  0  0  0  0  0  0  0  0  0  0  0
   20.1186    4.5297   63.8375 C   0  0  0  0  0  0  0  0  0  0  0  0
   20.5741    5.4181   64.9672 C   0  0  0  0  0  0  0  0  0  0  0  0
   21.6018    6.3804   64.6097 N   0  0  0  0  0  0  0  0  0  0  0  0
  1  2  1  0  0  0  0
  2  3  1  0  0  0  0
  3  4  1  0  0  0  0
  4  5  1  0  0  0  0
  5  6  1  0  0  0  0
  6  7  1  0  0  0  0
  7  8  1  0  0  0  0
  8  9  1  0  0  0  0
  9 10  1  0  0  0  0
 10 11  1  0  0  0  0
 11 12  1  0  0  0  0
 12 13  1  0  0  0  0
 13 14  1  0  0  0  0
M  END
>  <CHROM.1>
69.30677724,-179.35464477,-156.49708906,-74.36793537,167.45833340,177.06498903
174.19364718,-169.07826459,-168.24439051,-179.65601583,-176.97773663,18.00416062
0.51418450,61.83361671,-2.57797023,-1.11136480,-0.52786972

>  <Name>
1xpf_lig

>  <RI>
0

>  <Rbt.Current_Directory>
/home/afrankz/demos/rdock_decoys_rna/rnas/1xpf

>  <Rbt.Executable>
rbdock ($Id: //depot/dev/client3/rdock/2013.1/src/exe/rbdock.cxx#4 $)

>  <Rbt.Library>
libRbt.so (2013.1, Build901 2013/11/27)

>  <Rbt.Parameter_File>
/export/apps/rDock/src/rDock_2013.1_src/data/scripts/dock_solv.prm

>  <Rbt.Receptor>
prm/pocket_docking_5.prm

>  <SCORE>
-8.24384

>  <SCORE.INTER>
0.877058

>  <SCORE.INTER.CONST>
1

>  <SCORE.INTER.POLAR>
-0.82858

>  <SCORE.INTER.ROT>
11

>  <SCORE.INTER.SOLV>
4.55848

>  <SCORE.INTER.VDW>
-9.10619

>  <SCORE.INTER.norm>
0.062647

>  <SCORE.INTRA>
-9.12534

>  <SCORE.INTRA.DIHEDRAL>
-15.9193

>  <SCORE.INTRA.DIHEDRAL.0>
17.7811

>  <SCORE.INTRA.POLAR>
0

>  <SCORE.INTRA.POLAR.0>
0

>  <SCORE.INTRA.REPUL>
0

>  <SCORE.INTRA.REPUL.0>
0

>  <SCORE.INTRA.SOLV>
-0.127378

>  <SCORE.INTRA.SOLV.lig_0>
-47.9565

>  <SCORE.INTRA.VDW>
-1.10198

>  <SCORE.INTRA.VDW.0>
0.515983

>  <SCORE.INTRA.norm>
-0.65181

>  <SCORE.RESTR>
0.00443822

>  <SCORE.RESTR.CAVITY>
0.00443822

>  <SCORE.RESTR.norm>
0.000317016

>  <SCORE.SYSTEM>
0

>  <SCORE.SYSTEM.CONST>
0

>  <SCORE.SYSTEM.DIHEDRAL>
0

>  <SCORE.SYSTEM.SOLV>
0

>  <SCORE.SYSTEM.norm>
0

>  <SCORE.heavy>
14

>  <SCORE.norm>
-0.588846

>  <RMSD>
3.437

$$$$
1xpf_lig
 OpenBabel02141814123D
libRbt.so/2013.1/901 2013/11/27
 14 13  0  0  0  0  0  0  0  0999 V2000
   15.6256   -4.3004   60.2909 N   0  0  0  0  0  0  0  0  0  0  0  0
   16.9364   -3.8066   59.9114 C   0  0  0  0  0  0  0  0  0  0  0  0
   17.0519   -2.3522   60.1704 C   0  0  0  0  0  0  0  0  0  0  0  0
   18.4561   -1.9659   59.8234 C   0  0  0  0  0  0  0  0  0  0  0  0
   18.5962   -0.5309   60.1725 N   0  0  0  0  0  0  0  0  0  0  0  0
   19.9403   -0.0196   59.7640 C   0  0  0  0  0  0  0  0  0  0  0  0
   20.0725    1.5088   59.8799 C   0  0  0  0  0  0  0  0  0  0  0  0
   20.0415    2.0305   61.3275 C   0  0  0  0  0  0  0  0  0  0  0  0
   20.1082    3.5501   61.3116 C   0  0  0  0  0  0  0  0  0  0  0  0
   20.2774    3.9333   62.7208 N   0  0  0  0  0  0  0  0  0  0  0  0
   20.6475    5.3447   63.0219 C   0  0  0  0  0  0  0  0  0  0  0  0
   22.1873    5.2412   62.9706 C   0  0  0  0  0  0  0  0  0  0  0  0
   23.0037    6.5028   63.0927 C   0  0  0  0  0  0  0  0  0  0  0  0
   22.8019    7.4654   62.0236 N   0  0  0  0  0  0  0  0  0  0  0  0
  1  2  1  0  0  0  0
  2  3  1  0  0  0  0
  3  4  1  0  0  0  0
  4  5  1  0  0  0  0
  5  6  1  0  0  0  0
  6  7  1  0  0  0  0
  7  8  1  0  0  0  0
  8  9  1  0  0  0  0
  9 10  1  0  0  0  0
 10 11  1  0  0  0  0
 11 12  1  0  0  0  0
 12 13  1  0  0  0  0
 13 14  1  0  0  0  0
M  END
>  <CHROM.1>
176.71850158,-176.15690787,-175.64992606,170.42111829,67.57253279,-177.14999874
-171.73296133,168.05344375,-88.81886697,174.14938369,-63.06715099,19.69633166
1.61436025,61.17716980,2.23931161,-0.72142932,-2.37410861

>  <Name>
1xpf_lig

>  <RI>
0

>  <Rbt.Current_Directory>
/home/afrankz/demos/rdock_decoys_rna/rnas/1xpf

>  <Rbt.Executable>
rbdock ($Id: //depot/dev/client3/rdock/2013.1/src/exe/rbdock.cxx#4 $)

>  <Rbt.Library>
libRbt.so (2013.1, Build901 2013/11/27)

>  <Rbt.Parameter_File>
/export/apps/rDock/src/rDock_2013.1_src/data/scripts/dock_solv.prm

>  <Rbt.Receptor>
prm/pocket_docking_4.prm

>  <SCORE>
-8.23865

>  <SCORE.INTER>
1.4557

>  <SCORE.INTER.CONST>
1

>  <SCORE.INTER.POLAR>
-0.916515

>  <SCORE.INTER.ROT>
11

>  <SCORE.INTER.SOLV>
8.36443

>  <SCORE.INTER.VDW>
-9.69596

>  <SCORE.INTER.norm>
0.103979

>  <SCORE.INTRA>
-9.6952

>  <SCORE.INTRA.DIHEDRAL>
-16.2521

>  <SCORE.INTRA.DIHEDRAL.0>
17.7811

>  <SCORE.INTRA.POLAR>
0

>  <SCORE.INTRA.POLAR.0>
0

>  <SCORE.INTRA.REPUL>
0

>  <SCORE.INTRA.REPUL.0>
0

>  <SCORE.INTRA.SOLV>
-0.0177821

>  <SCORE.INTRA.SOLV.lig_0>
-47.9565

>  <SCORE.INTRA.VDW>
-1.56024

>  <SCORE.INTRA.VDW.0>
0.515983

>  <SCORE.INTRA.norm>
-0.692514

>  <SCORE.RESTR>
0.00084486

>  <SCORE.RESTR.CAVITY>
0.00084486

>  <SCORE.RESTR.norm>
6.03471e-05

>  <SCORE.SYSTEM>
0

>  <SCORE.SYSTEM.CONST>
0

>  <SCORE.SYSTEM.DIHEDRAL>
0

>  <SCORE.SYSTEM.SOLV>
0

>  <SCORE.SYSTEM.norm>
0

>  <SCORE.heavy>
14

>  <SCORE.norm>
-0.588475

>  <RMSD>
3.465

$$$$
1xpf_lig
 OpenBabel02141814123D
libRbt.so/2013.1/901 2013/11/27
 14 13  0  0  0  0  0  0  0  0999 V2000
   20.4135    5.8714   64.0918 N   0  0  0  0  0  0  0  0  0  0  0  0
   20.7215    4.8913   65.1169 C   0  0  0  0  0  0  0  0  0  0  0  0
   19.8783    3.6821   64.9666 C   0  0  0  0  0  0  0  0  0  0  0  0
   20.2856    2.7384   66.0551 C   0  0  0  0  0  0  0  0  0  0  0  0
   19.3856    1.5637   65.9521 N   0  0  0  0  0  0  0  0  0  0  0  0
   19.7860    0.5074   66.9314 C   0  0  0  0  0  0  0  0  0  0  0  0
   18.9029   -0.7506   66.8668 C   0  0  0  0  0  0  0  0  0  0  0  0
   17.4267   -0.4965   67.2201 C   0  0  0  0  0  0  0  0  0  0  0  0
   16.7650   -1.8183   67.5793 C   0  0  0  0  0  0  0  0  0  0  0  0
   16.8560   -2.6284   66.3558 N   0  0  0  0  0  0  0  0  0  0  0  0
   16.4084   -4.0478   66.4224 C   0  0  0  0  0  0  0  0  0  0  0  0
   16.9635   -4.5736   65.0808 C   0  0  0  0  0  0  0  0  0  0  0  0
   16.7897   -6.0333   64.7460 C   0  0  0  0  0  0  0  0  0  0  0  0
   15.4206   -6.4386   64.4790 N   0  0  0  0  0  0  0  0  0  0  0  0
  1  2  1  0  0  0  0
  2  3  1  0  0  0  0
  3  4  1  0  0  0  0
  4  5  1  0  0  0  0
  5  6  1  0  0  0  0
  6  7  1  0  0  0  0
  7  8  1  0  0  0  0
  8  9  1  0  0  0  0
  9 10  1  0  0  0  0
 10 11  1  0  0  0  0
 11 12  1  0  0  0  0
 12 13  1  0  0  0  0
 13 14  1  0  0  0  0
M  END
>  <CHROM.1>
179.36462101,176.71220193,175.35960764,-179.28084143,-62.75166546,-161.18455994
-62.25834743,174.10492199,-167.84191266,177.26019995,68.93053869,18.28605115
-0.53812786,65.84769624,-0.15833768,-1.15917998,-1.77209944

>  <Name>
1xpf_lig

>  <RI>
0

>  <Rbt.Current_Directory>
/home/afrankz/demos/rdock_decoys_rna/rnas/1xpf

>  <Rbt.Executable>
rbdock ($Id: //depot/dev/client3/rdock/2013.1/src/exe/rbdock.cxx#4 $)

>  <Rbt.Library>
libRbt.so (2013.1, Build901 2013/11/27)

>  <Rbt.Parameter_File>
/export/apps/rDock/src/rDock_2013.1_src/data/scripts/dock_solv.prm

>  <Rbt.Receptor>
prm/blind_docking_100.prm

>  <SCORE>
-10.4255

>  <SCORE.INTER>
-1.25491

>  <SCORE.INTER.CONST>
1

>  <SCORE.INTER.POLAR>
0

>  <SCORE.INTER.ROT>
11

>  <SCORE.INTER.SOLV>
7.57822

>  <SCORE.INTER.VDW>
-14.296

>  <SCORE.INTER.norm>
-0.0896363

>  <SCORE.INTRA>
-9.22438

>  <SCORE.INTRA.DIHEDRAL>
-15.8336

>  <SCORE.INTRA.DIHEDRAL.0>
17.7811

>  <SCORE.INTRA.POLAR>
0

>  <SCORE.INTRA.POLAR.0>
0

>  <SCORE.INTRA.REPUL>
0

>  <SCORE.INTRA.REPUL.0>
0

>  <SCORE.INTRA.SOLV>
0.380815

>  <SCORE.INTRA.SOLV.lig_0>
-47.9565

>  <SCORE.INTRA.VDW>
-1.49797

>  <SCORE.INTRA.VDW.0>
0.515983

>  <SCORE.INTRA.norm>
-0.658884

>  <SCORE.RESTR>
0.0537434

>  <SCORE.RESTR.CAVITY>
0.0537434

>  <SCORE.RESTR.norm>
0.00383882

>  <SCORE.SYSTEM>
0

>  <SCORE.SYSTEM.CONST>
0

>  <SCORE.SYSTEM.DIHEDRAL>
0

>  <SCORE.SYSTEM.SOLV>
0

>  <SCORE.SYSTEM.norm>
0

>  <SCORE.heavy>
14

>  <SCORE.norm>
-0.744682

>  <RMSD>
3.492

$$$$
1xpf_lig
 OpenBabel02141814123D
libRbt.so/2013.1/901 2013/11/27
 14 13  0  0  0  0  0  0  0  0999 V2000
   15.2535   -6.8199   65.9771 N   0  0  0  0  0  0  0  0  0  0  0  0
   15.4842   -5.5984   65.2282 C   0  0  0  0  0  0  0  0  0  0  0  0
   16.3238   -4.6523   66.0000 C   0  0  0  0  0  0  0  0  0  0  0  0
   16.5004   -3.4385   65.1416 C   0  0  0  0  0  0  0  0  0  0  0  0
   17.3890   -2.5179   65.8924 N   0  0  0  0  0  0  0  0  0  0  0  0
   16.5931   -1.4290   66.5373 C   0  0  0  0  0  0  0  0  0  0  0  0
   17.4223   -0.5489   67.4885 C   0  0  0  0  0  0  0  0  0  0  0  0
   18.5307    0.2563   66.7876 C   0  0  0  0  0  0  0  0  0  0  0  0
   19.2671    1.0955   67.8209 C   0  0  0  0  0  0  0  0  0  0  0  0
   20.1685    1.9516   67.0361 N   0  0  0  0  0  0  0  0  0  0  0  0
   19.7775    3.3743   66.8295 C   0  0  0  0  0  0  0  0  0  0  0  0
   20.8841    3.8234   65.8507 C   0  0  0  0  0  0  0  0  0  0  0  0
   20.9275    3.2105   64.4740 C   0  0  0  0  0  0  0  0  0  0  0  0
   19.7812    3.5141   63.6351 N   0  0  0  0  0  0  0  0  0  0  0  0
  1  2  1  0  0  0  0
  2  3  1  0  0  0  0
  3  4  1  0  0  0  0
  4  5  1  0  0  0  0
  5  6  1  0  0  0  0
  6  7  1  0  0  0  0
  7  8  1  0  0  0  0
  8  9  1  0  0  0  0
  9 10  1  0  0  0  0
 10 11  1  0  0  0  0
 11 12  1  0  0  0  0
 12 13  1  0  0  0  0
 13 14  1  0  0  0  0
M  END
>  <CHROM.1>
179.89225112,-177.62420972,-101.61202594,172.13275575,64.61254764,179.33512194
-172.56390440,102.55868054,-173.71898955,65.72857379,64.65511082,18.16449188
-0.55548258,66.05009204,-3.04330557,1.07525843,1.45513765

>  <Name>
1xpf_lig

>  <RI>
0

>  <Rbt.Current_Directory>
/home/afrankz/demos/rdock_decoys_rna/rnas/1xpf

>  <Rbt.Executable>
rbdock ($Id: //depot/dev/client3/rdock/2013.1/src/exe/rbdock.cxx#4 $)

>  <Rbt.Library>
libRbt.so (2013.1, Build901 2013/11/27)

>  <Rbt.Parameter_File>
/export/apps/rDock/src/rDock_2013.1_src/data/scripts/dock_solv.prm

>  <Rbt.Receptor>
prm/pocket_docking_5.prm

>  <SCORE>
-10.1068

>  <SCORE.INTER>
-1.35877

>  <SCORE.INTER.CONST>
1

>  <SCORE.INTER.POLAR>
0

>  <SCORE.INTER.ROT>
11

>  <SCORE.INTER.SOLV>
7.21058

>  <SCORE.INTER.VDW>
-14.2427

>  <SCORE.INTER.norm>
-0.0970547

>  <SCORE.INTRA>
-8.74799

>  <SCORE.INTRA.DIHEDRAL>
-15.2746

>  <SCORE.INTRA.DIHEDRAL.0>
17.7811

>  <SCORE.INTRA.POLAR>
0

>  <SCORE.INTRA.POLAR.0>
0

>  <SCORE.INTRA.REPUL>
0

>  <SCORE.INTRA.REPUL.0>
0

>  <SCORE.INTRA.SOLV>
0.937907

>  <SCORE.INTRA.SOLV.lig_0>
-47.9565

>  <SCORE.INTRA.VDW>
-1.57966

>  <SCORE.INTRA.VDW.0>
0.515983

>  <SCORE.INTRA.norm>
-0.624856

>  <SCORE.RESTR>
0

>  <SCORE.RESTR.CAVITY>
0

>  <SCORE.RESTR.norm>
0

>  <SCORE.SYSTEM>
0

>  <SCORE.SYSTEM.CONST>
0

>  <SCORE.SYSTEM.DIHEDRAL>
0

>  <SCORE.SYSTEM.SOLV>
0

>  <SCORE.SYSTEM.norm>
0

>  <SCORE.heavy>
14

>  <SCORE.norm>
-0.721911

>  <RMSD>
3.529

$$$$
1xpf_lig
 OpenBabel02141814123D
libRbt.so/2013.1/901 2013/11/27
 14 13  0  0  0  0  0  0  0  0999 V2000
   21.0537   -3.5788   64.0824 N   0  0  0  0  0  0  0  0  0  0  0  0
   21.6636   -2.2637   64.0132 C   0  0  0  0  0  0  0  0  0  0  0  0
   20.6379   -1.1972   64.0928 C   0  0  0  0  0  0  0  0  0  0  0  0
   20.0980   -1.2260   65.4889 C   0  0  0  0  0  0  0  0  0  0  0  0
   19.0023   -0.2271   65.5369 N   0  0  0  0  0  0  0  0  0  0  0  0
   18.9304    0.4093   66.8878 C   0  0  0  0  0  0  0  0  0  0  0  0
   19.9958    1.4973   67.1070 C   0  0  0  0  0  0  0  0  0  0  0  0
   19.7877    2.7573   66.2482 C   0  0  0  0  0  0  0  0  0  0  0  0
   20.0727    2.4213   64.7922 C   0  0  0  0  0  0  0  0  0  0  0  0
   19.7332    3.6448   64.0511 N   0  0  0  0  0  0  0  0  0  0  0  0
   19.3725    3.5127   62.6116 C   0  0  0  0  0  0  0  0  0  0  0  0
   20.7241    3.8702   61.9563 C   0  0  0  0  0  0  0  0  0  0  0  0
   21.2698    5.2645   62.1328 C   0  0  0  0  0  0  0  0  0  0  0  0
   22.5550    5.5009   61.4984 N   0  0  0  0  0  0  0  0  0  0  0  0
  1  2  1  0  0  0  0
  2  3  1  0  0  0  0
  3  4  1  0  0  0  0
  4  5  1  0  0  0  0
  5  6  1  0  0  0  0
  6  7  1  0  0  0  0
  7  8  1  0  0  0  0
  8  9  1  0  0  0  0
  9 10  1  0  0  0  0
 10 11  1  0  0  0  0
 11 12  1  0  0  0  0
 12 13  1  0  0  0  0
 13 14  1  0  0  0  0
M  END
>  <CHROM.1>
69.31170715,-175.87846651,-146.90477501,78.59394938,68.30920317,-69.95574871
175.16241458,-155.85938112,-98.01154121,-64.73412685,179.09050730,20.34967297
1.45614850,64.32160931,-1.76775399,1.06667480,-0.23260496

>  <Name>
1xpf_lig

>  <RI>
0

>  <Rbt.Current_Directory>
/home/afrankz/demos/rdock_decoys_rna/rnas/1xpf

>  <Rbt.Executable>
rbdock ($Id: //depot/dev/client3/rdock/2013.1/src/exe/rbdock.cxx#4 $)

>  <Rbt.Library>
libRbt.so (2013.1, Build901 2013/11/27)

>  <Rbt.Parameter_File>
/export/apps/rDock/src/rDock_2013.1_src/data/scripts/dock_solv.prm

>  <Rbt.Receptor>
prm/pocket_docking_3.prm

>  <SCORE>
-6.32326

>  <SCORE.INTER>
0.789734

>  <SCORE.INTER.CONST>
1

>  <SCORE.INTER.POLAR>
0

>  <SCORE.INTER.ROT>
11

>  <SCORE.INTER.SOLV>
7.83774

>  <SCORE.INTER.VDW>
-13.0194

>  <SCORE.INTER.norm>
0.0564096

>  <SCORE.INTRA>
-7.11996

>  <SCORE.INTRA.DIHEDRAL>
-14.3338

>  <SCORE.INTRA.DIHEDRAL.0>
17.7811

>  <SCORE.INTRA.POLAR>
0

>  <SCORE.INTRA.POLAR.0>
0

>  <SCORE.INTRA.REPUL>
0

>  <SCORE.INTRA.REPUL.0>
0

>  <SCORE.INTRA.SOLV>
1.52826

>  <SCORE.INTRA.SOLV.lig_0>
-47.9565

>  <SCORE.INTRA.VDW>
-0.717198

>  <SCORE.INTRA.VDW.0>
0.515983

>  <SCORE.INTRA.norm>
-0.508568

>  <SCORE.RESTR>
0.00696392

>  <SCORE.RESTR.CAVITY>
0.00696392

>  <SCORE.RESTR.norm>
0.000497423

>  <SCORE.SYSTEM>
0

>  <SCORE.SYSTEM.CONST>
0

>  <SCORE.SYSTEM.DIHEDRAL>
0

>  <SCORE.SYSTEM.SOLV>
0

>  <SCORE.SYSTEM.norm>
0

>  <SCORE.heavy>
14

>  <SCORE.norm>
-0.451661

>  <RMSD>
3.540

$$$$
1xpf_lig
 OpenBabel02141814123D
libRbt.so/2013.1/901 2013/11/27
 14 13  0  0  0  0  0  0  0  0999 V2000
   19.7853   -3.5740   63.4581 N   0  0  0  0  0  0  0  0  0  0  0  0
   21.0524   -2.8686   63.4036 C   0  0  0  0  0  0  0  0  0  0  0  0
   21.3394   -2.1912   64.6899 C   0  0  0  0  0  0  0  0  0  0  0  0
   20.2609   -1.1717   64.8867 C   0  0  0  0  0  0  0  0  0  0  0  0
   20.5933   -0.4433   66.1355 N   0  0  0  0  0  0  0  0  0  0  0  0
   19.4600    0.4414   66.5453 C   0  0  0  0  0  0  0  0  0  0  0  0
   19.8225    1.9365   66.5451 C   0  0  0  0  0  0  0  0  0  0  0  0
   20.4274    2.4325   65.2198 C   0  0  0  0  0  0  0  0  0  0  0  0
   19.3620    2.3813   64.1351 C   0  0  0  0  0  0  0  0  0  0  0  0
   20.0604    2.7779   62.9037 N   0  0  0  0  0  0  0  0  0  0  0  0
   19.2680    3.4504   61.8363 C   0  0  0  0  0  0  0  0  0  0  0  0
   20.1111    3.0828   60.5961 C   0  0  0  0  0  0  0  0  0  0  0  0
   21.4581    3.7353   60.4150 C   0  0  0  0  0  0  0  0  0  0  0  0
   22.0754    3.5099   59.1195 N   0  0  0  0  0  0  0  0  0  0  0  0
  1  2  1  0  0  0  0
  2  3  1  0  0  0  0
  3  4  1  0  0  0  0
  4  5  1  0  0  0  0
  5  6  1  0  0  0  0
  6  7  1  0  0  0  0
  7  8  1  0  0  0  0
  8  9  1  0  0  0  0
  9 10  1  0  0  0  0
 10 11  1  0  0  0  0
 11 12  1  0  0  0  0
 12 13  1  0  0  0  0
 13 14  1  0  0  0  0
M  END
>  <CHROM.1>
-63.04266895,-176.86172328,-170.50610463,-117.02756231,53.05881088,67.47512050
-176.06971845,-151.21491756,-154.53387766,-71.11516639,-169.91067399,20.36248303
0.96440070,63.56381832,-1.81136052,1.30524193,-0.47282572

>  <Name>
1xpf_lig

>  <RI>
0

>  <Rbt.Current_Directory>
/home/afrankz/demos/rdock_decoys_rna/rnas/1xpf

>  <Rbt.Executable>
rbdock ($Id: //depot/dev/client3/rdock/2013.1/src/exe/rbdock.cxx#4 $)

>  <Rbt.Library>
libRbt.so (2013.1, Build901 2013/11/27)

>  <Rbt.Parameter_File>
/export/apps/rDock/src/rDock_2013.1_src/data/scripts/dock_solv.prm

>  <Rbt.Receptor>
prm/pocket_docking_3.prm

>  <SCORE>
-10.458

>  <SCORE.INTER>
-2.9767

>  <SCORE.INTER.CONST>
1

>  <SCORE.INTER.POLAR>
-0.738974

>  <SCORE.INTER.ROT>
11

>  <SCORE.INTER.SOLV>
11.5823

>  <SCORE.INTER.VDW>
-14.3153

>  <SCORE.INTER.norm>
-0.212621

>  <SCORE.INTRA>
-7.48419

>  <SCORE.INTRA.DIHEDRAL>
-14.1223

>  <SCORE.INTRA.DIHEDRAL.0>
17.7811

>  <SCORE.INTRA.POLAR>
0

>  <SCORE.INTRA.POLAR.0>
0

>  <SCORE.INTRA.REPUL>
0

>  <SCORE.INTRA.REPUL.0>
0

>  <SCORE.INTRA.SOLV>
1.21566

>  <SCORE.INTRA.SOLV.lig_0>
-47.9565

>  <SCORE.INTRA.VDW>
-1.03088

>  <SCORE.INTRA.VDW.0>
0.515983

>  <SCORE.INTRA.norm>
-0.534585

>  <SCORE.RESTR>
0.0029277

>  <SCORE.RESTR.CAVITY>
0.0029277

>  <SCORE.RESTR.norm>
0.000209122

>  <SCORE.SYSTEM>
0

>  <SCORE.SYSTEM.CONST>
0

>  <SCORE.SYSTEM.DIHEDRAL>
0

>  <SCORE.SYSTEM.SOLV>
0

>  <SCORE.SYSTEM.norm>
0

>  <SCORE.heavy>
14

>  <SCORE.norm>
-0.746997

>  <RMSD>
3.541

$$$$
1xpf_lig
 OpenBabel02141814123D
libRbt.so/2013.1/901 2013/11/27
 14 13  0  0  0  0  0  0  0  0999 V2000
   20.1262   -3.3517   62.8601 N   0  0  0  0  0  0  0  0  0  0  0  0
   20.9861   -3.5489   64.0125 C   0  0  0  0  0  0  0  0  0  0  0  0
   21.4443   -2.2512   64.5620 C   0  0  0  0  0  0  0  0  0  0  0  0
   20.2296   -1.5618   65.1010 C   0  0  0  0  0  0  0  0  0  0  0  0
   20.7046   -0.3084   65.7368 N   0  0  0  0  0  0  0  0  0  0  0  0
   19.6128    0.3181   66.5433 C   0  0  0  0  0  0  0  0  0  0  0  0
   19.7787    1.8376   66.7180 C   0  0  0  0  0  0  0  0  0  0  0  0
   19.8865    2.6108   65.3917 C   0  0  0  0  0  0  0  0  0  0  0  0
   20.0736    4.0906   65.6909 C   0  0  0  0  0  0  0  0  0  0  0  0
   20.1760    4.7304   64.3712 N   0  0  0  0  0  0  0  0  0  0  0  0
   20.7613    6.0986   64.3012 C   0  0  0  0  0  0  0  0  0  0  0  0
   20.7464    6.3254   62.7739 C   0  0  0  0  0  0  0  0  0  0  0  0
   21.6297    5.4671   61.9043 C   0  0  0  0  0  0  0  0  0  0  0  0
   23.0522    5.5893   62.1719 N   0  0  0  0  0  0  0  0  0  0  0  0
  1  2  1  0  0  0  0
  2  3  1  0  0  0  0
  3  4  1  0  0  0  0
  4  5  1  0  0  0  0
  5  6  1  0  0  0  0
  6  7  1  0  0  0  0
  7  8  1  0  0  0  0
  8  9  1  0  0  0  0
  9 10  1  0  0  0  0
 10 11  1  0  0  0  0
 11 12  1  0  0  0  0
 12 13  1  0  0  0  0
 13 14  1  0  0  0  0
M  END
>  <CHROM.1>
66.27464752,176.03629451,-168.61180332,-154.89900269,56.22252201,-178.90210143
179.53781329,-162.12443005,176.91242294,-65.98956275,-61.37530542,20.65757000
1.86049563,64.43874948,-1.74692101,1.11794422,0.00867360

>  <Name>
1xpf_lig

>  <RI>
0

>  <Rbt.Current_Directory>
/home/afrankz/demos/rdock_decoys_rna/rnas/1xpf

>  <Rbt.Executable>
rbdock ($Id: //depot/dev/client3/rdock/2013.1/src/exe/rbdock.cxx#4 $)

>  <Rbt.Library>
libRbt.so (2013.1, Build901 2013/11/27)

>  <Rbt.Parameter_File>
/export/apps/rDock/src/rDock_2013.1_src/data/scripts/dock_solv.prm

>  <Rbt.Receptor>
prm/pocket_docking_3.prm

>  <SCORE>
-9.57402

>  <SCORE.INTER>
-0.840354

>  <SCORE.INTER.CONST>
1

>  <SCORE.INTER.POLAR>
0

>  <SCORE.INTER.ROT>
11

>  <SCORE.INTER.SOLV>
8.43451

>  <SCORE.INTER.VDW>
-14.3051

>  <SCORE.INTER.norm>
-0.0600253

>  <SCORE.INTRA>
-8.73367

>  <SCORE.INTRA.DIHEDRAL>
-16.5695

>  <SCORE.INTRA.DIHEDRAL.0>
17.7811

>  <SCORE.INTRA.POLAR>
0

>  <SCORE.INTRA.POLAR.0>
0

>  <SCORE.INTRA.REPUL>
0

>  <SCORE.INTRA.REPUL.0>
0

>  <SCORE.INTRA.SOLV>
1.93344

>  <SCORE.INTRA.SOLV.lig_0>
-47.9565

>  <SCORE.INTRA.VDW>
-1.41565

>  <SCORE.INTRA.VDW.0>
0.515983

>  <SCORE.INTRA.norm>
-0.623834

>  <SCORE.RESTR>
0

>  <SCORE.RESTR.CAVITY>
0

>  <SCORE.RESTR.norm>
0

>  <SCORE.SYSTEM>
0

>  <SCORE.SYSTEM.CONST>
0

>  <SCORE.SYSTEM.DIHEDRAL>
0

>  <SCORE.SYSTEM.SOLV>
0

>  <SCORE.SYSTEM.norm>
0

>  <SCORE.heavy>
14

>  <SCORE.norm>
-0.683859

>  <RMSD>
3.586

$$$$
1xpf_lig
 OpenBabel02141814123D
libRbt.so/2013.1/901 2013/11/27
 14 13  0  0  0  0  0  0  0  0999 V2000
   22.2298    3.8726   58.9138 N   0  0  0  0  0  0  0  0  0  0  0  0
   21.7581    4.2044   60.2455 C   0  0  0  0  0  0  0  0  0  0  0  0
   20.6802    3.2816   60.6729 C   0  0  0  0  0  0  0  0  0  0  0  0
   20.0231    3.9122   61.8611 C   0  0  0  0  0  0  0  0  0  0  0  0
   21.0125    3.8613   62.9653 N   0  0  0  0  0  0  0  0  0  0  0  0
   20.4235    4.4118   64.2243 C   0  0  0  0  0  0  0  0  0  0  0  0
   20.5434    3.4550   65.4231 C   0  0  0  0  0  0  0  0  0  0  0  0
   19.9272    2.0663   65.1779 C   0  0  0  0  0  0  0  0  0  0  0  0
   20.0397    1.2391   66.4497 C   0  0  0  0  0  0  0  0  0  0  0  0
   19.6627   -0.1234   66.0460 N   0  0  0  0  0  0  0  0  0  0  0  0
   20.7078   -0.9817   65.4210 C   0  0  0  0  0  0  0  0  0  0  0  0
   19.8221   -1.9123   64.5644 C   0  0  0  0  0  0  0  0  0  0  0  0
   20.4810   -3.0089   63.7668 C   0  0  0  0  0  0  0  0  0  0  0  0
   19.5689   -3.8286   62.9881 N   0  0  0  0  0  0  0  0  0  0  0  0
  1  2  1  0  0  0  0
  2  3  1  0  0  0  0
  3  4  1  0  0  0  0
  4  5  1  0  0  0  0
  5  6  1  0  0  0  0
  6  7  1  0  0  0  0
  7  8  1  0  0  0  0
  8  9  1  0  0  0  0
  9 10  1  0  0  0  0
 10 11  1  0  0  0  0
 11 12  1  0  0  0  0
 12 13  1  0  0  0  0
 13 14  1  0  0  0  0
M  END
>  <CHROM.1>
-165.18509468,-68.94852428,-177.26338999,126.72768977,-55.96112859,-177.03050909
-169.80144670,82.90780041,-153.04186997,-177.97951455,-179.73780735,20.49138811
1.46089179,63.48030816,-0.63088757,-1.35692973,-2.75400452

>  <Name>
1xpf_lig

>  <RI>
0

>  <Rbt.Current_Directory>
/home/afrankz/demos/rdock_decoys_rna/rnas/1xpf

>  <Rbt.Executable>
rbdock ($Id: //depot/dev/client3/rdock/2013.1/src/exe/rbdock.cxx#4 $)

>  <Rbt.Library>
libRbt.so (2013.1, Build901 2013/11/27)

>  <Rbt.Parameter_File>
/export/apps/rDock/src/rDock_2013.1_src/data/scripts/dock_solv.prm

>  <Rbt.Receptor>
prm/pocket_docking_3.prm

>  <SCORE>
-9.12036

>  <SCORE.INTER>
-0.784182

>  <SCORE.INTER.CONST>
1

>  <SCORE.INTER.POLAR>
-0.85859

>  <SCORE.INTER.ROT>
11

>  <SCORE.INTER.SOLV>
11.544

>  <SCORE.INTER.VDW>
-12.4421

>  <SCORE.INTER.norm>
-0.056013

>  <SCORE.INTRA>
-8.33618

>  <SCORE.INTRA.DIHEDRAL>
-14.1393

>  <SCORE.INTRA.DIHEDRAL.0>
17.7811

>  <SCORE.INTRA.POLAR>
0

>  <SCORE.INTRA.POLAR.0>
0

>  <SCORE.INTRA.REPUL>
0

>  <SCORE.INTRA.REPUL.0>
0

>  <SCORE.INTRA.SOLV>
-0.0853304

>  <SCORE.INTRA.SOLV.lig_0>
-47.9565

>  <SCORE.INTRA.VDW>
-1.22387

>  <SCORE.INTRA.VDW.0>
0.515983

>  <SCORE.INTRA.norm>
-0.595441

>  <SCORE.RESTR>
0

>  <SCORE.RESTR.CAVITY>
0

>  <SCORE.RESTR.norm>
0

>  <SCORE.SYSTEM>
0

>  <SCORE.SYSTEM.CONST>
0

>  <SCORE.SYSTEM.DIHEDRAL>
0

>  <SCORE.SYSTEM.SOLV>
0

>  <SCORE.SYSTEM.norm>
0

>  <SCORE.heavy>
14

>  <SCORE.norm>
-0.651455

>  <RMSD>
3.594

$$$$
1xpf_lig
 OpenBabel02141814123D
libRbt.so/2013.1/901 2013/11/27
 14 13  0  0  0  0  0  0  0  0999 V2000
   23.3030    2.4282   61.5552 N   0  0  0  0  0  0  0  0  0  0  0  0
   23.2835    1.3475   62.5236 C   0  0  0  0  0  0  0  0  0  0  0  0
   23.3382    0.0289   61.8497 C   0  0  0  0  0  0  0  0  0  0  0  0
   23.3169   -1.0058   62.9316 C   0  0  0  0  0  0  0  0  0  0  0  0
   21.9448   -0.9968   63.4954 N   0  0  0  0  0  0  0  0  0  0  0  0
   21.8032   -2.0469   64.5500 C   0  0  0  0  0  0  0  0  0  0  0  0
   21.2221   -3.3691   64.0200 C   0  0  0  0  0  0  0  0  0  0  0  0
   19.7496   -3.2737   63.5828 C   0  0  0  0  0  0  0  0  0  0  0  0
   19.2827   -4.6391   63.1014 C   0  0  0  0  0  0  0  0  0  0  0  0
   17.8299   -4.4987   62.9255 N   0  0  0  0  0  0  0  0  0  0  0  0
   17.0563   -5.7026   62.5113 C   0  0  0  0  0  0  0  0  0  0  0  0
   15.6189   -5.2171   62.7983 C   0  0  0  0  0  0  0  0  0  0  0  0
   15.0890   -4.0286   62.0369 C   0  0  0  0  0  0  0  0  0  0  0  0
   14.9841   -4.2221   60.6010 N   0  0  0  0  0  0  0  0  0  0  0  0
  1  2  1  0  0  0  0
  2  3  1  0  0  0  0
  3  4  1  0  0  0  0
  4  5  1  0  0  0  0
  5  6  1  0  0  0  0
  6  7  1  0  0  0  0
  7  8  1  0  0  0  0
  8  9  1  0  0  0  0
  9 10  1  0  0  0  0
 10 11  1  0  0  0  0
 11 12  1  0  0  0  0
 12 13  1  0  0  0  0
 13 14  1  0  0  0  0
M  END
>  <CHROM.1>
179.84359099,71.37802906,177.44970233,-94.92974281,-68.00221096,-179.11276549
170.81456422,-177.33141615,166.32507401,62.40813927,63.07442771,19.84456184
-2.51427604,62.74901533,0.49238743,-0.43132008,-0.59140784

>  <Name>
1xpf_lig

>  <RI>
0

>  <Rbt.Current_Directory>
/home/afrankz/demos/rdock_decoys_rna/rnas/1xpf

>  <Rbt.Executable>
rbdock ($Id: //depot/dev/client3/rdock/2013.1/src/exe/rbdock.cxx#4 $)

>  <Rbt.Library>
libRbt.so (2013.1, Build901 2013/11/27)

>  <Rbt.Parameter_File>
/export/apps/rDock/src/rDock_2013.1_src/data/scripts/dock_solv.prm

>  <Rbt.Receptor>
prm/pocket_docking_4.prm

>  <SCORE>
-4.838

>  <SCORE.INTER>
3.618

>  <SCORE.INTER.CONST>
1

>  <SCORE.INTER.POLAR>
0

>  <SCORE.INTER.ROT>
11

>  <SCORE.INTER.SOLV>
2.28406

>  <SCORE.INTER.VDW>
-9.28269

>  <SCORE.INTER.norm>
0.258429

>  <SCORE.INTRA>
-8.456

>  <SCORE.INTRA.DIHEDRAL>
-15.7811

>  <SCORE.INTRA.DIHEDRAL.0>
17.7811

>  <SCORE.INTRA.POLAR>
0

>  <SCORE.INTRA.POLAR.0>
0

>  <SCORE.INTRA.REPUL>
0

>  <SCORE.INTRA.REPUL.0>
0

>  <SCORE.INTRA.SOLV>
1.57029

>  <SCORE.INTRA.SOLV.lig_0>
-47.9565

>  <SCORE.INTRA.VDW>
-1.3506

>  <SCORE.INTRA.VDW.0>
0.515983

>  <SCORE.INTRA.norm>
-0.604

>  <SCORE.RESTR>
0

>  <SCORE.RESTR.CAVITY>
0

>  <SCORE.RESTR.norm>
0

>  <SCORE.SYSTEM>
0

>  <SCORE.SYSTEM.CONST>
0

>  <SCORE.SYSTEM.DIHEDRAL>
0

>  <SCORE.SYSTEM.SOLV>
0

>  <SCORE.SYSTEM.norm>
0

>  <SCORE.heavy>
14

>  <SCORE.norm>
-0.345571

>  <RMSD>
3.608

$$$$
1xpf_lig
 OpenBabel02141814123D
libRbt.so/2013.1/901 2013/11/27
 14 13  0  0  0  0  0  0  0  0999 V2000
   23.2349    5.6207   62.0020 N   0  0  0  0  0  0  0  0  0  0  0  0
   21.9165    5.2129   61.5528 C   0  0  0  0  0  0  0  0  0  0  0  0
   20.9007    5.4452   62.6063 C   0  0  0  0  0  0  0  0  0  0  0  0
   21.1991    4.4779   63.7093 C   0  0  0  0  0  0  0  0  0  0  0  0
   20.1293    4.6518   64.7222 N   0  0  0  0  0  0  0  0  0  0  0  0
   20.3960    3.7978   65.9199 C   0  0  0  0  0  0  0  0  0  0  0  0
   19.8751    2.3579   65.7706 C   0  0  0  0  0  0  0  0  0  0  0  0
   19.9028    1.5449   67.0771 C   0  0  0  0  0  0  0  0  0  0  0  0
   19.3249    0.1621   66.8164 C   0  0  0  0  0  0  0  0  0  0  0  0
   20.3497   -0.5293   66.0208 N   0  0  0  0  0  0  0  0  0  0  0  0
   19.8941   -1.4880   64.9754 C   0  0  0  0  0  0  0  0  0  0  0  0
   21.2324   -2.1789   64.6349 C   0  0  0  0  0  0  0  0  0  0  0  0
   21.2588   -3.2049   63.5305 C   0  0  0  0  0  0  0  0  0  0  0  0
   20.8408   -2.7113   62.2298 N   0  0  0  0  0  0  0  0  0  0  0  0
  1  2  1  0  0  0  0
  2  3  1  0  0  0  0
  3  4  1  0  0  0  0
  4  5  1  0  0  0  0
  5  6  1  0  0  0  0
  6  7  1  0  0  0  0
  7  8  1  0  0  0  0
  8  9  1  0  0  0  0
  9 10  1  0  0  0  0
 10 11  1  0  0  0  0
 11 12  1  0  0  0  0
 12 13  1  0  0  0  0
 13 14  1  0  0  0  0
M  END
>  <CHROM.1>
-68.34027277,-176.40430832,-175.69215235,-85.25385465,-169.19597157,178.13245966
72.00752902,-145.25014021,-168.17724164,-176.54235959,59.32702354,20.74663672
1.65416181,64.39797834,-1.25723837,-1.13208249,-3.07112588

>  <Name>
1xpf_lig

>  <RI>
0

>  <Rbt.Current_Directory>
/home/afrankz/demos/rdock_decoys_rna/rnas/1xpf

>  <Rbt.Executable>
rbdock ($Id: //depot/dev/client3/rdock/2013.1/src/exe/rbdock.cxx#4 $)

>  <Rbt.Library>
libRbt.so (2013.1, Build901 2013/11/27)

>  <Rbt.Parameter_File>
/export/apps/rDock/src/rDock_2013.1_src/data/scripts/dock_solv.prm

>  <Rbt.Receptor>
prm/pocket_docking_3.prm

>  <SCORE>
-8.25925

>  <SCORE.INTER>
0.0601592

>  <SCORE.INTER.CONST>
1

>  <SCORE.INTER.POLAR>
0

>  <SCORE.INTER.ROT>
11

>  <SCORE.INTER.SOLV>
7.96896

>  <SCORE.INTER.VDW>
-13.5495

>  <SCORE.INTER.norm>
0.00429708

>  <SCORE.INTRA>
-8.32939

>  <SCORE.INTRA.DIHEDRAL>
-15.1275

>  <SCORE.INTRA.DIHEDRAL.0>
17.7811

>  <SCORE.INTRA.POLAR>
0

>  <SCORE.INTRA.POLAR.0>
0

>  <SCORE.INTRA.REPUL>
0

>  <SCORE.INTRA.REPUL.0>
0

>  <SCORE.INTRA.SOLV>
0.931385

>  <SCORE.INTRA.SOLV.lig_0>
-47.9565

>  <SCORE.INTRA.VDW>
-1.23134

>  <SCORE.INTRA.VDW.0>
0.515983

>  <SCORE.INTRA.norm>
-0.594956

>  <SCORE.RESTR>
0.00998119

>  <SCORE.RESTR.CAVITY>
0.00998119

>  <SCORE.RESTR.norm>
0.000712942

>  <SCORE.SYSTEM>
0

>  <SCORE.SYSTEM.CONST>
0

>  <SCORE.SYSTEM.DIHEDRAL>
0

>  <SCORE.SYSTEM.SOLV>
0

>  <SCORE.SYSTEM.norm>
0

>  <SCORE.heavy>
14

>  <SCORE.norm>
-0.589946

>  <RMSD>
3.621

$$$$
1xpf_lig
 OpenBabel02141814123D
libRbt.so/2013.1/901 2013/11/27
 14 13  0  0  0  0  0  0  0  0999 V2000
   22.3499    3.8090   58.9052 N   0  0  0  0  0  0  0  0  0  0  0  0
   22.1931    4.7789   59.9733 C   0  0  0  0  0  0  0  0  0  0  0  0
   21.7835    4.1186   61.2351 C   0  0  0  0  0  0  0  0  0  0  0  0
   21.6079    5.2055   62.2495 C   0  0  0  0  0  0  0  0  0  0  0  0
   21.4219    4.5330   63.5587 N   0  0  0  0  0  0  0  0  0  0  0  0
   19.9677    4.3536   63.8553 C   0  0  0  0  0  0  0  0  0  0  0  0
   19.6998    3.4359   65.0607 C   0  0  0  0  0  0  0  0  0  0  0  0
   20.2667    2.0140   64.9015 C   0  0  0  0  0  0  0  0  0  0  0  0
   19.8626    1.1781   66.1066 C   0  0  0  0  0  0  0  0  0  0  0  0
   20.5288   -0.1170   65.9056 N   0  0  0  0  0  0  0  0  0  0  0  0
   19.9508   -1.0517   64.8997 C   0  0  0  0  0  0  0  0  0  0  0  0
   21.0690   -2.1148   64.8389 C   0  0  0  0  0  0  0  0  0  0  0  0
   20.9921   -3.1892   63.7841 C   0  0  0  0  0  0  0  0  0  0  0  0
   19.7760   -3.9833   63.8103 N   0  0  0  0  0  0  0  0  0  0  0  0
  1  2  1  0  0  0  0
  2  3  1  0  0  0  0
  3  4  1  0  0  0  0
  4  5  1  0  0  0  0
  5  6  1  0  0  0  0
  6  7  1  0  0  0  0
  7  8  1  0  0  0  0
  8  9  1  0  0  0  0
  9 10  1  0  0  0  0
 10 11  1  0  0  0  0
 11 12  1  0  0  0  0
 12 13  1  0  0  0  0
 13 14  1  0  0  0  0
M  END
>  <CHROM.1>
-178.18331181,-170.75867093,-93.94443600,169.22187526,-59.25784968,-176.29136285
-176.02392708,-75.97803513,170.32146820,-171.80061348,-57.07240528,20.81918093
1.64098274,63.50623437,-1.05862810,-1.21223926,-3.12209322

>  <Name>
1xpf_lig

>  <RI>
0

>  <Rbt.Current_Directory>
/home/afrankz/demos/rdock_decoys_rna/rnas/1xpf

>  <Rbt.Executable>
rbdock ($Id: //depot/dev/client3/rdock/2013.1/src/exe/rbdock.cxx#4 $)

>  <Rbt.Library>
libRbt.so (2013.1, Build901 2013/11/27)

>  <Rbt.Parameter_File>
/export/apps/rDock/src/rDock_2013.1_src/data/scripts/dock_solv.prm

>  <Rbt.Receptor>
prm/pocket_docking_3.prm

>  <SCORE>
-9.88506

>  <SCORE.INTER>
-0.9454

>  <SCORE.INTER.CONST>
1

>  <SCORE.INTER.POLAR>
-0.921575

>  <SCORE.INTER.ROT>
11

>  <SCORE.INTER.SOLV>
12.2192

>  <SCORE.INTER.VDW>
-12.5648

>  <SCORE.INTER.norm>
-0.0675286

>  <SCORE.INTRA>
-8.94278

>  <SCORE.INTRA.DIHEDRAL>
-15.9602

>  <SCORE.INTRA.DIHEDRAL.0>
17.7811

>  <SCORE.INTRA.POLAR>
0

>  <SCORE.INTRA.POLAR.0>
0

>  <SCORE.INTRA.REPUL>
0

>  <SCORE.INTRA.REPUL.0>
0

>  <SCORE.INTRA.SOLV>
0.0517159

>  <SCORE.INTRA.SOLV.lig_0>
-47.9565

>  <SCORE.INTRA.VDW>
-0.988524

>  <SCORE.INTRA.VDW.0>
0.515983

>  <SCORE.INTRA.norm>
-0.63877

>  <SCORE.RESTR>
0.00312166

>  <SCORE.RESTR.CAVITY>
0.00312166

>  <SCORE.RESTR.norm>
0.000222976

>  <SCORE.SYSTEM>
0

>  <SCORE.SYSTEM.CONST>
0

>  <SCORE.SYSTEM.DIHEDRAL>
0

>  <SCORE.SYSTEM.SOLV>
0

>  <SCORE.SYSTEM.norm>
0

>  <SCORE.heavy>
14

>  <SCORE.norm>
-0.706076

>  <RMSD>
3.623

$$$$
1xpf_lig
 OpenBabel02141814123D
libRbt.so/2013.1/901 2013/11/27
 14 13  0  0  0  0  0  0  0  0999 V2000
   22.3153    3.5325   58.9383 N   0  0  0  0  0  0  0  0  0  0  0  0
   22.8523    3.7277   60.2723 C   0  0  0  0  0  0  0  0  0  0  0  0
   22.1759    4.8539   60.9580 C   0  0  0  0  0  0  0  0  0  0  0  0
   20.8410    4.3436   61.4041 C   0  0  0  0  0  0  0  0  0  0  0  0
   20.9727    4.0262   62.8472 N   0  0  0  0  0  0  0  0  0  0  0  0
   19.6261    3.9344   63.4901 C   0  0  0  0  0  0  0  0  0  0  0  0
   19.6350    3.1532   64.8154 C   0  0  0  0  0  0  0  0  0  0  0  0
   20.1660    1.7143   64.6890 C   0  0  0  0  0  0  0  0  0  0  0  0
   19.9434    0.9831   66.0042 C   0  0  0  0  0  0  0  0  0  0  0  0
   20.6453   -0.2989   65.8446 N   0  0  0  0  0  0  0  0  0  0  0  0
   19.9573   -1.3831   65.0891 C   0  0  0  0  0  0  0  0  0  0  0  0
   21.1724   -2.2391   64.6705 C   0  0  0  0  0  0  0  0  0  0  0  0
   20.9314   -3.5161   63.9062 C   0  0  0  0  0  0  0  0  0  0  0  0
   20.2309   -3.3486   62.6447 N   0  0  0  0  0  0  0  0  0  0  0  0
  1  2  1  0  0  0  0
  2  3  1  0  0  0  0
  3  4  1  0  0  0  0
  4  5  1  0  0  0  0
  5  6  1  0  0  0  0
  6  7  1  0  0  0  0
  7  8  1  0  0  0  0
  8  9  1  0  0  0  0
  9 10  1  0  0  0  0
 10 11  1  0  0  0  0
 11 12  1  0  0  0  0
 12 13  1  0  0  0  0
 13 14  1  0  0  0  0
M  END
>  <CHROM.1>
76.78884618,100.40386727,161.73640337,160.04044208,-57.59827743,-171.99307135
-172.30537136,-80.50433437,157.88864555,177.51799610,58.99866882,20.81883102
1.39182845,63.25554916,-1.16412083,-1.15338398,3.00060623

>  <Name>
1xpf_lig

>  <RI>
0

>  <Rbt.Current_Directory>
/home/afrankz/demos/rdock_decoys_rna/rnas/1xpf

>  <Rbt.Executable>
rbdock ($Id: //depot/dev/client3/rdock/2013.1/src/exe/rbdock.cxx#4 $)

>  <Rbt.Library>
libRbt.so (2013.1, Build901 2013/11/27)

>  <Rbt.Parameter_File>
/export/apps/rDock/src/rDock_2013.1_src/data/scripts/dock_solv.prm

>  <Rbt.Receptor>
prm/pocket_docking_3.prm

>  <SCORE>
-6.68088

>  <SCORE.INTER>
-0.475625

>  <SCORE.INTER.CONST>
1

>  <SCORE.INTER.POLAR>
-0.917591

>  <SCORE.INTER.ROT>
11

>  <SCORE.INTER.SOLV>
11.6059

>  <SCORE.INTER.VDW>
-12.0604

>  <SCORE.INTER.norm>
-0.0339732

>  <SCORE.INTRA>
-6.20538

>  <SCORE.INTRA.DIHEDRAL>
-10.8306

>  <SCORE.INTRA.DIHEDRAL.0>
17.7811

>  <SCORE.INTRA.POLAR>
0

>  <SCORE.INTRA.POLAR.0>
0

>  <SCORE.INTRA.REPUL>
0

>  <SCORE.INTRA.REPUL.0>
0

>  <SCORE.INTRA.SOLV>
1.06703

>  <SCORE.INTRA.SOLV.lig_0>
-47.9565

>  <SCORE.INTRA.VDW>
-1.32361

>  <SCORE.INTRA.VDW.0>
0.515983

>  <SCORE.INTRA.norm>
-0.443242

>  <SCORE.RESTR>
0.000123209

>  <SCORE.RESTR.CAVITY>
0.000123209

>  <SCORE.RESTR.norm>
8.80061e-06

>  <SCORE.SYSTEM>
0

>  <SCORE.SYSTEM.CONST>
0

>  <SCORE.SYSTEM.DIHEDRAL>
0

>  <SCORE.SYSTEM.SOLV>
0

>  <SCORE.SYSTEM.norm>
0

>  <SCORE.heavy>
14

>  <SCORE.norm>
-0.477206

>  <RMSD>
3.640

$$$$
1xpf_lig
 OpenBabel02141814123D
libRbt.so/2013.1/901 2013/11/27
 14 13  0  0  0  0  0  0  0  0999 V2000
   22.0252    3.4035   59.1035 N   0  0  0  0  0  0  0  0  0  0  0  0
   21.4192    3.5307   60.4160 C   0  0  0  0  0  0  0  0  0  0  0  0
   20.0718    2.9145   60.4413 C   0  0  0  0  0  0  0  0  0  0  0  0
   19.4928    3.2069   61.7907 C   0  0  0  0  0  0  0  0  0  0  0  0
   18.1292    2.6227   61.7989 N   0  0  0  0  0  0  0  0  0  0  0  0
   17.4060    2.9942   63.0534 C   0  0  0  0  0  0  0  0  0  0  0  0
   15.9125    2.6256   63.0284 C   0  0  0  0  0  0  0  0  0  0  0  0
   15.6439    1.1153   62.9048 C   0  0  0  0  0  0  0  0  0  0  0  0
   15.9799    0.4391   64.2254 C   0  0  0  0  0  0  0  0  0  0  0  0
   15.8439   -0.9997   63.9557 N   0  0  0  0  0  0  0  0  0  0  0  0
   16.8099   -1.9275   64.6081 C   0  0  0  0  0  0  0  0  0  0  0  0
   16.2679   -3.2840   64.1078 C   0  0  0  0  0  0  0  0  0  0  0  0
   17.0214   -4.5412   64.4609 C   0  0  0  0  0  0  0  0  0  0  0  0
   18.3693   -4.6150   63.9244 N   0  0  0  0  0  0  0  0  0  0  0  0
  1  2  1  0  0  0  0
  2  3  1  0  0  0  0
  3  4  1  0  0  0  0
  4  5  1  0  0  0  0
  5  6  1  0  0  0  0
  6  7  1  0  0  0  0
  7  8  1  0  0  0  0
  8  9  1  0  0  0  0
  9 10  1  0  0  0  0
 10 11  1  0  0  0  0
 11 12  1  0  0  0  0
 12 13  1  0  0  0  0
 13 14  1  0  0  0  0
M  END
>  <CHROM.1>
-175.07016639,178.41035277,-173.65562884,170.30356730,62.46845042,72.81251932
-173.53570807,142.83226776,177.68382684,175.91347106,-62.82943133,17.88491647
0.53482004,62.70158618,-1.05161104,-0.49516172,2.88983212

>  <Name>
1xpf_lig

>  <RI>
0

>  <Rbt.Current_Directory>
/home/afrankz/demos/rdock_decoys_rna/rnas/1xpf

>  <Rbt.Executable>
rbdock ($Id: //depot/dev/client3/rdock/2013.1/src/exe/rbdock.cxx#4 $)

>  <Rbt.Library>
libRbt.so (2013.1, Build901 2013/11/27)

>  <Rbt.Parameter_File>
/export/apps/rDock/src/rDock_2013.1_src/data/scripts/dock_solv.prm

>  <Rbt.Receptor>
prm/pocket_docking_8.prm

>  <SCORE>
-11.3218

>  <SCORE.INTER>
-2.04871

>  <SCORE.INTER.CONST>
1

>  <SCORE.INTER.POLAR>
-0.747816

>  <SCORE.INTER.ROT>
11

>  <SCORE.INTER.SOLV>
11.6932

>  <SCORE.INTER.VDW>
-13.7042

>  <SCORE.INTER.norm>
-0.146336

>  <SCORE.INTRA>
-9.27306

>  <SCORE.INTRA.DIHEDRAL>
-15.8113

>  <SCORE.INTRA.DIHEDRAL.0>
17.7811

>  <SCORE.INTRA.POLAR>
0

>  <SCORE.INTRA.POLAR.0>
0

>  <SCORE.INTRA.REPUL>
0

>  <SCORE.INTRA.REPUL.0>
0

>  <SCORE.INTRA.SOLV>
0.318317

>  <SCORE.INTRA.SOLV.lig_0>
-47.9565

>  <SCORE.INTRA.VDW>
-1.52655

>  <SCORE.INTRA.VDW.0>
0.515983

>  <SCORE.INTRA.norm>
-0.662361

>  <SCORE.RESTR>
0

>  <SCORE.RESTR.CAVITY>
0

>  <SCORE.RESTR.norm>
0

>  <SCORE.SYSTEM>
0

>  <SCORE.SYSTEM.CONST>
0

>  <SCORE.SYSTEM.DIHEDRAL>
0

>  <SCORE.SYSTEM.SOLV>
0

>  <SCORE.SYSTEM.norm>
0

>  <SCORE.heavy>
14

>  <SCORE.norm>
-0.808698

>  <RMSD>
3.677

$$$$
1xpf_lig
 OpenBabel02141814123D
libRbt.so/2013.1/901 2013/11/27
 14 13  0  0  0  0  0  0  0  0999 V2000
   23.5933    4.3210   63.7639 N   0  0  0  0  0  0  0  0  0  0  0  0
   22.6691    4.3588   64.8822 C   0  0  0  0  0  0  0  0  0  0  0  0
   21.2650    4.2877   64.4139 C   0  0  0  0  0  0  0  0  0  0  0  0
   20.4010    4.4560   65.6249 C   0  0  0  0  0  0  0  0  0  0  0  0
   20.5467    3.2131   66.4216 N   0  0  0  0  0  0  0  0  0  0  0  0
   19.5756    3.2006   67.5581 C   0  0  0  0  0  0  0  0  0  0  0  0
   19.5054    1.8468   68.2856 C   0  0  0  0  0  0  0  0  0  0  0  0
   19.0293    0.6840   67.3969 C   0  0  0  0  0  0  0  0  0  0  0  0
   20.1538    0.2844   66.4535 C   0  0  0  0  0  0  0  0  0  0  0  0
   19.6118   -0.8415   65.6789 N   0  0  0  0  0  0  0  0  0  0  0  0
   20.5184   -1.5290   64.7172 C   0  0  0  0  0  0  0  0  0  0  0  0
   19.5033   -2.4269   63.9773 C   0  0  0  0  0  0  0  0  0  0  0  0
   19.9895   -3.2842   62.8364 C   0  0  0  0  0  0  0  0  0  0  0  0
   20.5284   -2.5471   61.7066 N   0  0  0  0  0  0  0  0  0  0  0  0
  1  2  1  0  0  0  0
  2  3  1  0  0  0  0
  3  4  1  0  0  0  0
  4  5  1  0  0  0  0
  5  6  1  0  0  0  0
  6  7  1  0  0  0  0
  7  8  1  0  0  0  0
  8  9  1  0  0  0  0
  9 10  1  0  0  0  0
 10 11  1  0  0  0  0
 11 12  1  0  0  0  0
 12 13  1  0  0  0  0
 13 14  1  0  0  0  0
M  END
>  <CHROM.1>
-175.09400219,-70.70376392,-172.09266108,170.36557208,-62.09619533,74.62579785
178.74664195,-175.83155018,-170.37935321,177.31326256,-62.43744997,20.49195301
1.14459312,65.26586834,-1.24047840,-0.95865404,-2.54044492

>  <Name>
1xpf_lig

>  <RI>
0

>  <Rbt.Current_Directory>
/home/afrankz/demos/rdock_decoys_rna/rnas/1xpf

>  <Rbt.Executable>
rbdock ($Id: //depot/dev/client3/rdock/2013.1/src/exe/rbdock.cxx#4 $)

>  <Rbt.Library>
libRbt.so (2013.1, Build901 2013/11/27)

>  <Rbt.Parameter_File>
/export/apps/rDock/src/rDock_2013.1_src/data/scripts/dock_solv.prm

>  <Rbt.Receptor>
prm/pocket_docking_4.prm

>  <SCORE>
-8.54396

>  <SCORE.INTER>
0.109604

>  <SCORE.INTER.CONST>
1

>  <SCORE.INTER.POLAR>
0

>  <SCORE.INTER.ROT>
11

>  <SCORE.INTER.SOLV>
8.41944

>  <SCORE.INTER.VDW>
-13.6667

>  <SCORE.INTER.norm>
0.00782888

>  <SCORE.INTRA>
-8.65356

>  <SCORE.INTRA.DIHEDRAL>
-16.1275

>  <SCORE.INTRA.DIHEDRAL.0>
17.7811

>  <SCORE.INTRA.POLAR>
0

>  <SCORE.INTRA.POLAR.0>
0

>  <SCORE.INTRA.REPUL>
0

>  <SCORE.INTRA.REPUL.0>
0

>  <SCORE.INTRA.SOLV>
1.25115

>  <SCORE.INTRA.SOLV.lig_0>
-47.9565

>  <SCORE.INTRA.VDW>
-1.21537

>  <SCORE.INTRA.VDW.0>
0.515983

>  <SCORE.INTRA.norm>
-0.618112

>  <SCORE.RESTR>
0

>  <SCORE.RESTR.CAVITY>
0

>  <SCORE.RESTR.norm>
0

>  <SCORE.SYSTEM>
0

>  <SCORE.SYSTEM.CONST>
0

>  <SCORE.SYSTEM.DIHEDRAL>
0

>  <SCORE.SYSTEM.SOLV>
0

>  <SCORE.SYSTEM.norm>
0

>  <SCORE.heavy>
14

>  <SCORE.norm>
-0.610283

>  <RMSD>
3.682

$$$$
1xpf_lig
 OpenBabel02141814123D
libRbt.so/2013.1/901 2013/11/27
 14 13  0  0  0  0  0  0  0  0999 V2000
   22.6567    7.5101   62.2746 N   0  0  0  0  0  0  0  0  0  0  0  0
   22.5388    6.0836   62.0349 C   0  0  0  0  0  0  0  0  0  0  0  0
   21.1994    5.5873   62.4293 C   0  0  0  0  0  0  0  0  0  0  0  0
   21.1217    5.7037   63.9198 C   0  0  0  0  0  0  0  0  0  0  0  0
   19.7873    5.1884   64.3131 N   0  0  0  0  0  0  0  0  0  0  0  0
   19.7345    4.9365   65.7857 C   0  0  0  0  0  0  0  0  0  0  0  0
   20.2920    3.5607   66.1896 C   0  0  0  0  0  0  0  0  0  0  0  0
   19.6512    2.3814   65.4364 C   0  0  0  0  0  0  0  0  0  0  0  0
   20.0276    1.0818   66.1317 C   0  0  0  0  0  0  0  0  0  0  0  0
   19.3162    0.0356   65.3828 N   0  0  0  0  0  0  0  0  0  0  0  0
   18.8086   -1.1432   66.1394 C   0  0  0  0  0  0  0  0  0  0  0  0
   17.4188   -1.3096   65.4875 C   0  0  0  0  0  0  0  0  0  0  0  0
   16.5688   -2.4904   65.8828 C   0  0  0  0  0  0  0  0  0  0  0  0
   17.1001   -3.7834   65.4876 N   0  0  0  0  0  0  0  0  0  0  0  0
  1  2  1  0  0  0  0
  2  3  1  0  0  0  0
  3  4  1  0  0  0  0
  4  5  1  0  0  0  0
  5  6  1  0  0  0  0
  6  7  1  0  0  0  0
  7  8  1  0  0  0  0
  8  9  1  0  0  0  0
  9 10  1  0  0  0  0
 10 11  1  0  0  0  0
 11 12  1  0  0  0  0
 12 13  1  0  0  0  0
 13 14  1  0  0  0  0
M  END
>  <CHROM.1>
-67.71320979,-179.22246971,165.66354178,-84.32342128,-53.48903688,-166.79788416
177.19345693,-145.53351454,137.81635562,175.05120744,-66.26334138,19.73012487
2.38166137,64.77840873,-0.33111046,-1.11331552,-2.25021691

>  <Name>
1xpf_lig

>  <RI>
0

>  <Rbt.Current_Directory>
/home/afrankz/demos/rdock_decoys_rna/rnas/1xpf

>  <Rbt.Executable>
rbdock ($Id: //depot/dev/client3/rdock/2013.1/src/exe/rbdock.cxx#4 $)

>  <Rbt.Library>
libRbt.so (2013.1, Build901 2013/11/27)

>  <Rbt.Parameter_File>
/export/apps/rDock/src/rDock_2013.1_src/data/scripts/dock_solv.prm

>  <Rbt.Receptor>
prm/pocket_docking_4.prm

>  <SCORE>
-8.42992

>  <SCORE.INTER>
-0.433575

>  <SCORE.INTER.CONST>
1

>  <SCORE.INTER.POLAR>
-0.916515

>  <SCORE.INTER.ROT>
11

>  <SCORE.INTER.SOLV>
9.52092

>  <SCORE.INTER.VDW>
-11.341

>  <SCORE.INTER.norm>
-0.0309696

>  <SCORE.INTRA>
-7.99769

>  <SCORE.INTRA.DIHEDRAL>
-14.1446

>  <SCORE.INTRA.DIHEDRAL.0>
17.7811

>  <SCORE.INTRA.POLAR>
0

>  <SCORE.INTRA.POLAR.0>
0

>  <SCORE.INTRA.REPUL>
0

>  <SCORE.INTRA.REPUL.0>
0

>  <SCORE.INTRA.SOLV>
0.874402

>  <SCORE.INTRA.SOLV.lig_0>
-47.9565

>  <SCORE.INTRA.VDW>
-1.3626

>  <SCORE.INTRA.VDW.0>
0.515983

>  <SCORE.INTRA.norm>
-0.571264

>  <SCORE.RESTR>
0.00134562

>  <SCORE.RESTR.CAVITY>
0.00134562

>  <SCORE.RESTR.norm>
9.61154e-05

>  <SCORE.SYSTEM>
0

>  <SCORE.SYSTEM.CONST>
0

>  <SCORE.SYSTEM.DIHEDRAL>
0

>  <SCORE.SYSTEM.SOLV>
0

>  <SCORE.SYSTEM.norm>
0

>  <SCORE.heavy>
14

>  <SCORE.norm>
-0.602137

>  <RMSD>
3.687

$$$$
1xpf_lig
 OpenBabel02141814123D
libRbt.so/2013.1/901 2013/11/27
 14 13  0  0  0  0  0  0  0  0999 V2000
   22.6700    7.3630   61.7075 N   0  0  0  0  0  0  0  0  0  0  0  0
   23.3857    6.2872   61.0467 C   0  0  0  0  0  0  0  0  0  0  0  0
   22.4893    5.5297   60.1420 C   0  0  0  0  0  0  0  0  0  0  0  0
   23.2682    4.3447   59.6617 C   0  0  0  0  0  0  0  0  0  0  0  0
   22.3125    3.4853   58.9209 N   0  0  0  0  0  0  0  0  0  0  0  0
   21.4285    2.7426   59.8706 C   0  0  0  0  0  0  0  0  0  0  0  0
   22.1132    1.5255   60.5161 C   0  0  0  0  0  0  0  0  0  0  0  0
   21.1859    0.6934   61.4196 C   0  0  0  0  0  0  0  0  0  0  0  0
   21.9156   -0.5679   61.8565 C   0  0  0  0  0  0  0  0  0  0  0  0
   20.9422   -1.2981   62.6816 N   0  0  0  0  0  0  0  0  0  0  0  0
   21.2610   -2.7034   63.0596 C   0  0  0  0  0  0  0  0  0  0  0  0
   19.8422   -3.2369   63.3536 C   0  0  0  0  0  0  0  0  0  0  0  0
   19.6720   -4.6952   63.6966 C   0  0  0  0  0  0  0  0  0  0  0  0
   18.3126   -5.0900   64.0226 N   0  0  0  0  0  0  0  0  0  0  0  0
  1  2  1  0  0  0  0
  2  3  1  0  0  0  0
  3  4  1  0  0  0  0
  4  5  1  0  0  0  0
  5  6  1  0  0  0  0
  6  7  1  0  0  0  0
  7  8  1  0  0  0  0
  8  9  1  0  0  0  0
  9 10  1  0  0  0  0
 10 11  1  0  0  0  0
 11 12  1  0  0  0  0
 12 13  1  0  0  0  0
 13 14  1  0  0  0  0
M  END
>  <CHROM.1>
-172.47150469,171.85717231,-75.95588868,-78.09905780,-175.91082988,172.92943147
-178.78831299,168.89363719,-157.60790014,175.92201261,177.04973341,21.48580993
1.02710002,61.56816278,0.45934271,1.23742855,0.76961420

>  <Name>
1xpf_lig

>  <RI>
0

>  <Rbt.Current_Directory>
/home/afrankz/demos/rdock_decoys_rna/rnas/1xpf

>  <Rbt.Executable>
rbdock ($Id: //depot/dev/client3/rdock/2013.1/src/exe/rbdock.cxx#4 $)

>  <Rbt.Library>
libRbt.so (2013.1, Build901 2013/11/27)

>  <Rbt.Parameter_File>
/export/apps/rDock/src/rDock_2013.1_src/data/scripts/dock_solv.prm

>  <Rbt.Receptor>
prm/pocket_docking_4.prm

>  <SCORE>
-10.6407

>  <SCORE.INTER>
-1.59873

>  <SCORE.INTER.CONST>
1

>  <SCORE.INTER.POLAR>
-1.83981

>  <SCORE.INTER.ROT>
11

>  <SCORE.INTER.SOLV>
11.5921

>  <SCORE.INTER.VDW>
-9.7305

>  <SCORE.INTER.norm>
-0.114195

>  <SCORE.INTRA>
-9.0671

>  <SCORE.INTRA.DIHEDRAL>
-16.0377

>  <SCORE.INTRA.DIHEDRAL.0>
17.7811

>  <SCORE.INTRA.POLAR>
0

>  <SCORE.INTRA.POLAR.0>
0

>  <SCORE.INTRA.REPUL>
0

>  <SCORE.INTRA.REPUL.0>
0

>  <SCORE.INTRA.SOLV>
-0.987857

>  <SCORE.INTRA.SOLV.lig_0>
-47.9565

>  <SCORE.INTRA.VDW>
-0.554343

>  <SCORE.INTRA.VDW.0>
0.515983

>  <SCORE.INTRA.norm>
-0.64765

>  <SCORE.RESTR>
0.0250804

>  <SCORE.RESTR.CAVITY>
0.0250804

>  <SCORE.RESTR.norm>
0.00179145

>  <SCORE.SYSTEM>
0

>  <SCORE.SYSTEM.CONST>
0

>  <SCORE.SYSTEM.DIHEDRAL>
0

>  <SCORE.SYSTEM.SOLV>
0

>  <SCORE.SYSTEM.norm>
0

>  <SCORE.heavy>
14

>  <SCORE.norm>
-0.760054

>  <RMSD>
3.694

$$$$
1xpf_lig
 OpenBabel02141814123D
libRbt.so/2013.1/901 2013/11/27
 14 13  0  0  0  0  0  0  0  0999 V2000
   16.0942   -6.6112   65.8343 N   0  0  0  0  0  0  0  0  0  0  0  0
   16.6695   -5.6878   66.7948 C   0  0  0  0  0  0  0  0  0  0  0  0
   16.1135   -4.3253   66.6209 C   0  0  0  0  0  0  0  0  0  0  0  0
   16.7325   -3.4716   67.6837 C   0  0  0  0  0  0  0  0  0  0  0  0
   16.0941   -2.1369   67.5762 N   0  0  0  0  0  0  0  0  0  0  0  0
   16.8352   -1.2768   66.6037 C   0  0  0  0  0  0  0  0  0  0  0  0
   17.9918   -0.4897   67.2437 C   0  0  0  0  0  0  0  0  0  0  0  0
   18.6513    0.5306   66.2989 C   0  0  0  0  0  0  0  0  0  0  0  0
   19.6832    1.3348   67.0751 C   0  0  0  0  0  0  0  0  0  0  0  0
   19.7376    2.6352   66.3912 N   0  0  0  0  0  0  0  0  0  0  0  0
   20.5912    2.7504   65.1756 C   0  0  0  0  0  0  0  0  0  0  0  0
   21.3739    4.0384   65.5112 C   0  0  0  0  0  0  0  0  0  0  0  0
   22.4556    4.4970   64.5665 C   0  0  0  0  0  0  0  0  0  0  0  0
   21.9995    4.8101   63.2234 N   0  0  0  0  0  0  0  0  0  0  0  0
  1  2  1  0  0  0  0
  2  3  1  0  0  0  0
  3  4  1  0  0  0  0
  4  5  1  0  0  0  0
  5  6  1  0  0  0  0
  6  7  1  0  0  0  0
  7  8  1  0  0  0  0
  8  9  1  0  0  0  0
  9 10  1  0  0  0  0
 10 11  1  0  0  0  0
 11 12  1  0  0  0  0
 12 13  1  0  0  0  0
 13 14  1  0  0  0  0
M  END
>  <CHROM.1>
178.03677314,-175.59100343,-88.18645397,-87.81578731,-172.74600062,174.64352033
-151.67754078,-82.82344421,-131.17254595,175.88560339,61.28419715,18.64456383
-0.24303418,66.18583005,-2.48972613,0.88632391,0.57208286

>  <Name>
1xpf_lig

>  <RI>
0

>  <Rbt.Current_Directory>
/home/afrankz/demos/rdock_decoys_rna/rnas/1xpf

>  <Rbt.Executable>
rbdock ($Id: //depot/dev/client3/rdock/2013.1/src/exe/rbdock.cxx#4 $)

>  <Rbt.Library>
libRbt.so (2013.1, Build901 2013/11/27)

>  <Rbt.Parameter_File>
/export/apps/rDock/src/rDock_2013.1_src/data/scripts/dock_solv.prm

>  <Rbt.Receptor>
prm/pocket_docking_6.prm

>  <SCORE>
-8.02725

>  <SCORE.INTER>
-0.929163

>  <SCORE.INTER.CONST>
1

>  <SCORE.INTER.POLAR>
0

>  <SCORE.INTER.ROT>
11

>  <SCORE.INTER.SOLV>
7.93601

>  <SCORE.INTER.VDW>
-14.1981

>  <SCORE.INTER.norm>
-0.0663688

>  <SCORE.INTRA>
-7.09808

>  <SCORE.INTRA.DIHEDRAL>
-12.2344

>  <SCORE.INTRA.DIHEDRAL.0>
17.7811

>  <SCORE.INTRA.POLAR>
0

>  <SCORE.INTRA.POLAR.0>
0

>  <SCORE.INTRA.REPUL>
0

>  <SCORE.INTRA.REPUL.0>
0

>  <SCORE.INTRA.SOLV>
-0.330223

>  <SCORE.INTRA.SOLV.lig_0>
-47.9565

>  <SCORE.INTRA.VDW>
-0.815761

>  <SCORE.INTRA.VDW.0>
0.515983

>  <SCORE.INTRA.norm>
-0.507006

>  <SCORE.RESTR>
0

>  <SCORE.RESTR.CAVITY>
0

>  <SCORE.RESTR.norm>
0

>  <SCORE.SYSTEM>
0

>  <SCORE.SYSTEM.CONST>
0

>  <SCORE.SYSTEM.DIHEDRAL>
0

>  <SCORE.SYSTEM.SOLV>
0

>  <SCORE.SYSTEM.norm>
0

>  <SCORE.heavy>
14

>  <SCORE.norm>
-0.573375

>  <RMSD>
3.710

$$$$
1xpf_lig
 OpenBabel02141814123D
libRbt.so/2013.1/901 2013/11/27
 14 13  0  0  0  0  0  0  0  0999 V2000
   18.5455   -0.1841   66.7453 N   0  0  0  0  0  0  0  0  0  0  0  0
   19.6835    0.7163   66.7685 C   0  0  0  0  0  0  0  0  0  0  0  0
   20.2321    0.9149   65.4064 C   0  0  0  0  0  0  0  0  0  0  0  0
   20.8291   -0.3935   64.9904 C   0  0  0  0  0  0  0  0  0  0  0  0
   21.3229   -0.2087   63.6038 N   0  0  0  0  0  0  0  0  0  0  0  0
   22.2108   -1.3440   63.2067 C   0  0  0  0  0  0  0  0  0  0  0  0
   21.4373   -2.6138   62.8115 C   0  0  0  0  0  0  0  0  0  0  0  0
   20.9190   -3.4280   64.0103 C   0  0  0  0  0  0  0  0  0  0  0  0
   20.0435   -4.5631   63.5012 C   0  0  0  0  0  0  0  0  0  0  0  0
   18.7500   -3.9331   63.1991 N   0  0  0  0  0  0  0  0  0  0  0  0
   17.6005   -4.8209   62.8675 C   0  0  0  0  0  0  0  0  0  0  0  0
   17.1260   -5.1971   64.2879 C   0  0  0  0  0  0  0  0  0  0  0  0
   16.0129   -6.2028   64.4384 C   0  0  0  0  0  0  0  0  0  0  0  0
   15.6071   -6.4623   65.8089 N   0  0  0  0  0  0  0  0  0  0  0  0
  1  2  1  0  0  0  0
  2  3  1  0  0  0  0
  3  4  1  0  0  0  0
  4  5  1  0  0  0  0
  5  6  1  0  0  0  0
  6  7  1  0  0  0  0
  7  8  1  0  0  0  0
  8  9  1  0  0  0  0
  9 10  1  0  0  0  0
 10 11  1  0  0  0  0
 11 12  1  0  0  0  0
 12 13  1  0  0  0  0
 13 14  1  0  0  0  0
M  END
>  <CHROM.1>
-67.90404225,177.52611784,166.97379250,78.62911286,-78.58339533,173.65155705
-79.00189515,-171.04054398,82.96813849,-175.09471875,-178.19571485,19.30888029
-2.69428829,64.40309560,0.79995849,0.59390590,0.59108256

>  <Name>
1xpf_lig

>  <RI>
0

>  <Rbt.Current_Directory>
/home/afrankz/demos/rdock_decoys_rna/rnas/1xpf

>  <Rbt.Executable>
rbdock ($Id: //depot/dev/client3/rdock/2013.1/src/exe/rbdock.cxx#4 $)

>  <Rbt.Library>
libRbt.so (2013.1, Build901 2013/11/27)

>  <Rbt.Parameter_File>
/export/apps/rDock/src/rDock_2013.1_src/data/scripts/dock_solv.prm

>  <Rbt.Receptor>
prm/pocket_docking_3.prm

>  <SCORE>
-7.38486

>  <SCORE.INTER>
-0.289555

>  <SCORE.INTER.CONST>
1

>  <SCORE.INTER.POLAR>
0

>  <SCORE.INTER.ROT>
11

>  <SCORE.INTER.SOLV>
5.94834

>  <SCORE.INTER.VDW>
-13.1091

>  <SCORE.INTER.norm>
-0.0206825

>  <SCORE.INTRA>
-7.09967

>  <SCORE.INTRA.DIHEDRAL>
-13.9443

>  <SCORE.INTRA.DIHEDRAL.0>
17.7811

>  <SCORE.INTRA.POLAR>
0

>  <SCORE.INTRA.POLAR.0>
0

>  <SCORE.INTRA.REPUL>
0

>  <SCORE.INTRA.REPUL.0>
0

>  <SCORE.INTRA.SOLV>
0.682462

>  <SCORE.INTRA.SOLV.lig_0>
-47.9565

>  <SCORE.INTRA.VDW>
-0.468743

>  <SCORE.INTRA.VDW.0>
0.515983

>  <SCORE.INTRA.norm>
-0.507119

>  <SCORE.RESTR>
0.00436566

>  <SCORE.RESTR.CAVITY>
0.00436566

>  <SCORE.RESTR.norm>
0.000311833

>  <SCORE.SYSTEM>
0

>  <SCORE.SYSTEM.CONST>
0

>  <SCORE.SYSTEM.DIHEDRAL>
0

>  <SCORE.SYSTEM.SOLV>
0

>  <SCORE.SYSTEM.norm>
0

>  <SCORE.heavy>
14

>  <SCORE.norm>
-0.52749

>  <RMSD>
3.711

$$$$
1xpf_lig
 OpenBabel02141814123D
libRbt.so/2013.1/901 2013/11/27
 14 13  0  0  0  0  0  0  0  0999 V2000
   20.3533    5.6498   65.2232 N   0  0  0  0  0  0  0  0  0  0  0  0
   19.9465    4.2828   64.9549 C   0  0  0  0  0  0  0  0  0  0  0  0
   20.3050    3.3905   66.0823 C   0  0  0  0  0  0  0  0  0  0  0  0
   19.8687    2.0124   65.6928 C   0  0  0  0  0  0  0  0  0  0  0  0
   20.1251    1.1424   66.8667 N   0  0  0  0  0  0  0  0  0  0  0  0
   19.3015   -0.1028   66.7878 C   0  0  0  0  0  0  0  0  0  0  0  0
   17.8444    0.1002   67.2379 C   0  0  0  0  0  0  0  0  0  0  0  0
   17.0524   -1.2094   67.3996 C   0  0  0  0  0  0  0  0  0  0  0  0
   16.8615   -1.8489   66.0326 C   0  0  0  0  0  0  0  0  0  0  0  0
   16.2423   -3.1529   66.3113 N   0  0  0  0  0  0  0  0  0  0  0  0
   16.3666   -4.2205   65.2796 C   0  0  0  0  0  0  0  0  0  0  0  0
   15.8112   -5.4277   66.0660 C   0  0  0  0  0  0  0  0  0  0  0  0
   15.7739   -6.7766   65.3936 C   0  0  0  0  0  0  0  0  0  0  0  0
   14.9482   -6.8401   64.2001 N   0  0  0  0  0  0  0  0  0  0  0  0
  1  2  1  0  0  0  0
  2  3  1  0  0  0  0
  3  4  1  0  0  0  0
  4  5  1  0  0  0  0
  5  6  1  0  0  0  0
  6  7  1  0  0  0  0
  7  8  1  0  0  0  0
  8  9  1  0  0  0  0
  9 10  1  0  0  0  0
 10 11  1  0  0  0  0
 11 12  1  0  0  0  0
 12 13  1  0  0  0  0
 13 14  1  0  0  0  0
M  END
>  <CHROM.1>
-178.90747055,-175.39279418,159.57463922,-80.01964624,-169.81312296,-67.34200433
173.58952535,-158.29023398,170.91037618,-178.78148559,-61.32743211,17.91432942
-0.92867927,65.96644304,0.16565038,-1.11939750,-1.34716222

>  <Name>
1xpf_lig

>  <RI>
0

>  <Rbt.Current_Directory>
/home/afrankz/demos/rdock_decoys_rna/rnas/1xpf

>  <Rbt.Executable>
rbdock ($Id: //depot/dev/client3/rdock/2013.1/src/exe/rbdock.cxx#4 $)

>  <Rbt.Library>
libRbt.so (2013.1, Build901 2013/11/27)

>  <Rbt.Parameter_File>
/export/apps/rDock/src/rDock_2013.1_src/data/scripts/dock_solv.prm

>  <Rbt.Receptor>
prm/pocket_docking_5.prm

>  <SCORE>
-10.3209

>  <SCORE.INTER>
-1.26899

>  <SCORE.INTER.CONST>
1

>  <SCORE.INTER.POLAR>
0

>  <SCORE.INTER.ROT>
11

>  <SCORE.INTER.SOLV>
7.77893

>  <SCORE.INTER.VDW>
-14.3723

>  <SCORE.INTER.norm>
-0.0906423

>  <SCORE.INTRA>
-9.05186

>  <SCORE.INTRA.DIHEDRAL>
-15.8971

>  <SCORE.INTRA.DIHEDRAL.0>
17.7811

>  <SCORE.INTRA.POLAR>
0

>  <SCORE.INTRA.POLAR.0>
0

>  <SCORE.INTRA.REPUL>
0

>  <SCORE.INTRA.REPUL.0>
0

>  <SCORE.INTRA.SOLV>
-0.16016

>  <SCORE.INTRA.SOLV.lig_0>
-47.9565

>  <SCORE.INTRA.VDW>
-1.02323

>  <SCORE.INTRA.VDW.0>
0.515983

>  <SCORE.INTRA.norm>
-0.646562

>  <SCORE.RESTR>
0

>  <SCORE.RESTR.CAVITY>
0

>  <SCORE.RESTR.norm>
0

>  <SCORE.SYSTEM>
0

>  <SCORE.SYSTEM.CONST>
0

>  <SCORE.SYSTEM.DIHEDRAL>
0

>  <SCORE.SYSTEM.SOLV>
0

>  <SCORE.SYSTEM.norm>
0

>  <SCORE.heavy>
14

>  <SCORE.norm>
-0.737204

>  <RMSD>
3.723

$$$$
1xpf_lig
 OpenBabel02141814123D
libRbt.so/2013.1/901 2013/11/27
 14 13  0  0  0  0  0  0  0  0999 V2000
   23.4955    5.3297   59.4420 N   0  0  0  0  0  0  0  0  0  0  0  0
   23.7469    4.0297   60.0361 C   0  0  0  0  0  0  0  0  0  0  0  0
   22.6548    3.0798   59.7181 C   0  0  0  0  0  0  0  0  0  0  0  0
   23.0054    1.7860   60.3846 C   0  0  0  0  0  0  0  0  0  0  0  0
   21.9671    0.8079   59.9772 N   0  0  0  0  0  0  0  0  0  0  0  0
   22.1711   -0.4972   60.6772 C   0  0  0  0  0  0  0  0  0  0  0  0
   21.4350   -1.6703   60.0071 C   0  0  0  0  0  0  0  0  0  0  0  0
   19.9034   -1.5210   59.9939 C   0  0  0  0  0  0  0  0  0  0  0  0
   19.3776   -1.6473   61.4158 C   0  0  0  0  0  0  0  0  0  0  0  0
   19.6725   -3.0346   61.8032 N   0  0  0  0  0  0  0  0  0  0  0  0
   18.9634   -3.5954   62.9874 C   0  0  0  0  0  0  0  0  0  0  0  0
   20.0396   -4.5684   63.5159 C   0  0  0  0  0  0  0  0  0  0  0  0
   21.2548   -4.0015   64.2050 C   0  0  0  0  0  0  0  0  0  0  0  0
   21.8801   -2.8851   63.5174 N   0  0  0  0  0  0  0  0  0  0  0  0
  1  2  1  0  0  0  0
  2  3  1  0  0  0  0
  3  4  1  0  0  0  0
  4  5  1  0  0  0  0
  5  6  1  0  0  0  0
  6  7  1  0  0  0  0
  7  8  1  0  0  0  0
  8  9  1  0  0  0  0
  9 10  1  0  0  0  0
 10 11  1  0  0  0  0
 11 12  1  0  0  0  0
 12 13  1  0  0  0  0
 13 14  1  0  0  0  0
M  END
>  <CHROM.1>
-179.47226809,-175.64712100,-175.70853195,-162.09509857,-62.65239816,-68.85044747
-65.61092690,-163.55303306,-148.53794361,73.33881851,-46.44449157,21.39751762
-0.59938590,61.26294915,-1.08615848,0.68759951,2.40241271

>  <Name>
1xpf_lig

>  <RI>
0

>  <Rbt.Current_Directory>
/home/afrankz/demos/rdock_decoys_rna/rnas/1xpf

>  <Rbt.Executable>
rbdock ($Id: //depot/dev/client3/rdock/2013.1/src/exe/rbdock.cxx#4 $)

>  <Rbt.Library>
libRbt.so (2013.1, Build901 2013/11/27)

>  <Rbt.Parameter_File>
/export/apps/rDock/src/rDock_2013.1_src/data/scripts/dock_solv.prm

>  <Rbt.Receptor>
prm/pocket_docking_4.prm

>  <SCORE>
-7.1937

>  <SCORE.INTER>
-0.939557

>  <SCORE.INTER.CONST>
1

>  <SCORE.INTER.POLAR>
-0.888613

>  <SCORE.INTER.ROT>
11

>  <SCORE.INTER.SOLV>
8.06613

>  <SCORE.INTER.VDW>
-11.2864

>  <SCORE.INTER.norm>
-0.0671112

>  <SCORE.INTRA>
-6.25414

>  <SCORE.INTRA.DIHEDRAL>
-14.8134

>  <SCORE.INTRA.DIHEDRAL.0>
17.7811

>  <SCORE.INTRA.POLAR>
0

>  <SCORE.INTRA.POLAR.0>
0

>  <SCORE.INTRA.REPUL>
0

>  <SCORE.INTRA.REPUL.0>
0

>  <SCORE.INTRA.SOLV>
5.19852

>  <SCORE.INTRA.SOLV.lig_0>
-47.9565

>  <SCORE.INTRA.VDW>
-1.44669

>  <SCORE.INTRA.VDW.0>
0.515983

>  <SCORE.INTRA.norm>
-0.446724

>  <SCORE.RESTR>
0

>  <SCORE.RESTR.CAVITY>
0

>  <SCORE.RESTR.norm>
0

>  <SCORE.SYSTEM>
0

>  <SCORE.SYSTEM.CONST>
0

>  <SCORE.SYSTEM.DIHEDRAL>
0

>  <SCORE.SYSTEM.SOLV>
0

>  <SCORE.SYSTEM.norm>
0

>  <SCORE.heavy>
14

>  <SCORE.norm>
-0.513836

>  <RMSD>
3.766

$$$$
1xpf_lig
 OpenBabel02141814123D
libRbt.so/2013.1/901 2013/11/27
 14 13  0  0  0  0  0  0  0  0999 V2000
   16.5720   -4.3630   65.6089 N   0  0  0  0  0  0  0  0  0  0  0  0
   16.7161   -2.9641   65.9675 C   0  0  0  0  0  0  0  0  0  0  0  0
   16.6101   -2.7777   67.4337 C   0  0  0  0  0  0  0  0  0  0  0  0
   16.7565   -1.3100   67.6902 C   0  0  0  0  0  0  0  0  0  0  0  0
   18.1890   -0.9870   67.4795 N   0  0  0  0  0  0  0  0  0  0  0  0
   18.3563    0.4573   67.1316 C   0  0  0  0  0  0  0  0  0  0  0  0
   19.7969    0.9656   67.3135 C   0  0  0  0  0  0  0  0  0  0  0  0
   20.0029    2.4278   66.8799 C   0  0  0  0  0  0  0  0  0  0  0  0
   19.9422    2.5114   65.3622 C   0  0  0  0  0  0  0  0  0  0  0  0
   20.3260    3.8951   65.0467 N   0  0  0  0  0  0  0  0  0  0  0  0
   20.0589    4.3980   63.6700 C   0  0  0  0  0  0  0  0  0  0  0  0
   21.0585    5.5733   63.6087 C   0  0  0  0  0  0  0  0  0  0  0  0
   21.1068    6.4203   62.3624 C   0  0  0  0  0  0  0  0  0  0  0  0
   22.1147    7.4663   62.3749 N   0  0  0  0  0  0  0  0  0  0  0  0
  1  2  1  0  0  0  0
  2  3  1  0  0  0  0
  3  4  1  0  0  0  0
  4  5  1  0  0  0  0
  5  6  1  0  0  0  0
  6  7  1  0  0  0  0
  7  8  1  0  0  0  0
  8  9  1  0  0  0  0
  9 10  1  0  0  0  0
 10 11  1  0  0  0  0
 11 12  1  0  0  0  0
 12 13  1  0  0  0  0
 13 14  1  0  0  0  0
M  END
>  <CHROM.1>
-179.39333097,-73.34889518,155.74639394,162.57303104,176.55659291,-71.76070897
-172.64589583,-165.82265124,-158.86198036,-178.37205156,-177.56867297,19.11471208
1.55097501,65.56658887,2.57787726,1.05905376,1.79514919

>  <Name>
1xpf_lig

>  <RI>
0

>  <Rbt.Current_Directory>
/home/afrankz/demos/rdock_decoys_rna/rnas/1xpf

>  <Rbt.Executable>
rbdock ($Id: //depot/dev/client3/rdock/2013.1/src/exe/rbdock.cxx#4 $)

>  <Rbt.Library>
libRbt.so (2013.1, Build901 2013/11/27)

>  <Rbt.Parameter_File>
/export/apps/rDock/src/rDock_2013.1_src/data/scripts/dock_solv.prm

>  <Rbt.Receptor>
prm/pocket_docking_6.prm

>  <SCORE>
-17.9124

>  <SCORE.INTER>
-9.01212

>  <SCORE.INTER.CONST>
1

>  <SCORE.INTER.POLAR>
-1.67163

>  <SCORE.INTER.ROT>
11

>  <SCORE.INTER.SOLV>
13.1239

>  <SCORE.INTER.VDW>
-15.7439

>  <SCORE.INTER.norm>
-0.643723

>  <SCORE.INTRA>
-8.9003

>  <SCORE.INTRA.DIHEDRAL>
-15.1468

>  <SCORE.INTRA.DIHEDRAL.0>
17.7811

>  <SCORE.INTRA.POLAR>
0

>  <SCORE.INTRA.POLAR.0>
0

>  <SCORE.INTRA.REPUL>
0

>  <SCORE.INTRA.REPUL.0>
0

>  <SCORE.INTRA.SOLV>
-0.279253

>  <SCORE.INTRA.SOLV.lig_0>
-47.9565

>  <SCORE.INTRA.VDW>
-1.18727

>  <SCORE.INTRA.VDW.0>
0.515983

>  <SCORE.INTRA.norm>
-0.635736

>  <SCORE.RESTR>
0

>  <SCORE.RESTR.CAVITY>
0

>  <SCORE.RESTR.norm>
0

>  <SCORE.SYSTEM>
0

>  <SCORE.SYSTEM.CONST>
0

>  <SCORE.SYSTEM.DIHEDRAL>
0

>  <SCORE.SYSTEM.SOLV>
0

>  <SCORE.SYSTEM.norm>
0

>  <SCORE.heavy>
14

>  <SCORE.norm>
-1.27946

>  <RMSD>
3.801

$$$$
1xpf_lig
 OpenBabel02141814123D
libRbt.so/2013.1/901 2013/11/27
 14 13  0  0  0  0  0  0  0  0999 V2000
   16.2072   -2.0843   65.0155 N   0  0  0  0  0  0  0  0  0  0  0  0
   16.8835   -2.8002   66.0814 C   0  0  0  0  0  0  0  0  0  0  0  0
   16.5004   -2.2638   67.4085 C   0  0  0  0  0  0  0  0  0  0  0  0
   16.9909   -0.8502   67.4565 C   0  0  0  0  0  0  0  0  0  0  0  0
   18.4617   -0.9211   67.6365 N   0  0  0  0  0  0  0  0  0  0  0  0
   19.0821    0.4230   67.4276 C   0  0  0  0  0  0  0  0  0  0  0  0
   19.6670    0.6122   66.0173 C   0  0  0  0  0  0  0  0  0  0  0  0
   20.0836    2.0600   65.7030 C   0  0  0  0  0  0  0  0  0  0  0  0
   20.5806    2.1355   64.2672 C   0  0  0  0  0  0  0  0  0  0  0  0
   20.8122    3.5669   64.0247 N   0  0  0  0  0  0  0  0  0  0  0  0
   20.7985    4.0483   62.6149 C   0  0  0  0  0  0  0  0  0  0  0  0
   21.5041    5.4113   62.7837 C   0  0  0  0  0  0  0  0  0  0  0  0
   21.8115    6.2265   61.5532 C   0  0  0  0  0  0  0  0  0  0  0  0
   22.4533    7.5036   61.8127 N   0  0  0  0  0  0  0  0  0  0  0  0
  1  2  1  0  0  0  0
  2  3  1  0  0  0  0
  3  4  1  0  0  0  0
  4  5  1  0  0  0  0
  5  6  1  0  0  0  0
  6  7  1  0  0  0  0
  7  8  1  0  0  0  0
  8  9  1  0  0  0  0
  9 10  1  0  0  0  0
 10 11  1  0  0  0  0
 11 12  1  0  0  0  0
 12 13  1  0  0  0  0
 13 14  1  0  0  0  0
M  END
>  <CHROM.1>
-64.00089880,-74.46793258,168.82296630,-98.06094975,169.78566537,-177.27134291
174.09602900,-157.06958315,-162.78583548,175.25124339,178.91340546,19.41687826
1.64754335,64.98605577,2.35662335,0.85729914,1.95477321

>  <Name>
1xpf_lig

>  <RI>
0

>  <Rbt.Current_Directory>
/home/afrankz/demos/rdock_decoys_rna/rnas/1xpf

>  <Rbt.Executable>
rbdock ($Id: //depot/dev/client3/rdock/2013.1/src/exe/rbdock.cxx#4 $)

>  <Rbt.Library>
libRbt.so (2013.1, Build901 2013/11/27)

>  <Rbt.Parameter_File>
/export/apps/rDock/src/rDock_2013.1_src/data/scripts/dock_solv.prm

>  <Rbt.Receptor>
prm/pocket_docking_5.prm

>  <SCORE>
-14.2477

>  <SCORE.INTER>
-6.16443

>  <SCORE.INTER.CONST>
1

>  <SCORE.INTER.POLAR>
-1.71652

>  <SCORE.INTER.ROT>
11

>  <SCORE.INTER.SOLV>
13.5989

>  <SCORE.INTER.VDW>
-13.8542

>  <SCORE.INTER.norm>
-0.440316

>  <SCORE.INTRA>
-8.08329

>  <SCORE.INTRA.DIHEDRAL>
-14.773

>  <SCORE.INTRA.DIHEDRAL.0>
17.7811

>  <SCORE.INTRA.POLAR>
0

>  <SCORE.INTRA.POLAR.0>
0

>  <SCORE.INTRA.REPUL>
0

>  <SCORE.INTRA.REPUL.0>
0

>  <SCORE.INTRA.SOLV>
1.08172

>  <SCORE.INTRA.SOLV.lig_0>
-47.9565

>  <SCORE.INTRA.VDW>
-1.23767

>  <SCORE.INTRA.VDW.0>
0.515983

>  <SCORE.INTRA.norm>
-0.577378

>  <SCORE.RESTR>
0

>  <SCORE.RESTR.CAVITY>
0

>  <SCORE.RESTR.norm>
0

>  <SCORE.SYSTEM>
0

>  <SCORE.SYSTEM.CONST>
0

>  <SCORE.SYSTEM.DIHEDRAL>
0

>  <SCORE.SYSTEM.SOLV>
0

>  <SCORE.SYSTEM.norm>
0

>  <SCORE.heavy>
14

>  <SCORE.norm>
-1.01769

>  <RMSD>
3.802

$$$$
1xpf_lig
 OpenBabel02141814123D
libRbt.so/2013.1/901 2013/11/27
 14 13  0  0  0  0  0  0  0  0999 V2000
   17.8329   -8.4582   67.0347 N   0  0  0  0  0  0  0  0  0  0  0  0
   17.1096   -7.2009   67.0797 C   0  0  0  0  0  0  0  0  0  0  0  0
   17.3883   -6.3840   65.8751 C   0  0  0  0  0  0  0  0  0  0  0  0
   16.5733   -5.1351   66.0070 C   0  0  0  0  0  0  0  0  0  0  0  0
   16.8672   -4.3124   64.8081 N   0  0  0  0  0  0  0  0  0  0  0  0
   16.3883   -2.9097   65.0032 C   0  0  0  0  0  0  0  0  0  0  0  0
   17.3546   -2.0449   65.8310 C   0  0  0  0  0  0  0  0  0  0  0  0
   16.7264   -0.7474   66.3699 C   0  0  0  0  0  0  0  0  0  0  0  0
   17.7459   -0.0210   67.2342 C   0  0  0  0  0  0  0  0  0  0  0  0
   18.7040    0.5560   66.2799 N   0  0  0  0  0  0  0  0  0  0  0  0
   19.8013    1.4072   66.8193 C   0  0  0  0  0  0  0  0  0  0  0  0
   20.3562    2.0032   65.5074 C   0  0  0  0  0  0  0  0  0  0  0  0
   19.5383    3.0385   64.7778 C   0  0  0  0  0  0  0  0  0  0  0  0
   20.1708    3.5905   63.5924 N   0  0  0  0  0  0  0  0  0  0  0  0
  1  2  1  0  0  0  0
  2  3  1  0  0  0  0
  3  4  1  0  0  0  0
  4  5  1  0  0  0  0
  5  6  1  0  0  0  0
  6  7  1  0  0  0  0
  7  8  1  0  0  0  0
  8  9  1  0  0  0  0
  9 10  1  0  0  0  0
 10 11  1  0  0  0  0
 11 12  1  0  0  0  0
 12 13  1  0  0  0  0
 13 14  1  0  0  0  0
M  END
>  <CHROM.1>
178.65256462,179.32029729,-165.43489337,80.76151582,-164.00836799,176.73128579
74.36672506,176.62919792,-169.25863921,71.91056945,176.99344444,18.03963673
-1.90119603,65.87302292,-1.96705280,-0.81956268,-0.41720206

>  <Name>
1xpf_lig

>  <RI>
0

>  <Rbt.Current_Directory>
/home/afrankz/demos/rdock_decoys_rna/rnas/1xpf

>  <Rbt.Executable>
rbdock ($Id: //depot/dev/client3/rdock/2013.1/src/exe/rbdock.cxx#4 $)

>  <Rbt.Library>
libRbt.so (2013.1, Build901 2013/11/27)

>  <Rbt.Parameter_File>
/export/apps/rDock/src/rDock_2013.1_src/data/scripts/dock_solv.prm

>  <Rbt.Receptor>
prm/pocket_docking_5.prm

>  <SCORE>
-8.29811

>  <SCORE.INTER>
0.75656

>  <SCORE.INTER.CONST>
1

>  <SCORE.INTER.POLAR>
0

>  <SCORE.INTER.ROT>
11

>  <SCORE.INTER.SOLV>
7.21109

>  <SCORE.INTER.VDW>
-12.8327

>  <SCORE.INTER.norm>
0.05404

>  <SCORE.INTRA>
-9.05467

>  <SCORE.INTRA.DIHEDRAL>
-14.9281

>  <SCORE.INTRA.DIHEDRAL.0>
17.7811

>  <SCORE.INTRA.POLAR>
0

>  <SCORE.INTRA.POLAR.0>
0

>  <SCORE.INTRA.REPUL>
0

>  <SCORE.INTRA.REPUL.0>
0

>  <SCORE.INTRA.SOLV>
-0.219707

>  <SCORE.INTRA.SOLV.lig_0>
-47.9565

>  <SCORE.INTRA.VDW>
-1.48074

>  <SCORE.INTRA.VDW.0>
0.515983

>  <SCORE.INTRA.norm>
-0.646762

>  <SCORE.RESTR>
0

>  <SCORE.RESTR.CAVITY>
0

>  <SCORE.RESTR.norm>
0

>  <SCORE.SYSTEM>
0

>  <SCORE.SYSTEM.CONST>
0

>  <SCORE.SYSTEM.DIHEDRAL>
0

>  <SCORE.SYSTEM.SOLV>
0

>  <SCORE.SYSTEM.norm>
0

>  <SCORE.heavy>
14

>  <SCORE.norm>
-0.592722

>  <RMSD>
3.822

$$$$
1xpf_lig
 OpenBabel02141814123D
libRbt.so/2013.1/901 2013/11/27
 14 13  0  0  0  0  0  0  0  0999 V2000
   16.0755   -1.8334   64.7307 N   0  0  0  0  0  0  0  0  0  0  0  0
   16.9969   -2.6571   65.4914 C   0  0  0  0  0  0  0  0  0  0  0  0
   16.5937   -2.7294   66.9155 C   0  0  0  0  0  0  0  0  0  0  0  0
   16.7231   -1.3439   67.4678 C   0  0  0  0  0  0  0  0  0  0  0  0
   18.1732   -1.0313   67.4841 N   0  0  0  0  0  0  0  0  0  0  0  0
   18.4418    0.2532   66.7678 C   0  0  0  0  0  0  0  0  0  0  0  0
   19.9170    0.4325   66.3697 C   0  0  0  0  0  0  0  0  0  0  0  0
   20.1828    1.6740   65.5000 C   0  0  0  0  0  0  0  0  0  0  0  0
   19.5563    1.4664   64.1294 C   0  0  0  0  0  0  0  0  0  0  0  0
   20.0142    2.6119   63.3297 N   0  0  0  0  0  0  0  0  0  0  0  0
   19.2915    2.9131   62.0622 C   0  0  0  0  0  0  0  0  0  0  0  0
   20.4287    2.6975   61.0403 C   0  0  0  0  0  0  0  0  0  0  0  0
   20.9556    1.3014   60.8250 C   0  0  0  0  0  0  0  0  0  0  0  0
   22.0595    1.2046   59.8858 N   0  0  0  0  0  0  0  0  0  0  0  0
  1  2  1  0  0  0  0
  2  3  1  0  0  0  0
  3  4  1  0  0  0  0
  4  5  1  0  0  0  0
  5  6  1  0  0  0  0
  6  7  1  0  0  0  0
  7  8  1  0  0  0  0
  8  9  1  0  0  0  0
  9 10  1  0  0  0  0
 10 11  1  0  0  0  0
 11 12  1  0  0  0  0
 12 13  1  0  0  0  0
 13 14  1  0  0  0  0
M  END
>  <CHROM.1>
-64.89461729,-67.83039994,126.51616534,-162.49293201,173.71216711,-68.90074387
-172.72476049,-163.55278382,-117.19993125,68.17215956,-177.63606134,18.95779325
0.35430372,64.42877256,2.47462380,0.90853658,1.39537349

>  <Name>
1xpf_lig

>  <RI>
0

>  <Rbt.Current_Directory>
/home/afrankz/demos/rdock_decoys_rna/rnas/1xpf

>  <Rbt.Executable>
rbdock ($Id: //depot/dev/client3/rdock/2013.1/src/exe/rbdock.cxx#4 $)

>  <Rbt.Library>
libRbt.so (2013.1, Build901 2013/11/27)

>  <Rbt.Parameter_File>
/export/apps/rDock/src/rDock_2013.1_src/data/scripts/dock_solv.prm

>  <Rbt.Receptor>
prm/pocket_docking_5.prm

>  <SCORE>
-12.9884

>  <SCORE.INTER>
-6.65649

>  <SCORE.INTER.CONST>
1

>  <SCORE.INTER.POLAR>
-1.69443

>  <SCORE.INTER.ROT>
11

>  <SCORE.INTER.SOLV>
10.1849

>  <SCORE.INTER.VDW>
-13.1179

>  <SCORE.INTER.norm>
-0.475463

>  <SCORE.INTRA>
-6.33189

>  <SCORE.INTRA.DIHEDRAL>
-13.7169

>  <SCORE.INTRA.DIHEDRAL.0>
17.7811

>  <SCORE.INTRA.POLAR>
0

>  <SCORE.INTRA.POLAR.0>
0

>  <SCORE.INTRA.REPUL>
0

>  <SCORE.INTRA.REPUL.0>
0

>  <SCORE.INTRA.SOLV>
2.28758

>  <SCORE.INTRA.SOLV.lig_0>
-47.9565

>  <SCORE.INTRA.VDW>
-0.617254

>  <SCORE.INTRA.VDW.0>
0.515983

>  <SCORE.INTRA.norm>
-0.452278

>  <SCORE.RESTR>
0

>  <SCORE.RESTR.CAVITY>
0

>  <SCORE.RESTR.norm>
0

>  <SCORE.SYSTEM>
0

>  <SCORE.SYSTEM.CONST>
0

>  <SCORE.SYSTEM.DIHEDRAL>
0

>  <SCORE.SYSTEM.SOLV>
0

>  <SCORE.SYSTEM.norm>
0

>  <SCORE.heavy>
14

>  <SCORE.norm>
-0.927741

>  <RMSD>
3.860

$$$$
1xpf_lig
 OpenBabel02141814123D
libRbt.so/2013.1/901 2013/11/27
 14 13  0  0  0  0  0  0  0  0999 V2000
   16.3193   -7.2533   67.0748 N   0  0  0  0  0  0  0  0  0  0  0  0
   16.4196   -5.9747   67.7540 C   0  0  0  0  0  0  0  0  0  0  0  0
   16.3944   -4.8544   66.7844 C   0  0  0  0  0  0  0  0  0  0  0  0
   16.5266   -3.5947   67.5824 C   0  0  0  0  0  0  0  0  0  0  0  0
   16.4128   -2.4724   66.6190 N   0  0  0  0  0  0  0  0  0  0  0  0
   16.8047   -1.1828   67.2658 C   0  0  0  0  0  0  0  0  0  0  0  0
   18.1847   -0.6707   66.8184 C   0  0  0  0  0  0  0  0  0  0  0  0
   18.5572    0.7064   67.3959 C   0  0  0  0  0  0  0  0  0  0  0  0
   19.9273    1.1121   66.8738 C   0  0  0  0  0  0  0  0  0  0  0  0
   20.0930    2.5093   67.3004 N   0  0  0  0  0  0  0  0  0  0  0  0
   19.7451    3.5830   66.3280 C   0  0  0  0  0  0  0  0  0  0  0  0
   21.0989    3.7462   65.6037 C   0  0  0  0  0  0  0  0  0  0  0  0
   21.1863    4.6929   64.4336 C   0  0  0  0  0  0  0  0  0  0  0  0
   20.3680    4.3265   63.2907 N   0  0  0  0  0  0  0  0  0  0  0  0
  1  2  1  0  0  0  0
  2  3  1  0  0  0  0
  3  4  1  0  0  0  0
  4  5  1  0  0  0  0
  5  6  1  0  0  0  0
  6  7  1  0  0  0  0
  7  8  1  0  0  0  0
  8  9  1  0  0  0  0
  9 10  1  0  0  0  0
 10 11  1  0  0  0  0
 11 12  1  0  0  0  0
 12 13  1  0  0  0  0
 13 14  1  0  0  0  0
M  END
>  <CHROM.1>
-179.04108909,-176.42421864,-168.56930263,105.70388573,175.73988843,-179.37253462
171.24069533,-95.78317432,-88.67482628,175.62117768,-63.62514338,18.43132461
-0.38033079,66.50909506,-3.13241948,1.14583933,1.34455085

>  <Name>
1xpf_lig

>  <RI>
0

>  <Rbt.Current_Directory>
/home/afrankz/demos/rdock_decoys_rna/rnas/1xpf

>  <Rbt.Executable>
rbdock ($Id: //depot/dev/client3/rdock/2013.1/src/exe/rbdock.cxx#4 $)

>  <Rbt.Library>
libRbt.so (2013.1, Build901 2013/11/27)

>  <Rbt.Parameter_File>
/export/apps/rDock/src/rDock_2013.1_src/data/scripts/dock_solv.prm

>  <Rbt.Receptor>
prm/pocket_docking_8.prm

>  <SCORE>
-10.9998

>  <SCORE.INTER>
-2.10887

>  <SCORE.INTER.CONST>
1

>  <SCORE.INTER.POLAR>
0

>  <SCORE.INTER.ROT>
11

>  <SCORE.INTER.SOLV>
9.05808

>  <SCORE.INTER.VDW>
-15.3586

>  <SCORE.INTER.norm>
-0.150634

>  <SCORE.INTRA>
-8.89094

>  <SCORE.INTRA.DIHEDRAL>
-14.7711

>  <SCORE.INTRA.DIHEDRAL.0>
17.7811

>  <SCORE.INTRA.POLAR>
0

>  <SCORE.INTRA.POLAR.0>
0

>  <SCORE.INTRA.REPUL>
0

>  <SCORE.INTRA.REPUL.0>
0

>  <SCORE.INTRA.SOLV>
-0.37291

>  <SCORE.INTRA.SOLV.lig_0>
-47.9565

>  <SCORE.INTRA.VDW>
-1.31894

>  <SCORE.INTRA.VDW.0>
0.515983

>  <SCORE.INTRA.norm>
-0.635067

>  <SCORE.RESTR>
0

>  <SCORE.RESTR.CAVITY>
0

>  <SCORE.RESTR.norm>
0

>  <SCORE.SYSTEM>
0

>  <SCORE.SYSTEM.CONST>
0

>  <SCORE.SYSTEM.DIHEDRAL>
0

>  <SCORE.SYSTEM.SOLV>
0

>  <SCORE.SYSTEM.norm>
0

>  <SCORE.heavy>
14

>  <SCORE.norm>
-0.7857

>  <RMSD>
3.868

$$$$
1xpf_lig
 OpenBabel02141814123D
libRbt.so/2013.1/901 2013/11/27
 14 13  0  0  0  0  0  0  0  0999 V2000
   14.9974   -6.6515   65.3680 N   0  0  0  0  0  0  0  0  0  0  0  0
   14.6818   -6.5256   63.9570 C   0  0  0  0  0  0  0  0  0  0  0  0
   15.4622   -5.4312   63.3334 C   0  0  0  0  0  0  0  0  0  0  0  0
   16.9013   -5.8381   63.4033 C   0  0  0  0  0  0  0  0  0  0  0  0
   17.6856   -4.7074   62.8490 N   0  0  0  0  0  0  0  0  0  0  0  0
   19.1037   -4.7719   63.3180 C   0  0  0  0  0  0  0  0  0  0  0  0
   19.7893   -3.3959   63.3781 C   0  0  0  0  0  0  0  0  0  0  0  0
   21.2135   -3.4326   63.9601 C   0  0  0  0  0  0  0  0  0  0  0  0
   21.7364   -2.0099   64.0891 C   0  0  0  0  0  0  0  0  0  0  0  0
   20.9190   -1.4042   65.1505 N   0  0  0  0  0  0  0  0  0  0  0  0
   19.7639   -0.5553   64.7447 C   0  0  0  0  0  0  0  0  0  0  0  0
   19.1289   -0.2786   66.1247 C   0  0  0  0  0  0  0  0  0  0  0  0
   19.8544    0.6248   67.0893 C   0  0  0  0  0  0  0  0  0  0  0  0
   20.0679    1.9801   66.6120 N   0  0  0  0  0  0  0  0  0  0  0  0
  1  2  1  0  0  0  0
  2  3  1  0  0  0  0
  3  4  1  0  0  0  0
  4  5  1  0  0  0  0
  5  6  1  0  0  0  0
  6  7  1  0  0  0  0
  7  8  1  0  0  0  0
  8  9  1  0  0  0  0
  9 10  1  0  0  0  0
 10 11  1  0  0  0  0
 11 12  1  0  0  0  0
 12 13  1  0  0  0  0
 13 14  1  0  0  0  0
M  END
>  <CHROM.1>
64.82235750,-176.84263420,159.05667746,-152.63559339,175.59537348,-174.79822738
68.47744489,-98.31685889,174.04025295,70.26033230,60.74868339,18.66477441
-3.02850874,64.52675506,2.23701264,-0.36640154,-2.55379382

>  <Name>
1xpf_lig

>  <RI>
0

>  <Rbt.Current_Directory>
/home/afrankz/demos/rdock_decoys_rna/rnas/1xpf

>  <Rbt.Executable>
rbdock ($Id: //depot/dev/client3/rdock/2013.1/src/exe/rbdock.cxx#4 $)

>  <Rbt.Library>
libRbt.so (2013.1, Build901 2013/11/27)

>  <Rbt.Parameter_File>
/export/apps/rDock/src/rDock_2013.1_src/data/scripts/dock_solv.prm

>  <Rbt.Receptor>
prm/pocket_docking_3.prm

>  <SCORE>
-7.55668

>  <SCORE.INTER>
-0.248742

>  <SCORE.INTER.CONST>
1

>  <SCORE.INTER.POLAR>
0

>  <SCORE.INTER.ROT>
11

>  <SCORE.INTER.SOLV>
7.57687

>  <SCORE.INTER.VDW>
-13.6248

>  <SCORE.INTER.norm>
-0.0177673

>  <SCORE.INTRA>
-7.33778

>  <SCORE.INTRA.DIHEDRAL>
-15.0861

>  <SCORE.INTRA.DIHEDRAL.0>
17.7811

>  <SCORE.INTRA.POLAR>
0

>  <SCORE.INTRA.POLAR.0>
0

>  <SCORE.INTRA.REPUL>
0

>  <SCORE.INTRA.REPUL.0>
0

>  <SCORE.INTRA.SOLV>
1.96737

>  <SCORE.INTRA.SOLV.lig_0>
-47.9565

>  <SCORE.INTRA.VDW>
-0.778414

>  <SCORE.INTRA.VDW.0>
0.515983

>  <SCORE.INTRA.norm>
-0.524127

>  <SCORE.RESTR>
0.0298462

>  <SCORE.RESTR.CAVITY>
0.0298462

>  <SCORE.RESTR.norm>
0.00213187

>  <SCORE.SYSTEM>
0

>  <SCORE.SYSTEM.CONST>
0

>  <SCORE.SYSTEM.DIHEDRAL>
0

>  <SCORE.SYSTEM.SOLV>
0

>  <SCORE.SYSTEM.norm>
0

>  <SCORE.heavy>
14

>  <SCORE.norm>
-0.539763

>  <RMSD>
3.966

$$$$
1xpf_lig
 OpenBabel02141814123D
libRbt.so/2013.1/901 2013/11/27
 14 13  0  0  0  0  0  0  0  0999 V2000
   16.8974   -7.2675   65.6798 N   0  0  0  0  0  0  0  0  0  0  0  0
   16.7264   -5.8276   65.7401 C   0  0  0  0  0  0  0  0  0  0  0  0
   16.2678   -5.2918   64.4368 C   0  0  0  0  0  0  0  0  0  0  0  0
   17.4523   -5.3205   63.5217 C   0  0  0  0  0  0  0  0  0  0  0  0
   18.3509   -4.2255   63.9623 N   0  0  0  0  0  0  0  0  0  0  0  0
   19.7132   -4.3933   63.3699 C   0  0  0  0  0  0  0  0  0  0  0  0
   20.4638   -3.0638   63.1801 C   0  0  0  0  0  0  0  0  0  0  0  0
   20.6069   -2.2375   64.4706 C   0  0  0  0  0  0  0  0  0  0  0  0
   20.9517   -0.8010   64.1074 C   0  0  0  0  0  0  0  0  0  0  0  0
   20.8940   -0.0677   65.3803 N   0  0  0  0  0  0  0  0  0  0  0  0
   20.1288    1.2101   65.4169 C   0  0  0  0  0  0  0  0  0  0  0  0
   19.4591    1.0891   66.8029 C   0  0  0  0  0  0  0  0  0  0  0  0
   18.3596    0.0749   66.9914 C   0  0  0  0  0  0  0  0  0  0  0  0
   17.9601   -0.1417   68.3711 N   0  0  0  0  0  0  0  0  0  0  0  0
  1  2  1  0  0  0  0
  2  3  1  0  0  0  0
  3  4  1  0  0  0  0
  4  5  1  0  0  0  0
  5  6  1  0  0  0  0
  6  7  1  0  0  0  0
  7  8  1  0  0  0  0
  8  9  1  0  0  0  0
  9 10  1  0  0  0  0
 10 11  1  0  0  0  0
 11 12  1  0  0  0  0
 12 13  1  0  0  0  0
 13 14  1  0  0  0  0
M  END
>  <CHROM.1>
-74.42919177,-73.38014614,164.62972309,151.79482870,56.03708768,-162.38822364
172.92026577,-131.67985214,140.62648216,-70.72651111,169.21026759,18.87384238
-2.59014331,65.10192550,2.08278864,-0.73103671,-2.54293524

>  <Name>
1xpf_lig

>  <RI>
0

>  <Rbt.Current_Directory>
/home/afrankz/demos/rdock_decoys_rna/rnas/1xpf

>  <Rbt.Executable>
rbdock ($Id: //depot/dev/client3/rdock/2013.1/src/exe/rbdock.cxx#4 $)

>  <Rbt.Library>
libRbt.so (2013.1, Build901 2013/11/27)

>  <Rbt.Parameter_File>
/export/apps/rDock/src/rDock_2013.1_src/data/scripts/dock_solv.prm

>  <Rbt.Receptor>
prm/pocket_docking_5.prm

>  <SCORE>
-12.2234

>  <SCORE.INTER>
-5.78435

>  <SCORE.INTER.CONST>
1

>  <SCORE.INTER.POLAR>
-1.44577

>  <SCORE.INTER.ROT>
11

>  <SCORE.INTER.SOLV>
12.7683

>  <SCORE.INTER.VDW>
-14.2264

>  <SCORE.INTER.norm>
-0.413168

>  <SCORE.INTRA>
-6.43904

>  <SCORE.INTRA.DIHEDRAL>
-11.3673

>  <SCORE.INTRA.DIHEDRAL.0>
17.7811

>  <SCORE.INTRA.POLAR>
0

>  <SCORE.INTRA.POLAR.0>
0

>  <SCORE.INTRA.REPUL>
0

>  <SCORE.INTRA.REPUL.0>
0

>  <SCORE.INTRA.SOLV>
1.58184

>  <SCORE.INTRA.SOLV.lig_0>
-47.9565

>  <SCORE.INTRA.VDW>
-1.5463

>  <SCORE.INTRA.VDW.0>
0.515983

>  <SCORE.INTRA.norm>
-0.459932

>  <SCORE.RESTR>
0

>  <SCORE.RESTR.CAVITY>
0

>  <SCORE.RESTR.norm>
0

>  <SCORE.SYSTEM>
0

>  <SCORE.SYSTEM.CONST>
0

>  <SCORE.SYSTEM.DIHEDRAL>
0

>  <SCORE.SYSTEM.SOLV>
0

>  <SCORE.SYSTEM.norm>
0

>  <SCORE.heavy>
14

>  <SCORE.norm>
-0.8731

>  <RMSD>
3.983

$$$$
1xpf_lig
 OpenBabel02141814123D
libRbt.so/2013.1/901 2013/11/27
 14 13  0  0  0  0  0  0  0  0999 V2000
   22.4269    3.5758   58.8232 N   0  0  0  0  0  0  0  0  0  0  0  0
   22.5225    2.5122   59.8060 C   0  0  0  0  0  0  0  0  0  0  0  0
   21.8317    2.8860   61.0625 C   0  0  0  0  0  0  0  0  0  0  0  0
   21.8227    1.6630   61.9260 C   0  0  0  0  0  0  0  0  0  0  0  0
   21.0838    2.0250   63.1604 N   0  0  0  0  0  0  0  0  0  0  0  0
   20.7665    0.8026   63.9604 C   0  0  0  0  0  0  0  0  0  0  0  0
   20.0583    1.1112   65.2908 C   0  0  0  0  0  0  0  0  0  0  0  0
   19.4855   -0.1309   65.9964 C   0  0  0  0  0  0  0  0  0  0  0  0
   18.7092    0.3090   67.2285 C   0  0  0  0  0  0  0  0  0  0  0  0
   17.9914   -0.8957   67.6699 N   0  0  0  0  0  0  0  0  0  0  0  0
   16.6942   -1.2172   67.0114 C   0  0  0  0  0  0  0  0  0  0  0  0
   16.6808   -2.7533   67.1672 C   0  0  0  0  0  0  0  0  0  0  0  0
   16.5752   -3.3413   68.5514 C   0  0  0  0  0  0  0  0  0  0  0  0
   16.5209   -4.7923   68.5948 N   0  0  0  0  0  0  0  0  0  0  0  0
  1  2  1  0  0  0  0
  2  3  1  0  0  0  0
  3  4  1  0  0  0  0
  4  5  1  0  0  0  0
  5  6  1  0  0  0  0
  6  7  1  0  0  0  0
  7  8  1  0  0  0  0
  8  9  1  0  0  0  0
  9 10  1  0  0  0  0
 10 11  1  0  0  0  0
 11 12  1  0  0  0  0
 12 13  1  0  0  0  0
 13 14  1  0  0  0  0
M  END
>  <CHROM.1>
172.23619889,-177.81878567,168.01639719,177.21741263,168.88400313,-175.09889673
169.10919373,-83.55167187,151.87168311,66.34558339,177.85521916,19.51210882
0.12535618,64.73212032,0.33850219,-1.02388774,-2.11709358

>  <Name>
1xpf_lig

>  <RI>
0

>  <Rbt.Current_Directory>
/home/afrankz/demos/rdock_decoys_rna/rnas/1xpf

>  <Rbt.Executable>
rbdock ($Id: //depot/dev/client3/rdock/2013.1/src/exe/rbdock.cxx#4 $)

>  <Rbt.Library>
libRbt.so (2013.1, Build901 2013/11/27)

>  <Rbt.Parameter_File>
/export/apps/rDock/src/rDock_2013.1_src/data/scripts/dock_solv.prm

>  <Rbt.Receptor>
prm/pocket_docking_5.prm

>  <SCORE>
-15.6389

>  <SCORE.INTER>
-6.31274

>  <SCORE.INTER.CONST>
1

>  <SCORE.INTER.POLAR>
-1.7798

>  <SCORE.INTER.ROT>
11

>  <SCORE.INTER.SOLV>
12.4524

>  <SCORE.INTER.VDW>
-13.36

>  <SCORE.INTER.norm>
-0.45091

>  <SCORE.INTRA>
-9.3262

>  <SCORE.INTRA.DIHEDRAL>
-15.3153

>  <SCORE.INTRA.DIHEDRAL.0>
17.7811

>  <SCORE.INTRA.POLAR>
0

>  <SCORE.INTRA.POLAR.0>
0

>  <SCORE.INTRA.REPUL>
0

>  <SCORE.INTRA.REPUL.0>
0

>  <SCORE.INTRA.SOLV>
-0.538003

>  <SCORE.INTRA.SOLV.lig_0>
-47.9565

>  <SCORE.INTRA.VDW>
-1.39955

>  <SCORE.INTRA.VDW.0>
0.515983

>  <SCORE.INTRA.norm>
-0.666157

>  <SCORE.RESTR>
0

>  <SCORE.RESTR.CAVITY>
0

>  <SCORE.RESTR.norm>
0

>  <SCORE.SYSTEM>
0

>  <SCORE.SYSTEM.CONST>
0

>  <SCORE.SYSTEM.DIHEDRAL>
0

>  <SCORE.SYSTEM.SOLV>
0

>  <SCORE.SYSTEM.norm>
0

>  <SCORE.heavy>
14

>  <SCORE.norm>
-1.11707

>  <RMSD>
3.987

$$$$
1xpf_lig
 OpenBabel02141814123D
libRbt.so/2013.1/901 2013/11/27
 14 13  0  0  0  0  0  0  0  0999 V2000
   18.4782    1.7067   68.1011 N   0  0  0  0  0  0  0  0  0  0  0  0
   19.5704    0.8687   67.6414 C   0  0  0  0  0  0  0  0  0  0  0  0
   19.3877    0.4894   66.2207 C   0  0  0  0  0  0  0  0  0  0  0  0
   20.5548   -0.3739   65.8547 C   0  0  0  0  0  0  0  0  0  0  0  0
   20.4701   -0.5972   64.3906 N   0  0  0  0  0  0  0  0  0  0  0  0
   21.6118   -1.4404   63.9209 C   0  0  0  0  0  0  0  0  0  0  0  0
   21.4451   -2.9331   64.2538 C   0  0  0  0  0  0  0  0  0  0  0  0
   20.3588   -3.6406   63.4244 C   0  0  0  0  0  0  0  0  0  0  0  0
   18.9955   -3.0905   63.8152 C   0  0  0  0  0  0  0  0  0  0  0  0
   18.0290   -3.9578   63.1260 N   0  0  0  0  0  0  0  0  0  0  0  0
   17.4631   -5.1114   63.8800 C   0  0  0  0  0  0  0  0  0  0  0  0
   16.6673   -5.8098   62.7561 C   0  0  0  0  0  0  0  0  0  0  0  0
   15.9191   -7.0786   63.0777 C   0  0  0  0  0  0  0  0  0  0  0  0
   15.0959   -7.5915   61.9962 N   0  0  0  0  0  0  0  0  0  0  0  0
  1  2  1  0  0  0  0
  2  3  1  0  0  0  0
  3  4  1  0  0  0  0
  4  5  1  0  0  0  0
  5  6  1  0  0  0  0
  6  7  1  0  0  0  0
  7  8  1  0  0  0  0
  8  9  1  0  0  0  0
  9 10  1  0  0  0  0
 10 11  1  0  0  0  0
 11 12  1  0  0  0  0
 12 13  1  0  0  0  0
 13 14  1  0  0  0  0
M  END
>  <CHROM.1>
-179.63275635,-172.36682360,179.23815749,76.50248575,71.12934857,-67.43871948
-171.84356894,94.74552707,-173.55849616,179.30980666,174.25456403,18.86082831
-2.75434211,64.46137930,1.11641399,0.33729220,0.66010699

>  <Name>
1xpf_lig

>  <RI>
0

>  <Rbt.Current_Directory>
/home/afrankz/demos/rdock_decoys_rna/rnas/1xpf

>  <Rbt.Executable>
rbdock ($Id: //depot/dev/client3/rdock/2013.1/src/exe/rbdock.cxx#4 $)

>  <Rbt.Library>
libRbt.so (2013.1, Build901 2013/11/27)

>  <Rbt.Parameter_File>
/export/apps/rDock/src/rDock_2013.1_src/data/scripts/dock_solv.prm

>  <Rbt.Receptor>
prm/pocket_docking_4.prm

>  <SCORE>
-11.366

>  <SCORE.INTER>
-2.81373

>  <SCORE.INTER.CONST>
1

>  <SCORE.INTER.POLAR>
-0.8

>  <SCORE.INTER.ROT>
11

>  <SCORE.INTER.SOLV>
10.3272

>  <SCORE.INTER.VDW>
-13.5849

>  <SCORE.INTER.norm>
-0.200981

>  <SCORE.INTRA>
-8.57257

>  <SCORE.INTRA.DIHEDRAL>
-15.5125

>  <SCORE.INTRA.DIHEDRAL.0>
17.7811

>  <SCORE.INTRA.POLAR>
0

>  <SCORE.INTRA.POLAR.0>
0

>  <SCORE.INTRA.REPUL>
0

>  <SCORE.INTRA.REPUL.0>
0

>  <SCORE.INTRA.SOLV>
0.0420328

>  <SCORE.INTRA.SOLV.lig_0>
-47.9565

>  <SCORE.INTRA.VDW>
-0.837344

>  <SCORE.INTRA.VDW.0>
0.515983

>  <SCORE.INTRA.norm>
-0.612326

>  <SCORE.RESTR>
0.0203112

>  <SCORE.RESTR.CAVITY>
0.0203112

>  <SCORE.RESTR.norm>
0.0014508

>  <SCORE.SYSTEM>
0

>  <SCORE.SYSTEM.CONST>
0

>  <SCORE.SYSTEM.DIHEDRAL>
0

>  <SCORE.SYSTEM.SOLV>
0

>  <SCORE.SYSTEM.norm>
0

>  <SCORE.heavy>
14

>  <SCORE.norm>
-0.811856

>  <RMSD>
3.998

$$$$
1xpf_lig
 OpenBabel02141814123D
libRbt.so/2013.1/901 2013/11/27
 14 13  0  0  0  0  0  0  0  0999 V2000
   22.1418    7.4087   62.3004 N   0  0  0  0  0  0  0  0  0  0  0  0
   20.9960    6.5182   62.3164 C   0  0  0  0  0  0  0  0  0  0  0  0
   21.3632    5.1892   62.8591 C   0  0  0  0  0  0  0  0  0  0  0  0
   20.1285    4.3450   62.7958 C   0  0  0  0  0  0  0  0  0  0  0  0
   20.3156    3.2513   63.7805 N   0  0  0  0  0  0  0  0  0  0  0  0
   20.0016    3.7288   65.1619 C   0  0  0  0  0  0  0  0  0  0  0  0
   20.3409    2.7002   66.2546 C   0  0  0  0  0  0  0  0  0  0  0  0
   19.3322    1.5424   66.3575 C   0  0  0  0  0  0  0  0  0  0  0  0
   19.7548    0.6113   67.4838 C   0  0  0  0  0  0  0  0  0  0  0  0
   18.6070   -0.2863   67.6795 N   0  0  0  0  0  0  0  0  0  0  0  0
   18.2543   -1.2213   66.5746 C   0  0  0  0  0  0  0  0  0  0  0  0
   16.8757   -0.6574   66.1676 C   0  0  0  0  0  0  0  0  0  0  0  0
   16.2408   -1.1451   64.8901 C   0  0  0  0  0  0  0  0  0  0  0  0
   16.9690   -0.8064   63.6796 N   0  0  0  0  0  0  0  0  0  0  0  0
  1  2  1  0  0  0  0
  2  3  1  0  0  0  0
  3  4  1  0  0  0  0
  4  5  1  0  0  0  0
  5  6  1  0  0  0  0
  6  7  1  0  0  0  0
  7  8  1  0  0  0  0
  8  9  1  0  0  0  0
  9 10  1  0  0  0  0
 10 11  1  0  0  0  0
 11 12  1  0  0  0  0
 12 13  1  0  0  0  0
 13 14  1  0  0  0  0
M  END
>  <CHROM.1>
-178.47365026,-158.42158752,80.66303444,-172.83642081,-76.08758535,-178.85109599
168.85624423,65.76128976,-114.15830296,168.61072401,-64.32814718,19.38005151
2.22698099,64.87887800,-0.87371555,0.82533390,2.11807587

>  <Name>
1xpf_lig

>  <RI>
0

>  <Rbt.Current_Directory>
/home/afrankz/demos/rdock_decoys_rna/rnas/1xpf

>  <Rbt.Executable>
rbdock ($Id: //depot/dev/client3/rdock/2013.1/src/exe/rbdock.cxx#4 $)

>  <Rbt.Library>
libRbt.so (2013.1, Build901 2013/11/27)

>  <Rbt.Parameter_File>
/export/apps/rDock/src/rDock_2013.1_src/data/scripts/dock_solv.prm

>  <Rbt.Receptor>
prm/pocket_docking_5.prm

>  <SCORE>
-11.6512

>  <SCORE.INTER>
-5.36314

>  <SCORE.INTER.CONST>
1

>  <SCORE.INTER.POLAR>
-1.4837

>  <SCORE.INTER.ROT>
11

>  <SCORE.INTER.SOLV>
9.83858

>  <SCORE.INTER.VDW>
-12.8426

>  <SCORE.INTER.norm>
-0.383082

>  <SCORE.INTRA>
-6.28809

>  <SCORE.INTRA.DIHEDRAL>
-12.6993

>  <SCORE.INTRA.DIHEDRAL.0>
17.7811

>  <SCORE.INTRA.POLAR>
0

>  <SCORE.INTRA.POLAR.0>
0

>  <SCORE.INTRA.REPUL>
0

>  <SCORE.INTRA.REPUL.0>
0

>  <SCORE.INTRA.SOLV>
0.296732

>  <SCORE.INTRA.SOLV.lig_0>
-47.9565

>  <SCORE.INTRA.VDW>
-0.086812

>  <SCORE.INTRA.VDW.0>
0.515983

>  <SCORE.INTRA.norm>
-0.44915

>  <SCORE.RESTR>
0

>  <SCORE.RESTR.CAVITY>
0

>  <SCORE.RESTR.norm>
0

>  <SCORE.SYSTEM>
0

>  <SCORE.SYSTEM.CONST>
0

>  <SCORE.SYSTEM.DIHEDRAL>
0

>  <SCORE.SYSTEM.SOLV>
0

>  <SCORE.SYSTEM.norm>
0

>  <SCORE.heavy>
14

>  <SCORE.norm>
-0.832231

>  <RMSD>
4.013

$$$$
1xpf_lig
 OpenBabel02141814123D
libRbt.so/2013.1/901 2013/11/27
 14 13  0  0  0  0  0  0  0  0999 V2000
   15.9484   -4.1721   66.3316 N   0  0  0  0  0  0  0  0  0  0  0  0
   16.5654   -4.0859   67.6423 C   0  0  0  0  0  0  0  0  0  0  0  0
   16.6151   -2.6824   68.1151 C   0  0  0  0  0  0  0  0  0  0  0  0
   17.4091   -1.9174   67.1023 C   0  0  0  0  0  0  0  0  0  0  0  0
   18.0139   -0.7695   67.8215 N   0  0  0  0  0  0  0  0  0  0  0  0
   19.0158   -0.0759   66.9556 C   0  0  0  0  0  0  0  0  0  0  0  0
   19.1162    1.4348   67.2289 C   0  0  0  0  0  0  0  0  0  0  0  0
   20.0088    2.1924   66.2299 C   0  0  0  0  0  0  0  0  0  0  0  0
   19.7544    3.6859   66.3670 C   0  0  0  0  0  0  0  0  0  0  0  0
   20.5271    4.2999   65.2773 N   0  0  0  0  0  0  0  0  0  0  0  0
   19.9533    5.4976   64.6021 C   0  0  0  0  0  0  0  0  0  0  0  0
   21.1877    5.9853   63.8131 C   0  0  0  0  0  0  0  0  0  0  0  0
   21.0705    7.2399   62.9853 C   0  0  0  0  0  0  0  0  0  0  0  0
   22.2479    7.5633   62.1983 N   0  0  0  0  0  0  0  0  0  0  0  0
  1  2  1  0  0  0  0
  2  3  1  0  0  0  0
  3  4  1  0  0  0  0
  4  5  1  0  0  0  0
  5  6  1  0  0  0  0
  6  7  1  0  0  0  0
  7  8  1  0  0  0  0
  8  9  1  0  0  0  0
  9 10  1  0  0  0  0
 10 11  1  0  0  0  0
 11 12  1  0  0  0  0
 12 13  1  0  0  0  0
 13 14  1  0  0  0  0
M  END
>  <CHROM.1>
-59.22366260,-153.19672407,170.21664441,148.54784060,-172.66597798,165.54533805
-173.63365946,144.26064769,167.21283017,-178.35060941,-175.45192611,19.10236810
1.72828488,65.90522562,2.56046027,1.08129302,1.82348613

>  <Name>
1xpf_lig

>  <RI>
0

>  <Rbt.Current_Directory>
/home/afrankz/demos/rdock_decoys_rna/rnas/1xpf

>  <Rbt.Executable>
rbdock ($Id: //depot/dev/client3/rdock/2013.1/src/exe/rbdock.cxx#4 $)

>  <Rbt.Library>
libRbt.so (2013.1, Build901 2013/11/27)

>  <Rbt.Parameter_File>
/export/apps/rDock/src/rDock_2013.1_src/data/scripts/dock_solv.prm

>  <Rbt.Receptor>
prm/blind_docking_100.prm

>  <SCORE>
-15.5976

>  <SCORE.INTER>
-8.04176

>  <SCORE.INTER.CONST>
1

>  <SCORE.INTER.POLAR>
-1.71652

>  <SCORE.INTER.ROT>
11

>  <SCORE.INTER.SOLV>
14.7455

>  <SCORE.INTER.VDW>
-15.488

>  <SCORE.INTER.norm>
-0.574412

>  <SCORE.INTRA>
-7.55586

>  <SCORE.INTRA.DIHEDRAL>
-12.5724

>  <SCORE.INTRA.DIHEDRAL.0>
17.7811

>  <SCORE.INTRA.POLAR>
0

>  <SCORE.INTRA.POLAR.0>
0

>  <SCORE.INTRA.REPUL>
0

>  <SCORE.INTRA.REPUL.0>
0

>  <SCORE.INTRA.SOLV>
-0.0428616

>  <SCORE.INTRA.SOLV.lig_0>
-47.9565

>  <SCORE.INTRA.VDW>
-1.24823

>  <SCORE.INTRA.VDW.0>
0.515983

>  <SCORE.INTRA.norm>
-0.539704

>  <SCORE.RESTR>
0

>  <SCORE.RESTR.CAVITY>
0

>  <SCORE.RESTR.norm>
0

>  <SCORE.SYSTEM>
0

>  <SCORE.SYSTEM.CONST>
0

>  <SCORE.SYSTEM.DIHEDRAL>
0

>  <SCORE.SYSTEM.SOLV>
0

>  <SCORE.SYSTEM.norm>
0

>  <SCORE.heavy>
14

>  <SCORE.norm>
-1.11412

>  <RMSD>
4.021

$$$$
1xpf_lig
 OpenBabel02141814123D
libRbt.so/2013.1/901 2013/11/27
 14 13  0  0  0  0  0  0  0  0999 V2000
   22.5832    7.2998   62.1197 N   0  0  0  0  0  0  0  0  0  0  0  0
   22.5730    5.9235   61.6595 C   0  0  0  0  0  0  0  0  0  0  0  0
   22.2124    5.8455   60.2243 C   0  0  0  0  0  0  0  0  0  0  0  0
   22.2116    4.3930   59.8616 C   0  0  0  0  0  0  0  0  0  0  0  0
   21.0583    3.7836   60.5681 N   0  0  0  0  0  0  0  0  0  0  0  0
   20.6857    2.4799   59.9384 C   0  0  0  0  0  0  0  0  0  0  0  0
   20.9841    1.2636   60.8320 C   0  0  0  0  0  0  0  0  0  0  0  0
   20.0058    1.0977   62.0084 C   0  0  0  0  0  0  0  0  0  0  0  0
   20.4368   -0.0931   62.8513 C   0  0  0  0  0  0  0  0  0  0  0  0
   19.3384   -0.2931   63.8079 N   0  0  0  0  0  0  0  0  0  0  0  0
   19.3983   -1.4831   64.7022 C   0  0  0  0  0  0  0  0  0  0  0  0
   17.9821   -1.4367   65.3158 C   0  0  0  0  0  0  0  0  0  0  0  0
   17.6682   -0.3723   66.3364 C   0  0  0  0  0  0  0  0  0  0  0  0
   18.3754   -0.5099   67.5978 N   0  0  0  0  0  0  0  0  0  0  0  0
  1  2  1  0  0  0  0
  2  3  1  0  0  0  0
  3  4  1  0  0  0  0
  4  5  1  0  0  0  0
  5  6  1  0  0  0  0
  6  7  1  0  0  0  0
  7  8  1  0  0  0  0
  8  9  1  0  0  0  0
  9 10  1  0  0  0  0
 10 11  1  0  0  0  0
 11 12  1  0  0  0  0
 12 13  1  0  0  0  0
 13 14  1  0  0  0  0
M  END
>  <CHROM.1>
-179.17266235,68.85244033,160.94546900,111.23544356,74.05687266,-177.44733651
-171.42450555,174.20318337,-170.18224546,-73.06031686,-67.36423560,20.39382312
1.99249236,62.70133759,-0.00155099,1.14466497,0.90979807

>  <Name>
1xpf_lig

>  <RI>
0

>  <Rbt.Current_Directory>
/home/afrankz/demos/rdock_decoys_rna/rnas/1xpf

>  <Rbt.Executable>
rbdock ($Id: //depot/dev/client3/rdock/2013.1/src/exe/rbdock.cxx#4 $)

>  <Rbt.Library>
libRbt.so (2013.1, Build901 2013/11/27)

>  <Rbt.Parameter_File>
/export/apps/rDock/src/rDock_2013.1_src/data/scripts/dock_solv.prm

>  <Rbt.Receptor>
prm/pocket_docking_4.prm

>  <SCORE>
-8.50667

>  <SCORE.INTER>
-0.583147

>  <SCORE.INTER.CONST>
1

>  <SCORE.INTER.POLAR>
-1.71652

>  <SCORE.INTER.ROT>
11

>  <SCORE.INTER.SOLV>
11.2174

>  <SCORE.INTER.VDW>
-9.33951

>  <SCORE.INTER.norm>
-0.0416534

>  <SCORE.INTRA>
-7.93009

>  <SCORE.INTRA.DIHEDRAL>
-14.1312

>  <SCORE.INTRA.DIHEDRAL.0>
17.7811

>  <SCORE.INTRA.POLAR>
0

>  <SCORE.INTRA.POLAR.0>
0

>  <SCORE.INTRA.REPUL>
0

>  <SCORE.INTRA.REPUL.0>
0

>  <SCORE.INTRA.SOLV>
1.27513

>  <SCORE.INTRA.SOLV.lig_0>
-47.9565

>  <SCORE.INTRA.VDW>
-1.50206

>  <SCORE.INTRA.VDW.0>
0.515983

>  <SCORE.INTRA.norm>
-0.566435

>  <SCORE.RESTR>
0.00657265

>  <SCORE.RESTR.CAVITY>
0.00657265

>  <SCORE.RESTR.norm>
0.000469475

>  <SCORE.SYSTEM>
0

>  <SCORE.SYSTEM.CONST>
0

>  <SCORE.SYSTEM.DIHEDRAL>
0

>  <SCORE.SYSTEM.SOLV>
0

>  <SCORE.SYSTEM.norm>
0

>  <SCORE.heavy>
14

>  <SCORE.norm>
-0.607619

>  <RMSD>
4.023

$$$$
1xpf_lig
 OpenBabel02141814123D
libRbt.so/2013.1/901 2013/11/27
 14 13  0  0  0  0  0  0  0  0999 V2000
   20.8777   -3.7497   64.2183 N   0  0  0  0  0  0  0  0  0  0  0  0
   21.3822   -2.5380   63.5992 C   0  0  0  0  0  0  0  0  0  0  0  0
   21.5703   -1.4659   64.6047 C   0  0  0  0  0  0  0  0  0  0  0  0
   20.2030   -1.0679   65.0667 C   0  0  0  0  0  0  0  0  0  0  0  0
   20.3715    0.1765   65.8565 N   0  0  0  0  0  0  0  0  0  0  0  0
   20.0400    1.3747   65.0263 C   0  0  0  0  0  0  0  0  0  0  0  0
   20.1666    2.7023   65.7934 C   0  0  0  0  0  0  0  0  0  0  0  0
   19.9188    3.9502   64.9275 C   0  0  0  0  0  0  0  0  0  0  0  0
   21.0373    4.0776   63.9044 C   0  0  0  0  0  0  0  0  0  0  0  0
   20.6792    5.2559   63.1014 N   0  0  0  0  0  0  0  0  0  0  0  0
   21.7770    6.1618   62.6613 C   0  0  0  0  0  0  0  0  0  0  0  0
   21.9604    5.6830   61.2048 C   0  0  0  0  0  0  0  0  0  0  0  0
   23.0452    6.3097   60.3662 C   0  0  0  0  0  0  0  0  0  0  0  0
   23.0970    5.8458   58.9906 N   0  0  0  0  0  0  0  0  0  0  0  0
  1  2  1  0  0  0  0
  2  3  1  0  0  0  0
  3  4  1  0  0  0  0
  4  5  1  0  0  0  0
  5  6  1  0  0  0  0
  6  7  1  0  0  0  0
  7  8  1  0  0  0  0
  8  9  1  0  0  0  0
  9 10  1  0  0  0  0
 10 11  1  0  0  0  0
 11 12  1  0  0  0  0
 12 13  1  0  0  0  0
 13 14  1  0  0  0  0
M  END
>  <CHROM.1>
-68.37071726,-168.82707632,99.26578139,178.85034749,176.18470718,-67.12185088
177.73859358,141.86747322,100.23819262,-177.54121482,-176.95871131,21.15184069
2.33703197,63.52314458,-1.91730657,1.06761402,-0.12486641

>  <Name>
1xpf_lig

>  <RI>
0

>  <Rbt.Current_Directory>
/home/afrankz/demos/rdock_decoys_rna/rnas/1xpf

>  <Rbt.Executable>
rbdock ($Id: //depot/dev/client3/rdock/2013.1/src/exe/rbdock.cxx#4 $)

>  <Rbt.Library>
libRbt.so (2013.1, Build901 2013/11/27)

>  <Rbt.Parameter_File>
/export/apps/rDock/src/rDock_2013.1_src/data/scripts/dock_solv.prm

>  <Rbt.Receptor>
prm/pocket_docking_3.prm

>  <SCORE>
-5.95482

>  <SCORE.INTER>
1.64765

>  <SCORE.INTER.CONST>
1

>  <SCORE.INTER.POLAR>
-0.43752

>  <SCORE.INTER.ROT>
11

>  <SCORE.INTER.SOLV>
13.1531

>  <SCORE.INTER.VDW>
-12.7609

>  <SCORE.INTER.norm>
0.117689

>  <SCORE.INTRA>
-7.60783

>  <SCORE.INTRA.DIHEDRAL>
-14.0838

>  <SCORE.INTRA.DIHEDRAL.0>
17.7811

>  <SCORE.INTRA.POLAR>
0

>  <SCORE.INTRA.POLAR.0>
0

>  <SCORE.INTRA.REPUL>
0

>  <SCORE.INTRA.REPUL.0>
0

>  <SCORE.INTRA.SOLV>
0.0508631

>  <SCORE.INTRA.SOLV.lig_0>
-47.9565

>  <SCORE.INTRA.VDW>
-0.591386

>  <SCORE.INTRA.VDW.0>
0.515983

>  <SCORE.INTRA.norm>
-0.543417

>  <SCORE.RESTR>
0.00536462

>  <SCORE.RESTR.CAVITY>
0.00536462

>  <SCORE.RESTR.norm>
0.000383187

>  <SCORE.SYSTEM>
0

>  <SCORE.SYSTEM.CONST>
0

>  <SCORE.SYSTEM.DIHEDRAL>
0

>  <SCORE.SYSTEM.SOLV>
0

>  <SCORE.SYSTEM.norm>
0

>  <SCORE.heavy>
14

>  <SCORE.norm>
-0.425344

>  <RMSD>
4.026

$$$$
1xpf_lig
 OpenBabel02141814123D
libRbt.so/2013.1/901 2013/11/27
 14 13  0  0  0  0  0  0  0  0999 V2000
   17.9538   -0.0674   68.2811 N   0  0  0  0  0  0  0  0  0  0  0  0
   18.4147    0.2367   66.9390 C   0  0  0  0  0  0  0  0  0  0  0  0
   17.9137   -0.7621   65.9659 C   0  0  0  0  0  0  0  0  0  0  0  0
   18.5582   -0.4413   64.6532 C   0  0  0  0  0  0  0  0  0  0  0  0
   18.0195   -1.4141   63.6712 N   0  0  0  0  0  0  0  0  0  0  0  0
   18.8917   -1.4740   62.4585 C   0  0  0  0  0  0  0  0  0  0  0  0
   18.7914   -0.2203   61.5725 C   0  0  0  0  0  0  0  0  0  0  0  0
   19.6699   -0.2756   60.3101 C   0  0  0  0  0  0  0  0  0  0  0  0
   19.6917    1.0982   59.6570 C   0  0  0  0  0  0  0  0  0  0  0  0
   20.3534    1.9701   60.6385 N   0  0  0  0  0  0  0  0  0  0  0  0
   20.5676    3.3982   60.2725 C   0  0  0  0  0  0  0  0  0  0  0  0
   21.2074    3.9225   61.5764 C   0  0  0  0  0  0  0  0  0  0  0  0
   21.5712    5.3826   61.6699 C   0  0  0  0  0  0  0  0  0  0  0  0
   22.1356    5.7897   62.9451 N   0  0  0  0  0  0  0  0  0  0  0  0
  1  2  1  0  0  0  0
  2  3  1  0  0  0  0
  3  4  1  0  0  0  0
  4  5  1  0  0  0  0
  5  6  1  0  0  0  0
  6  7  1  0  0  0  0
  7  8  1  0  0  0  0
  8  9  1  0  0  0  0
  9 10  1  0  0  0  0
 10 11  1  0  0  0  0
 11 12  1  0  0  0  0
 12 13  1  0  0  0  0
 13 14  1  0  0  0  0
M  END
>  <CHROM.1>
-174.20760170,-178.12582368,-162.06080355,-71.77240092,-179.22991427,-169.56936061
64.32079113,178.20787806,177.56607434,-178.51450211,178.51295490,19.55281240
1.22438008,62.90037628,-2.69384374,-1.10148431,-1.89890411

>  <Name>
1xpf_lig

>  <RI>
0

>  <Rbt.Current_Directory>
/home/afrankz/demos/rdock_decoys_rna/rnas/1xpf

>  <Rbt.Executable>
rbdock ($Id: //depot/dev/client3/rdock/2013.1/src/exe/rbdock.cxx#4 $)

>  <Rbt.Library>
libRbt.so (2013.1, Build901 2013/11/27)

>  <Rbt.Parameter_File>
/export/apps/rDock/src/rDock_2013.1_src/data/scripts/dock_solv.prm

>  <Rbt.Receptor>
prm/pocket_docking_5.prm

>  <SCORE>
-9.86688

>  <SCORE.INTER>
-0.235199

>  <SCORE.INTER.CONST>
1

>  <SCORE.INTER.POLAR>
-1.48397

>  <SCORE.INTER.ROT>
11

>  <SCORE.INTER.SOLV>
8.67897

>  <SCORE.INTER.VDW>
-9.03655

>  <SCORE.INTER.norm>
-0.0167999

>  <SCORE.INTRA>
-9.63168

>  <SCORE.INTRA.DIHEDRAL>
-16.7437

>  <SCORE.INTRA.DIHEDRAL.0>
17.7811

>  <SCORE.INTRA.POLAR>
0

>  <SCORE.INTRA.POLAR.0>
0

>  <SCORE.INTRA.REPUL>
0

>  <SCORE.INTRA.REPUL.0>
0

>  <SCORE.INTRA.SOLV>
-0.486249

>  <SCORE.INTRA.SOLV.lig_0>
-47.9565

>  <SCORE.INTRA.VDW>
-1.0167

>  <SCORE.INTRA.VDW.0>
0.515983

>  <SCORE.INTRA.norm>
-0.687977

>  <SCORE.RESTR>
0

>  <SCORE.RESTR.CAVITY>
0

>  <SCORE.RESTR.norm>
0

>  <SCORE.SYSTEM>
0

>  <SCORE.SYSTEM.CONST>
0

>  <SCORE.SYSTEM.DIHEDRAL>
0

>  <SCORE.SYSTEM.SOLV>
0

>  <SCORE.SYSTEM.norm>
0

>  <SCORE.heavy>
14

>  <SCORE.norm>
-0.704777

>  <RMSD>
4.028

$$$$
1xpf_lig
 OpenBabel02141814123D
libRbt.so/2013.1/901 2013/11/27
 14 13  0  0  0  0  0  0  0  0999 V2000
   20.4996    5.6060   66.0407 N   0  0  0  0  0  0  0  0  0  0  0  0
   19.9980    4.3902   65.4271 C   0  0  0  0  0  0  0  0  0  0  0  0
   20.2959    3.2078   66.2692 C   0  0  0  0  0  0  0  0  0  0  0  0
   19.8010    2.0115   65.5175 C   0  0  0  0  0  0  0  0  0  0  0  0
   20.0424    0.8366   66.3905 N   0  0  0  0  0  0  0  0  0  0  0  0
   19.1500   -0.2983   66.0027 C   0  0  0  0  0  0  0  0  0  0  0  0
   19.7180   -1.1582   64.8605 C   0  0  0  0  0  0  0  0  0  0  0  0
   21.0537   -1.8435   65.1992 C   0  0  0  0  0  0  0  0  0  0  0  0
   21.4255   -2.7959   64.0728 C   0  0  0  0  0  0  0  0  0  0  0  0
   21.9115   -1.9266   62.9912 N   0  0  0  0  0  0  0  0  0  0  0  0
   23.0299   -2.4254   62.1426 C   0  0  0  0  0  0  0  0  0  0  0  0
   22.8904   -1.4859   60.9252 C   0  0  0  0  0  0  0  0  0  0  0  0
   21.6380   -1.5625   60.0894 C   0  0  0  0  0  0  0  0  0  0  0  0
   20.4347   -1.0864   60.7494 N   0  0  0  0  0  0  0  0  0  0  0  0
  1  2  1  0  0  0  0
  2  3  1  0  0  0  0
  3  4  1  0  0  0  0
  4  5  1  0  0  0  0
  5  6  1  0  0  0  0
  6  7  1  0  0  0  0
  7  8  1  0  0  0  0
  8  9  1  0  0  0  0
  9 10  1  0  0  0  0
 10 11  1  0  0  0  0
 11 12  1  0  0  0  0
 12 13  1  0  0  0  0
 13 14  1  0  0  0  0
M  END
>  <CHROM.1>
-177.23360971,-177.39059107,158.37600986,85.09239727,61.67552719,172.95012509
75.92856004,144.48798095,162.01132245,-64.13670785,68.93951443,20.84924112
0.10465508,64.04843601,-2.37188559,-1.20237008,3.02921343

>  <Name>
1xpf_lig

>  <RI>
0

>  <Rbt.Current_Directory>
/home/afrankz/demos/rdock_decoys_rna/rnas/1xpf

>  <Rbt.Executable>
rbdock ($Id: //depot/dev/client3/rdock/2013.1/src/exe/rbdock.cxx#4 $)

>  <Rbt.Library>
libRbt.so (2013.1, Build901 2013/11/27)

>  <Rbt.Parameter_File>
/export/apps/rDock/src/rDock_2013.1_src/data/scripts/dock_solv.prm

>  <Rbt.Receptor>
prm/pocket_docking_4.prm

>  <SCORE>
-8.86406

>  <SCORE.INTER>
-1.62422

>  <SCORE.INTER.CONST>
1

>  <SCORE.INTER.POLAR>
0

>  <SCORE.INTER.ROT>
11

>  <SCORE.INTER.SOLV>
5.17203

>  <SCORE.INTER.VDW>
-13.7402

>  <SCORE.INTER.norm>
-0.116015

>  <SCORE.INTRA>
-7.23984

>  <SCORE.INTRA.DIHEDRAL>
-14.4323

>  <SCORE.INTRA.DIHEDRAL.0>
17.7811

>  <SCORE.INTRA.POLAR>
0

>  <SCORE.INTRA.POLAR.0>
0

>  <SCORE.INTRA.REPUL>
0

>  <SCORE.INTRA.REPUL.0>
0

>  <SCORE.INTRA.SOLV>
3.25691

>  <SCORE.INTRA.SOLV.lig_0>
-47.9565

>  <SCORE.INTRA.VDW>
-1.65216

>  <SCORE.INTRA.VDW.0>
0.515983

>  <SCORE.INTRA.norm>
-0.517132

>  <SCORE.RESTR>
0

>  <SCORE.RESTR.CAVITY>
0

>  <SCORE.RESTR.norm>
0

>  <SCORE.SYSTEM>
0

>  <SCORE.SYSTEM.CONST>
0

>  <SCORE.SYSTEM.DIHEDRAL>
0

>  <SCORE.SYSTEM.SOLV>
0

>  <SCORE.SYSTEM.norm>
0

>  <SCORE.heavy>
14

>  <SCORE.norm>
-0.633147

>  <RMSD>
4.031

$$$$
1xpf_lig
 OpenBabel02141814123D
libRbt.so/2013.1/901 2013/11/27
 14 13  0  0  0  0  0  0  0  0999 V2000
   23.2935   -2.5258   61.0916 N   0  0  0  0  0  0  0  0  0  0  0  0
   23.2188   -2.1560   62.4930 C   0  0  0  0  0  0  0  0  0  0  0  0
   21.8323   -2.2774   63.0015 C   0  0  0  0  0  0  0  0  0  0  0  0
   21.8406   -1.7413   64.3993 C   0  0  0  0  0  0  0  0  0  0  0  0
   20.4237   -1.6768   64.8337 N   0  0  0  0  0  0  0  0  0  0  0  0
   20.1969   -0.4884   65.7119 C   0  0  0  0  0  0  0  0  0  0  0  0
   19.6621    0.7380   64.9525 C   0  0  0  0  0  0  0  0  0  0  0  0
   20.6317    1.2872   63.8910 C   0  0  0  0  0  0  0  0  0  0  0  0
   19.9344    2.3818   63.0972 C   0  0  0  0  0  0  0  0  0  0  0  0
   20.9457    2.8538   62.1402 N   0  0  0  0  0  0  0  0  0  0  0  0
   20.4824    3.6505   60.9697 C   0  0  0  0  0  0  0  0  0  0  0  0
   21.8301    4.2168   60.4726 C   0  0  0  0  0  0  0  0  0  0  0  0
   22.8183    3.2779   59.8285 C   0  0  0  0  0  0  0  0  0  0  0  0
   22.4015    2.7412   58.5446 N   0  0  0  0  0  0  0  0  0  0  0  0
  1  2  1  0  0  0  0
  2  3  1  0  0  0  0
  3  4  1  0  0  0  0
  4  5  1  0  0  0  0
  5  6  1  0  0  0  0
  6  7  1  0  0  0  0
  7  8  1  0  0  0  0
  8  9  1  0  0  0  0
  9 10  1  0  0  0  0
 10 11  1  0  0  0  0
 11 12  1  0  0  0  0
 12 13  1  0  0  0  0
 13 14  1  0  0  0  0
M  END
>  <CHROM.1>
-174.24012531,171.83200743,-144.69133708,95.53347561,-63.22331660,173.23056826
178.82486157,163.21844928,166.31313127,70.58646262,67.59054451,21.39356321
0.73455262,62.53088148,-1.67525478,0.91909481,-0.58132653

>  <Name>
1xpf_lig

>  <RI>
0

>  <Rbt.Current_Directory>
/home/afrankz/demos/rdock_decoys_rna/rnas/1xpf

>  <Rbt.Executable>
rbdock ($Id: //depot/dev/client3/rdock/2013.1/src/exe/rbdock.cxx#4 $)

>  <Rbt.Library>
libRbt.so (2013.1, Build901 2013/11/27)

>  <Rbt.Parameter_File>
/export/apps/rDock/src/rDock_2013.1_src/data/scripts/dock_solv.prm

>  <Rbt.Receptor>
prm/pocket_docking_5.prm

>  <SCORE>
-9.92667

>  <SCORE.INTER>
-1.14771

>  <SCORE.INTER.CONST>
1

>  <SCORE.INTER.POLAR>
-1.25269

>  <SCORE.INTER.ROT>
11

>  <SCORE.INTER.SOLV>
12.6301

>  <SCORE.INTER.VDW>
-11.7329

>  <SCORE.INTER.norm>
-0.0819792

>  <SCORE.INTRA>
-8.77896

>  <SCORE.INTRA.DIHEDRAL>
-14.6441

>  <SCORE.INTRA.DIHEDRAL.0>
17.7811

>  <SCORE.INTRA.POLAR>
0

>  <SCORE.INTRA.POLAR.0>
0

>  <SCORE.INTRA.REPUL>
0

>  <SCORE.INTRA.REPUL.0>
0

>  <SCORE.INTRA.SOLV>
0.797344

>  <SCORE.INTRA.SOLV.lig_0>
-47.9565

>  <SCORE.INTRA.VDW>
-1.85557

>  <SCORE.INTRA.VDW.0>
0.515983

>  <SCORE.INTRA.norm>
-0.627069

>  <SCORE.RESTR>
0

>  <SCORE.RESTR.CAVITY>
0

>  <SCORE.RESTR.norm>
0

>  <SCORE.SYSTEM>
0

>  <SCORE.SYSTEM.CONST>
0

>  <SCORE.SYSTEM.DIHEDRAL>
0

>  <SCORE.SYSTEM.SOLV>
0

>  <SCORE.SYSTEM.norm>
0

>  <SCORE.heavy>
14

>  <SCORE.norm>
-0.709048

>  <RMSD>
4.037

$$$$
1xpf_lig
 OpenBabel02141814123D
libRbt.so/2013.1/901 2013/11/27
 14 13  0  0  0  0  0  0  0  0999 V2000
   22.3037    2.7010   58.6439 N   0  0  0  0  0  0  0  0  0  0  0  0
   22.1561    2.8005   60.0843 C   0  0  0  0  0  0  0  0  0  0  0  0
   21.3378    1.6840   60.6131 C   0  0  0  0  0  0  0  0  0  0  0  0
   22.2423    0.4942   60.7001 C   0  0  0  0  0  0  0  0  0  0  0  0
   21.4205   -0.6211   61.2304 N   0  0  0  0  0  0  0  0  0  0  0  0
   21.3547   -0.5619   62.7228 C   0  0  0  0  0  0  0  0  0  0  0  0
   20.5236   -1.6988   63.3422 C   0  0  0  0  0  0  0  0  0  0  0  0
   19.1107   -1.8352   62.7478 C   0  0  0  0  0  0  0  0  0  0  0  0
   18.3844   -2.9759   63.4445 C   0  0  0  0  0  0  0  0  0  0  0  0
   18.0488   -2.4499   64.7758 N   0  0  0  0  0  0  0  0  0  0  0  0
   16.6842   -1.8886   64.9820 C   0  0  0  0  0  0  0  0  0  0  0  0
   16.7861   -1.4566   66.4609 C   0  0  0  0  0  0  0  0  0  0  0  0
   17.6544   -0.2756   66.8136 C   0  0  0  0  0  0  0  0  0  0  0  0
   17.8718   -0.0823   68.2368 N   0  0  0  0  0  0  0  0  0  0  0  0
  1  2  1  0  0  0  0
  2  3  1  0  0  0  0
  3  4  1  0  0  0  0
  4  5  1  0  0  0  0
  5  6  1  0  0  0  0
  6  7  1  0  0  0  0
  7  8  1  0  0  0  0
  8  9  1  0  0  0  0
  9 10  1  0  0  0  0
 10 11  1  0  0  0  0
 11 12  1  0  0  0  0
 12 13  1  0  0  0  0
 13 14  1  0  0  0  0
M  END
>  <CHROM.1>
79.64828072,179.96855912,-83.62298448,-179.59275763,-52.59794529,-179.43921283
73.74557621,96.61754895,-179.27920419,70.67740682,-169.98253388,19.70556390
-0.44055876,63.19986785,-0.03824190,0.98121457,0.50626448

>  <Name>
1xpf_lig

>  <RI>
0

>  <Rbt.Current_Directory>
/home/afrankz/demos/rdock_decoys_rna/rnas/1xpf

>  <Rbt.Executable>
rbdock ($Id: //depot/dev/client3/rdock/2013.1/src/exe/rbdock.cxx#4 $)

>  <Rbt.Library>
libRbt.so (2013.1, Build901 2013/11/27)

>  <Rbt.Parameter_File>
/export/apps/rDock/src/rDock_2013.1_src/data/scripts/dock_solv.prm

>  <Rbt.Receptor>
prm/pocket_docking_5.prm

>  <SCORE>
-11.6875

>  <SCORE.INTER>
-4.55515

>  <SCORE.INTER.CONST>
1

>  <SCORE.INTER.POLAR>
-2.71709

>  <SCORE.INTER.ROT>
11

>  <SCORE.INTER.SOLV>
13.1596

>  <SCORE.INTER.VDW>
-9.29966

>  <SCORE.INTER.norm>
-0.325368

>  <SCORE.INTRA>
-7.13234

>  <SCORE.INTRA.DIHEDRAL>
-13.5554

>  <SCORE.INTRA.DIHEDRAL.0>
17.7811

>  <SCORE.INTRA.POLAR>
0

>  <SCORE.INTRA.POLAR.0>
0

>  <SCORE.INTRA.REPUL>
0

>  <SCORE.INTRA.REPUL.0>
0

>  <SCORE.INTRA.SOLV>
1.02709

>  <SCORE.INTRA.SOLV.lig_0>
-47.9565

>  <SCORE.INTRA.VDW>
-0.868187

>  <SCORE.INTRA.VDW.0>
0.515983

>  <SCORE.INTRA.norm>
-0.509453

>  <SCORE.RESTR>
0

>  <SCORE.RESTR.CAVITY>
0

>  <SCORE.RESTR.norm>
0

>  <SCORE.SYSTEM>
0

>  <SCORE.SYSTEM.CONST>
0

>  <SCORE.SYSTEM.DIHEDRAL>
0

>  <SCORE.SYSTEM.SOLV>
0

>  <SCORE.SYSTEM.norm>
0

>  <SCORE.heavy>
14

>  <SCORE.norm>
-0.83482

>  <RMSD>
4.039

$$$$
1xpf_lig
 OpenBabel02141814123D
libRbt.so/2013.1/901 2013/11/27
 14 13  0  0  0  0  0  0  0  0999 V2000
   17.5170   -2.3854   64.7945 N   0  0  0  0  0  0  0  0  0  0  0  0
   16.4418   -1.4363   65.0163 C   0  0  0  0  0  0  0  0  0  0  0  0
   16.9560   -0.1796   65.6098 C   0  0  0  0  0  0  0  0  0  0  0  0
   17.4535   -0.5252   66.9789 C   0  0  0  0  0  0  0  0  0  0  0  0
   17.8360    0.7552   67.6231 N   0  0  0  0  0  0  0  0  0  0  0  0
   19.3162    0.8217   67.8218 C   0  0  0  0  0  0  0  0  0  0  0  0
   20.0743    1.3433   66.5889 C   0  0  0  0  0  0  0  0  0  0  0  0
   19.8870    2.8489   66.3311 C   0  0  0  0  0  0  0  0  0  0  0  0
   20.7217    3.2564   65.1264 C   0  0  0  0  0  0  0  0  0  0  0  0
   20.5700    4.7162   65.0409 N   0  0  0  0  0  0  0  0  0  0  0  0
   21.6054    5.4841   64.2938 C   0  0  0  0  0  0  0  0  0  0  0  0
   20.8434    5.7661   62.9808 C   0  0  0  0  0  0  0  0  0  0  0  0
   21.5814    6.4186   61.8395 C   0  0  0  0  0  0  0  0  0  0  0  0
   22.7031    5.6540   61.3225 N   0  0  0  0  0  0  0  0  0  0  0  0
  1  2  1  0  0  0  0
  2  3  1  0  0  0  0
  3  4  1  0  0  0  0
  4  5  1  0  0  0  0
  5  6  1  0  0  0  0
  6  7  1  0  0  0  0
  7  8  1  0  0  0  0
  8  9  1  0  0  0  0
  9 10  1  0  0  0  0
 10 11  1  0  0  0  0
 11 12  1  0  0  0  0
 12 13  1  0  0  0  0
 13 14  1  0  0  0  0
M  END
>  <CHROM.1>
-66.27669611,-174.23169541,-112.29480414,85.48607056,71.93463896,177.82088896
-175.06751468,158.91537678,103.19706532,-173.64750808,61.75993129,19.53615508
2.32420706,65.09790431,2.66746653,0.97932968,1.64049526

>  <Name>
1xpf_lig

>  <RI>
0

>  <Rbt.Current_Directory>
/home/afrankz/demos/rdock_decoys_rna/rnas/1xpf

>  <Rbt.Executable>
rbdock ($Id: //depot/dev/client3/rdock/2013.1/src/exe/rbdock.cxx#4 $)

>  <Rbt.Library>
libRbt.so (2013.1, Build901 2013/11/27)

>  <Rbt.Parameter_File>
/export/apps/rDock/src/rDock_2013.1_src/data/scripts/dock_solv.prm

>  <Rbt.Receptor>
prm/pocket_docking_4.prm

>  <SCORE>
-11.1238

>  <SCORE.INTER>
-3.33659

>  <SCORE.INTER.CONST>
1

>  <SCORE.INTER.POLAR>
-0.766759

>  <SCORE.INTER.ROT>
11

>  <SCORE.INTER.SOLV>
8.30771

>  <SCORE.INTER.VDW>
-13.3711

>  <SCORE.INTER.norm>
-0.238328

>  <SCORE.INTRA>
-7.81032

>  <SCORE.INTRA.DIHEDRAL>
-13.7887

>  <SCORE.INTRA.DIHEDRAL.0>
17.7811

>  <SCORE.INTRA.POLAR>
0

>  <SCORE.INTRA.POLAR.0>
0

>  <SCORE.INTRA.REPUL>
0

>  <SCORE.INTRA.REPUL.0>
0

>  <SCORE.INTRA.SOLV>
0.82893

>  <SCORE.INTRA.SOLV.lig_0>
-47.9565

>  <SCORE.INTRA.VDW>
-1.33042

>  <SCORE.INTRA.VDW.0>
0.515983

>  <SCORE.INTRA.norm>
-0.55788

>  <SCORE.RESTR>
0.0230965

>  <SCORE.RESTR.CAVITY>
0.0230965

>  <SCORE.RESTR.norm>
0.00164975

>  <SCORE.SYSTEM>
0

>  <SCORE.SYSTEM.CONST>
0

>  <SCORE.SYSTEM.DIHEDRAL>
0

>  <SCORE.SYSTEM.SOLV>
0

>  <SCORE.SYSTEM.norm>
0

>  <SCORE.heavy>
14

>  <SCORE.norm>
-0.794558

>  <RMSD>
4.075

$$$$
1xpf_lig
 OpenBabel02141814123D
libRbt.so/2013.1/901 2013/11/27
 14 13  0  0  0  0  0  0  0  0999 V2000
   15.7583   -5.6836   61.7230 N   0  0  0  0  0  0  0  0  0  0  0  0
   17.1489   -5.2857   61.6045 C   0  0  0  0  0  0  0  0  0  0  0  0
   17.7116   -4.9202   62.9257 C   0  0  0  0  0  0  0  0  0  0  0  0
   19.1033   -4.4277   62.6767 C   0  0  0  0  0  0  0  0  0  0  0  0
   19.6607   -4.0549   64.0000 N   0  0  0  0  0  0  0  0  0  0  0  0
   21.0952   -3.6542   63.8718 C   0  0  0  0  0  0  0  0  0  0  0  0
   21.5494   -2.6587   64.9533 C   0  0  0  0  0  0  0  0  0  0  0  0
   21.2055   -1.1925   64.6368 C   0  0  0  0  0  0  0  0  0  0  0  0
   20.2686   -0.6572   65.7092 C   0  0  0  0  0  0  0  0  0  0  0  0
   18.9684   -1.2774   65.4154 N   0  0  0  0  0  0  0  0  0  0  0  0
   17.7704   -0.7649   66.1378 C   0  0  0  0  0  0  0  0  0  0  0  0
   16.6994   -0.9187   65.0361 C   0  0  0  0  0  0  0  0  0  0  0  0
   16.8758   -0.1647   63.7425 C   0  0  0  0  0  0  0  0  0  0  0  0
   15.9047   -0.4876   62.7115 N   0  0  0  0  0  0  0  0  0  0  0  0
  1  2  1  0  0  0  0
  2  3  1  0  0  0  0
  3  4  1  0  0  0  0
  4  5  1  0  0  0  0
  5  6  1  0  0  0  0
  6  7  1  0  0  0  0
  7  8  1  0  0  0  0
  8  9  1  0  0  0  0
  9 10  1  0  0  0  0
 10 11  1  0  0  0  0
 11 12  1  0  0  0  0
 12 13  1  0  0  0  0
 13 14  1  0  0  0  0
M  END
>  <CHROM.1>
-175.68420846,179.66396145,175.32012968,152.33814239,-82.99321596,118.22376910
-74.31500829,-169.02832987,145.31567762,-60.59440616,173.27962660,18.55183328
-2.58188272,63.93907917,2.08525278,0.30886215,-2.63403168

>  <Name>
1xpf_lig

>  <RI>
0

>  <Rbt.Current_Directory>
/home/afrankz/demos/rdock_decoys_rna/rnas/1xpf

>  <Rbt.Executable>
rbdock ($Id: //depot/dev/client3/rdock/2013.1/src/exe/rbdock.cxx#4 $)

>  <Rbt.Library>
libRbt.so (2013.1, Build901 2013/11/27)

>  <Rbt.Parameter_File>
/export/apps/rDock/src/rDock_2013.1_src/data/scripts/dock_solv.prm

>  <Rbt.Receptor>
prm/pocket_docking_4.prm

>  <SCORE>
-6.97254

>  <SCORE.INTER>
-1.58577

>  <SCORE.INTER.CONST>
1

>  <SCORE.INTER.POLAR>
0

>  <SCORE.INTER.ROT>
11

>  <SCORE.INTER.SOLV>
4.95384

>  <SCORE.INTER.VDW>
-13.6418

>  <SCORE.INTER.norm>
-0.113269

>  <SCORE.INTRA>
-5.3899

>  <SCORE.INTRA.DIHEDRAL>
-7.53695

>  <SCORE.INTRA.DIHEDRAL.0>
17.7811

>  <SCORE.INTRA.POLAR>
0

>  <SCORE.INTRA.POLAR.0>
0

>  <SCORE.INTRA.REPUL>
0

>  <SCORE.INTRA.REPUL.0>
0

>  <SCORE.INTRA.SOLV>
1.82374

>  <SCORE.INTRA.SOLV.lig_0>
-47.9565

>  <SCORE.INTRA.VDW>
-2.53329

>  <SCORE.INTRA.VDW.0>
0.515983

>  <SCORE.INTRA.norm>
-0.384993

>  <SCORE.RESTR>
0.00312046

>  <SCORE.RESTR.CAVITY>
0.00312046

>  <SCORE.RESTR.norm>
0.00022289

>  <SCORE.SYSTEM>
0

>  <SCORE.SYSTEM.CONST>
0

>  <SCORE.SYSTEM.DIHEDRAL>
0

>  <SCORE.SYSTEM.SOLV>
0

>  <SCORE.SYSTEM.norm>
0

>  <SCORE.heavy>
14

>  <SCORE.norm>
-0.498039

>  <RMSD>
4.076

$$$$
1xpf_lig
 OpenBabel02141814123D
libRbt.so/2013.1/901 2013/11/27
 14 13  0  0  0  0  0  0  0  0999 V2000
   21.7799   -2.8833   63.3010 N   0  0  0  0  0  0  0  0  0  0  0  0
   20.6633   -2.1854   63.9111 C   0  0  0  0  0  0  0  0  0  0  0  0
   21.1196   -1.3290   65.0309 C   0  0  0  0  0  0  0  0  0  0  0  0
   19.8936   -0.6983   65.6145 C   0  0  0  0  0  0  0  0  0  0  0  0
   20.3531    0.1524   66.7396 N   0  0  0  0  0  0  0  0  0  0  0  0
   19.3921    1.2726   66.9778 C   0  0  0  0  0  0  0  0  0  0  0  0
   19.9312    2.6435   66.5341 C   0  0  0  0  0  0  0  0  0  0  0  0
   20.3137    2.7122   65.0450 C   0  0  0  0  0  0  0  0  0  0  0  0
   20.7652    4.1258   64.7107 C   0  0  0  0  0  0  0  0  0  0  0  0
   21.2108    4.0567   63.3114 N   0  0  0  0  0  0  0  0  0  0  0  0
   21.1976    5.3129   62.5106 C   0  0  0  0  0  0  0  0  0  0  0  0
   21.9328    4.8356   61.2395 C   0  0  0  0  0  0  0  0  0  0  0  0
   21.3447    3.6969   60.4456 C   0  0  0  0  0  0  0  0  0  0  0  0
   21.9799    3.4571   59.1614 N   0  0  0  0  0  0  0  0  0  0  0  0
  1  2  1  0  0  0  0
  2  3  1  0  0  0  0
  3  4  1  0  0  0  0
  4  5  1  0  0  0  0
  5  6  1  0  0  0  0
  6  7  1  0  0  0  0
  7  8  1  0  0  0  0
  8  9  1  0  0  0  0
  9 10  1  0  0  0  0
 10 11  1  0  0  0  0
 11 12  1  0  0  0  0
 12 13  1  0  0  0  0
 13 14  1  0  0  0  0
M  END
>  <CHROM.1>
-178.06251449,179.70075860,153.64750044,-107.71048466,58.25676191,177.23516608
175.39866742,155.88503095,171.31690683,59.64970466,170.63717322,20.84819389
1.79807689,63.89554944,-2.09045755,1.25714062,-0.16213429

>  <Name>
1xpf_lig

>  <RI>
0

>  <Rbt.Current_Directory>
/home/afrankz/demos/rdock_decoys_rna/rnas/1xpf

>  <Rbt.Executable>
rbdock ($Id: //depot/dev/client3/rdock/2013.1/src/exe/rbdock.cxx#4 $)

>  <Rbt.Library>
libRbt.so (2013.1, Build901 2013/11/27)

>  <Rbt.Parameter_File>
/export/apps/rDock/src/rDock_2013.1_src/data/scripts/dock_solv.prm

>  <Rbt.Receptor>
prm/pocket_docking_3.prm

>  <SCORE>
-10.2177

>  <SCORE.INTER>
-0.779316

>  <SCORE.INTER.CONST>
1

>  <SCORE.INTER.POLAR>
-0.712018

>  <SCORE.INTER.ROT>
11

>  <SCORE.INTER.SOLV>
12.6384

>  <SCORE.INTER.VDW>
-13.2923

>  <SCORE.INTER.norm>
-0.0556654

>  <SCORE.INTRA>
-9.43837

>  <SCORE.INTRA.DIHEDRAL>
-15.2727

>  <SCORE.INTRA.DIHEDRAL.0>
17.7811

>  <SCORE.INTRA.POLAR>
0

>  <SCORE.INTRA.POLAR.0>
0

>  <SCORE.INTRA.REPUL>
0

>  <SCORE.INTRA.REPUL.0>
0

>  <SCORE.INTRA.SOLV>
-0.123287

>  <SCORE.INTRA.SOLV.lig_0>
-47.9565

>  <SCORE.INTRA.VDW>
-1.74037

>  <SCORE.INTRA.VDW.0>
0.515983

>  <SCORE.INTRA.norm>
-0.674169

>  <SCORE.RESTR>
0

>  <SCORE.RESTR.CAVITY>
0

>  <SCORE.RESTR.norm>
0

>  <SCORE.SYSTEM>
0

>  <SCORE.SYSTEM.CONST>
0

>  <SCORE.SYSTEM.DIHEDRAL>
0

>  <SCORE.SYSTEM.SOLV>
0

>  <SCORE.SYSTEM.norm>
0

>  <SCORE.heavy>
14

>  <SCORE.norm>
-0.729834

>  <RMSD>
4.081

$$$$
1xpf_lig
 OpenBabel02141814123D
libRbt.so/2013.1/901 2013/11/27
 14 13  0  0  0  0  0  0  0  0999 V2000
   21.9895    7.1523   61.9656 N   0  0  0  0  0  0  0  0  0  0  0  0
   21.7486    6.7364   63.3350 C   0  0  0  0  0  0  0  0  0  0  0  0
   21.0432    5.4339   63.3787 C   0  0  0  0  0  0  0  0  0  0  0  0
   20.8781    5.0850   64.8252 C   0  0  0  0  0  0  0  0  0  0  0  0
   20.1916    3.7706   64.8651 N   0  0  0  0  0  0  0  0  0  0  0  0
   19.8121    3.4185   66.2676 C   0  0  0  0  0  0  0  0  0  0  0  0
   20.0564    1.9392   66.6125 C   0  0  0  0  0  0  0  0  0  0  0  0
   19.1681    0.9593   65.8255 C   0  0  0  0  0  0  0  0  0  0  0  0
   19.5162   -0.4650   66.2307 C   0  0  0  0  0  0  0  0  0  0  0  0
   20.8290   -0.7191   65.6196 N   0  0  0  0  0  0  0  0  0  0  0  0
   20.8675   -1.4649   64.3305 C   0  0  0  0  0  0  0  0  0  0  0  0
   22.2771   -1.0789   63.8323 C   0  0  0  0  0  0  0  0  0  0  0  0
   22.7040   -1.5150   62.4537 C   0  0  0  0  0  0  0  0  0  0  0  0
   21.9405   -0.9294   61.3654 N   0  0  0  0  0  0  0  0  0  0  0  0
  1  2  1  0  0  0  0
  2  3  1  0  0  0  0
  3  4  1  0  0  0  0
  4  5  1  0  0  0  0
  5  6  1  0  0  0  0
  6  7  1  0  0  0  0
  7  8  1  0  0  0  0
  8  9  1  0  0  0  0
  9 10  1  0  0  0  0
 10 11  1  0  0  0  0
 11 12  1  0  0  0  0
 12 13  1  0  0  0  0
 13 14  1  0  0  0  0
M  END
>  <CHROM.1>
178.58128798,-179.10039753,-172.28033107,-138.64920409,-65.78203612,178.96959056
-72.37405440,-98.37566872,161.21536058,-173.96380746,64.76637334,20.93001149
2.02294582,64.35089388,-1.55569272,-1.02160922,3.06952704

>  <Name>
1xpf_lig

>  <RI>
0

>  <Rbt.Current_Directory>
/home/afrankz/demos/rdock_decoys_rna/rnas/1xpf

>  <Rbt.Executable>
rbdock ($Id: //depot/dev/client3/rdock/2013.1/src/exe/rbdock.cxx#4 $)

>  <Rbt.Library>
libRbt.so (2013.1, Build901 2013/11/27)

>  <Rbt.Parameter_File>
/export/apps/rDock/src/rDock_2013.1_src/data/scripts/dock_solv.prm

>  <Rbt.Receptor>
prm/pocket_docking_3.prm

>  <SCORE>
-9.90928

>  <SCORE.INTER>
-1.10524

>  <SCORE.INTER.CONST>
1

>  <SCORE.INTER.POLAR>
-0.725681

>  <SCORE.INTER.ROT>
11

>  <SCORE.INTER.SOLV>
8.64675

>  <SCORE.INTER.VDW>
-12.1335

>  <SCORE.INTER.norm>
-0.0789457

>  <SCORE.INTRA>
-8.88617

>  <SCORE.INTRA.DIHEDRAL>
-14.7522

>  <SCORE.INTRA.DIHEDRAL.0>
17.7811

>  <SCORE.INTRA.POLAR>
0

>  <SCORE.INTRA.POLAR.0>
0

>  <SCORE.INTRA.REPUL>
0

>  <SCORE.INTRA.REPUL.0>
0

>  <SCORE.INTRA.SOLV>
0.388787

>  <SCORE.INTRA.SOLV.lig_0>
-47.9565

>  <SCORE.INTRA.VDW>
-1.70444

>  <SCORE.INTRA.VDW.0>
0.515983

>  <SCORE.INTRA.norm>
-0.634727

>  <SCORE.RESTR>
0.0821317

>  <SCORE.RESTR.CAVITY>
0.0821317

>  <SCORE.RESTR.norm>
0.00586655

>  <SCORE.SYSTEM>
0

>  <SCORE.SYSTEM.CONST>
0

>  <SCORE.SYSTEM.DIHEDRAL>
0

>  <SCORE.SYSTEM.SOLV>
0

>  <SCORE.SYSTEM.norm>
0

>  <SCORE.heavy>
14

>  <SCORE.norm>
-0.707806

>  <RMSD>
4.087

$$$$
1xpf_lig
 OpenBabel02141814123D
libRbt.so/2013.1/901 2013/11/27
 14 13  0  0  0  0  0  0  0  0999 V2000
   20.8961    3.7701   66.1854 N   0  0  0  0  0  0  0  0  0  0  0  0
   19.9258    3.1761   67.0864 C   0  0  0  0  0  0  0  0  0  0  0  0
   19.8862    1.7032   66.9289 C   0  0  0  0  0  0  0  0  0  0  0  0
   18.7718    1.2096   67.7983 C   0  0  0  0  0  0  0  0  0  0  0  0
   18.7477   -0.2666   67.6538 N   0  0  0  0  0  0  0  0  0  0  0  0
   17.8354   -0.6707   66.5406 C   0  0  0  0  0  0  0  0  0  0  0  0
   18.5795   -1.2211   65.3116 C   0  0  0  0  0  0  0  0  0  0  0  0
   17.6516   -1.6681   64.1680 C   0  0  0  0  0  0  0  0  0  0  0  0
   16.8442   -2.8743   64.6234 C   0  0  0  0  0  0  0  0  0  0  0  0
   16.0564   -3.2653   63.4453 N   0  0  0  0  0  0  0  0  0  0  0  0
   16.6235   -4.3019   62.5378 C   0  0  0  0  0  0  0  0  0  0  0  0
   16.0870   -3.8004   61.1796 C   0  0  0  0  0  0  0  0  0  0  0  0
   16.5877   -2.4834   60.6433 C   0  0  0  0  0  0  0  0  0  0  0  0
   15.9738   -2.0598   59.3967 N   0  0  0  0  0  0  0  0  0  0  0  0
  1  2  1  0  0  0  0
  2  3  1  0  0  0  0
  3  4  1  0  0  0  0
  4  5  1  0  0  0  0
  5  6  1  0  0  0  0
  6  7  1  0  0  0  0
  7  8  1  0  0  0  0
  8  9  1  0  0  0  0
  9 10  1  0  0  0  0
 10 11  1  0  0  0  0
 11 12  1  0  0  0  0
 12 13  1  0  0  0  0
 13 14  1  0  0  0  0
M  END
>  <CHROM.1>
-174.65765973,-179.18786399,-90.72121629,109.47816423,178.82118185,-66.42850515
-176.85398609,93.18959167,-146.10680786,66.05066968,-176.81976152,17.89048348
-0.91109522,64.53579787,-0.47262956,-1.09562277,-1.27099139

>  <Name>
1xpf_lig

>  <RI>
0

>  <Rbt.Current_Directory>
/home/afrankz/demos/rdock_decoys_rna/rnas/1xpf

>  <Rbt.Executable>
rbdock ($Id: //depot/dev/client3/rdock/2013.1/src/exe/rbdock.cxx#4 $)

>  <Rbt.Library>
libRbt.so (2013.1, Build901 2013/11/27)

>  <Rbt.Parameter_File>
/export/apps/rDock/src/rDock_2013.1_src/data/scripts/dock_solv.prm

>  <Rbt.Receptor>
prm/pocket_docking_5.prm

>  <SCORE>
-10.6299

>  <SCORE.INTER>
-2.62352

>  <SCORE.INTER.CONST>
1

>  <SCORE.INTER.POLAR>
-1.54061

>  <SCORE.INTER.ROT>
11

>  <SCORE.INTER.SOLV>
9.41258

>  <SCORE.INTER.VDW>
-10.6845

>  <SCORE.INTER.norm>
-0.187394

>  <SCORE.INTRA>
-8.00964

>  <SCORE.INTRA.DIHEDRAL>
-14.1264

>  <SCORE.INTRA.DIHEDRAL.0>
17.7811

>  <SCORE.INTRA.POLAR>
0

>  <SCORE.INTRA.POLAR.0>
0

>  <SCORE.INTRA.REPUL>
0

>  <SCORE.INTRA.REPUL.0>
0

>  <SCORE.INTRA.SOLV>
-0.287949

>  <SCORE.INTRA.SOLV.lig_0>
-47.9565

>  <SCORE.INTRA.VDW>
-0.802489

>  <SCORE.INTRA.VDW.0>
0.515983

>  <SCORE.INTRA.norm>
-0.572117

>  <SCORE.RESTR>
0.00327656

>  <SCORE.RESTR.CAVITY>
0.00327656

>  <SCORE.RESTR.norm>
0.00023404

>  <SCORE.SYSTEM>
0

>  <SCORE.SYSTEM.CONST>
0

>  <SCORE.SYSTEM.DIHEDRAL>
0

>  <SCORE.SYSTEM.SOLV>
0

>  <SCORE.SYSTEM.norm>
0

>  <SCORE.heavy>
14

>  <SCORE.norm>
-0.759277

>  <RMSD>
4.102

$$$$
1xpf_lig
 OpenBabel02141814123D
libRbt.so/2013.1/901 2013/11/27
 14 13  0  0  0  0  0  0  0  0999 V2000
   22.3284    2.6962   58.5932 N   0  0  0  0  0  0  0  0  0  0  0  0
   22.6173    2.8973   60.0012 C   0  0  0  0  0  0  0  0  0  0  0  0
   21.3676    2.9986   60.7910 C   0  0  0  0  0  0  0  0  0  0  0  0
   21.7758    3.0837   62.2289 C   0  0  0  0  0  0  0  0  0  0  0  0
   20.5260    3.0198   63.0255 N   0  0  0  0  0  0  0  0  0  0  0  0
   20.8219    2.6238   64.4364 C   0  0  0  0  0  0  0  0  0  0  0  0
   19.7249    3.0428   65.4303 C   0  0  0  0  0  0  0  0  0  0  0  0
   20.0330    2.6748   66.8925 C   0  0  0  0  0  0  0  0  0  0  0  0
   19.9431    1.1651   67.0564 C   0  0  0  0  0  0  0  0  0  0  0  0
   18.5148    0.8546   66.8984 N   0  0  0  0  0  0  0  0  0  0  0  0
   18.0895   -0.5669   67.0321 C   0  0  0  0  0  0  0  0  0  0  0  0
   17.3750   -0.7679   65.6781 C   0  0  0  0  0  0  0  0  0  0  0  0
   16.7012   -2.0880   65.4023 C   0  0  0  0  0  0  0  0  0  0  0  0
   16.1627   -2.2289   64.0605 N   0  0  0  0  0  0  0  0  0  0  0  0
  1  2  1  0  0  0  0
  2  3  1  0  0  0  0
  3  4  1  0  0  0  0
  4  5  1  0  0  0  0
  5  6  1  0  0  0  0
  6  7  1  0  0  0  0
  7  8  1  0  0  0  0
  8  9  1  0  0  0  0
  9 10  1  0  0  0  0
 10 11  1  0  0  0  0
 11 12  1  0  0  0  0
 12 13  1  0  0  0  0
 13 14  1  0  0  0  0
M  END
>  <CHROM.1>
175.20223811,-173.33143360,160.38263114,157.94331148,-178.46735442,-70.25752914
-68.82754230,-178.89908315,-124.15902775,-176.70511545,-174.62405941,19.71307406
1.38619313,64.10944634,0.60135134,-0.85123311,-1.82782462

>  <Name>
1xpf_lig

>  <RI>
0

>  <Rbt.Current_Directory>
/home/afrankz/demos/rdock_decoys_rna/rnas/1xpf

>  <Rbt.Executable>
rbdock ($Id: //depot/dev/client3/rdock/2013.1/src/exe/rbdock.cxx#4 $)

>  <Rbt.Library>
libRbt.so (2013.1, Build901 2013/11/27)

>  <Rbt.Parameter_File>
/export/apps/rDock/src/rDock_2013.1_src/data/scripts/dock_solv.prm

>  <Rbt.Receptor>
prm/pocket_docking_5.prm

>  <SCORE>
-10.3798

>  <SCORE.INTER>
-1.59553

>  <SCORE.INTER.CONST>
1

>  <SCORE.INTER.POLAR>
-1.2244

>  <SCORE.INTER.ROT>
11

>  <SCORE.INTER.SOLV>
10.9102

>  <SCORE.INTER.VDW>
-11.5524

>  <SCORE.INTER.norm>
-0.113966

>  <SCORE.INTRA>
-8.78423

>  <SCORE.INTRA.DIHEDRAL>
-14.8149

>  <SCORE.INTRA.DIHEDRAL.0>
17.7811

>  <SCORE.INTRA.POLAR>
0

>  <SCORE.INTRA.POLAR.0>
0

>  <SCORE.INTRA.REPUL>
0

>  <SCORE.INTRA.REPUL.0>
0

>  <SCORE.INTRA.SOLV>
-0.293744

>  <SCORE.INTRA.SOLV.lig_0>
-47.9565

>  <SCORE.INTRA.VDW>
-1.22989

>  <SCORE.INTRA.VDW.0>
0.515983

>  <SCORE.INTRA.norm>
-0.627445

>  <SCORE.RESTR>
0

>  <SCORE.RESTR.CAVITY>
0

>  <SCORE.RESTR.norm>
0

>  <SCORE.SYSTEM>
0

>  <SCORE.SYSTEM.CONST>
0

>  <SCORE.SYSTEM.DIHEDRAL>
0

>  <SCORE.SYSTEM.SOLV>
0

>  <SCORE.SYSTEM.norm>
0

>  <SCORE.heavy>
14

>  <SCORE.norm>
-0.741411

>  <RMSD>
4.108

$$$$
1xpf_lig
 OpenBabel02141814123D
libRbt.so/2013.1/901 2013/11/27
 14 13  0  0  0  0  0  0  0  0999 V2000
   18.5499   -0.5333   67.5236 N   0  0  0  0  0  0  0  0  0  0  0  0
   19.2792    0.6570   67.1266 C   0  0  0  0  0  0  0  0  0  0  0  0
   19.6617    0.5937   65.6964 C   0  0  0  0  0  0  0  0  0  0  0  0
   20.6382   -0.5333   65.5640 C   0  0  0  0  0  0  0  0  0  0  0  0
   21.2146   -0.4326   64.2008 N   0  0  0  0  0  0  0  0  0  0  0  0
   22.0781   -1.6170   63.9067 C   0  0  0  0  0  0  0  0  0  0  0  0
   21.3523   -2.7200   63.1171 C   0  0  0  0  0  0  0  0  0  0  0  0
   20.2059   -3.3924   63.8930 C   0  0  0  0  0  0  0  0  0  0  0  0
   19.5127   -4.3983   62.9865 C   0  0  0  0  0  0  0  0  0  0  0  0
   18.4024   -4.9271   63.7921 N   0  0  0  0  0  0  0  0  0  0  0  0
   17.1947   -5.4257   63.0762 C   0  0  0  0  0  0  0  0  0  0  0  0
   16.2762   -5.7431   64.2761 C   0  0  0  0  0  0  0  0  0  0  0  0
   14.9033   -6.3063   64.0097 C   0  0  0  0  0  0  0  0  0  0  0  0
   14.0364   -5.4505   63.2184 N   0  0  0  0  0  0  0  0  0  0  0  0
  1  2  1  0  0  0  0
  2  3  1  0  0  0  0
  3  4  1  0  0  0  0
  4  5  1  0  0  0  0
  5  6  1  0  0  0  0
  6  7  1  0  0  0  0
  7  8  1  0  0  0  0
  8  9  1  0  0  0  0
  9 10  1  0  0  0  0
 10 11  1  0  0  0  0
 11 12  1  0  0  0  0
 12 13  1  0  0  0  0
 13 14  1  0  0  0  0
M  END
>  <CHROM.1>
-65.70202171,-169.39818414,-172.90863085,96.70201484,-65.77602411,176.53264194
-177.15961121,152.47709143,-174.97077512,-179.36055714,-60.53667795,18.80785424
-2.87351229,64.45613906,0.82144245,0.37594571,0.66702978

>  <Name>
1xpf_lig

>  <RI>
0

>  <Rbt.Current_Directory>
/home/afrankz/demos/rdock_decoys_rna/rnas/1xpf

>  <Rbt.Executable>
rbdock ($Id: //depot/dev/client3/rdock/2013.1/src/exe/rbdock.cxx#4 $)

>  <Rbt.Library>
libRbt.so (2013.1, Build901 2013/11/27)

>  <Rbt.Parameter_File>
/export/apps/rDock/src/rDock_2013.1_src/data/scripts/dock_solv.prm

>  <Rbt.Receptor>
prm/pocket_docking_4.prm

>  <SCORE>
-11.8198

>  <SCORE.INTER>
-2.95596

>  <SCORE.INTER.CONST>
1

>  <SCORE.INTER.POLAR>
-0.752623

>  <SCORE.INTER.ROT>
11

>  <SCORE.INTER.SOLV>
9.19301

>  <SCORE.INTER.VDW>
-13.4596

>  <SCORE.INTER.norm>
-0.21114

>  <SCORE.INTRA>
-8.8638

>  <SCORE.INTRA.DIHEDRAL>
-15.6457

>  <SCORE.INTRA.DIHEDRAL.0>
17.7811

>  <SCORE.INTRA.POLAR>
0

>  <SCORE.INTRA.POLAR.0>
0

>  <SCORE.INTRA.REPUL>
0

>  <SCORE.INTRA.REPUL.0>
0

>  <SCORE.INTRA.SOLV>
0.86245

>  <SCORE.INTRA.SOLV.lig_0>
-47.9565

>  <SCORE.INTRA.VDW>
-1.47219

>  <SCORE.INTRA.VDW.0>
0.515983

>  <SCORE.INTRA.norm>
-0.633128

>  <SCORE.RESTR>
0

>  <SCORE.RESTR.CAVITY>
0

>  <SCORE.RESTR.norm>
0

>  <SCORE.SYSTEM>
0

>  <SCORE.SYSTEM.CONST>
0

>  <SCORE.SYSTEM.DIHEDRAL>
0

>  <SCORE.SYSTEM.SOLV>
0

>  <SCORE.SYSTEM.norm>
0

>  <SCORE.heavy>
14

>  <SCORE.norm>
-0.844268

>  <RMSD>
4.114

$$$$
1xpf_lig
 OpenBabel02141814123D
libRbt.so/2013.1/901 2013/11/27
 14 13  0  0  0  0  0  0  0  0999 V2000
   16.3300   -4.4782   68.6924 N   0  0  0  0  0  0  0  0  0  0  0  0
   17.0545   -3.2382   68.4834 C   0  0  0  0  0  0  0  0  0  0  0  0
   16.1406   -2.1552   68.0501 C   0  0  0  0  0  0  0  0  0  0  0  0
   16.9694   -0.9129   67.9437 C   0  0  0  0  0  0  0  0  0  0  0  0
   17.8171   -1.0749   66.7371 N   0  0  0  0  0  0  0  0  0  0  0  0
   19.1647   -0.4658   66.9562 C   0  0  0  0  0  0  0  0  0  0  0  0
   19.1946    1.0528   66.7122 C   0  0  0  0  0  0  0  0  0  0  0  0
   19.9957    1.4696   65.4660 C   0  0  0  0  0  0  0  0  0  0  0  0
   19.8472    2.9689   65.2559 C   0  0  0  0  0  0  0  0  0  0  0  0
   20.5469    3.2422   63.9921 N   0  0  0  0  0  0  0  0  0  0  0  0
   20.2986    4.5506   63.3244 C   0  0  0  0  0  0  0  0  0  0  0  0
   21.4174    5.4014   63.9637 C   0  0  0  0  0  0  0  0  0  0  0  0
   21.5630    6.8421   63.5440 C   0  0  0  0  0  0  0  0  0  0  0  0
   22.6012    7.5788   64.2437 N   0  0  0  0  0  0  0  0  0  0  0  0
  1  2  1  0  0  0  0
  2  3  1  0  0  0  0
  3  4  1  0  0  0  0
  4  5  1  0  0  0  0
  5  6  1  0  0  0  0
  6  7  1  0  0  0  0
  7  8  1  0  0  0  0
  8  9  1  0  0  0  0
  9 10  1  0  0  0  0
 10 11  1  0  0  0  0
 11 12  1  0  0  0  0
 12 13  1  0  0  0  0
 13 14  1  0  0  0  0
M  END
>  <CHROM.1>
176.70584932,72.55438760,-144.06958513,-82.85132555,-110.94593394,174.80441535
-175.37115969,164.80025054,90.52054154,178.84788393,177.26323007,19.21002343
1.48444056,65.95465774,2.90732302,1.10992430,1.37075774

>  <Name>
1xpf_lig

>  <RI>
0

>  <Rbt.Current_Directory>
/home/afrankz/demos/rdock_decoys_rna/rnas/1xpf

>  <Rbt.Executable>
rbdock ($Id: //depot/dev/client3/rdock/2013.1/src/exe/rbdock.cxx#4 $)

>  <Rbt.Library>
libRbt.so (2013.1, Build901 2013/11/27)

>  <Rbt.Parameter_File>
/export/apps/rDock/src/rDock_2013.1_src/data/scripts/dock_solv.prm

>  <Rbt.Receptor>
prm/blind_docking_100.prm

>  <SCORE>
-3.44246

>  <SCORE.INTER>
2.5174

>  <SCORE.INTER.CONST>
1

>  <SCORE.INTER.POLAR>
0

>  <SCORE.INTER.ROT>
11

>  <SCORE.INTER.SOLV>
10.46

>  <SCORE.INTER.VDW>
-12.7417

>  <SCORE.INTER.norm>
0.179815

>  <SCORE.INTRA>
-6.04102

>  <SCORE.INTRA.DIHEDRAL>
-9.76235

>  <SCORE.INTRA.DIHEDRAL.0>
17.7811

>  <SCORE.INTRA.POLAR>
0

>  <SCORE.INTRA.POLAR.0>
0

>  <SCORE.INTRA.REPUL>
0

>  <SCORE.INTRA.REPUL.0>
0

>  <SCORE.INTRA.SOLV>
-0.335537

>  <SCORE.INTRA.SOLV.lig_0>
-47.9565

>  <SCORE.INTRA.VDW>
-0.992075

>  <SCORE.INTRA.VDW.0>
0.515983

>  <SCORE.INTRA.norm>
-0.431501

>  <SCORE.RESTR>
0.0811555

>  <SCORE.RESTR.CAVITY>
0.0811555

>  <SCORE.RESTR.norm>
0.00579682

>  <SCORE.SYSTEM>
0

>  <SCORE.SYSTEM.CONST>
0

>  <SCORE.SYSTEM.DIHEDRAL>
0

>  <SCORE.SYSTEM.SOLV>
0

>  <SCORE.SYSTEM.norm>
0

>  <SCORE.heavy>
14

>  <SCORE.norm>
-0.24589

>  <RMSD>
4.123

$$$$
1xpf_lig
 OpenBabel02141814123D
libRbt.so/2013.1/901 2013/11/27
 14 13  0  0  0  0  0  0  0  0999 V2000
   21.0060    4.8125   64.9661 N   0  0  0  0  0  0  0  0  0  0  0  0
   20.5492    4.0092   66.0851 C   0  0  0  0  0  0  0  0  0  0  0  0
   20.2311    2.6279   65.6531 C   0  0  0  0  0  0  0  0  0  0  0  0
   19.7571    1.8971   66.8707 C   0  0  0  0  0  0  0  0  0  0  0  0
   19.3268    0.5530   66.4138 N   0  0  0  0  0  0  0  0  0  0  0  0
   18.0774    0.1333   67.1192 C   0  0  0  0  0  0  0  0  0  0  0  0
   17.8119   -1.3801   67.0412 C   0  0  0  0  0  0  0  0  0  0  0  0
   16.5566   -1.8344   67.8068 C   0  0  0  0  0  0  0  0  0  0  0  0
   16.5885   -3.3472   67.9642 C   0  0  0  0  0  0  0  0  0  0  0  0
   16.5141   -3.8692   66.5918 N   0  0  0  0  0  0  0  0  0  0  0  0
   16.5369   -5.3469   66.4038 C   0  0  0  0  0  0  0  0  0  0  0  0
   16.7188   -5.4257   64.8725 C   0  0  0  0  0  0  0  0  0  0  0  0
   15.6259   -4.8888   63.9835 C   0  0  0  0  0  0  0  0  0  0  0  0
   15.8915   -4.9946   62.5593 N   0  0  0  0  0  0  0  0  0  0  0  0
  1  2  1  0  0  0  0
  2  3  1  0  0  0  0
  3  4  1  0  0  0  0
  4  5  1  0  0  0  0
  5  6  1  0  0  0  0
  6  7  1  0  0  0  0
  7  8  1  0  0  0  0
  8  9  1  0  0  0  0
  9 10  1  0  0  0  0
 10 11  1  0  0  0  0
 11 12  1  0  0  0  0
 12 13  1  0  0  0  0
 13 14  1  0  0  0  0
M  END
>  <CHROM.1>
-179.29148929,175.13092088,-139.80457769,-162.04517247,177.87106921,-165.59232021
-63.88795599,179.47426085,-169.53156734,-64.20573728,179.43809862,17.94217390
-1.21827746,66.02401341,-0.23620391,-1.08784513,-1.74432061

>  <Name>
1xpf_lig

>  <RI>
0

>  <Rbt.Current_Directory>
/home/afrankz/demos/rdock_decoys_rna/rnas/1xpf

>  <Rbt.Executable>
rbdock ($Id: //depot/dev/client3/rdock/2013.1/src/exe/rbdock.cxx#4 $)

>  <Rbt.Library>
libRbt.so (2013.1, Build901 2013/11/27)

>  <Rbt.Parameter_File>
/export/apps/rDock/src/rDock_2013.1_src/data/scripts/dock_solv.prm

>  <Rbt.Receptor>
prm/blind_docking_80.prm

>  <SCORE>
-11.6756

>  <SCORE.INTER>
-2.54194

>  <SCORE.INTER.CONST>
1

>  <SCORE.INTER.POLAR>
0

>  <SCORE.INTER.ROT>
11

>  <SCORE.INTER.SOLV>
6.66423

>  <SCORE.INTER.VDW>
-14.8494

>  <SCORE.INTER.norm>
-0.181567

>  <SCORE.INTRA>
-9.1337

>  <SCORE.INTRA.DIHEDRAL>
-15.4782

>  <SCORE.INTRA.DIHEDRAL.0>
17.7811

>  <SCORE.INTRA.POLAR>
0

>  <SCORE.INTRA.POLAR.0>
0

>  <SCORE.INTRA.REPUL>
0

>  <SCORE.INTRA.REPUL.0>
0

>  <SCORE.INTRA.SOLV>
-0.0643525

>  <SCORE.INTRA.SOLV.lig_0>
-47.9565

>  <SCORE.INTRA.VDW>
-1.36243

>  <SCORE.INTRA.VDW.0>
0.515983

>  <SCORE.INTRA.norm>
-0.652407

>  <SCORE.RESTR>
0

>  <SCORE.RESTR.CAVITY>
0

>  <SCORE.RESTR.norm>
0

>  <SCORE.SYSTEM>
0

>  <SCORE.SYSTEM.CONST>
0

>  <SCORE.SYSTEM.DIHEDRAL>
0

>  <SCORE.SYSTEM.SOLV>
0

>  <SCORE.SYSTEM.norm>
0

>  <SCORE.heavy>
14

>  <SCORE.norm>
-0.833974

>  <RMSD>
4.125

$$$$
1xpf_lig
 OpenBabel02141814123D
libRbt.so/2013.1/901 2013/11/27
 14 13  0  0  0  0  0  0  0  0999 V2000
   16.1214   -1.1768   63.9491 N   0  0  0  0  0  0  0  0  0  0  0  0
   17.1464   -0.6716   64.8437 C   0  0  0  0  0  0  0  0  0  0  0  0
   18.2007   -1.6877   65.0717 C   0  0  0  0  0  0  0  0  0  0  0  0
   19.2558   -1.0299   65.9056 C   0  0  0  0  0  0  0  0  0  0  0  0
   18.7339   -0.9951   67.2938 N   0  0  0  0  0  0  0  0  0  0  0  0
   18.2953    0.3876   67.6557 C   0  0  0  0  0  0  0  0  0  0  0  0
   19.4598    1.3864   67.7702 C   0  0  0  0  0  0  0  0  0  0  0  0
   19.0506    2.7618   68.3265 C   0  0  0  0  0  0  0  0  0  0  0  0
   20.1452    3.7714   68.0155 C   0  0  0  0  0  0  0  0  0  0  0  0
   20.0730    3.9671   66.5601 N   0  0  0  0  0  0  0  0  0  0  0  0
   21.2186    4.6419   65.8879 C   0  0  0  0  0  0  0  0  0  0  0  0
   20.7372    4.6035   64.4213 C   0  0  0  0  0  0  0  0  0  0  0  0
   21.6338    5.1672   63.3484 C   0  0  0  0  0  0  0  0  0  0  0  0
   21.9811    6.5675   63.5178 N   0  0  0  0  0  0  0  0  0  0  0  0
  1  2  1  0  0  0  0
  2  3  1  0  0  0  0
  3  4  1  0  0  0  0
  4  5  1  0  0  0  0
  5  6  1  0  0  0  0
  6  7  1  0  0  0  0
  7  8  1  0  0  0  0
  8  9  1  0  0  0  0
  9 10  1  0  0  0  0
 10 11  1  0  0  0  0
 11 12  1  0  0  0  0
 12 13  1  0  0  0  0
 13 14  1  0  0  0  0
M  END
>  <CHROM.1>
175.32686144,77.20727986,-105.16007142,-68.08987257,-172.11309471,-163.35462578
70.18838411,-165.41783765,178.89707509,-178.42254478,-58.88089567,19.43241156
1.97804347,65.89789394,2.95389347,1.05815257,1.63022655

>  <Name>
1xpf_lig

>  <RI>
0

>  <Rbt.Current_Directory>
/home/afrankz/demos/rdock_decoys_rna/rnas/1xpf

>  <Rbt.Executable>
rbdock ($Id: //depot/dev/client3/rdock/2013.1/src/exe/rbdock.cxx#4 $)

>  <Rbt.Library>
libRbt.so (2013.1, Build901 2013/11/27)

>  <Rbt.Parameter_File>
/export/apps/rDock/src/rDock_2013.1_src/data/scripts/dock_solv.prm

>  <Rbt.Receptor>
prm/pocket_docking_8.prm

>  <SCORE>
-8.05081

>  <SCORE.INTER>
-1.029

>  <SCORE.INTER.CONST>
1

>  <SCORE.INTER.POLAR>
-0.723369

>  <SCORE.INTER.ROT>
11

>  <SCORE.INTER.SOLV>
7.3318

>  <SCORE.INTER.VDW>
-11.652

>  <SCORE.INTER.norm>
-0.0735

>  <SCORE.INTRA>
-7.02181

>  <SCORE.INTRA.DIHEDRAL>
-13.6839

>  <SCORE.INTRA.DIHEDRAL.0>
17.7811

>  <SCORE.INTRA.POLAR>
0

>  <SCORE.INTRA.POLAR.0>
0

>  <SCORE.INTRA.REPUL>
0

>  <SCORE.INTRA.REPUL.0>
0

>  <SCORE.INTRA.SOLV>
0.725862

>  <SCORE.INTRA.SOLV.lig_0>
-47.9565

>  <SCORE.INTRA.VDW>
-0.54279

>  <SCORE.INTRA.VDW.0>
0.515983

>  <SCORE.INTRA.norm>
-0.501558

>  <SCORE.RESTR>
0

>  <SCORE.RESTR.CAVITY>
0

>  <SCORE.RESTR.norm>
0

>  <SCORE.SYSTEM>
0

>  <SCORE.SYSTEM.CONST>
0

>  <SCORE.SYSTEM.DIHEDRAL>
0

>  <SCORE.SYSTEM.SOLV>
0

>  <SCORE.SYSTEM.norm>
0

>  <SCORE.heavy>
14

>  <SCORE.norm>
-0.575058

>  <RMSD>
4.159

$$$$
1xpf_lig
 OpenBabel02141814123D
libRbt.so/2013.1/901 2013/11/27
 14 13  0  0  0  0  0  0  0  0999 V2000
   17.7510   -0.2539   68.3257 N   0  0  0  0  0  0  0  0  0  0  0  0
   17.1029   -0.7492   67.1255 C   0  0  0  0  0  0  0  0  0  0  0  0
   18.0688   -0.8607   66.0072 C   0  0  0  0  0  0  0  0  0  0  0  0
   17.3054   -1.3910   64.8336 C   0  0  0  0  0  0  0  0  0  0  0  0
   18.2786   -1.5180   63.7213 N   0  0  0  0  0  0  0  0  0  0  0  0
   17.5725   -1.5262   62.4036 C   0  0  0  0  0  0  0  0  0  0  0  0
   18.5266   -1.6275   61.2009 C   0  0  0  0  0  0  0  0  0  0  0  0
   19.5809   -0.5078   61.1439 C   0  0  0  0  0  0  0  0  0  0  0  0
   20.1899   -0.4666   59.7505 C   0  0  0  0  0  0  0  0  0  0  0  0
   21.1716    0.6266   59.8019 N   0  0  0  0  0  0  0  0  0  0  0  0
   20.6606    2.0189   59.9431 C   0  0  0  0  0  0  0  0  0  0  0  0
   21.9939    2.7950   60.0076 C   0  0  0  0  0  0  0  0  0  0  0  0
   21.9547    4.2899   60.1997 C   0  0  0  0  0  0  0  0  0  0  0  0
   23.2566    4.9246   60.3103 N   0  0  0  0  0  0  0  0  0  0  0  0
  1  2  1  0  0  0  0
  2  3  1  0  0  0  0
  3  4  1  0  0  0  0
  4  5  1  0  0  0  0
  5  6  1  0  0  0  0
  6  7  1  0  0  0  0
  7  8  1  0  0  0  0
  8  9  1  0  0  0  0
  9 10  1  0  0  0  0
 10 11  1  0  0  0  0
 11 12  1  0  0  0  0
 12 13  1  0  0  0  0
 13 14  1  0  0  0  0
M  END
>  <CHROM.1>
179.36480760,-179.28175377,-158.28790564,178.84465100,-57.09256103,-163.87587991
179.89414847,-68.08640356,177.92703448,-178.05676123,177.26584847,19.52932568
0.41078084,62.48368543,-2.66856585,-0.96136061,-2.00913577

>  <Name>
1xpf_lig

>  <RI>
0

>  <Rbt.Current_Directory>
/home/afrankz/demos/rdock_decoys_rna/rnas/1xpf

>  <Rbt.Executable>
rbdock ($Id: //depot/dev/client3/rdock/2013.1/src/exe/rbdock.cxx#4 $)

>  <Rbt.Library>
libRbt.so (2013.1, Build901 2013/11/27)

>  <Rbt.Parameter_File>
/export/apps/rDock/src/rDock_2013.1_src/data/scripts/dock_solv.prm

>  <Rbt.Receptor>
prm/pocket_docking_5.prm

>  <SCORE>
-11.9132

>  <SCORE.INTER>
-2.58574

>  <SCORE.INTER.CONST>
1

>  <SCORE.INTER.POLAR>
-1.89033

>  <SCORE.INTER.ROT>
11

>  <SCORE.INTER.SOLV>
9.65724

>  <SCORE.INTER.VDW>
-9.57514

>  <SCORE.INTER.norm>
-0.184695

>  <SCORE.INTRA>
-9.32751

>  <SCORE.INTRA.DIHEDRAL>
-16.2705

>  <SCORE.INTRA.DIHEDRAL.0>
17.7811

>  <SCORE.INTRA.POLAR>
0

>  <SCORE.INTRA.POLAR.0>
0

>  <SCORE.INTRA.REPUL>
0

>  <SCORE.INTRA.REPUL.0>
0

>  <SCORE.INTRA.SOLV>
-0.622326

>  <SCORE.INTRA.SOLV.lig_0>
-47.9565

>  <SCORE.INTRA.VDW>
-0.881094

>  <SCORE.INTRA.VDW.0>
0.515983

>  <SCORE.INTRA.norm>
-0.666251

>  <SCORE.RESTR>
0

>  <SCORE.RESTR.CAVITY>
0

>  <SCORE.RESTR.norm>
0

>  <SCORE.SYSTEM>
0

>  <SCORE.SYSTEM.CONST>
0

>  <SCORE.SYSTEM.DIHEDRAL>
0

>  <SCORE.SYSTEM.SOLV>
0

>  <SCORE.SYSTEM.norm>
0

>  <SCORE.heavy>
14

>  <SCORE.norm>
-0.850946

>  <RMSD>
4.175

$$$$
1xpf_lig
 OpenBabel02141814123D
libRbt.so/2013.1/901 2013/11/27
 14 13  0  0  0  0  0  0  0  0999 V2000
   19.0552    0.5500   60.8397 N   0  0  0  0  0  0  0  0  0  0  0  0
   19.5219   -0.1090   59.6339 C   0  0  0  0  0  0  0  0  0  0  0  0
   20.1489   -1.4139   59.9499 C   0  0  0  0  0  0  0  0  0  0  0  0
   21.3861   -1.1145   60.7380 C   0  0  0  0  0  0  0  0  0  0  0  0
   21.9797   -2.4242   61.1030 N   0  0  0  0  0  0  0  0  0  0  0  0
   22.7527   -2.3138   62.3778 C   0  0  0  0  0  0  0  0  0  0  0  0
   21.8593   -2.2234   63.6270 C   0  0  0  0  0  0  0  0  0  0  0  0
   21.0275   -3.4905   63.8931 C   0  0  0  0  0  0  0  0  0  0  0  0
   19.8606   -3.5351   62.9182 C   0  0  0  0  0  0  0  0  0  0  0  0
   19.2136   -4.8319   63.1660 N   0  0  0  0  0  0  0  0  0  0  0  0
   17.7642   -4.8354   63.5105 C   0  0  0  0  0  0  0  0  0  0  0  0
   17.2019   -5.6453   62.3222 C   0  0  0  0  0  0  0  0  0  0  0  0
   17.1549   -4.9988   60.9611 C   0  0  0  0  0  0  0  0  0  0  0  0
   16.2401   -3.8758   60.8509 N   0  0  0  0  0  0  0  0  0  0  0  0
  1  2  1  0  0  0  0
  2  3  1  0  0  0  0
  3  4  1  0  0  0  0
  4  5  1  0  0  0  0
  5  6  1  0  0  0  0
  6  7  1  0  0  0  0
  7  8  1  0  0  0  0
  8  9  1  0  0  0  0
  9 10  1  0  0  0  0
 10 11  1  0  0  0  0
 11 12  1  0  0  0  0
 12 13  1  0  0  0  0
 13 14  1  0  0  0  0
M  END
>  <CHROM.1>
-65.92293382,177.60975462,-151.81398704,74.90780245,65.06121324,-75.94037520
174.70252521,124.07108180,118.14080520,-72.11133064,-66.30936440,19.65498607
-2.87593217,61.84951725,0.72458024,-0.41328475,-0.69652691

>  <Name>
1xpf_lig

>  <RI>
0

>  <Rbt.Current_Directory>
/home/afrankz/demos/rdock_decoys_rna/rnas/1xpf

>  <Rbt.Executable>
rbdock ($Id: //depot/dev/client3/rdock/2013.1/src/exe/rbdock.cxx#4 $)

>  <Rbt.Library>
libRbt.so (2013.1, Build901 2013/11/27)

>  <Rbt.Parameter_File>
/export/apps/rDock/src/rDock_2013.1_src/data/scripts/dock_solv.prm

>  <Rbt.Receptor>
prm/pocket_docking_4.prm

>  <SCORE>
-6.09145

>  <SCORE.INTER>
-0.0213969

>  <SCORE.INTER.CONST>
1

>  <SCORE.INTER.POLAR>
0

>  <SCORE.INTER.ROT>
11

>  <SCORE.INTER.SOLV>
6.47914

>  <SCORE.INTER.VDW>
-13.1073

>  <SCORE.INTER.norm>
-0.00152835

>  <SCORE.INTRA>
-6.07006

>  <SCORE.INTRA.DIHEDRAL>
-12.6344

>  <SCORE.INTRA.DIHEDRAL.0>
17.7811

>  <SCORE.INTRA.POLAR>
0

>  <SCORE.INTRA.POLAR.0>
0

>  <SCORE.INTRA.REPUL>
0

>  <SCORE.INTRA.REPUL.0>
0

>  <SCORE.INTRA.SOLV>
2.89549

>  <SCORE.INTRA.SOLV.lig_0>
-47.9565

>  <SCORE.INTRA.VDW>
-1.20061

>  <SCORE.INTRA.VDW.0>
0.515983

>  <SCORE.INTRA.norm>
-0.433575

>  <SCORE.RESTR>
0

>  <SCORE.RESTR.CAVITY>
0

>  <SCORE.RESTR.norm>
0

>  <SCORE.SYSTEM>
0

>  <SCORE.SYSTEM.CONST>
0

>  <SCORE.SYSTEM.DIHEDRAL>
0

>  <SCORE.SYSTEM.SOLV>
0

>  <SCORE.SYSTEM.norm>
0

>  <SCORE.heavy>
14

>  <SCORE.norm>
-0.435104

>  <RMSD>
4.185

$$$$
1xpf_lig
 OpenBabel02141814123D
libRbt.so/2013.1/901 2013/11/27
 14 13  0  0  0  0  0  0  0  0999 V2000
   22.3952    2.7326   58.5444 N   0  0  0  0  0  0  0  0  0  0  0  0
   22.4554    2.9919   59.9711 C   0  0  0  0  0  0  0  0  0  0  0  0
   21.1026    3.2353   60.5247 C   0  0  0  0  0  0  0  0  0  0  0  0
   21.2592    3.3319   62.0104 C   0  0  0  0  0  0  0  0  0  0  0  0
   19.8933    3.4862   62.5683 N   0  0  0  0  0  0  0  0  0  0  0  0
   19.9478    3.6525   64.0530 C   0  0  0  0  0  0  0  0  0  0  0  0
   19.9525    2.3169   64.8165 C   0  0  0  0  0  0  0  0  0  0  0  0
   19.9861    2.4725   66.3473 C   0  0  0  0  0  0  0  0  0  0  0  0
   19.9615    1.0937   66.9895 C   0  0  0  0  0  0  0  0  0  0  0  0
   18.6468    0.5384   66.6364 N   0  0  0  0  0  0  0  0  0  0  0  0
   18.4808   -0.9417   66.6719 C   0  0  0  0  0  0  0  0  0  0  0  0
   16.9419   -1.0468   66.6013 C   0  0  0  0  0  0  0  0  0  0  0  0
   16.2441   -0.6332   65.3305 C   0  0  0  0  0  0  0  0  0  0  0  0
   16.6876   -1.3315   64.1364 N   0  0  0  0  0  0  0  0  0  0  0  0
  1  2  1  0  0  0  0
  2  3  1  0  0  0  0
  3  4  1  0  0  0  0
  4  5  1  0  0  0  0
  5  6  1  0  0  0  0
  6  7  1  0  0  0  0
  7  8  1  0  0  0  0
  8  9  1  0  0  0  0
  9 10  1  0  0  0  0
 10 11  1  0  0  0  0
 11 12  1  0  0  0  0
 12 13  1  0  0  0  0
 13 14  1  0  0  0  0
M  END
>  <CHROM.1>
173.59197180,-176.36584432,-177.50393726,-86.94819103,-179.08890041,178.95336352
-65.39177702,158.15389909,166.37113512,67.75822091,56.78077129,19.56826986
1.56427344,63.94337473,0.72587570,-0.83478773,-1.72091277

>  <Name>
1xpf_lig

>  <RI>
0

>  <Rbt.Current_Directory>
/home/afrankz/demos/rdock_decoys_rna/rnas/1xpf

>  <Rbt.Executable>
rbdock ($Id: //depot/dev/client3/rdock/2013.1/src/exe/rbdock.cxx#4 $)

>  <Rbt.Library>
libRbt.so (2013.1, Build901 2013/11/27)

>  <Rbt.Parameter_File>
/export/apps/rDock/src/rDock_2013.1_src/data/scripts/dock_solv.prm

>  <Rbt.Receptor>
prm/pocket_docking_5.prm

>  <SCORE>
-13.4009

>  <SCORE.INTER>
-4.48892

>  <SCORE.INTER.CONST>
1

>  <SCORE.INTER.POLAR>
-1.25601

>  <SCORE.INTER.ROT>
11

>  <SCORE.INTER.SOLV>
10.6386

>  <SCORE.INTER.VDW>
-13.2854

>  <SCORE.INTER.norm>
-0.320637

>  <SCORE.INTRA>
-8.91196

>  <SCORE.INTRA.DIHEDRAL>
-16.189

>  <SCORE.INTRA.DIHEDRAL.0>
17.7811

>  <SCORE.INTRA.POLAR>
0

>  <SCORE.INTRA.POLAR.0>
0

>  <SCORE.INTRA.REPUL>
0

>  <SCORE.INTRA.REPUL.0>
0

>  <SCORE.INTRA.SOLV>
1.146

>  <SCORE.INTRA.SOLV.lig_0>
-47.9565

>  <SCORE.INTRA.VDW>
-1.39044

>  <SCORE.INTRA.VDW.0>
0.515983

>  <SCORE.INTRA.norm>
-0.636569

>  <SCORE.RESTR>
0

>  <SCORE.RESTR.CAVITY>
0

>  <SCORE.RESTR.norm>
0

>  <SCORE.SYSTEM>
0

>  <SCORE.SYSTEM.CONST>
0

>  <SCORE.SYSTEM.DIHEDRAL>
0

>  <SCORE.SYSTEM.SOLV>
0

>  <SCORE.SYSTEM.norm>
0

>  <SCORE.heavy>
14

>  <SCORE.norm>
-0.957206

>  <RMSD>
4.185

$$$$
1xpf_lig
 OpenBabel02141814123D
libRbt.so/2013.1/901 2013/11/27
 14 13  0  0  0  0  0  0  0  0999 V2000
   16.3901   -2.0623   64.0047 N   0  0  0  0  0  0  0  0  0  0  0  0
   16.6701   -2.0058   65.4276 C   0  0  0  0  0  0  0  0  0  0  0  0
   17.1332   -0.6555   65.8250 C   0  0  0  0  0  0  0  0  0  0  0  0
   17.3800   -0.7049   67.3009 C   0  0  0  0  0  0  0  0  0  0  0  0
   17.8599    0.6430   67.6925 N   0  0  0  0  0  0  0  0  0  0  0  0
   19.3539    0.6766   67.7362 C   0  0  0  0  0  0  0  0  0  0  0  0
   19.9196    2.0196   68.2295 C   0  0  0  0  0  0  0  0  0  0  0  0
   19.6465    3.1992   67.2795 C   0  0  0  0  0  0  0  0  0  0  0  0
   20.4561    3.0114   66.0054 C   0  0  0  0  0  0  0  0  0  0  0  0
   20.0405    4.1170   65.1300 N   0  0  0  0  0  0  0  0  0  0  0  0
   19.0185    3.8339   64.0836 C   0  0  0  0  0  0  0  0  0  0  0  0
   19.9230    3.7377   62.8359 C   0  0  0  0  0  0  0  0  0  0  0  0
   20.6349    4.9780   62.3585 C   0  0  0  0  0  0  0  0  0  0  0  0
   21.5823    5.5398   63.3057 N   0  0  0  0  0  0  0  0  0  0  0  0
  1  2  1  0  0  0  0
  2  3  1  0  0  0  0
  3  4  1  0  0  0  0
  4  5  1  0  0  0  0
  5  6  1  0  0  0  0
  6  7  1  0  0  0  0
  7  8  1  0  0  0  0
  8  9  1  0  0  0  0
  9 10  1  0  0  0  0
 10 11  1  0  0  0  0
 11 12  1  0  0  0  0
 12 13  1  0  0  0  0
 13 14  1  0  0  0  0
M  END
>  <CHROM.1>
179.52924825,179.29454542,-95.95438522,-176.05018047,-66.16204460,-68.69185456
175.35005839,-98.54363511,-102.31858900,-66.54901180,62.22106243,19.00064114
1.88048296,65.51555787,2.56994011,0.96725390,1.81913662

>  <Name>
1xpf_lig

>  <RI>
0

>  <Rbt.Current_Directory>
/home/afrankz/demos/rdock_decoys_rna/rnas/1xpf

>  <Rbt.Executable>
rbdock ($Id: //depot/dev/client3/rdock/2013.1/src/exe/rbdock.cxx#4 $)

>  <Rbt.Library>
libRbt.so (2013.1, Build901 2013/11/27)

>  <Rbt.Parameter_File>
/export/apps/rDock/src/rDock_2013.1_src/data/scripts/dock_solv.prm

>  <Rbt.Receptor>
prm/pocket_docking_5.prm

>  <SCORE>
-12.0431

>  <SCORE.INTER>
-5.32252

>  <SCORE.INTER.CONST>
1

>  <SCORE.INTER.POLAR>
-0.797399

>  <SCORE.INTER.ROT>
11

>  <SCORE.INTER.SOLV>
8.0337

>  <SCORE.INTER.VDW>
-14.5016

>  <SCORE.INTER.norm>
-0.38018

>  <SCORE.INTRA>
-6.72062

>  <SCORE.INTRA.DIHEDRAL>
-14.4467

>  <SCORE.INTRA.DIHEDRAL.0>
17.7811

>  <SCORE.INTRA.POLAR>
0

>  <SCORE.INTRA.POLAR.0>
0

>  <SCORE.INTRA.REPUL>
0

>  <SCORE.INTRA.REPUL.0>
0

>  <SCORE.INTRA.SOLV>
2.85626

>  <SCORE.INTRA.SOLV.lig_0>
-47.9565

>  <SCORE.INTRA.VDW>
-0.925421

>  <SCORE.INTRA.VDW.0>
0.515983

>  <SCORE.INTRA.norm>
-0.480044

>  <SCORE.RESTR>
0

>  <SCORE.RESTR.CAVITY>
0

>  <SCORE.RESTR.norm>
0

>  <SCORE.SYSTEM>
0

>  <SCORE.SYSTEM.CONST>
0

>  <SCORE.SYSTEM.DIHEDRAL>
0

>  <SCORE.SYSTEM.SOLV>
0

>  <SCORE.SYSTEM.norm>
0

>  <SCORE.heavy>
14

>  <SCORE.norm>
-0.860225

>  <RMSD>
4.186

$$$$
1xpf_lig
 OpenBabel02141814123D
libRbt.so/2013.1/901 2013/11/27
 14 13  0  0  0  0  0  0  0  0999 V2000
   16.9996   -2.5798   65.1856 N   0  0  0  0  0  0  0  0  0  0  0  0
   16.6183   -2.5719   66.5859 C   0  0  0  0  0  0  0  0  0  0  0  0
   16.5641   -1.1885   67.1141 C   0  0  0  0  0  0  0  0  0  0  0  0
   17.9674   -0.6670   67.0930 C   0  0  0  0  0  0  0  0  0  0  0  0
   17.9232    0.6844   67.7033 N   0  0  0  0  0  0  0  0  0  0  0  0
   19.3064    1.1903   67.9602 C   0  0  0  0  0  0  0  0  0  0  0  0
   19.8726    2.0320   66.8035 C   0  0  0  0  0  0  0  0  0  0  0  0
   20.0010    1.2636   65.4763 C   0  0  0  0  0  0  0  0  0  0  0  0
   20.6311    2.1731   64.4323 C   0  0  0  0  0  0  0  0  0  0  0  0
   19.6014    3.1815   64.1422 N   0  0  0  0  0  0  0  0  0  0  0  0
   19.9843    4.3493   63.3001 C   0  0  0  0  0  0  0  0  0  0  0  0
   20.1786    5.4231   64.3926 C   0  0  0  0  0  0  0  0  0  0  0  0
   20.5099    6.8329   63.9734 C   0  0  0  0  0  0  0  0  0  0  0  0
   20.7129    7.7632   65.0704 N   0  0  0  0  0  0  0  0  0  0  0  0
  1  2  1  0  0  0  0
  2  3  1  0  0  0  0
  3  4  1  0  0  0  0
  4  5  1  0  0  0  0
  5  6  1  0  0  0  0
  6  7  1  0  0  0  0
  7  8  1  0  0  0  0
  8  9  1  0  0  0  0
  9 10  1  0  0  0  0
 10 11  1  0  0  0  0
 11 12  1  0  0  0  0
 12 13  1  0  0  0  0
 13 14  1  0  0  0  0
M  END
>  <CHROM.1>
-66.23270247,-176.43110010,169.56315985,92.58935813,-61.45999867,-177.26310786
-69.85949939,170.95144274,-101.00711081,-176.64029707,-178.26633618,19.06229812
1.99176121,65.65954341,3.03106694,1.18211769,1.38082501

>  <Name>
1xpf_lig

>  <RI>
0

>  <Rbt.Current_Directory>
/home/afrankz/demos/rdock_decoys_rna/rnas/1xpf

>  <Rbt.Executable>
rbdock ($Id: //depot/dev/client3/rdock/2013.1/src/exe/rbdock.cxx#4 $)

>  <Rbt.Library>
libRbt.so (2013.1, Build901 2013/11/27)

>  <Rbt.Parameter_File>
/export/apps/rDock/src/rDock_2013.1_src/data/scripts/dock_solv.prm

>  <Rbt.Receptor>
prm/pocket_docking_5.prm

>  <SCORE>
-13.1568

>  <SCORE.INTER>
-4.81712

>  <SCORE.INTER.CONST>
1

>  <SCORE.INTER.POLAR>
-0.79896

>  <SCORE.INTER.ROT>
11

>  <SCORE.INTER.SOLV>
8.48022

>  <SCORE.INTER.VDW>
-14.3083

>  <SCORE.INTER.norm>
-0.34408

>  <SCORE.INTRA>
-8.33965

>  <SCORE.INTRA.DIHEDRAL>
-15.3727

>  <SCORE.INTRA.DIHEDRAL.0>
17.7811

>  <SCORE.INTRA.POLAR>
0

>  <SCORE.INTRA.POLAR.0>
0

>  <SCORE.INTRA.REPUL>
0

>  <SCORE.INTRA.REPUL.0>
0

>  <SCORE.INTRA.SOLV>
0.7006

>  <SCORE.INTRA.SOLV.lig_0>
-47.9565

>  <SCORE.INTRA.VDW>
-1.00358

>  <SCORE.INTRA.VDW.0>
0.515983

>  <SCORE.INTRA.norm>
-0.595689

>  <SCORE.RESTR>
0

>  <SCORE.RESTR.CAVITY>
0

>  <SCORE.RESTR.norm>
0

>  <SCORE.SYSTEM>
0

>  <SCORE.SYSTEM.CONST>
0

>  <SCORE.SYSTEM.DIHEDRAL>
0

>  <SCORE.SYSTEM.SOLV>
0

>  <SCORE.SYSTEM.norm>
0

>  <SCORE.heavy>
14

>  <SCORE.norm>
-0.939769

>  <RMSD>
4.198

$$$$
1xpf_lig
 OpenBabel02141814123D
libRbt.so/2013.1/901 2013/11/27
 14 13  0  0  0  0  0  0  0  0999 V2000
   20.3917    4.7884   67.3807 N   0  0  0  0  0  0  0  0  0  0  0  0
   20.2684    4.2650   68.7287 C   0  0  0  0  0  0  0  0  0  0  0  0
   19.1486    3.2991   68.8236 C   0  0  0  0  0  0  0  0  0  0  0  0
   19.5193    2.1288   67.9666 C   0  0  0  0  0  0  0  0  0  0  0  0
   18.3112    1.2724   67.8786 N   0  0  0  0  0  0  0  0  0  0  0  0
   18.6445   -0.0436   67.2526 C   0  0  0  0  0  0  0  0  0  0  0  0
   17.4284   -0.7452   66.6235 C   0  0  0  0  0  0  0  0  0  0  0  0
   16.9861   -0.1422   65.2784 C   0  0  0  0  0  0  0  0  0  0  0  0
   15.9370   -1.0454   64.6477 C   0  0  0  0  0  0  0  0  0  0  0  0
   16.6147   -2.3372   64.4647 N   0  0  0  0  0  0  0  0  0  0  0  0
   16.5272   -2.9893   63.1280 C   0  0  0  0  0  0  0  0  0  0  0  0
   17.0154   -4.4103   63.4836 C   0  0  0  0  0  0  0  0  0  0  0  0
   17.1405   -5.4315   62.3815 C   0  0  0  0  0  0  0  0  0  0  0  0
   15.9120   -5.6949   61.6524 N   0  0  0  0  0  0  0  0  0  0  0  0
  1  2  1  0  0  0  0
  2  3  1  0  0  0  0
  3  4  1  0  0  0  0
  4  5  1  0  0  0  0
  5  6  1  0  0  0  0
  6  7  1  0  0  0  0
  7  8  1  0  0  0  0
  8  9  1  0  0  0  0
  9 10  1  0  0  0  0
 10 11  1  0  0  0  0
 11 12  1  0  0  0  0
 12 13  1  0  0  0  0
 13 14  1  0  0  0  0
M  END
>  <CHROM.1>
65.33186328,-170.68673456,-169.71992055,-157.12919246,75.92891226,170.81966580
-60.36385360,-130.32560396,-165.76716720,-177.70360589,-58.30678170,17.84608457
-0.50615126,65.69232665,-0.74701047,-1.12699047,-1.76252221

>  <Name>
1xpf_lig

>  <RI>
0

>  <Rbt.Current_Directory>
/home/afrankz/demos/rdock_decoys_rna/rnas/1xpf

>  <Rbt.Executable>
rbdock ($Id: //depot/dev/client3/rdock/2013.1/src/exe/rbdock.cxx#4 $)

>  <Rbt.Library>
libRbt.so (2013.1, Build901 2013/11/27)

>  <Rbt.Parameter_File>
/export/apps/rDock/src/rDock_2013.1_src/data/scripts/dock_solv.prm

>  <Rbt.Receptor>
prm/pocket_docking_7.prm

>  <SCORE>
-10.5354

>  <SCORE.INTER>
-3.05498

>  <SCORE.INTER.CONST>
1

>  <SCORE.INTER.POLAR>
-0.8

>  <SCORE.INTER.ROT>
11

>  <SCORE.INTER.SOLV>
7.00593

>  <SCORE.INTER.VDW>
-12.6386

>  <SCORE.INTER.norm>
-0.218213

>  <SCORE.INTRA>
-7.48039

>  <SCORE.INTRA.DIHEDRAL>
-14.3294

>  <SCORE.INTRA.DIHEDRAL.0>
17.7811

>  <SCORE.INTRA.POLAR>
0

>  <SCORE.INTRA.POLAR.0>
0

>  <SCORE.INTRA.REPUL>
0

>  <SCORE.INTRA.REPUL.0>
0

>  <SCORE.INTRA.SOLV>
1.47648

>  <SCORE.INTRA.SOLV.lig_0>
-47.9565

>  <SCORE.INTRA.VDW>
-1.05392

>  <SCORE.INTRA.VDW.0>
0.515983

>  <SCORE.INTRA.norm>
-0.534313

>  <SCORE.RESTR>
0

>  <SCORE.RESTR.CAVITY>
0

>  <SCORE.RESTR.norm>
0

>  <SCORE.SYSTEM>
0

>  <SCORE.SYSTEM.CONST>
0

>  <SCORE.SYSTEM.DIHEDRAL>
0

>  <SCORE.SYSTEM.SOLV>
0

>  <SCORE.SYSTEM.norm>
0

>  <SCORE.heavy>
14

>  <SCORE.norm>
-0.752526

>  <RMSD>
4.202

$$$$
1xpf_lig
 OpenBabel02141814123D
libRbt.so/2013.1/901 2013/11/27
 14 13  0  0  0  0  0  0  0  0999 V2000
   22.1636    7.5711   62.4533 N   0  0  0  0  0  0  0  0  0  0  0  0
   21.6315    6.2246   62.3545 C   0  0  0  0  0  0  0  0  0  0  0  0
   21.2932    5.6871   63.6933 C   0  0  0  0  0  0  0  0  0  0  0  0
   20.8761    4.2637   63.4902 C   0  0  0  0  0  0  0  0  0  0  0  0
   20.5709    3.7186   64.8357 N   0  0  0  0  0  0  0  0  0  0  0  0
   20.0980    2.3040   64.7346 C   0  0  0  0  0  0  0  0  0  0  0  0
   19.5929    1.7328   66.0708 C   0  0  0  0  0  0  0  0  0  0  0  0
   18.8724    0.3793   65.9392 C   0  0  0  0  0  0  0  0  0  0  0  0
   18.1909    0.0466   67.2579 C   0  0  0  0  0  0  0  0  0  0  0  0
   17.5195   -1.2394   67.0196 N   0  0  0  0  0  0  0  0  0  0  0  0
   16.5662   -1.7323   68.0530 C   0  0  0  0  0  0  0  0  0  0  0  0
   16.9313   -3.2326   68.0696 C   0  0  0  0  0  0  0  0  0  0  0  0
   16.3202   -4.1163   69.1271 C   0  0  0  0  0  0  0  0  0  0  0  0
   16.7043   -3.7911   70.4898 N   0  0  0  0  0  0  0  0  0  0  0  0
  1  2  1  0  0  0  0
  2  3  1  0  0  0  0
  3  4  1  0  0  0  0
  4  5  1  0  0  0  0
  5  6  1  0  0  0  0
  6  7  1  0  0  0  0
  7  8  1  0  0  0  0
  8  9  1  0  0  0  0
  9 10  1  0  0  0  0
 10 11  1  0  0  0  0
 11 12  1  0  0  0  0
 12 13  1  0  0  0  0
 13 14  1  0  0  0  0
M  END
>  <CHROM.1>
-174.95638375,178.61547720,178.12730342,-172.63720679,169.57107939,-169.20800543
179.02701467,-169.85779862,-139.09324595,172.06619353,-64.15623627,19.09501934
1.27244316,65.97052015,-0.48660108,1.09108062,1.53850140

>  <Name>
1xpf_lig

>  <RI>
0

>  <Rbt.Current_Directory>
/home/afrankz/demos/rdock_decoys_rna/rnas/1xpf

>  <Rbt.Executable>
rbdock ($Id: //depot/dev/client3/rdock/2013.1/src/exe/rbdock.cxx#4 $)

>  <Rbt.Library>
libRbt.so (2013.1, Build901 2013/11/27)

>  <Rbt.Parameter_File>
/export/apps/rDock/src/rDock_2013.1_src/data/scripts/dock_solv.prm

>  <Rbt.Receptor>
prm/pocket_docking_8.prm

>  <SCORE>
-13.2943

>  <SCORE.INTER>
-3.54863

>  <SCORE.INTER.CONST>
1

>  <SCORE.INTER.POLAR>
-0.916515

>  <SCORE.INTER.ROT>
11

>  <SCORE.INTER.SOLV>
11.1806

>  <SCORE.INTER.VDW>
-13.9709

>  <SCORE.INTER.norm>
-0.253473

>  <SCORE.INTRA>
-9.74563

>  <SCORE.INTRA.DIHEDRAL>
-15.4438

>  <SCORE.INTRA.DIHEDRAL.0>
17.7811

>  <SCORE.INTRA.POLAR>
0

>  <SCORE.INTRA.POLAR.0>
0

>  <SCORE.INTRA.REPUL>
0

>  <SCORE.INTRA.REPUL.0>
0

>  <SCORE.INTRA.SOLV>
-0.366677

>  <SCORE.INTRA.SOLV.lig_0>
-47.9565

>  <SCORE.INTRA.VDW>
-1.84038

>  <SCORE.INTRA.VDW.0>
0.515983

>  <SCORE.INTRA.norm>
-0.696116

>  <SCORE.RESTR>
0

>  <SCORE.RESTR.CAVITY>
0

>  <SCORE.RESTR.norm>
0

>  <SCORE.SYSTEM>
0

>  <SCORE.SYSTEM.CONST>
0

>  <SCORE.SYSTEM.DIHEDRAL>
0

>  <SCORE.SYSTEM.SOLV>
0

>  <SCORE.SYSTEM.norm>
0

>  <SCORE.heavy>
14

>  <SCORE.norm>
-0.94959

>  <RMSD>
4.215

$$$$
1xpf_lig
 OpenBabel02141814123D
libRbt.so/2013.1/901 2013/11/27
 14 13  0  0  0  0  0  0  0  0999 V2000
   22.4013    1.6292   59.6461 N   0  0  0  0  0  0  0  0  0  0  0  0
   22.4234    2.4358   60.8523 C   0  0  0  0  0  0  0  0  0  0  0  0
   21.0485    2.7285   61.3212 C   0  0  0  0  0  0  0  0  0  0  0  0
   21.1863    3.4779   62.6099 C   0  0  0  0  0  0  0  0  0  0  0  0
   19.8106    3.6866   63.1244 N   0  0  0  0  0  0  0  0  0  0  0  0
   19.8337    3.9431   64.5970 C   0  0  0  0  0  0  0  0  0  0  0  0
   19.9856    2.6630   65.4367 C   0  0  0  0  0  0  0  0  0  0  0  0
   19.8929    2.8971   66.9550 C   0  0  0  0  0  0  0  0  0  0  0  0
   19.9567    1.5566   67.6712 C   0  0  0  0  0  0  0  0  0  0  0  0
   18.7231    0.8609   67.2765 N   0  0  0  0  0  0  0  0  0  0  0  0
   18.8467   -0.5045   66.6932 C   0  0  0  0  0  0  0  0  0  0  0  0
   17.4340   -0.6755   66.0939 C   0  0  0  0  0  0  0  0  0  0  0  0
   17.0846   -1.9782   65.4201 C   0  0  0  0  0  0  0  0  0  0  0  0
   17.8974   -2.3018   64.2605 N   0  0  0  0  0  0  0  0  0  0  0  0
  1  2  1  0  0  0  0
  2  3  1  0  0  0  0
  3  4  1  0  0  0  0
  4  5  1  0  0  0  0
  5  6  1  0  0  0  0
  6  7  1  0  0  0  0
  7  8  1  0  0  0  0
  8  9  1  0  0  0  0
  9 10  1  0  0  0  0
 10 11  1  0  0  0  0
 11 12  1  0  0  0  0
 12 13  1  0  0  0  0
 13 14  1  0  0  0  0
M  END
>  <CHROM.1>
176.21241014,-176.15011788,158.53997673,-79.36221906,-175.15327308,175.98888137
-66.09849622,126.41853021,-165.39137289,-177.94952643,-61.53088902,19.75179089
1.45867455,64.42591757,0.32621553,-1.02754816,-2.20625581

>  <Name>
1xpf_lig

>  <RI>
0

>  <Rbt.Current_Directory>
/home/afrankz/demos/rdock_decoys_rna/rnas/1xpf

>  <Rbt.Executable>
rbdock ($Id: //depot/dev/client3/rdock/2013.1/src/exe/rbdock.cxx#4 $)

>  <Rbt.Library>
libRbt.so (2013.1, Build901 2013/11/27)

>  <Rbt.Parameter_File>
/export/apps/rDock/src/rDock_2013.1_src/data/scripts/dock_solv.prm

>  <Rbt.Receptor>
prm/pocket_docking_4.prm

>  <SCORE>
-10.6217

>  <SCORE.INTER>
-1.59004

>  <SCORE.INTER.CONST>
1

>  <SCORE.INTER.POLAR>
-0.894427

>  <SCORE.INTER.ROT>
11

>  <SCORE.INTER.SOLV>
8.36195

>  <SCORE.INTER.VDW>
-11.7993

>  <SCORE.INTER.norm>
-0.113574

>  <SCORE.INTRA>
-9.03166

>  <SCORE.INTRA.DIHEDRAL>
-15.3942

>  <SCORE.INTRA.DIHEDRAL.0>
17.7811

>  <SCORE.INTRA.POLAR>
0

>  <SCORE.INTRA.POLAR.0>
0

>  <SCORE.INTRA.REPUL>
0

>  <SCORE.INTRA.REPUL.0>
0

>  <SCORE.INTRA.SOLV>
0.109378

>  <SCORE.INTRA.SOLV.lig_0>
-47.9565

>  <SCORE.INTRA.VDW>
-1.38923

>  <SCORE.INTRA.VDW.0>
0.515983

>  <SCORE.INTRA.norm>
-0.645118

>  <SCORE.RESTR>
0

>  <SCORE.RESTR.CAVITY>
0

>  <SCORE.RESTR.norm>
0

>  <SCORE.SYSTEM>
0

>  <SCORE.SYSTEM.CONST>
0

>  <SCORE.SYSTEM.DIHEDRAL>
0

>  <SCORE.SYSTEM.SOLV>
0

>  <SCORE.SYSTEM.norm>
0

>  <SCORE.heavy>
14

>  <SCORE.norm>
-0.758693

>  <RMSD>
4.224

$$$$
1xpf_lig
 OpenBabel02141814123D
libRbt.so/2013.1/901 2013/11/27
 14 13  0  0  0  0  0  0  0  0999 V2000
   16.3618   -4.1569   67.9229 N   0  0  0  0  0  0  0  0  0  0  0  0
   16.6020   -2.7290   68.0213 C   0  0  0  0  0  0  0  0  0  0  0  0
   16.8657   -2.1412   66.6868 C   0  0  0  0  0  0  0  0  0  0  0  0
   17.1207   -0.6822   66.9047 C   0  0  0  0  0  0  0  0  0  0  0  0
   18.4307   -0.5823   67.5935 N   0  0  0  0  0  0  0  0  0  0  0  0
   18.7878    0.8486   67.8384 C   0  0  0  0  0  0  0  0  0  0  0  0
   20.1289    1.2594   67.2063 C   0  0  0  0  0  0  0  0  0  0  0  0
   20.0708    1.4385   65.6789 C   0  0  0  0  0  0  0  0  0  0  0  0
   19.8265    2.9052   65.3577 C   0  0  0  0  0  0  0  0  0  0  0  0
   21.1355    3.5511   65.5332 N   0  0  0  0  0  0  0  0  0  0  0  0
   21.9411    3.8409   64.3140 C   0  0  0  0  0  0  0  0  0  0  0  0
   23.2939    4.2098   64.9605 C   0  0  0  0  0  0  0  0  0  0  0  0
   23.4208    5.5321   65.6735 C   0  0  0  0  0  0  0  0  0  0  0  0
   23.2506    6.7000   64.8267 N   0  0  0  0  0  0  0  0  0  0  0  0
  1  2  1  0  0  0  0
  2  3  1  0  0  0  0
  3  4  1  0  0  0  0
  4  5  1  0  0  0  0
  5  6  1  0  0  0  0
  6  7  1  0  0  0  0
  7  8  1  0  0  0  0
  8  9  1  0  0  0  0
  9 10  1  0  0  0  0
 10 11  1  0  0  0  0
 11 12  1  0  0  0  0
 12 13  1  0  0  0  0
 13 14  1  0  0  0  0
M  END
>  <CHROM.1>
-179.07569237,69.93095018,179.11224893,-122.17365393,74.71703209,94.72518531
78.32920810,100.37161880,-168.52762042,-72.70800301,-63.37526927,19.80263002
1.42816961,66.32268936,2.70249943,0.85239859,1.80027114

>  <Name>
1xpf_lig

>  <RI>
0

>  <Rbt.Current_Directory>
/home/afrankz/demos/rdock_decoys_rna/rnas/1xpf

>  <Rbt.Executable>
rbdock ($Id: //depot/dev/client3/rdock/2013.1/src/exe/rbdock.cxx#4 $)

>  <Rbt.Library>
libRbt.so (2013.1, Build901 2013/11/27)

>  <Rbt.Parameter_File>
/export/apps/rDock/src/rDock_2013.1_src/data/scripts/dock_solv.prm

>  <Rbt.Receptor>
prm/blind_docking_100.prm

>  <SCORE>
-9.22941

>  <SCORE.INTER>
-4.31645

>  <SCORE.INTER.CONST>
1

>  <SCORE.INTER.POLAR>
-0.8

>  <SCORE.INTER.ROT>
11

>  <SCORE.INTER.SOLV>
12.5694

>  <SCORE.INTER.VDW>
-15.3341

>  <SCORE.INTER.norm>
-0.308318

>  <SCORE.INTRA>
-4.91296

>  <SCORE.INTRA.DIHEDRAL>
-8.80393

>  <SCORE.INTRA.DIHEDRAL.0>
17.7811

>  <SCORE.INTRA.POLAR>
0

>  <SCORE.INTRA.POLAR.0>
0

>  <SCORE.INTRA.REPUL>
0

>  <SCORE.INTRA.REPUL.0>
0

>  <SCORE.INTRA.SOLV>
1.81128

>  <SCORE.INTRA.SOLV.lig_0>
-47.9565

>  <SCORE.INTRA.VDW>
-1.41664

>  <SCORE.INTRA.VDW.0>
0.515983

>  <SCORE.INTRA.norm>
-0.350926

>  <SCORE.RESTR>
0

>  <SCORE.RESTR.CAVITY>
0

>  <SCORE.RESTR.norm>
0

>  <SCORE.SYSTEM>
0

>  <SCORE.SYSTEM.CONST>
0

>  <SCORE.SYSTEM.DIHEDRAL>
0

>  <SCORE.SYSTEM.SOLV>
0

>  <SCORE.SYSTEM.norm>
0

>  <SCORE.heavy>
14

>  <SCORE.norm>
-0.659243

>  <RMSD>
4.230

$$$$
1xpf_lig
 OpenBabel02141814123D
libRbt.so/2013.1/901 2013/11/27
 14 13  0  0  0  0  0  0  0  0999 V2000
   24.3646    6.0175   63.7285 N   0  0  0  0  0  0  0  0  0  0  0  0
   23.2681    6.2741   64.6439 C   0  0  0  0  0  0  0  0  0  0  0  0
   22.7369    5.0095   65.2047 C   0  0  0  0  0  0  0  0  0  0  0  0
   21.5742    5.3809   66.0716 C   0  0  0  0  0  0  0  0  0  0  0  0
   20.9993    4.1083   66.5723 N   0  0  0  0  0  0  0  0  0  0  0  0
   20.0649    3.5212   65.5638 C   0  0  0  0  0  0  0  0  0  0  0  0
   20.0798    1.9829   65.5414 C   0  0  0  0  0  0  0  0  0  0  0  0
   19.4800    1.3340   66.8013 C   0  0  0  0  0  0  0  0  0  0  0  0
   19.4895   -0.1782   66.6362 C   0  0  0  0  0  0  0  0  0  0  0  0
   18.4491   -0.6628   67.5550 N   0  0  0  0  0  0  0  0  0  0  0  0
   17.6177   -1.8206   67.1216 C   0  0  0  0  0  0  0  0  0  0  0  0
   16.3517   -1.0822   66.6353 C   0  0  0  0  0  0  0  0  0  0  0  0
   16.4203   -0.2915   65.3535 C   0  0  0  0  0  0  0  0  0  0  0  0
   16.6110   -1.0893   64.1546 N   0  0  0  0  0  0  0  0  0  0  0  0
  1  2  1  0  0  0  0
  2  3  1  0  0  0  0
  3  4  1  0  0  0  0
  4  5  1  0  0  0  0
  5  6  1  0  0  0  0
  6  7  1  0  0  0  0
  7  8  1  0  0  0  0
  8  9  1  0  0  0  0
  9 10  1  0  0  0  0
 10 11  1  0  0  0  0
 11 12  1  0  0  0  0
 12 13  1  0  0  0  0
 13 14  1  0  0  0  0
M  END
>  <CHROM.1>
-177.10965599,176.99230378,-83.45282572,145.66269713,68.75548628,177.35208330
-157.31615330,142.87862291,-99.43277455,71.68663014,66.89553405,19.82181764
2.03596102,65.82754583,0.45108797,-0.76899241,-1.15645025

>  <Name>
1xpf_lig

>  <RI>
0

>  <Rbt.Current_Directory>
/home/afrankz/demos/rdock_decoys_rna/rnas/1xpf

>  <Rbt.Executable>
rbdock ($Id: //depot/dev/client3/rdock/2013.1/src/exe/rbdock.cxx#4 $)

>  <Rbt.Library>
libRbt.so (2013.1, Build901 2013/11/27)

>  <Rbt.Parameter_File>
/export/apps/rDock/src/rDock_2013.1_src/data/scripts/dock_solv.prm

>  <Rbt.Receptor>
prm/pocket_docking_6.prm

>  <SCORE>
-10.0709

>  <SCORE.INTER>
-3.3811

>  <SCORE.INTER.CONST>
1

>  <SCORE.INTER.POLAR>
-0.8

>  <SCORE.INTER.ROT>
11

>  <SCORE.INTER.SOLV>
9.25304

>  <SCORE.INTER.VDW>
-13.6051

>  <SCORE.INTER.norm>
-0.241507

>  <SCORE.INTRA>
-6.68977

>  <SCORE.INTRA.DIHEDRAL>
-12.1575

>  <SCORE.INTRA.DIHEDRAL.0>
17.7811

>  <SCORE.INTRA.POLAR>
0

>  <SCORE.INTRA.POLAR.0>
0

>  <SCORE.INTRA.REPUL>
0

>  <SCORE.INTRA.REPUL.0>
0

>  <SCORE.INTRA.SOLV>
1.43893

>  <SCORE.INTRA.SOLV.lig_0>
-47.9565

>  <SCORE.INTRA.VDW>
-1.33051

>  <SCORE.INTRA.VDW.0>
0.515983

>  <SCORE.INTRA.norm>
-0.477841

>  <SCORE.RESTR>
0

>  <SCORE.RESTR.CAVITY>
0

>  <SCORE.RESTR.norm>
0

>  <SCORE.SYSTEM>
0

>  <SCORE.SYSTEM.CONST>
0

>  <SCORE.SYSTEM.DIHEDRAL>
0

>  <SCORE.SYSTEM.SOLV>
0

>  <SCORE.SYSTEM.norm>
0

>  <SCORE.heavy>
14

>  <SCORE.norm>
-0.719348

>  <RMSD>
4.236

$$$$
1xpf_lig
 OpenBabel02141814123D
libRbt.so/2013.1/901 2013/11/27
 14 13  0  0  0  0  0  0  0  0999 V2000
   22.0392   -2.8681   63.0925 N   0  0  0  0  0  0  0  0  0  0  0  0
   21.0705   -2.5568   64.1273 C   0  0  0  0  0  0  0  0  0  0  0  0
   21.2383   -1.1665   64.6116 C   0  0  0  0  0  0  0  0  0  0  0  0
   20.1426   -0.9232   65.6024 C   0  0  0  0  0  0  0  0  0  0  0  0
   20.3723    0.4323   66.1594 N   0  0  0  0  0  0  0  0  0  0  0  0
   19.4858    0.6729   67.3389 C   0  0  0  0  0  0  0  0  0  0  0  0
   19.8695    1.9260   68.1448 C   0  0  0  0  0  0  0  0  0  0  0  0
   19.5559    3.2507   67.4268 C   0  0  0  0  0  0  0  0  0  0  0  0
   20.4326    3.3669   66.1891 C   0  0  0  0  0  0  0  0  0  0  0  0
   20.0919    4.6741   65.6090 N   0  0  0  0  0  0  0  0  0  0  0  0
   20.0586    4.7928   64.1243 C   0  0  0  0  0  0  0  0  0  0  0  0
   20.9080    6.0679   63.9320 C   0  0  0  0  0  0  0  0  0  0  0  0
   21.1748    6.5574   62.5313 C   0  0  0  0  0  0  0  0  0  0  0  0
   22.0966    7.6766   62.4420 N   0  0  0  0  0  0  0  0  0  0  0  0
  1  2  1  0  0  0  0
  2  3  1  0  0  0  0
  3  4  1  0  0  0  0
  4  5  1  0  0  0  0
  5  6  1  0  0  0  0
  6  7  1  0  0  0  0
  7  8  1  0  0  0  0
  8  9  1  0  0  0  0
  9 10  1  0  0  0  0
 10 11  1  0  0  0  0
 11 12  1  0  0  0  0
 12 13  1  0  0  0  0
 13 14  1  0  0  0  0
M  END
>  <CHROM.1>
176.38404603,175.90362929,-169.44708543,167.86224049,71.25177809,-65.84118865
-178.08175857,-143.26291704,-131.21488116,178.48169897,-173.76560200,20.60955242
2.27870948,65.09540256,-1.61904620,1.16206869,-0.12483496

>  <Name>
1xpf_lig

>  <RI>
0

>  <Rbt.Current_Directory>
/home/afrankz/demos/rdock_decoys_rna/rnas/1xpf

>  <Rbt.Executable>
rbdock ($Id: //depot/dev/client3/rdock/2013.1/src/exe/rbdock.cxx#4 $)

>  <Rbt.Library>
libRbt.so (2013.1, Build901 2013/11/27)

>  <Rbt.Parameter_File>
/export/apps/rDock/src/rDock_2013.1_src/data/scripts/dock_solv.prm

>  <Rbt.Receptor>
prm/pocket_docking_4.prm

>  <SCORE>
-13.7917

>  <SCORE.INTER>
-5.27437

>  <SCORE.INTER.CONST>
1

>  <SCORE.INTER.POLAR>
-0.916515

>  <SCORE.INTER.ROT>
11

>  <SCORE.INTER.SOLV>
13.4873

>  <SCORE.INTER.VDW>
-15.8903

>  <SCORE.INTER.norm>
-0.376741

>  <SCORE.INTRA>
-8.52994

>  <SCORE.INTRA.DIHEDRAL>
-14.7796

>  <SCORE.INTRA.DIHEDRAL.0>
17.7811

>  <SCORE.INTRA.POLAR>
0

>  <SCORE.INTRA.POLAR.0>
0

>  <SCORE.INTRA.REPUL>
0

>  <SCORE.INTRA.REPUL.0>
0

>  <SCORE.INTRA.SOLV>
0.0883651

>  <SCORE.INTRA.SOLV.lig_0>
-47.9565

>  <SCORE.INTRA.VDW>
-1.18431

>  <SCORE.INTRA.VDW.0>
0.515983

>  <SCORE.INTRA.norm>
-0.609281

>  <SCORE.RESTR>
0.0125714

>  <SCORE.RESTR.CAVITY>
0.0125714

>  <SCORE.RESTR.norm>
0.000897958

>  <SCORE.SYSTEM>
0

>  <SCORE.SYSTEM.CONST>
0

>  <SCORE.SYSTEM.DIHEDRAL>
0

>  <SCORE.SYSTEM.SOLV>
0

>  <SCORE.SYSTEM.norm>
0

>  <SCORE.heavy>
14

>  <SCORE.norm>
-0.985124

>  <RMSD>
4.240

$$$$
1xpf_lig
 OpenBabel02141814123D
libRbt.so/2013.1/901 2013/11/27
 14 13  0  0  0  0  0  0  0  0999 V2000
   22.2874    1.5499   59.7745 N   0  0  0  0  0  0  0  0  0  0  0  0
   22.1091    0.7527   60.9741 C   0  0  0  0  0  0  0  0  0  0  0  0
   20.7145    0.8392   61.4673 C   0  0  0  0  0  0  0  0  0  0  0  0
   20.4940    2.2613   61.8802 C   0  0  0  0  0  0  0  0  0  0  0  0
   19.1728    2.3039   62.5533 N   0  0  0  0  0  0  0  0  0  0  0  0
   19.2915    2.9327   63.9045 C   0  0  0  0  0  0  0  0  0  0  0  0
   19.8844    1.9900   64.9659 C   0  0  0  0  0  0  0  0  0  0  0  0
   19.0670    0.7048   65.1865 C   0  0  0  0  0  0  0  0  0  0  0  0
   19.7422   -0.1380   66.2580 C   0  0  0  0  0  0  0  0  0  0  0  0
   20.9746   -0.6316   65.6263 N   0  0  0  0  0  0  0  0  0  0  0  0
   20.8671   -1.7884   64.6937 C   0  0  0  0  0  0  0  0  0  0  0  0
   22.1227   -1.5580   63.8251 C   0  0  0  0  0  0  0  0  0  0  0  0
   22.3985   -2.5031   62.6833 C   0  0  0  0  0  0  0  0  0  0  0  0
   23.6040   -2.2106   61.9274 N   0  0  0  0  0  0  0  0  0  0  0  0
  1  2  1  0  0  0  0
  2  3  1  0  0  0  0
  3  4  1  0  0  0  0
  4  5  1  0  0  0  0
  5  6  1  0  0  0  0
  6  7  1  0  0  0  0
  7  8  1  0  0  0  0
  8  9  1  0  0  0  0
  9 10  1  0  0  0  0
 10 11  1  0  0  0  0
 11 12  1  0  0  0  0
 12 13  1  0  0  0  0
 13 14  1  0  0  0  0
M  END
>  <CHROM.1>
-64.98546953,-171.96635960,126.76646187,-77.42498045,-59.58621189,-179.63238517
-70.14729398,-79.02604257,155.36409519,-178.10356428,-179.73669591,20.90903141
0.32179738,63.26604670,0.24334590,0.88754031,-0.89041169

>  <Name>
1xpf_lig

>  <RI>
0

>  <Rbt.Current_Directory>
/home/afrankz/demos/rdock_decoys_rna/rnas/1xpf

>  <Rbt.Executable>
rbdock ($Id: //depot/dev/client3/rdock/2013.1/src/exe/rbdock.cxx#4 $)

>  <Rbt.Library>
libRbt.so (2013.1, Build901 2013/11/27)

>  <Rbt.Parameter_File>
/export/apps/rDock/src/rDock_2013.1_src/data/scripts/dock_solv.prm

>  <Rbt.Receptor>
prm/pocket_docking_4.prm

>  <SCORE>
-7.75142

>  <SCORE.INTER>
0.407313

>  <SCORE.INTER.CONST>
1

>  <SCORE.INTER.POLAR>
-0.894427

>  <SCORE.INTER.ROT>
11

>  <SCORE.INTER.SOLV>
9.51172

>  <SCORE.INTER.VDW>
-10.8509

>  <SCORE.INTER.norm>
0.0290938

>  <SCORE.INTRA>
-8.16273

>  <SCORE.INTRA.DIHEDRAL>
-14.9482

>  <SCORE.INTRA.DIHEDRAL.0>
17.7811

>  <SCORE.INTRA.POLAR>
0

>  <SCORE.INTRA.POLAR.0>
0

>  <SCORE.INTRA.REPUL>
0

>  <SCORE.INTRA.REPUL.0>
0

>  <SCORE.INTRA.SOLV>
2.16848

>  <SCORE.INTRA.SOLV.lig_0>
-47.9565

>  <SCORE.INTRA.VDW>
-1.77286

>  <SCORE.INTRA.VDW.0>
0.515983

>  <SCORE.INTRA.norm>
-0.583052

>  <SCORE.RESTR>
0.00399991

>  <SCORE.RESTR.CAVITY>
0.00399991

>  <SCORE.RESTR.norm>
0.000285708

>  <SCORE.SYSTEM>
0

>  <SCORE.SYSTEM.CONST>
0

>  <SCORE.SYSTEM.DIHEDRAL>
0

>  <SCORE.SYSTEM.SOLV>
0

>  <SCORE.SYSTEM.norm>
0

>  <SCORE.heavy>
14

>  <SCORE.norm>
-0.553673

>  <RMSD>
4.255

$$$$
1xpf_lig
 OpenBabel02141814123D
libRbt.so/2013.1/901 2013/11/27
 14 13  0  0  0  0  0  0  0  0999 V2000
   18.4701    1.5296   68.0696 N   0  0  0  0  0  0  0  0  0  0  0  0
   19.2969    1.2709   66.9053 C   0  0  0  0  0  0  0  0  0  0  0  0
   19.6098   -0.1726   66.7857 C   0  0  0  0  0  0  0  0  0  0  0  0
   20.4434   -0.3291   65.5520 C   0  0  0  0  0  0  0  0  0  0  0  0
   20.8573   -1.7527   65.5017 N   0  0  0  0  0  0  0  0  0  0  0  0
   21.5337   -2.0577   64.2039 C   0  0  0  0  0  0  0  0  0  0  0  0
   20.6082   -2.7344   63.1780 C   0  0  0  0  0  0  0  0  0  0  0  0
   19.9577   -4.0337   63.6850 C   0  0  0  0  0  0  0  0  0  0  0  0
   18.8547   -4.4478   62.7228 C   0  0  0  0  0  0  0  0  0  0  0  0
   18.0535   -5.4286   63.4696 N   0  0  0  0  0  0  0  0  0  0  0  0
   17.0521   -4.9150   64.4458 C   0  0  0  0  0  0  0  0  0  0  0  0
   17.1385   -6.0113   65.5297 C   0  0  0  0  0  0  0  0  0  0  0  0
   16.2372   -5.9133   66.7342 C   0  0  0  0  0  0  0  0  0  0  0  0
   16.4224   -6.9630   67.7212 N   0  0  0  0  0  0  0  0  0  0  0  0
  1  2  1  0  0  0  0
  2  3  1  0  0  0  0
  3  4  1  0  0  0  0
  4  5  1  0  0  0  0
  5  6  1  0  0  0  0
  6  7  1  0  0  0  0
  7  8  1  0  0  0  0
  8  9  1  0  0  0  0
  9 10  1  0  0  0  0
 10 11  1  0  0  0  0
 11 12  1  0  0  0  0
 12 13  1  0  0  0  0
 13 14  1  0  0  0  0
M  END
>  <CHROM.1>
179.22675312,175.00125004,171.97063986,-99.20976592,-56.26195138,168.03817187
-163.80879371,80.51026069,-145.52029415,-178.41740296,-177.94984644,18.89557268
-2.99697809,65.32139223,0.96003417,0.81645401,0.63804529

>  <Name>
1xpf_lig

>  <RI>
0

>  <Rbt.Current_Directory>
/home/afrankz/demos/rdock_decoys_rna/rnas/1xpf

>  <Rbt.Executable>
rbdock ($Id: //depot/dev/client3/rdock/2013.1/src/exe/rbdock.cxx#4 $)

>  <Rbt.Library>
libRbt.so (2013.1, Build901 2013/11/27)

>  <Rbt.Parameter_File>
/export/apps/rDock/src/rDock_2013.1_src/data/scripts/dock_solv.prm

>  <Rbt.Receptor>
prm/pocket_docking_4.prm

>  <SCORE>
-12.9277

>  <SCORE.INTER>
-4.1145

>  <SCORE.INTER.CONST>
1

>  <SCORE.INTER.POLAR>
-0.8

>  <SCORE.INTER.ROT>
11

>  <SCORE.INTER.SOLV>
13.7048

>  <SCORE.INTER.VDW>
-15.5779

>  <SCORE.INTER.norm>
-0.293893

>  <SCORE.INTRA>
-8.81323

>  <SCORE.INTRA.DIHEDRAL>
-14.1082

>  <SCORE.INTRA.DIHEDRAL.0>
17.7811

>  <SCORE.INTRA.POLAR>
0

>  <SCORE.INTRA.POLAR.0>
0

>  <SCORE.INTRA.REPUL>
0

>  <SCORE.INTRA.REPUL.0>
0

>  <SCORE.INTRA.SOLV>
-0.556642

>  <SCORE.INTRA.SOLV.lig_0>
-47.9565

>  <SCORE.INTRA.VDW>
-1.48082

>  <SCORE.INTRA.VDW.0>
0.515983

>  <SCORE.INTRA.norm>
-0.629517

>  <SCORE.RESTR>
0

>  <SCORE.RESTR.CAVITY>
0

>  <SCORE.RESTR.norm>
0

>  <SCORE.SYSTEM>
0

>  <SCORE.SYSTEM.CONST>
0

>  <SCORE.SYSTEM.DIHEDRAL>
0

>  <SCORE.SYSTEM.SOLV>
0

>  <SCORE.SYSTEM.norm>
0

>  <SCORE.heavy>
14

>  <SCORE.norm>
-0.923409

>  <RMSD>
4.275

$$$$
1xpf_lig
 OpenBabel02141814123D
libRbt.so/2013.1/901 2013/11/27
 14 13  0  0  0  0  0  0  0  0999 V2000
   19.7912   -0.6110   59.8181 N   0  0  0  0  0  0  0  0  0  0  0  0
   21.0740   -1.2881   59.7723 C   0  0  0  0  0  0  0  0  0  0  0  0
   21.2708   -2.1358   60.9716 C   0  0  0  0  0  0  0  0  0  0  0  0
   21.3909   -1.2054   62.1383 C   0  0  0  0  0  0  0  0  0  0  0  0
   21.5304   -2.0584   63.3440 N   0  0  0  0  0  0  0  0  0  0  0  0
   21.5671   -1.2187   64.5803 C   0  0  0  0  0  0  0  0  0  0  0  0
   20.2761   -1.3021   65.4129 C   0  0  0  0  0  0  0  0  0  0  0  0
   19.0338   -0.7432   64.6970 C   0  0  0  0  0  0  0  0  0  0  0  0
   17.8182   -0.9227   65.5939 C   0  0  0  0  0  0  0  0  0  0  0  0
   17.5112   -2.3589   65.5272 N   0  0  0  0  0  0  0  0  0  0  0  0
   16.6046   -2.9287   66.5630 C   0  0  0  0  0  0  0  0  0  0  0  0
   16.4731   -4.3775   66.0453 C   0  0  0  0  0  0  0  0  0  0  0  0
   15.8549   -4.6104   64.6901 C   0  0  0  0  0  0  0  0  0  0  0  0
   15.6768   -6.0072   64.3333 N   0  0  0  0  0  0  0  0  0  0  0  0
  1  2  1  0  0  0  0
  2  3  1  0  0  0  0
  3  4  1  0  0  0  0
  4  5  1  0  0  0  0
  5  6  1  0  0  0  0
  6  7  1  0  0  0  0
  7  8  1  0  0  0  0
  8  9  1  0  0  0  0
  9 10  1  0  0  0  0
 10 11  1  0  0  0  0
 11 12  1  0  0  0  0
 12 13  1  0  0  0  0
 13 14  1  0  0  0  0
M  END
>  <CHROM.1>
-67.23469609,177.67362538,-176.26298551,107.10692472,-64.48124725,178.07695167
-74.18918207,164.17820509,175.40082676,-62.24188034,-175.36085174,18.99108373
-2.26894424,63.82074784,0.49149089,-0.67978187,-1.85754015

>  <Name>
1xpf_lig

>  <RI>
0

>  <Rbt.Current_Directory>
/home/afrankz/demos/rdock_decoys_rna/rnas/1xpf

>  <Rbt.Executable>
rbdock ($Id: //depot/dev/client3/rdock/2013.1/src/exe/rbdock.cxx#4 $)

>  <Rbt.Library>
libRbt.so (2013.1, Build901 2013/11/27)

>  <Rbt.Parameter_File>
/export/apps/rDock/src/rDock_2013.1_src/data/scripts/dock_solv.prm

>  <Rbt.Receptor>
prm/pocket_docking_4.prm

>  <SCORE>
-6.34806

>  <SCORE.INTER>
2.16377

>  <SCORE.INTER.CONST>
1

>  <SCORE.INTER.POLAR>
0

>  <SCORE.INTER.ROT>
11

>  <SCORE.INTER.SOLV>
6.13606

>  <SCORE.INTER.VDW>
-11.5362

>  <SCORE.INTER.norm>
0.154555

>  <SCORE.INTRA>
-8.51182

>  <SCORE.INTRA.DIHEDRAL>
-15.355

>  <SCORE.INTRA.DIHEDRAL.0>
17.7811

>  <SCORE.INTRA.POLAR>
0

>  <SCORE.INTRA.POLAR.0>
0

>  <SCORE.INTRA.REPUL>
0

>  <SCORE.INTRA.REPUL.0>
0

>  <SCORE.INTRA.SOLV>
1.16395

>  <SCORE.INTRA.SOLV.lig_0>
-47.9565

>  <SCORE.INTRA.VDW>
-1.41632

>  <SCORE.INTRA.VDW.0>
0.515983

>  <SCORE.INTRA.norm>
-0.607987

>  <SCORE.RESTR>
0

>  <SCORE.RESTR.CAVITY>
0

>  <SCORE.RESTR.norm>
0

>  <SCORE.SYSTEM>
0

>  <SCORE.SYSTEM.CONST>
0

>  <SCORE.SYSTEM.DIHEDRAL>
0

>  <SCORE.SYSTEM.SOLV>
0

>  <SCORE.SYSTEM.norm>
0

>  <SCORE.heavy>
14

>  <SCORE.norm>
-0.453433

>  <RMSD>
4.275

$$$$
1xpf_lig
 OpenBabel02141814123D
libRbt.so/2013.1/901 2013/11/27
 14 13  0  0  0  0  0  0  0  0999 V2000
   21.7817    6.2677   63.2257 N   0  0  0  0  0  0  0  0  0  0  0  0
   21.1178    5.7851   64.4226 C   0  0  0  0  0  0  0  0  0  0  0  0
   20.2140    4.6533   64.1095 C   0  0  0  0  0  0  0  0  0  0  0  0
   19.5263    4.2883   65.3882 C   0  0  0  0  0  0  0  0  0  0  0  0
   20.5374    3.6008   66.2283 N   0  0  0  0  0  0  0  0  0  0  0  0
   19.8721    2.7127   67.2301 C   0  0  0  0  0  0  0  0  0  0  0  0
   19.4662    1.3438   66.6572 C   0  0  0  0  0  0  0  0  0  0  0  0
   18.6679    0.4677   67.6388 C   0  0  0  0  0  0  0  0  0  0  0  0
   18.1816   -0.7780   66.9134 C   0  0  0  0  0  0  0  0  0  0  0  0
   17.5317   -1.5885   67.9537 N   0  0  0  0  0  0  0  0  0  0  0  0
   16.7063   -2.7507   67.5204 C   0  0  0  0  0  0  0  0  0  0  0  0
   16.8166   -3.6474   68.7726 C   0  0  0  0  0  0  0  0  0  0  0  0
   16.1750   -5.0114   68.7469 C   0  0  0  0  0  0  0  0  0  0  0  0
   16.3650   -5.7972   69.9538 N   0  0  0  0  0  0  0  0  0  0  0  0
  1  2  1  0  0  0  0
  2  3  1  0  0  0  0
  3  4  1  0  0  0  0
  4  5  1  0  0  0  0
  5  6  1  0  0  0  0
  6  7  1  0  0  0  0
  7  8  1  0  0  0  0
  8  9  1  0  0  0  0
  9 10  1  0  0  0  0
 10 11  1  0  0  0  0
 11 12  1  0  0  0  0
 12 13  1  0  0  0  0
 13 14  1  0  0  0  0
M  END
>  <CHROM.1>
-176.77876727,-73.40286840,-156.28408784,82.13261308,-174.77323770,173.23401802
175.62594119,167.84768044,153.69365828,-176.47745699,178.25369257,18.78273861
0.68190746,66.76863024,0.74983062,-1.02608585,-1.16946764

>  <Name>
1xpf_lig

>  <RI>
0

>  <Rbt.Current_Directory>
/home/afrankz/demos/rdock_decoys_rna/rnas/1xpf

>  <Rbt.Executable>
rbdock ($Id: //depot/dev/client3/rdock/2013.1/src/exe/rbdock.cxx#4 $)

>  <Rbt.Library>
libRbt.so (2013.1, Build901 2013/11/27)

>  <Rbt.Parameter_File>
/export/apps/rDock/src/rDock_2013.1_src/data/scripts/dock_solv.prm

>  <Rbt.Receptor>
prm/blind_docking_80.prm

>  <SCORE>
-14.6209

>  <SCORE.INTER>
-5.39056

>  <SCORE.INTER.CONST>
1

>  <SCORE.INTER.POLAR>
-0.8

>  <SCORE.INTER.ROT>
11

>  <SCORE.INTER.SOLV>
8.37553

>  <SCORE.INTER.VDW>
-14.6522

>  <SCORE.INTER.norm>
-0.38504

>  <SCORE.INTRA>
-9.23037

>  <SCORE.INTRA.DIHEDRAL>
-15.2986

>  <SCORE.INTRA.DIHEDRAL.0>
17.7811

>  <SCORE.INTRA.POLAR>
0

>  <SCORE.INTRA.POLAR.0>
0

>  <SCORE.INTRA.REPUL>
0

>  <SCORE.INTRA.REPUL.0>
0

>  <SCORE.INTRA.SOLV>
-0.481457

>  <SCORE.INTRA.SOLV.lig_0>
-47.9565

>  <SCORE.INTRA.VDW>
-1.34035

>  <SCORE.INTRA.VDW.0>
0.515983

>  <SCORE.INTRA.norm>
-0.659312

>  <SCORE.RESTR>
0

>  <SCORE.RESTR.CAVITY>
0

>  <SCORE.RESTR.norm>
0

>  <SCORE.SYSTEM>
0

>  <SCORE.SYSTEM.CONST>
0

>  <SCORE.SYSTEM.DIHEDRAL>
0

>  <SCORE.SYSTEM.SOLV>
0

>  <SCORE.SYSTEM.norm>
0

>  <SCORE.heavy>
14

>  <SCORE.norm>
-1.04435

>  <RMSD>
4.293

$$$$
1xpf_lig
 OpenBabel02141814123D
libRbt.so/2013.1/901 2013/11/27
 14 13  0  0  0  0  0  0  0  0999 V2000
   21.4925    4.0990   61.7856 N   0  0  0  0  0  0  0  0  0  0  0  0
   21.7103    4.0221   60.3529 C   0  0  0  0  0  0  0  0  0  0  0  0
   21.3835    2.6718   59.8373 C   0  0  0  0  0  0  0  0  0  0  0  0
   22.4222    1.7422   60.3836 C   0  0  0  0  0  0  0  0  0  0  0  0
   22.1580    0.4138   59.7784 N   0  0  0  0  0  0  0  0  0  0  0  0
   22.4818   -0.6784   60.7465 C   0  0  0  0  0  0  0  0  0  0  0  0
   21.2362   -1.3900   61.3022 C   0  0  0  0  0  0  0  0  0  0  0  0
   21.5452   -2.4266   62.3970 C   0  0  0  0  0  0  0  0  0  0  0  0
   21.9731   -1.7015   63.6640 C   0  0  0  0  0  0  0  0  0  0  0  0
   20.7646   -1.0005   64.1218 N   0  0  0  0  0  0  0  0  0  0  0  0
   20.5859   -0.7997   65.5872 C   0  0  0  0  0  0  0  0  0  0  0  0
   19.2618   -0.0053   65.5956 C   0  0  0  0  0  0  0  0  0  0  0  0
   18.6546    0.3787   66.9210 C   0  0  0  0  0  0  0  0  0  0  0  0
   18.2123   -0.7397   67.7357 N   0  0  0  0  0  0  0  0  0  0  0  0
  1  2  1  0  0  0  0
  2  3  1  0  0  0  0
  3  4  1  0  0  0  0
  4  5  1  0  0  0  0
  5  6  1  0  0  0  0
  6  7  1  0  0  0  0
  7  8  1  0  0  0  0
  8  9  1  0  0  0  0
  9 10  1  0  0  0  0
 10 11  1  0  0  0  0
 11 12  1  0  0  0  0
 12 13  1  0  0  0  0
 13 14  1  0  0  0  0
M  END
>  <CHROM.1>
-68.64585026,-175.50705526,-145.57321464,108.42740645,-174.59413979,71.04206770
67.57556597,148.73934568,178.00287279,177.59484715,-65.18732115,20.99171091
0.32742689,62.87186228,0.69269635,1.07009021,-0.33521524

>  <Name>
1xpf_lig

>  <RI>
0

>  <Rbt.Current_Directory>
/home/afrankz/demos/rdock_decoys_rna/rnas/1xpf

>  <Rbt.Executable>
rbdock ($Id: //depot/dev/client3/rdock/2013.1/src/exe/rbdock.cxx#4 $)

>  <Rbt.Library>
libRbt.so (2013.1, Build901 2013/11/27)

>  <Rbt.Parameter_File>
/export/apps/rDock/src/rDock_2013.1_src/data/scripts/dock_solv.prm

>  <Rbt.Receptor>
prm/pocket_docking_5.prm

>  <SCORE>
-11.9942

>  <SCORE.INTER>
-4.62276

>  <SCORE.INTER.CONST>
1

>  <SCORE.INTER.POLAR>
-1.69443

>  <SCORE.INTER.ROT>
11

>  <SCORE.INTER.SOLV>
9.32049

>  <SCORE.INTER.VDW>
-11.4739

>  <SCORE.INTER.norm>
-0.330197

>  <SCORE.INTRA>
-7.37143

>  <SCORE.INTRA.DIHEDRAL>
-14.0087

>  <SCORE.INTRA.DIHEDRAL.0>
17.7811

>  <SCORE.INTRA.POLAR>
0

>  <SCORE.INTRA.POLAR.0>
0

>  <SCORE.INTRA.REPUL>
0

>  <SCORE.INTRA.REPUL.0>
0

>  <SCORE.INTRA.SOLV>
1.1788

>  <SCORE.INTRA.SOLV.lig_0>
-47.9565

>  <SCORE.INTRA.VDW>
-0.95649

>  <SCORE.INTRA.VDW.0>
0.515983

>  <SCORE.INTRA.norm>
-0.526531

>  <SCORE.RESTR>
0

>  <SCORE.RESTR.CAVITY>
0

>  <SCORE.RESTR.norm>
0

>  <SCORE.SYSTEM>
0

>  <SCORE.SYSTEM.CONST>
0

>  <SCORE.SYSTEM.DIHEDRAL>
0

>  <SCORE.SYSTEM.SOLV>
0

>  <SCORE.SYSTEM.norm>
0

>  <SCORE.heavy>
14

>  <SCORE.norm>
-0.856728

>  <RMSD>
4.299

$$$$
1xpf_lig
 OpenBabel02141814123D
libRbt.so/2013.1/901 2013/11/27
 14 13  0  0  0  0  0  0  0  0999 V2000
   17.6613   -2.2238   68.2276 N   0  0  0  0  0  0  0  0  0  0  0  0
   16.5167   -1.4745   67.7434 C   0  0  0  0  0  0  0  0  0  0  0  0
   16.6570   -1.1625   66.3016 C   0  0  0  0  0  0  0  0  0  0  0  0
   17.8115   -0.2173   66.1786 C   0  0  0  0  0  0  0  0  0  0  0  0
   17.9046    0.1487   64.7440 N   0  0  0  0  0  0  0  0  0  0  0  0
   19.0449    1.0879   64.5143 C   0  0  0  0  0  0  0  0  0  0  0  0
   19.0758    1.6735   63.0920 C   0  0  0  0  0  0  0  0  0  0  0  0
   20.2421    2.6459   62.8420 C   0  0  0  0  0  0  0  0  0  0  0  0
   20.1680    3.1562   61.4108 C   0  0  0  0  0  0  0  0  0  0  0  0
   21.3379    4.0344   61.2642 N   0  0  0  0  0  0  0  0  0  0  0  0
   21.7260    4.4583   59.8897 C   0  0  0  0  0  0  0  0  0  0  0  0
   22.8350    5.4804   60.2208 C   0  0  0  0  0  0  0  0  0  0  0  0
   24.1183    4.9843   60.8372 C   0  0  0  0  0  0  0  0  0  0  0  0
   25.1089    6.0150   61.0952 N   0  0  0  0  0  0  0  0  0  0  0  0
  1  2  1  0  0  0  0
  2  3  1  0  0  0  0
  3  4  1  0  0  0  0
  4  5  1  0  0  0  0
  5  6  1  0  0  0  0
  6  7  1  0  0  0  0
  7  8  1  0  0  0  0
  8  9  1  0  0  0  0
  9 10  1  0  0  0  0
 10 11  1  0  0  0  0
 11 12  1  0  0  0  0
 12 13  1  0  0  0  0
 13 14  1  0  0  0  0
M  END
>  <CHROM.1>
-66.45505155,-177.09686445,-179.47858586,-171.42643410,179.81527892,179.99459275
-178.27545956,166.70189401,172.82383491,67.17699651,179.15180438,20.01464957
2.04334772,63.45423742,-2.21940607,-0.39606578,-1.07119461

>  <Name>
1xpf_lig

>  <RI>
0

>  <Rbt.Current_Directory>
/home/afrankz/demos/rdock_decoys_rna/rnas/1xpf

>  <Rbt.Executable>
rbdock ($Id: //depot/dev/client3/rdock/2013.1/src/exe/rbdock.cxx#4 $)

>  <Rbt.Library>
libRbt.so (2013.1, Build901 2013/11/27)

>  <Rbt.Parameter_File>
/export/apps/rDock/src/rDock_2013.1_src/data/scripts/dock_solv.prm

>  <Rbt.Receptor>
prm/pocket_docking_7.prm

>  <SCORE>
-9.55795

>  <SCORE.INTER>
0.224257

>  <SCORE.INTER.CONST>
1

>  <SCORE.INTER.POLAR>
-0.8

>  <SCORE.INTER.ROT>
11

>  <SCORE.INTER.SOLV>
8.21503

>  <SCORE.INTER.VDW>
-10.8555

>  <SCORE.INTER.norm>
0.0160184

>  <SCORE.INTRA>
-9.78221

>  <SCORE.INTRA.DIHEDRAL>
-17.1452

>  <SCORE.INTRA.DIHEDRAL.0>
17.7811

>  <SCORE.INTRA.POLAR>
0

>  <SCORE.INTRA.POLAR.0>
0

>  <SCORE.INTRA.REPUL>
0

>  <SCORE.INTRA.REPUL.0>
0

>  <SCORE.INTRA.SOLV>
0.345496

>  <SCORE.INTRA.SOLV.lig_0>
-47.9565

>  <SCORE.INTRA.VDW>
-1.38235

>  <SCORE.INTRA.VDW.0>
0.515983

>  <SCORE.INTRA.norm>
-0.698729

>  <SCORE.RESTR>
0

>  <SCORE.RESTR.CAVITY>
0

>  <SCORE.RESTR.norm>
0

>  <SCORE.SYSTEM>
0

>  <SCORE.SYSTEM.CONST>
0

>  <SCORE.SYSTEM.DIHEDRAL>
0

>  <SCORE.SYSTEM.SOLV>
0

>  <SCORE.SYSTEM.norm>
0

>  <SCORE.heavy>
14

>  <SCORE.norm>
-0.682711

>  <RMSD>
4.309

$$$$
1xpf_lig
 OpenBabel02141814123D
libRbt.so/2013.1/901 2013/11/27
 14 13  0  0  0  0  0  0  0  0999 V2000
   15.3617   -3.2169   69.7253 N   0  0  0  0  0  0  0  0  0  0  0  0
   16.1901   -2.2285   69.0598 C   0  0  0  0  0  0  0  0  0  0  0  0
   16.3519   -2.5513   67.6226 C   0  0  0  0  0  0  0  0  0  0  0  0
   17.0603   -1.3886   67.0000 C   0  0  0  0  0  0  0  0  0  0  0  0
   18.4763   -1.4776   67.4331 N   0  0  0  0  0  0  0  0  0  0  0  0
   19.2866   -0.3881   66.8075 C   0  0  0  0  0  0  0  0  0  0  0  0
   19.1073    0.9767   67.4946 C   0  0  0  0  0  0  0  0  0  0  0  0
   20.0466    2.0729   66.9611 C   0  0  0  0  0  0  0  0  0  0  0  0
   19.6952    2.3684   65.5108 C   0  0  0  0  0  0  0  0  0  0  0  0
   20.0292    3.7881   65.3253 N   0  0  0  0  0  0  0  0  0  0  0  0
   20.1231    4.3078   63.9323 C   0  0  0  0  0  0  0  0  0  0  0  0
   20.3858    5.8030   64.2146 C   0  0  0  0  0  0  0  0  0  0  0  0
   20.6782    6.7200   63.0542 C   0  0  0  0  0  0  0  0  0  0  0  0
   20.8914    8.1109   63.4150 N   0  0  0  0  0  0  0  0  0  0  0  0
  1  2  1  0  0  0  0
  2  3  1  0  0  0  0
  3  4  1  0  0  0  0
  4  5  1  0  0  0  0
  5  6  1  0  0  0  0
  6  7  1  0  0  0  0
  7  8  1  0  0  0  0
  8  9  1  0  0  0  0
  9 10  1  0  0  0  0
 10 11  1  0  0  0  0
 11 12  1  0  0  0  0
 12 13  1  0  0  0  0
 13 14  1  0  0  0  0
M  END
>  <CHROM.1>
172.68341449,74.41275951,177.35099216,78.36424356,173.74570599,65.38335392
149.43404889,165.02877927,176.35332878,174.48271436,179.08932408,18.83459471
1.63540697,66.25392254,1.95929370,-0.00845874,2.64958148

>  <Name>
1xpf_lig

>  <RI>
0

>  <Rbt.Current_Directory>
/home/afrankz/demos/rdock_decoys_rna/rnas/1xpf

>  <Rbt.Executable>
rbdock ($Id: //depot/dev/client3/rdock/2013.1/src/exe/rbdock.cxx#4 $)

>  <Rbt.Library>
libRbt.so (2013.1, Build901 2013/11/27)

>  <Rbt.Parameter_File>
/export/apps/rDock/src/rDock_2013.1_src/data/scripts/dock_solv.prm

>  <Rbt.Receptor>
prm/blind_docking_100.prm

>  <SCORE>
-12.5227

>  <SCORE.INTER>
-5.12766

>  <SCORE.INTER.CONST>
1

>  <SCORE.INTER.POLAR>
-1.05557

>  <SCORE.INTER.ROT>
11

>  <SCORE.INTER.SOLV>
17.7571

>  <SCORE.INTER.VDW>
-16.7522

>  <SCORE.INTER.norm>
-0.366261

>  <SCORE.INTRA>
-7.39534

>  <SCORE.INTRA.DIHEDRAL>
-13.1566

>  <SCORE.INTRA.DIHEDRAL.0>
17.7811

>  <SCORE.INTRA.POLAR>
0

>  <SCORE.INTRA.POLAR.0>
0

>  <SCORE.INTRA.REPUL>
0

>  <SCORE.INTRA.REPUL.0>
0

>  <SCORE.INTRA.SOLV>
-0.322021

>  <SCORE.INTRA.SOLV.lig_0>
-47.9565

>  <SCORE.INTRA.VDW>
-0.656047

>  <SCORE.INTRA.VDW.0>
0.515983

>  <SCORE.INTRA.norm>
-0.528239

>  <SCORE.RESTR>
0.00033367

>  <SCORE.RESTR.CAVITY>
0.00033367

>  <SCORE.RESTR.norm>
2.38336e-05

>  <SCORE.SYSTEM>
0

>  <SCORE.SYSTEM.CONST>
0

>  <SCORE.SYSTEM.DIHEDRAL>
0

>  <SCORE.SYSTEM.SOLV>
0

>  <SCORE.SYSTEM.norm>
0

>  <SCORE.heavy>
14

>  <SCORE.norm>
-0.894476

>  <RMSD>
4.310

$$$$
1xpf_lig
 OpenBabel02141814123D
libRbt.so/2013.1/901 2013/11/27
 14 13  0  0  0  0  0  0  0  0999 V2000
   23.6542    5.8811   58.1656 N   0  0  0  0  0  0  0  0  0  0  0  0
   23.5619    4.5947   58.8310 C   0  0  0  0  0  0  0  0  0  0  0  0
   22.2457    4.4313   59.4919 C   0  0  0  0  0  0  0  0  0  0  0  0
   22.2042    3.0321   60.0228 C   0  0  0  0  0  0  0  0  0  0  0  0
   20.8489    2.8391   60.5943 N   0  0  0  0  0  0  0  0  0  0  0  0
   20.4900    1.3880   60.6168 C   0  0  0  0  0  0  0  0  0  0  0  0
   20.8692    0.6863   61.9324 C   0  0  0  0  0  0  0  0  0  0  0  0
   19.9468    1.0340   63.1142 C   0  0  0  0  0  0  0  0  0  0  0  0
   20.4179    0.2853   64.3518 C   0  0  0  0  0  0  0  0  0  0  0  0
   19.2956    0.3785   65.2970 N   0  0  0  0  0  0  0  0  0  0  0  0
   18.8027   -0.8803   65.9231 C   0  0  0  0  0  0  0  0  0  0  0  0
   17.5476   -0.3515   66.6506 C   0  0  0  0  0  0  0  0  0  0  0  0
   16.6587   -1.3334   67.3707 C   0  0  0  0  0  0  0  0  0  0  0  0
   17.3006   -2.0542   68.4564 N   0  0  0  0  0  0  0  0  0  0  0  0
  1  2  1  0  0  0  0
  2  3  1  0  0  0  0
  3  4  1  0  0  0  0
  4  5  1  0  0  0  0
  5  6  1  0  0  0  0
  6  7  1  0  0  0  0
  7  8  1  0  0  0  0
  8  9  1  0  0  0  0
  9 10  1  0  0  0  0
 10 11  1  0  0  0  0
 11 12  1  0  0  0  0
 12 13  1  0  0  0  0
 13 14  1  0  0  0  0
M  END
>  <CHROM.1>
174.42149521,-175.88873965,155.89549610,91.61954900,74.45879840,179.99915850
-164.88355843,128.84303287,-172.56769293,176.12023746,61.55924894,20.27456898
1.42350454,62.91553467,-0.08127019,1.08801626,0.69385801

>  <Name>
1xpf_lig

>  <RI>
0

>  <Rbt.Current_Directory>
/home/afrankz/demos/rdock_decoys_rna/rnas/1xpf

>  <Rbt.Executable>
rbdock ($Id: //depot/dev/client3/rdock/2013.1/src/exe/rbdock.cxx#4 $)

>  <Rbt.Library>
libRbt.so (2013.1, Build901 2013/11/27)

>  <Rbt.Parameter_File>
/export/apps/rDock/src/rDock_2013.1_src/data/scripts/dock_solv.prm

>  <Rbt.Receptor>
prm/pocket_docking_7.prm

>  <SCORE>
-11.6237

>  <SCORE.INTER>
-2.94996

>  <SCORE.INTER.CONST>
1

>  <SCORE.INTER.POLAR>
-1.64795

>  <SCORE.INTER.ROT>
11

>  <SCORE.INTER.SOLV>
10.9656

>  <SCORE.INTER.VDW>
-11.062

>  <SCORE.INTER.norm>
-0.210711

>  <SCORE.INTRA>
-8.67379

>  <SCORE.INTRA.DIHEDRAL>
-13.7101

>  <SCORE.INTRA.DIHEDRAL.0>
17.7811

>  <SCORE.INTRA.POLAR>
0

>  <SCORE.INTRA.POLAR.0>
0

>  <SCORE.INTRA.REPUL>
0

>  <SCORE.INTRA.REPUL.0>
0

>  <SCORE.INTRA.SOLV>
-0.0564649

>  <SCORE.INTRA.SOLV.lig_0>
-47.9565

>  <SCORE.INTRA.VDW>
-1.7905

>  <SCORE.INTRA.VDW.0>
0.515983

>  <SCORE.INTRA.norm>
-0.619556

>  <SCORE.RESTR>
0

>  <SCORE.RESTR.CAVITY>
0

>  <SCORE.RESTR.norm>
0

>  <SCORE.SYSTEM>
0

>  <SCORE.SYSTEM.CONST>
0

>  <SCORE.SYSTEM.DIHEDRAL>
0

>  <SCORE.SYSTEM.SOLV>
0

>  <SCORE.SYSTEM.norm>
0

>  <SCORE.heavy>
14

>  <SCORE.norm>
-0.830268

>  <RMSD>
4.323

$$$$
1xpf_lig
 OpenBabel02141814123D
libRbt.so/2013.1/901 2013/11/27
 14 13  0  0  0  0  0  0  0  0999 V2000
   16.5309   -3.1673   66.1246 N   0  0  0  0  0  0  0  0  0  0  0  0
   16.6327   -2.5422   67.4304 C   0  0  0  0  0  0  0  0  0  0  0  0
   16.8597   -1.0832   67.3049 C   0  0  0  0  0  0  0  0  0  0  0  0
   18.2409   -0.9109   66.7535 C   0  0  0  0  0  0  0  0  0  0  0  0
   18.4669    0.5504   66.6342 N   0  0  0  0  0  0  0  0  0  0  0  0
   19.9105    0.8392   66.3742 C   0  0  0  0  0  0  0  0  0  0  0  0
   20.1876    2.3168   66.0471 C   0  0  0  0  0  0  0  0  0  0  0  0
   19.7783    3.2916   67.1655 C   0  0  0  0  0  0  0  0  0  0  0  0
   20.2780    4.6861   66.8193 C   0  0  0  0  0  0  0  0  0  0  0  0
   19.5299    5.0639   65.6114 N   0  0  0  0  0  0  0  0  0  0  0  0
   19.5293    6.4985   65.2096 C   0  0  0  0  0  0  0  0  0  0  0  0
   20.6494    6.4861   64.1468 C   0  0  0  0  0  0  0  0  0  0  0  0
   21.0909    7.7949   63.5428 C   0  0  0  0  0  0  0  0  0  0  0  0
   22.1370    7.6819   62.5412 N   0  0  0  0  0  0  0  0  0  0  0  0
  1  2  1  0  0  0  0
  2  3  1  0  0  0  0
  3  4  1  0  0  0  0
  4  5  1  0  0  0  0
  5  6  1  0  0  0  0
  6  7  1  0  0  0  0
  7  8  1  0  0  0  0
  8  9  1  0  0  0  0
  9 10  1  0  0  0  0
 10 11  1  0  0  0  0
 11 12  1  0  0  0  0
 12 13  1  0  0  0  0
 13 14  1  0  0  0  0
M  END
>  <CHROM.1>
-69.06680920,-179.78332336,167.78928772,172.05834026,59.82403663,171.92789575
65.22795249,164.85352888,97.34093808,-174.35128077,-179.27345491,19.27305311
2.67903971,65.83635884,3.08881433,1.19014084,1.31811570

>  <Name>
1xpf_lig

>  <RI>
0

>  <Rbt.Current_Directory>
/home/afrankz/demos/rdock_decoys_rna/rnas/1xpf

>  <Rbt.Executable>
rbdock ($Id: //depot/dev/client3/rdock/2013.1/src/exe/rbdock.cxx#4 $)

>  <Rbt.Library>
libRbt.so (2013.1, Build901 2013/11/27)

>  <Rbt.Parameter_File>
/export/apps/rDock/src/rDock_2013.1_src/data/scripts/dock_solv.prm

>  <Rbt.Receptor>
prm/pocket_docking_5.prm

>  <SCORE>
-13.4615

>  <SCORE.INTER>
-4.91044

>  <SCORE.INTER.CONST>
1

>  <SCORE.INTER.POLAR>
-0.914444

>  <SCORE.INTER.ROT>
11

>  <SCORE.INTER.SOLV>
13.5419

>  <SCORE.INTER.VDW>
-15.6728

>  <SCORE.INTER.norm>
-0.350746

>  <SCORE.INTRA>
-8.55104

>  <SCORE.INTRA.DIHEDRAL>
-15.8081

>  <SCORE.INTRA.DIHEDRAL.0>
17.7811

>  <SCORE.INTRA.POLAR>
0

>  <SCORE.INTRA.POLAR.0>
0

>  <SCORE.INTRA.REPUL>
0

>  <SCORE.INTRA.REPUL.0>
0

>  <SCORE.INTRA.SOLV>
0.699692

>  <SCORE.INTRA.SOLV.lig_0>
-47.9565

>  <SCORE.INTRA.VDW>
-0.996858

>  <SCORE.INTRA.VDW.0>
0.515983

>  <SCORE.INTRA.norm>
-0.610789

>  <SCORE.RESTR>
0

>  <SCORE.RESTR.CAVITY>
0

>  <SCORE.RESTR.norm>
0

>  <SCORE.SYSTEM>
0

>  <SCORE.SYSTEM.CONST>
0

>  <SCORE.SYSTEM.DIHEDRAL>
0

>  <SCORE.SYSTEM.SOLV>
0

>  <SCORE.SYSTEM.norm>
0

>  <SCORE.heavy>
14

>  <SCORE.norm>
-0.961534

>  <RMSD>
4.324

$$$$
1xpf_lig
 OpenBabel02141814123D
libRbt.so/2013.1/901 2013/11/27
 14 13  0  0  0  0  0  0  0  0999 V2000
   20.6403   -2.6525   63.5624 N   0  0  0  0  0  0  0  0  0  0  0  0
   21.3919   -2.1136   64.6808 C   0  0  0  0  0  0  0  0  0  0  0  0
   20.8756   -0.7819   65.0758 C   0  0  0  0  0  0  0  0  0  0  0  0
   19.5393   -1.0120   65.7103 C   0  0  0  0  0  0  0  0  0  0  0  0
   19.0352    0.3203   66.1244 N   0  0  0  0  0  0  0  0  0  0  0  0
   19.5375    0.6716   67.4879 C   0  0  0  0  0  0  0  0  0  0  0  0
   19.3721    2.1616   67.8337 C   0  0  0  0  0  0  0  0  0  0  0  0
   20.0844    3.1127   66.8557 C   0  0  0  0  0  0  0  0  0  0  0  0
   19.7927    4.5508   67.2569 C   0  0  0  0  0  0  0  0  0  0  0  0
   20.5842    5.3683   66.3258 N   0  0  0  0  0  0  0  0  0  0  0  0
   19.9609    5.7505   65.0278 C   0  0  0  0  0  0  0  0  0  0  0  0
   21.1753    6.3864   64.3171 C   0  0  0  0  0  0  0  0  0  0  0  0
   21.0099    6.8846   62.9038 C   0  0  0  0  0  0  0  0  0  0  0  0
   22.2183    7.4196   62.3008 N   0  0  0  0  0  0  0  0  0  0  0  0
  1  2  1  0  0  0  0
  2  3  1  0  0  0  0
  3  4  1  0  0  0  0
  4  5  1  0  0  0  0
  5  6  1  0  0  0  0
  6  7  1  0  0  0  0
  7  8  1  0  0  0  0
  8  9  1  0  0  0  0
  9 10  1  0  0  0  0
 10 11  1  0  0  0  0
 11 12  1  0  0  0  0
 12 13  1  0  0  0  0
 13 14  1  0  0  0  0
M  END
>  <CHROM.1>
70.72650003,179.10109984,-86.85968057,164.88129456,-58.39236100,177.16812672
176.30534912,88.20103937,-171.95603552,177.72962939,-177.75758772,20.37257878
2.57615323,65.39056237,-1.81525804,1.15530807,0.07289199

>  <Name>
1xpf_lig

>  <RI>
0

>  <Rbt.Current_Directory>
/home/afrankz/demos/rdock_decoys_rna/rnas/1xpf

>  <Rbt.Executable>
rbdock ($Id: //depot/dev/client3/rdock/2013.1/src/exe/rbdock.cxx#4 $)

>  <Rbt.Library>
libRbt.so (2013.1, Build901 2013/11/27)

>  <Rbt.Parameter_File>
/export/apps/rDock/src/rDock_2013.1_src/data/scripts/dock_solv.prm

>  <Rbt.Receptor>
prm/pocket_docking_4.prm

>  <SCORE>
-13.9451

>  <SCORE.INTER>
-5.17506

>  <SCORE.INTER.CONST>
1

>  <SCORE.INTER.POLAR>
-0.916515

>  <SCORE.INTER.ROT>
11

>  <SCORE.INTER.SOLV>
8.95066

>  <SCORE.INTER.VDW>
-14.3119

>  <SCORE.INTER.norm>
-0.369647

>  <SCORE.INTRA>
-8.77007

>  <SCORE.INTRA.DIHEDRAL>
-15.9446

>  <SCORE.INTRA.DIHEDRAL.0>
17.7811

>  <SCORE.INTRA.POLAR>
0

>  <SCORE.INTRA.POLAR.0>
0

>  <SCORE.INTRA.REPUL>
0

>  <SCORE.INTRA.REPUL.0>
0

>  <SCORE.INTRA.SOLV>
0.231158

>  <SCORE.INTRA.SOLV.lig_0>
-47.9565

>  <SCORE.INTRA.VDW>
-0.913374

>  <SCORE.INTRA.VDW.0>
0.515983

>  <SCORE.INTRA.norm>
-0.626434

>  <SCORE.RESTR>
0

>  <SCORE.RESTR.CAVITY>
0

>  <SCORE.RESTR.norm>
0

>  <SCORE.SYSTEM>
0

>  <SCORE.SYSTEM.CONST>
0

>  <SCORE.SYSTEM.DIHEDRAL>
0

>  <SCORE.SYSTEM.SOLV>
0

>  <SCORE.SYSTEM.norm>
0

>  <SCORE.heavy>
14

>  <SCORE.norm>
-0.99608

>  <RMSD>
4.328

$$$$
1xpf_lig
 OpenBabel02141814123D
libRbt.so/2013.1/901 2013/11/27
 14 13  0  0  0  0  0  0  0  0999 V2000
   17.7715   -0.2564   68.3520 N   0  0  0  0  0  0  0  0  0  0  0  0
   17.4212   -0.5224   66.9690 C   0  0  0  0  0  0  0  0  0  0  0  0
   18.3450    0.1742   66.0432 C   0  0  0  0  0  0  0  0  0  0  0  0
   17.8351   -0.0793   64.6586 C   0  0  0  0  0  0  0  0  0  0  0  0
   18.6255    0.7905   63.7534 N   0  0  0  0  0  0  0  0  0  0  0  0
   19.5036   -0.0334   62.8673 C   0  0  0  0  0  0  0  0  0  0  0  0
   19.1492    0.0871   61.3751 C   0  0  0  0  0  0  0  0  0  0  0  0
   19.2886    1.5130   60.8131 C   0  0  0  0  0  0  0  0  0  0  0  0
   20.7598    1.8994   60.7924 C   0  0  0  0  0  0  0  0  0  0  0  0
   20.7946    3.2094   60.1260 N   0  0  0  0  0  0  0  0  0  0  0  0
   22.1255    3.8279   59.8694 C   0  0  0  0  0  0  0  0  0  0  0  0
   21.9911    5.1224   60.7004 C   0  0  0  0  0  0  0  0  0  0  0  0
   23.2116    5.9836   60.9044 C   0  0  0  0  0  0  0  0  0  0  0  0
   22.9833    7.1906   61.6796 N   0  0  0  0  0  0  0  0  0  0  0  0
  1  2  1  0  0  0  0
  2  3  1  0  0  0  0
  3  4  1  0  0  0  0
  4  5  1  0  0  0  0
  5  6  1  0  0  0  0
  6  7  1  0  0  0  0
  7  8  1  0  0  0  0
  8  9  1  0  0  0  0
  9 10  1  0  0  0  0
 10 11  1  0  0  0  0
 11 12  1  0  0  0  0
 12 13  1  0  0  0  0
 13 14  1  0  0  0  0
M  END
>  <CHROM.1>
-175.75853606,171.13897267,112.37609021,115.92301417,61.38003198,68.04630309
174.72328661,-176.13354128,-118.72307399,170.80008453,179.02049882,19.98609095
2.06448143,62.77856184,-2.71409806,-0.99823744,-1.87633783

>  <Name>
1xpf_lig

>  <RI>
0

>  <Rbt.Current_Directory>
/home/afrankz/demos/rdock_decoys_rna/rnas/1xpf

>  <Rbt.Executable>
rbdock ($Id: //depot/dev/client3/rdock/2013.1/src/exe/rbdock.cxx#4 $)

>  <Rbt.Library>
libRbt.so (2013.1, Build901 2013/11/27)

>  <Rbt.Parameter_File>
/export/apps/rDock/src/rDock_2013.1_src/data/scripts/dock_solv.prm

>  <Rbt.Receptor>
prm/pocket_docking_5.prm

>  <SCORE>
-10.9997

>  <SCORE.INTER>
-3.07663

>  <SCORE.INTER.CONST>
1

>  <SCORE.INTER.POLAR>
-2.41687

>  <SCORE.INTER.ROT>
11

>  <SCORE.INTER.SOLV>
13.0111

>  <SCORE.INTER.VDW>
-9.26522

>  <SCORE.INTER.norm>
-0.21976

>  <SCORE.INTRA>
-7.92307

>  <SCORE.INTRA.DIHEDRAL>
-13.1742

>  <SCORE.INTRA.DIHEDRAL.0>
17.7811

>  <SCORE.INTRA.POLAR>
0

>  <SCORE.INTRA.POLAR.0>
0

>  <SCORE.INTRA.REPUL>
0

>  <SCORE.INTRA.REPUL.0>
0

>  <SCORE.INTRA.SOLV>
-0.275975

>  <SCORE.INTRA.SOLV.lig_0>
-47.9565

>  <SCORE.INTRA.VDW>
-1.19796

>  <SCORE.INTRA.VDW.0>
0.515983

>  <SCORE.INTRA.norm>
-0.565934

>  <SCORE.RESTR>
0

>  <SCORE.RESTR.CAVITY>
0

>  <SCORE.RESTR.norm>
0

>  <SCORE.SYSTEM>
0

>  <SCORE.SYSTEM.CONST>
0

>  <SCORE.SYSTEM.DIHEDRAL>
0

>  <SCORE.SYSTEM.SOLV>
0

>  <SCORE.SYSTEM.norm>
0

>  <SCORE.heavy>
14

>  <SCORE.norm>
-0.785693

>  <RMSD>
4.336

$$$$
1xpf_lig
 OpenBabel02141814123D
libRbt.so/2013.1/901 2013/11/27
 14 13  0  0  0  0  0  0  0  0999 V2000
   20.9810    5.2135   63.7470 N   0  0  0  0  0  0  0  0  0  0  0  0
   20.1988    5.0649   64.9603 C   0  0  0  0  0  0  0  0  0  0  0  0
   21.0548    4.6526   66.0974 C   0  0  0  0  0  0  0  0  0  0  0  0
   20.1572    4.5412   67.2904 C   0  0  0  0  0  0  0  0  0  0  0  0
   19.3676    3.2986   67.1083 N   0  0  0  0  0  0  0  0  0  0  0  0
   19.7820    2.2623   68.1030 C   0  0  0  0  0  0  0  0  0  0  0  0
   19.8212    0.8389   67.5204 C   0  0  0  0  0  0  0  0  0  0  0  0
   18.4714    0.3555   66.9610 C   0  0  0  0  0  0  0  0  0  0  0  0
   18.6613   -1.0040   66.3054 C   0  0  0  0  0  0  0  0  0  0  0  0
   19.5733   -0.7539   65.1797 N   0  0  0  0  0  0  0  0  0  0  0  0
   20.7399   -1.6646   65.0096 C   0  0  0  0  0  0  0  0  0  0  0  0
   21.3919   -1.0438   63.7551 C   0  0  0  0  0  0  0  0  0  0  0  0
   22.6386   -1.6801   63.1951 C   0  0  0  0  0  0  0  0  0  0  0  0
   23.1817   -1.0244   62.0181 N   0  0  0  0  0  0  0  0  0  0  0  0
  1  2  1  0  0  0  0
  2  3  1  0  0  0  0
  3  4  1  0  0  0  0
  4  5  1  0  0  0  0
  5  6  1  0  0  0  0
  6  7  1  0  0  0  0
  7  8  1  0  0  0  0
  8  9  1  0  0  0  0
  9 10  1  0  0  0  0
 10 11  1  0  0  0  0
 11 12  1  0  0  0  0
 12 13  1  0  0  0  0
 13 14  1  0  0  0  0
M  END
>  <CHROM.1>
179.51027083,74.23537418,110.59958640,-141.06693188,-59.31939472,175.00117353
-63.82174271,132.19392464,-179.86017320,-179.17722302,-179.80415817,20.42990457
1.36106286,65.51832583,-1.94390996,-0.93961447,-3.03045562

>  <Name>
1xpf_lig

>  <RI>
0

>  <Rbt.Current_Directory>
/home/afrankz/demos/rdock_decoys_rna/rnas/1xpf

>  <Rbt.Executable>
rbdock ($Id: //depot/dev/client3/rdock/2013.1/src/exe/rbdock.cxx#4 $)

>  <Rbt.Library>
libRbt.so (2013.1, Build901 2013/11/27)

>  <Rbt.Parameter_File>
/export/apps/rDock/src/rDock_2013.1_src/data/scripts/dock_solv.prm

>  <Rbt.Receptor>
prm/pocket_docking_4.prm

>  <SCORE>
-9.48243

>  <SCORE.INTER>
-1.46979

>  <SCORE.INTER.CONST>
1

>  <SCORE.INTER.POLAR>
0

>  <SCORE.INTER.ROT>
11

>  <SCORE.INTER.SOLV>
5.22113

>  <SCORE.INTER.VDW>
-13.6536

>  <SCORE.INTER.norm>
-0.104985

>  <SCORE.INTRA>
-8.01279

>  <SCORE.INTRA.DIHEDRAL>
-13.8035

>  <SCORE.INTRA.DIHEDRAL.0>
17.7811

>  <SCORE.INTRA.POLAR>
0

>  <SCORE.INTRA.POLAR.0>
0

>  <SCORE.INTRA.REPUL>
0

>  <SCORE.INTRA.REPUL.0>
0

>  <SCORE.INTRA.SOLV>
0.409859

>  <SCORE.INTRA.SOLV.lig_0>
-47.9565

>  <SCORE.INTRA.VDW>
-1.31599

>  <SCORE.INTRA.VDW.0>
0.515983

>  <SCORE.INTRA.norm>
-0.572342

>  <SCORE.RESTR>
0.000147161

>  <SCORE.RESTR.CAVITY>
0.000147161

>  <SCORE.RESTR.norm>
1.05115e-05

>  <SCORE.SYSTEM>
0

>  <SCORE.SYSTEM.CONST>
0

>  <SCORE.SYSTEM.DIHEDRAL>
0

>  <SCORE.SYSTEM.SOLV>
0

>  <SCORE.SYSTEM.norm>
0

>  <SCORE.heavy>
14

>  <SCORE.norm>
-0.677317

>  <RMSD>
4.339

$$$$
1xpf_lig
 OpenBabel02141814123D
libRbt.so/2013.1/901 2013/11/27
 14 13  0  0  0  0  0  0  0  0999 V2000
   22.3372    3.9082   58.8952 N   0  0  0  0  0  0  0  0  0  0  0  0
   22.2234    5.0266   59.8130 C   0  0  0  0  0  0  0  0  0  0  0  0
   22.0332    4.5548   61.2048 C   0  0  0  0  0  0  0  0  0  0  0  0
   21.8684    5.7778   62.0525 C   0  0  0  0  0  0  0  0  0  0  0  0
   21.8031    5.3094   63.4585 N   0  0  0  0  0  0  0  0  0  0  0  0
   20.4210    5.4747   64.0038 C   0  0  0  0  0  0  0  0  0  0  0  0
   20.1125    4.5322   65.1800 C   0  0  0  0  0  0  0  0  0  0  0  0
   20.0008    3.0502   64.7804 C   0  0  0  0  0  0  0  0  0  0  0  0
   19.7684    2.2130   66.0290 C   0  0  0  0  0  0  0  0  0  0  0  0
   19.5016    0.8570   65.5276 N   0  0  0  0  0  0  0  0  0  0  0  0
   20.3853   -0.2476   65.9952 C   0  0  0  0  0  0  0  0  0  0  0  0
   20.4995   -1.0756   64.6969 C   0  0  0  0  0  0  0  0  0  0  0  0
   21.3475   -2.3221   64.7036 C   0  0  0  0  0  0  0  0  0  0  0  0
   21.3925   -3.0356   63.4391 N   0  0  0  0  0  0  0  0  0  0  0  0
  1  2  1  0  0  0  0
  2  3  1  0  0  0  0
  3  4  1  0  0  0  0
  4  5  1  0  0  0  0
  5  6  1  0  0  0  0
  6  7  1  0  0  0  0
  7  8  1  0  0  0  0
  8  9  1  0  0  0  0
  9 10  1  0  0  0  0
 10 11  1  0  0  0  0
 11 12  1  0  0  0  0
 12 13  1  0  0  0  0
 13 14  1  0  0  0  0
M  END
>  <CHROM.1>
-177.57266513,-174.93137581,-109.44834596,156.39504567,-69.41736585,177.05559896
172.80835395,122.21560641,-141.97877203,179.16530769,179.89180709,20.97806429
2.43048778,63.55598573,-1.15782466,-1.16186132,3.00961757

>  <Name>
1xpf_lig

>  <RI>
0

>  <Rbt.Current_Directory>
/home/afrankz/demos/rdock_decoys_rna/rnas/1xpf

>  <Rbt.Executable>
rbdock ($Id: //depot/dev/client3/rdock/2013.1/src/exe/rbdock.cxx#4 $)

>  <Rbt.Library>
libRbt.so (2013.1, Build901 2013/11/27)

>  <Rbt.Parameter_File>
/export/apps/rDock/src/rDock_2013.1_src/data/scripts/dock_solv.prm

>  <Rbt.Receptor>
prm/pocket_docking_3.prm

>  <SCORE>
-9.79897

>  <SCORE.INTER>
-0.792846

>  <SCORE.INTER.CONST>
1

>  <SCORE.INTER.POLAR>
-0.886661

>  <SCORE.INTER.ROT>
11

>  <SCORE.INTER.SOLV>
10.1359

>  <SCORE.INTER.VDW>
-11.885

>  <SCORE.INTER.norm>
-0.0566319

>  <SCORE.INTRA>
-9.01092

>  <SCORE.INTRA.DIHEDRAL>
-13.5469

>  <SCORE.INTRA.DIHEDRAL.0>
17.7811

>  <SCORE.INTRA.POLAR>
0

>  <SCORE.INTRA.POLAR.0>
0

>  <SCORE.INTRA.REPUL>
0

>  <SCORE.INTRA.REPUL.0>
0

>  <SCORE.INTRA.SOLV>
-0.665869

>  <SCORE.INTRA.SOLV.lig_0>
-47.9565

>  <SCORE.INTRA.VDW>
-1.90455

>  <SCORE.INTRA.VDW.0>
0.515983

>  <SCORE.INTRA.norm>
-0.643637

>  <SCORE.RESTR>
0.00480284

>  <SCORE.RESTR.CAVITY>
0.00480284

>  <SCORE.RESTR.norm>
0.00034306

>  <SCORE.SYSTEM>
0

>  <SCORE.SYSTEM.CONST>
0

>  <SCORE.SYSTEM.DIHEDRAL>
0

>  <SCORE.SYSTEM.SOLV>
0

>  <SCORE.SYSTEM.norm>
0

>  <SCORE.heavy>
14

>  <SCORE.norm>
-0.699926

>  <RMSD>
4.356

$$$$
1xpf_lig
 OpenBabel02141814123D
libRbt.so/2013.1/901 2013/11/27
 14 13  0  0  0  0  0  0  0  0999 V2000
   20.6646    2.7923   65.1837 N   0  0  0  0  0  0  0  0  0  0  0  0
   19.9210    2.4070   66.3689 C   0  0  0  0  0  0  0  0  0  0  0  0
   19.6563    0.9491   66.3798 C   0  0  0  0  0  0  0  0  0  0  0  0
   18.8054    0.6776   67.5813 C   0  0  0  0  0  0  0  0  0  0  0  0
   18.5039   -0.7748   67.5638 N   0  0  0  0  0  0  0  0  0  0  0  0
   17.0306   -1.0043   67.4558 C   0  0  0  0  0  0  0  0  0  0  0  0
   16.6678   -2.2834   66.6816 C   0  0  0  0  0  0  0  0  0  0  0  0
   17.0646   -2.2476   65.1951 C   0  0  0  0  0  0  0  0  0  0  0  0
   16.7352   -3.5894   64.5585 C   0  0  0  0  0  0  0  0  0  0  0  0
   17.1033   -3.4341   63.1436 N   0  0  0  0  0  0  0  0  0  0  0  0
   16.9671   -4.6197   62.2517 C   0  0  0  0  0  0  0  0  0  0  0  0
   16.9690   -3.9266   60.8719 C   0  0  0  0  0  0  0  0  0  0  0  0
   15.8527   -2.9694   60.5394 C   0  0  0  0  0  0  0  0  0  0  0  0
   15.9588   -2.3389   59.2350 N   0  0  0  0  0  0  0  0  0  0  0  0
  1  2  1  0  0  0  0
  2  3  1  0  0  0  0
  3  4  1  0  0  0  0
  4  5  1  0  0  0  0
  5  6  1  0  0  0  0
  6  7  1  0  0  0  0
  7  8  1  0  0  0  0
  8  9  1  0  0  0  0
  9 10  1  0  0  0  0
 10 11  1  0  0  0  0
 11 12  1  0  0  0  0
 12 13  1  0  0  0  0
 13 14  1  0  0  0  0
M  END
>  <CHROM.1>
-175.94209092,178.11807620,-118.63785712,147.95032162,-65.43706786,176.57424380
178.00465568,176.70280178,161.54452859,-63.04535963,178.39045956,17.70703353
-1.45466999,64.50100925,-0.78063139,-1.03382869,-1.53857414

>  <Name>
1xpf_lig

>  <RI>
0

>  <Rbt.Current_Directory>
/home/afrankz/demos/rdock_decoys_rna/rnas/1xpf

>  <Rbt.Executable>
rbdock ($Id: //depot/dev/client3/rdock/2013.1/src/exe/rbdock.cxx#4 $)

>  <Rbt.Library>
libRbt.so (2013.1, Build901 2013/11/27)

>  <Rbt.Parameter_File>
/export/apps/rDock/src/rDock_2013.1_src/data/scripts/dock_solv.prm

>  <Rbt.Receptor>
prm/pocket_docking_8.prm

>  <SCORE>
-16.0796

>  <SCORE.INTER>
-6.51217

>  <SCORE.INTER.CONST>
1

>  <SCORE.INTER.POLAR>
-1.70903

>  <SCORE.INTER.ROT>
11

>  <SCORE.INTER.SOLV>
10.88

>  <SCORE.INTER.VDW>
-13.2047

>  <SCORE.INTER.norm>
-0.465155

>  <SCORE.INTRA>
-9.56739

>  <SCORE.INTRA.DIHEDRAL>
-15.3549

>  <SCORE.INTRA.DIHEDRAL.0>
17.7811

>  <SCORE.INTRA.POLAR>
0

>  <SCORE.INTRA.POLAR.0>
0

>  <SCORE.INTRA.REPUL>
0

>  <SCORE.INTRA.REPUL.0>
0

>  <SCORE.INTRA.SOLV>
-0.116576

>  <SCORE.INTRA.SOLV.lig_0>
-47.9565

>  <SCORE.INTRA.VDW>
-1.83164

>  <SCORE.INTRA.VDW.0>
0.515983

>  <SCORE.INTRA.norm>
-0.683385

>  <SCORE.RESTR>
0

>  <SCORE.RESTR.CAVITY>
0

>  <SCORE.RESTR.norm>
0

>  <SCORE.SYSTEM>
0

>  <SCORE.SYSTEM.CONST>
0

>  <SCORE.SYSTEM.DIHEDRAL>
0

>  <SCORE.SYSTEM.SOLV>
0

>  <SCORE.SYSTEM.norm>
0

>  <SCORE.heavy>
14

>  <SCORE.norm>
-1.14854

>  <RMSD>
4.369

$$$$
1xpf_lig
 OpenBabel02141814123D
libRbt.so/2013.1/901 2013/11/27
 14 13  0  0  0  0  0  0  0  0999 V2000
   18.6068   -0.6109   67.4794 N   0  0  0  0  0  0  0  0  0  0  0  0
   18.8246    0.4552   66.5191 C   0  0  0  0  0  0  0  0  0  0  0  0
   20.1430    0.3136   65.8577 C   0  0  0  0  0  0  0  0  0  0  0  0
   20.0175   -0.8237   64.8922 C   0  0  0  0  0  0  0  0  0  0  0  0
   21.2412   -0.8009   64.0539 N   0  0  0  0  0  0  0  0  0  0  0  0
   21.4664   -2.1344   63.4166 C   0  0  0  0  0  0  0  0  0  0  0  0
   22.5690   -2.1192   62.3438 C   0  0  0  0  0  0  0  0  0  0  0  0
   22.1725   -1.3847   61.0508 C   0  0  0  0  0  0  0  0  0  0  0  0
   22.2254    0.1161   61.2935 C   0  0  0  0  0  0  0  0  0  0  0  0
   21.9480    0.7187   59.9815 N   0  0  0  0  0  0  0  0  0  0  0  0
   21.3793    2.0953   59.9506 C   0  0  0  0  0  0  0  0  0  0  0  0
   22.6718    2.9222   59.7783 C   0  0  0  0  0  0  0  0  0  0  0  0
   22.5711    4.4259   59.7374 C   0  0  0  0  0  0  0  0  0  0  0  0
   23.8361    5.1170   59.5577 N   0  0  0  0  0  0  0  0  0  0  0  0
  1  2  1  0  0  0  0
  2  3  1  0  0  0  0
  3  4  1  0  0  0  0
  4  5  1  0  0  0  0
  5  6  1  0  0  0  0
  6  7  1  0  0  0  0
  7  8  1  0  0  0  0
  8  9  1  0  0  0  0
  9 10  1  0  0  0  0
 10 11  1  0  0  0  0
 11 12  1  0  0  0  0
 12 13  1  0  0  0  0
 13 14  1  0  0  0  0
M  END
>  <CHROM.1>
74.00509001,169.53007505,159.36835041,169.85570849,-71.41933548,75.94133232
175.23924076,155.22374920,95.14094814,-178.19700248,-179.34779245,21.40518573
0.59195793,62.56509883,2.47093850,-1.05710016,2.96867467

>  <Name>
1xpf_lig

>  <RI>
0

>  <Rbt.Current_Directory>
/home/afrankz/demos/rdock_decoys_rna/rnas/1xpf

>  <Rbt.Executable>
rbdock ($Id: //depot/dev/client3/rdock/2013.1/src/exe/rbdock.cxx#4 $)

>  <Rbt.Library>
libRbt.so (2013.1, Build901 2013/11/27)

>  <Rbt.Parameter_File>
/export/apps/rDock/src/rDock_2013.1_src/data/scripts/dock_solv.prm

>  <Rbt.Receptor>
prm/pocket_docking_4.prm

>  <SCORE>
-11.4457

>  <SCORE.INTER>
-3.83125

>  <SCORE.INTER.CONST>
1

>  <SCORE.INTER.POLAR>
-1.62076

>  <SCORE.INTER.ROT>
11

>  <SCORE.INTER.SOLV>
8.42864

>  <SCORE.INTER.VDW>
-10.8945

>  <SCORE.INTER.norm>
-0.273661

>  <SCORE.INTRA>
-7.62533

>  <SCORE.INTRA.DIHEDRAL>
-13.4862

>  <SCORE.INTRA.DIHEDRAL.0>
17.7811

>  <SCORE.INTRA.POLAR>
0

>  <SCORE.INTRA.POLAR.0>
0

>  <SCORE.INTRA.REPUL>
0

>  <SCORE.INTRA.REPUL.0>
0

>  <SCORE.INTRA.SOLV>
0.653548

>  <SCORE.INTRA.SOLV.lig_0>
-47.9565

>  <SCORE.INTRA.VDW>
-1.20901

>  <SCORE.INTRA.VDW.0>
0.515983

>  <SCORE.INTRA.norm>
-0.544666

>  <SCORE.RESTR>
0.0109046

>  <SCORE.RESTR.CAVITY>
0.0109046

>  <SCORE.RESTR.norm>
0.000778898

>  <SCORE.SYSTEM>
0

>  <SCORE.SYSTEM.CONST>
0

>  <SCORE.SYSTEM.DIHEDRAL>
0

>  <SCORE.SYSTEM.SOLV>
0

>  <SCORE.SYSTEM.norm>
0

>  <SCORE.heavy>
14

>  <SCORE.norm>
-0.817548

>  <RMSD>
4.371

$$$$
1xpf_lig
 OpenBabel02141814123D
libRbt.so/2013.1/901 2013/11/27
 14 13  0  0  0  0  0  0  0  0999 V2000
   17.9029   -0.0726   68.2351 N   0  0  0  0  0  0  0  0  0  0  0  0
   17.5498   -0.3690   66.8590 C   0  0  0  0  0  0  0  0  0  0  0  0
   18.5458    0.1991   65.9204 C   0  0  0  0  0  0  0  0  0  0  0  0
   19.7654   -0.6639   66.0167 C   0  0  0  0  0  0  0  0  0  0  0  0
   20.7218   -0.1551   65.0032 N   0  0  0  0  0  0  0  0  0  0  0  0
   21.5990   -1.2595   64.5075 C   0  0  0  0  0  0  0  0  0  0  0  0
   21.4843   -1.4957   62.9916 C   0  0  0  0  0  0  0  0  0  0  0  0
   21.8335   -0.2629   62.1391 C   0  0  0  0  0  0  0  0  0  0  0  0
   21.5124   -0.5571   60.6815 C   0  0  0  0  0  0  0  0  0  0  0  0
   21.8159    0.6933   59.9703 N   0  0  0  0  0  0  0  0  0  0  0  0
   20.7772    1.7612   59.9596 C   0  0  0  0  0  0  0  0  0  0  0  0
   21.6321    2.9795   60.3707 C   0  0  0  0  0  0  0  0  0  0  0  0
   22.6921    3.4758   59.4204 C   0  0  0  0  0  0  0  0  0  0  0  0
   23.4896    4.5821   59.9207 N   0  0  0  0  0  0  0  0  0  0  0  0
  1  2  1  0  0  0  0
  2  3  1  0  0  0  0
  3  4  1  0  0  0  0
  4  5  1  0  0  0  0
  5  6  1  0  0  0  0
  6  7  1  0  0  0  0
  7  8  1  0  0  0  0
  8  9  1  0  0  0  0
  9 10  1  0  0  0  0
 10 11  1  0  0  0  0
 11 12  1  0  0  0  0
 12 13  1  0  0  0  0
 13 14  1  0  0  0  0
M  END
>  <CHROM.1>
74.17399701,175.83308421,-150.68844079,120.25739964,58.69740350,-172.71435008
177.29127274,-82.97750022,131.27127674,67.13974398,-177.04157964,20.80863530
0.63226152,62.99958179,2.50315564,-1.00464313,2.84132685

>  <Name>
1xpf_lig

>  <RI>
0

>  <Rbt.Current_Directory>
/home/afrankz/demos/rdock_decoys_rna/rnas/1xpf

>  <Rbt.Executable>
rbdock ($Id: //depot/dev/client3/rdock/2013.1/src/exe/rbdock.cxx#4 $)

>  <Rbt.Library>
libRbt.so (2013.1, Build901 2013/11/27)

>  <Rbt.Parameter_File>
/export/apps/rDock/src/rDock_2013.1_src/data/scripts/dock_solv.prm

>  <Rbt.Receptor>
prm/pocket_docking_4.prm

>  <SCORE>
-14.4124

>  <SCORE.INTER>
-7.44253

>  <SCORE.INTER.CONST>
1

>  <SCORE.INTER.POLAR>
-2.35197

>  <SCORE.INTER.ROT>
11

>  <SCORE.INTER.SOLV>
10.676

>  <SCORE.INTER.VDW>
-11.6138

>  <SCORE.INTER.norm>
-0.531609

>  <SCORE.INTRA>
-7.56618

>  <SCORE.INTRA.DIHEDRAL>
-13.2509

>  <SCORE.INTRA.DIHEDRAL.0>
17.7811

>  <SCORE.INTRA.POLAR>
0

>  <SCORE.INTRA.POLAR.0>
0

>  <SCORE.INTRA.REPUL>
0

>  <SCORE.INTRA.REPUL.0>
0

>  <SCORE.INTRA.SOLV>
0.642199

>  <SCORE.INTRA.SOLV.lig_0>
-47.9565

>  <SCORE.INTRA.VDW>
-1.26184

>  <SCORE.INTRA.VDW.0>
0.515983

>  <SCORE.INTRA.norm>
-0.540442

>  <SCORE.RESTR>
0.596349

>  <SCORE.RESTR.CAVITY>
0.596349

>  <SCORE.RESTR.norm>
0.0425964

>  <SCORE.SYSTEM>
0

>  <SCORE.SYSTEM.CONST>
0

>  <SCORE.SYSTEM.DIHEDRAL>
0

>  <SCORE.SYSTEM.SOLV>
0

>  <SCORE.SYSTEM.norm>
0

>  <SCORE.heavy>
14

>  <SCORE.norm>
-1.02945

>  <RMSD>
4.372

$$$$
1xpf_lig
 OpenBabel02141814123D
libRbt.so/2013.1/901 2013/11/27
 14 13  0  0  0  0  0  0  0  0999 V2000
   18.0799    0.0279   68.3182 N   0  0  0  0  0  0  0  0  0  0  0  0
   19.0766    0.5665   67.4113 C   0  0  0  0  0  0  0  0  0  0  0  0
   19.2824   -0.3336   66.2523 C   0  0  0  0  0  0  0  0  0  0  0  0
   20.4329    0.2259   65.4747 C   0  0  0  0  0  0  0  0  0  0  0  0
   20.5734   -0.6197   64.2640 N   0  0  0  0  0  0  0  0  0  0  0  0
   21.4757   -1.7803   64.5356 C   0  0  0  0  0  0  0  0  0  0  0  0
   21.0963   -3.0455   63.7467 C   0  0  0  0  0  0  0  0  0  0  0  0
   19.6047   -3.4139   63.8364 C   0  0  0  0  0  0  0  0  0  0  0  0
   19.3833   -4.7635   63.1704 C   0  0  0  0  0  0  0  0  0  0  0  0
   17.9576   -5.0557   63.3789 N   0  0  0  0  0  0  0  0  0  0  0  0
   17.5155   -5.4377   64.7493 C   0  0  0  0  0  0  0  0  0  0  0  0
   16.4502   -6.5018   64.4071 C   0  0  0  0  0  0  0  0  0  0  0  0
   15.7380   -7.2043   65.5351 C   0  0  0  0  0  0  0  0  0  0  0  0
   14.8168   -8.2474   65.1185 N   0  0  0  0  0  0  0  0  0  0  0  0
  1  2  1  0  0  0  0
  2  3  1  0  0  0  0
  3  4  1  0  0  0  0
  4  5  1  0  0  0  0
  5  6  1  0  0  0  0
  6  7  1  0  0  0  0
  7  8  1  0  0  0  0
  8  9  1  0  0  0  0
  9 10  1  0  0  0  0
 10 11  1  0  0  0  0
 11 12  1  0  0  0  0
 12 13  1  0  0  0  0
 13 14  1  0  0  0  0
M  END
>  <CHROM.1>
-173.38471988,-175.99058638,-88.70205832,147.46312751,-49.09167588,-172.96617524
176.78772715,-72.83868408,-142.69264415,178.62478361,-176.23768842,18.67770459
-3.25583913,65.01406991,0.91806966,0.65918607,0.63013260

>  <Name>
1xpf_lig

>  <RI>
0

>  <Rbt.Current_Directory>
/home/afrankz/demos/rdock_decoys_rna/rnas/1xpf

>  <Rbt.Executable>
rbdock ($Id: //depot/dev/client3/rdock/2013.1/src/exe/rbdock.cxx#4 $)

>  <Rbt.Library>
libRbt.so (2013.1, Build901 2013/11/27)

>  <Rbt.Parameter_File>
/export/apps/rDock/src/rDock_2013.1_src/data/scripts/dock_solv.prm

>  <Rbt.Receptor>
prm/pocket_docking_5.prm

>  <SCORE>
-13.8813

>  <SCORE.INTER>
-5.47438

>  <SCORE.INTER.CONST>
1

>  <SCORE.INTER.POLAR>
-1.23472

>  <SCORE.INTER.ROT>
11

>  <SCORE.INTER.SOLV>
10.1773

>  <SCORE.INTER.VDW>
-13.8596

>  <SCORE.INTER.norm>
-0.391027

>  <SCORE.INTRA>
-8.40692

>  <SCORE.INTRA.DIHEDRAL>
-14.6205

>  <SCORE.INTRA.DIHEDRAL.0>
17.7811

>  <SCORE.INTRA.POLAR>
0

>  <SCORE.INTRA.POLAR.0>
0

>  <SCORE.INTRA.REPUL>
0

>  <SCORE.INTRA.REPUL.0>
0

>  <SCORE.INTRA.SOLV>
-0.566179

>  <SCORE.INTRA.SOLV.lig_0>
-47.9565

>  <SCORE.INTRA.VDW>
-0.813555

>  <SCORE.INTRA.VDW.0>
0.515983

>  <SCORE.INTRA.norm>
-0.600494

>  <SCORE.RESTR>
0

>  <SCORE.RESTR.CAVITY>
0

>  <SCORE.RESTR.norm>
0

>  <SCORE.SYSTEM>
0

>  <SCORE.SYSTEM.CONST>
0

>  <SCORE.SYSTEM.DIHEDRAL>
0

>  <SCORE.SYSTEM.SOLV>
0

>  <SCORE.SYSTEM.norm>
0

>  <SCORE.heavy>
14

>  <SCORE.norm>
-0.991521

>  <RMSD>
4.390

$$$$
1xpf_lig
 OpenBabel02141814123D
libRbt.so/2013.1/901 2013/11/27
 14 13  0  0  0  0  0  0  0  0999 V2000
   16.0194   -3.1056   70.4342 N   0  0  0  0  0  0  0  0  0  0  0  0
   16.7256   -2.9991   69.1709 C   0  0  0  0  0  0  0  0  0  0  0  0
   16.1827   -1.8912   68.3502 C   0  0  0  0  0  0  0  0  0  0  0  0
   16.9962   -1.8506   67.0940 C   0  0  0  0  0  0  0  0  0  0  0  0
   18.3132   -1.2768   67.4641 N   0  0  0  0  0  0  0  0  0  0  0  0
   18.4332    0.1275   66.9656 C   0  0  0  0  0  0  0  0  0  0  0  0
   19.7684    0.7949   67.3381 C   0  0  0  0  0  0  0  0  0  0  0  0
   19.9346    2.2172   66.7742 C   0  0  0  0  0  0  0  0  0  0  0  0
   20.1004    2.1388   65.2641 C   0  0  0  0  0  0  0  0  0  0  0  0
   20.1341    3.5389   64.8168 N   0  0  0  0  0  0  0  0  0  0  0  0
   20.3729    3.8052   63.3706 C   0  0  0  0  0  0  0  0  0  0  0  0
   20.3850    5.3492   63.3744 C   0  0  0  0  0  0  0  0  0  0  0  0
   21.5125    6.0642   64.0749 C   0  0  0  0  0  0  0  0  0  0  0  0
   21.3929    7.5117   64.1020 N   0  0  0  0  0  0  0  0  0  0  0  0
  1  2  1  0  0  0  0
  2  3  1  0  0  0  0
  3  4  1  0  0  0  0
  4  5  1  0  0  0  0
  5  6  1  0  0  0  0
  6  7  1  0  0  0  0
  7  8  1  0  0  0  0
  8  9  1  0  0  0  0
  9 10  1  0  0  0  0
 10 11  1  0  0  0  0
 11 12  1  0  0  0  0
 12 13  1  0  0  0  0
 13 14  1  0  0  0  0
M  END
>  <CHROM.1>
178.73782549,-73.87079734,-106.11370900,178.92121925,177.21653983,-69.58204631
175.29395885,176.37389026,-177.77739749,67.37345264,-176.12260741,19.01939089
1.45879840,66.32799967,-2.57154962,-1.06122838,-1.48491744

>  <Name>
1xpf_lig

>  <RI>
0

>  <Rbt.Current_Directory>
/home/afrankz/demos/rdock_decoys_rna/rnas/1xpf

>  <Rbt.Executable>
rbdock ($Id: //depot/dev/client3/rdock/2013.1/src/exe/rbdock.cxx#4 $)

>  <Rbt.Library>
libRbt.so (2013.1, Build901 2013/11/27)

>  <Rbt.Parameter_File>
/export/apps/rDock/src/rDock_2013.1_src/data/scripts/dock_solv.prm

>  <Rbt.Receptor>
prm/blind_docking_100.prm

>  <SCORE>
-13.2682

>  <SCORE.INTER>
-4.86341

>  <SCORE.INTER.CONST>
1

>  <SCORE.INTER.POLAR>
-0.8

>  <SCORE.INTER.ROT>
11

>  <SCORE.INTER.SOLV>
11.3289

>  <SCORE.INTER.VDW>
-15.2852

>  <SCORE.INTER.norm>
-0.347387

>  <SCORE.INTRA>
-8.40683

>  <SCORE.INTRA.DIHEDRAL>
-15.2649

>  <SCORE.INTRA.DIHEDRAL.0>
17.7811

>  <SCORE.INTRA.POLAR>
0

>  <SCORE.INTRA.POLAR.0>
0

>  <SCORE.INTRA.REPUL>
0

>  <SCORE.INTRA.REPUL.0>
0

>  <SCORE.INTRA.SOLV>
0.248809

>  <SCORE.INTRA.SOLV.lig_0>
-47.9565

>  <SCORE.INTRA.VDW>
-0.898769

>  <SCORE.INTRA.VDW.0>
0.515983

>  <SCORE.INTRA.norm>
-0.600488

>  <SCORE.RESTR>
0.0020083

>  <SCORE.RESTR.CAVITY>
0.0020083

>  <SCORE.RESTR.norm>
0.00014345

>  <SCORE.SYSTEM>
0

>  <SCORE.SYSTEM.CONST>
0

>  <SCORE.SYSTEM.DIHEDRAL>
0

>  <SCORE.SYSTEM.SOLV>
0

>  <SCORE.SYSTEM.norm>
0

>  <SCORE.heavy>
14

>  <SCORE.norm>
-0.947731

>  <RMSD>
4.401

$$$$
1xpf_lig
 OpenBabel02141814123D
libRbt.so/2013.1/901 2013/11/27
 14 13  0  0  0  0  0  0  0  0999 V2000
   24.8855    6.6736   59.9036 N   0  0  0  0  0  0  0  0  0  0  0  0
   23.5228    6.2168   59.7022 C   0  0  0  0  0  0  0  0  0  0  0  0
   23.3573    4.8184   60.1635 C   0  0  0  0  0  0  0  0  0  0  0  0
   21.9281    4.4508   59.9112 C   0  0  0  0  0  0  0  0  0  0  0  0
   21.7383    3.0905   60.4718 N   0  0  0  0  0  0  0  0  0  0  0  0
   20.4050    2.5411   60.0775 C   0  0  0  0  0  0  0  0  0  0  0  0
   20.1555    1.1145   60.5966 C   0  0  0  0  0  0  0  0  0  0  0  0
   20.1061    1.0078   62.1311 C   0  0  0  0  0  0  0  0  0  0  0  0
   19.8947   -0.4467   62.5234 C   0  0  0  0  0  0  0  0  0  0  0  0
   19.7273   -0.4212   63.9838 N   0  0  0  0  0  0  0  0  0  0  0  0
   18.3636   -0.6574   64.5354 C   0  0  0  0  0  0  0  0  0  0  0  0
   18.6209   -0.3773   66.0319 C   0  0  0  0  0  0  0  0  0  0  0  0
   17.4791   -0.5278   67.0049 C   0  0  0  0  0  0  0  0  0  0  0  0
   17.8142   -0.2357   68.3878 N   0  0  0  0  0  0  0  0  0  0  0  0
  1  2  1  0  0  0  0
  2  3  1  0  0  0  0
  3  4  1  0  0  0  0
  4  5  1  0  0  0  0
  5  6  1  0  0  0  0
  6  7  1  0  0  0  0
  7  8  1  0  0  0  0
  8  9  1  0  0  0  0
  9 10  1  0  0  0  0
 10 11  1  0  0  0  0
 11 12  1  0  0  0  0
 12 13  1  0  0  0  0
 13 14  1  0  0  0  0
M  END
>  <CHROM.1>
-179.96780979,-175.60224543,-170.86725945,178.53332225,63.84906632,-178.42179194
-174.48131348,107.33866262,-173.58887308,-178.83291190,-179.64135317,20.57111045
1.94610959,62.53006334,-0.48908828,0.96577447,1.31254098

>  <Name>
1xpf_lig

>  <RI>
0

>  <Rbt.Current_Directory>
/home/afrankz/demos/rdock_decoys_rna/rnas/1xpf

>  <Rbt.Executable>
rbdock ($Id: //depot/dev/client3/rdock/2013.1/src/exe/rbdock.cxx#4 $)

>  <Rbt.Library>
libRbt.so (2013.1, Build901 2013/11/27)

>  <Rbt.Parameter_File>
/export/apps/rDock/src/rDock_2013.1_src/data/scripts/dock_solv.prm

>  <Rbt.Receptor>
prm/pocket_docking_5.prm

>  <SCORE>
-10.2452

>  <SCORE.INTER>
0.0426924

>  <SCORE.INTER.CONST>
1

>  <SCORE.INTER.POLAR>
-1.48459

>  <SCORE.INTER.ROT>
11

>  <SCORE.INTER.SOLV>
8.84337

>  <SCORE.INTER.VDW>
-8.90404

>  <SCORE.INTER.norm>
0.00304946

>  <SCORE.INTRA>
-10.2879

>  <SCORE.INTRA.DIHEDRAL>
-16.3464

>  <SCORE.INTRA.DIHEDRAL.0>
17.7811

>  <SCORE.INTRA.POLAR>
0

>  <SCORE.INTRA.POLAR.0>
0

>  <SCORE.INTRA.REPUL>
0

>  <SCORE.INTRA.REPUL.0>
0

>  <SCORE.INTRA.SOLV>
-0.632639

>  <SCORE.INTRA.SOLV.lig_0>
-47.9565

>  <SCORE.INTRA.VDW>
-1.79838

>  <SCORE.INTRA.VDW.0>
0.515983

>  <SCORE.INTRA.norm>
-0.734849

>  <SCORE.RESTR>
0

>  <SCORE.RESTR.CAVITY>
0

>  <SCORE.RESTR.norm>
0

>  <SCORE.SYSTEM>
0

>  <SCORE.SYSTEM.CONST>
0

>  <SCORE.SYSTEM.DIHEDRAL>
0

>  <SCORE.SYSTEM.SOLV>
0

>  <SCORE.SYSTEM.norm>
0

>  <SCORE.heavy>
14

>  <SCORE.norm>
-0.7318

>  <RMSD>
4.404

$$$$
1xpf_lig
 OpenBabel02141814123D
libRbt.so/2013.1/901 2013/11/27
 14 13  0  0  0  0  0  0  0  0999 V2000
   21.9085   -1.7462   63.5835 N   0  0  0  0  0  0  0  0  0  0  0  0
   21.1938   -1.3905   64.7954 C   0  0  0  0  0  0  0  0  0  0  0  0
   19.7292   -1.5072   64.6024 C   0  0  0  0  0  0  0  0  0  0  0  0
   19.0948   -1.1355   65.9065 C   0  0  0  0  0  0  0  0  0  0  0  0
   19.2572    0.3320   66.0503 N   0  0  0  0  0  0  0  0  0  0  0  0
   19.5059    0.6957   67.4789 C   0  0  0  0  0  0  0  0  0  0  0  0
   19.2673    2.1855   67.7794 C   0  0  0  0  0  0  0  0  0  0  0  0
   20.0699    3.1409   66.8785 C   0  0  0  0  0  0  0  0  0  0  0  0
   19.7197    4.5771   67.2375 C   0  0  0  0  0  0  0  0  0  0  0  0
   20.5202    5.3996   66.3187 N   0  0  0  0  0  0  0  0  0  0  0  0
   19.9256    5.7541   64.9995 C   0  0  0  0  0  0  0  0  0  0  0  0
   21.1269    6.4650   64.3394 C   0  0  0  0  0  0  0  0  0  0  0  0
   20.9870    6.9619   62.9229 C   0  0  0  0  0  0  0  0  0  0  0  0
   22.1978    7.5269   62.3528 N   0  0  0  0  0  0  0  0  0  0  0  0
  1  2  1  0  0  0  0
  2  3  1  0  0  0  0
  3  4  1  0  0  0  0
  4  5  1  0  0  0  0
  5  6  1  0  0  0  0
  6  7  1  0  0  0  0
  7  8  1  0  0  0  0
  8  9  1  0  0  0  0
  9 10  1  0  0  0  0
 10 11  1  0  0  0  0
 11 12  1  0  0  0  0
 12 13  1  0  0  0  0
 13 14  1  0  0  0  0
M  END
>  <CHROM.1>
179.38306869,72.26915108,-143.60114462,-162.69591593,-54.89384683,178.20742550
-179.38335062,89.17783972,-174.46724439,177.68127551,-175.62214806,20.32144216
2.66131135,65.37501678,-1.83146042,1.10386360,0.06289963

>  <Name>
1xpf_lig

>  <RI>
0

>  <Rbt.Current_Directory>
/home/afrankz/demos/rdock_decoys_rna/rnas/1xpf

>  <Rbt.Executable>
rbdock ($Id: //depot/dev/client3/rdock/2013.1/src/exe/rbdock.cxx#4 $)

>  <Rbt.Library>
libRbt.so (2013.1, Build901 2013/11/27)

>  <Rbt.Parameter_File>
/export/apps/rDock/src/rDock_2013.1_src/data/scripts/dock_solv.prm

>  <Rbt.Receptor>
prm/pocket_docking_4.prm

>  <SCORE>
-12.6908

>  <SCORE.INTER>
-3.61625

>  <SCORE.INTER.CONST>
1

>  <SCORE.INTER.POLAR>
-0.916515

>  <SCORE.INTER.ROT>
11

>  <SCORE.INTER.SOLV>
9.39105

>  <SCORE.INTER.VDW>
-13.4195

>  <SCORE.INTER.norm>
-0.258304

>  <SCORE.INTRA>
-9.07457

>  <SCORE.INTRA.DIHEDRAL>
-15.3976

>  <SCORE.INTRA.DIHEDRAL.0>
17.7811

>  <SCORE.INTRA.POLAR>
0

>  <SCORE.INTRA.POLAR.0>
0

>  <SCORE.INTRA.REPUL>
0

>  <SCORE.INTRA.REPUL.0>
0

>  <SCORE.INTRA.SOLV>
-0.0369629

>  <SCORE.INTRA.SOLV.lig_0>
-47.9565

>  <SCORE.INTRA.VDW>
-1.35728

>  <SCORE.INTRA.VDW.0>
0.515983

>  <SCORE.INTRA.norm>
-0.648183

>  <SCORE.RESTR>
0

>  <SCORE.RESTR.CAVITY>
0

>  <SCORE.RESTR.norm>
0

>  <SCORE.SYSTEM>
0

>  <SCORE.SYSTEM.CONST>
0

>  <SCORE.SYSTEM.DIHEDRAL>
0

>  <SCORE.SYSTEM.SOLV>
0

>  <SCORE.SYSTEM.norm>
0

>  <SCORE.heavy>
14

>  <SCORE.norm>
-0.906487

>  <RMSD>
4.409

$$$$
1xpf_lig
 OpenBabel02141814123D
libRbt.so/2013.1/901 2013/11/27
 14 13  0  0  0  0  0  0  0  0999 V2000
   18.1667    0.7462   62.3020 N   0  0  0  0  0  0  0  0  0  0  0  0
   17.5128    1.9913   61.9438 C   0  0  0  0  0  0  0  0  0  0  0  0
   17.4505    2.9117   63.1034 C   0  0  0  0  0  0  0  0  0  0  0  0
   18.8590    3.3255   63.3975 C   0  0  0  0  0  0  0  0  0  0  0  0
   18.8066    4.1500   64.6296 N   0  0  0  0  0  0  0  0  0  0  0  0
   20.1149    4.1000   65.3513 C   0  0  0  0  0  0  0  0  0  0  0  0
   20.3564    2.7693   66.0847 C   0  0  0  0  0  0  0  0  0  0  0  0
   19.4830    2.5790   67.3375 C   0  0  0  0  0  0  0  0  0  0  0  0
   19.6082    1.1416   67.8193 C   0  0  0  0  0  0  0  0  0  0  0  0
   18.9534    0.3378   66.7768 N   0  0  0  0  0  0  0  0  0  0  0  0
   17.7052   -0.3913   67.1372 C   0  0  0  0  0  0  0  0  0  0  0  0
   17.6401   -1.4120   65.9804 C   0  0  0  0  0  0  0  0  0  0  0  0
   16.5393   -2.4422   65.9829 C   0  0  0  0  0  0  0  0  0  0  0  0
   16.5397   -3.3375   64.8390 N   0  0  0  0  0  0  0  0  0  0  0  0
  1  2  1  0  0  0  0
  2  3  1  0  0  0  0
  3  4  1  0  0  0  0
  4  5  1  0  0  0  0
  5  6  1  0  0  0  0
  6  7  1  0  0  0  0
  7  8  1  0  0  0  0
  8  9  1  0  0  0  0
  9 10  1  0  0  0  0
 10 11  1  0  0  0  0
 11 12  1  0  0  0  0
 12 13  1  0  0  0  0
 13 14  1  0  0  0  0
M  END
>  <CHROM.1>
67.81657563,-175.13944290,154.33325144,-74.50163551,-71.91113174,169.20703458
-68.10883737,-114.21825665,-162.32585576,176.52506032,178.55465446,18.40982504
1.17667659,65.19205397,0.84835069,-1.03456646,-0.88536601

>  <Name>
1xpf_lig

>  <RI>
0

>  <Rbt.Current_Directory>
/home/afrankz/demos/rdock_decoys_rna/rnas/1xpf

>  <Rbt.Executable>
rbdock ($Id: //depot/dev/client3/rdock/2013.1/src/exe/rbdock.cxx#4 $)

>  <Rbt.Library>
libRbt.so (2013.1, Build901 2013/11/27)

>  <Rbt.Parameter_File>
/export/apps/rDock/src/rDock_2013.1_src/data/scripts/dock_solv.prm

>  <Rbt.Receptor>
prm/pocket_docking_4.prm

>  <SCORE>
-9.78306

>  <SCORE.INTER>
-1.935

>  <SCORE.INTER.CONST>
1

>  <SCORE.INTER.POLAR>
0

>  <SCORE.INTER.ROT>
11

>  <SCORE.INTER.SOLV>
8.39843

>  <SCORE.INTER.VDW>
-15.0228

>  <SCORE.INTER.norm>
-0.138214

>  <SCORE.INTRA>
-7.84805

>  <SCORE.INTRA.DIHEDRAL>
-14.1287

>  <SCORE.INTRA.DIHEDRAL.0>
17.7811

>  <SCORE.INTRA.POLAR>
0

>  <SCORE.INTRA.POLAR.0>
0

>  <SCORE.INTRA.REPUL>
0

>  <SCORE.INTRA.REPUL.0>
0

>  <SCORE.INTRA.SOLV>
1.1254

>  <SCORE.INTRA.SOLV.lig_0>
-47.9565

>  <SCORE.INTRA.VDW>
-1.3464

>  <SCORE.INTRA.VDW.0>
0.515983

>  <SCORE.INTRA.norm>
-0.560575

>  <SCORE.RESTR>
0

>  <SCORE.RESTR.CAVITY>
0

>  <SCORE.RESTR.norm>
0

>  <SCORE.SYSTEM>
0

>  <SCORE.SYSTEM.CONST>
0

>  <SCORE.SYSTEM.DIHEDRAL>
0

>  <SCORE.SYSTEM.SOLV>
0

>  <SCORE.SYSTEM.norm>
0

>  <SCORE.heavy>
14

>  <SCORE.norm>
-0.69879

>  <RMSD>
4.412

$$$$
1xpf_lig
 OpenBabel02141814123D
libRbt.so/2013.1/901 2013/11/27
 14 13  0  0  0  0  0  0  0  0999 V2000
   17.5935   -0.4141   68.4893 N   0  0  0  0  0  0  0  0  0  0  0  0
   17.0732   -0.8146   67.1951 C   0  0  0  0  0  0  0  0  0  0  0  0
   17.8368   -0.1792   66.0955 C   0  0  0  0  0  0  0  0  0  0  0  0
   16.9701   -0.2489   64.8767 C   0  0  0  0  0  0  0  0  0  0  0  0
   17.7343    0.3940   63.7798 N   0  0  0  0  0  0  0  0  0  0  0  0
   16.8940    1.4148   63.0821 C   0  0  0  0  0  0  0  0  0  0  0  0
   17.7058    2.3583   62.1778 C   0  0  0  0  0  0  0  0  0  0  0  0
   18.7548    3.1958   62.9305 C   0  0  0  0  0  0  0  0  0  0  0  0
   19.6492    3.8994   61.9209 C   0  0  0  0  0  0  0  0  0  0  0  0
   20.4954    4.7917   62.7267 N   0  0  0  0  0  0  0  0  0  0  0  0
   21.3801    5.7521   62.0094 C   0  0  0  0  0  0  0  0  0  0  0  0
   22.2973    6.1983   63.1687 C   0  0  0  0  0  0  0  0  0  0  0  0
   23.4286    7.1502   62.8736 C   0  0  0  0  0  0  0  0  0  0  0  0
   24.4271    6.6424   61.9488 N   0  0  0  0  0  0  0  0  0  0  0  0
  1  2  1  0  0  0  0
  2  3  1  0  0  0  0
  3  4  1  0  0  0  0
  4  5  1  0  0  0  0
  5  6  1  0  0  0  0
  6  7  1  0  0  0  0
  7  8  1  0  0  0  0
  8  9  1  0  0  0  0
  9 10  1  0  0  0  0
 10 11  1  0  0  0  0
 11 12  1  0  0  0  0
 12 13  1  0  0  0  0
 13 14  1  0  0  0  0
M  END
>  <CHROM.1>
-160.62441829,179.71701538,-129.73290466,165.71539725,-61.47046071,170.22465316
173.18067824,-172.74122145,-166.60224648,176.89016431,-62.07584144,19.44548235
2.86714187,63.80516251,-2.41229725,-0.66087728,-1.11501617

>  <Name>
1xpf_lig

>  <RI>
0

>  <Rbt.Current_Directory>
/home/afrankz/demos/rdock_decoys_rna/rnas/1xpf

>  <Rbt.Executable>
rbdock ($Id: //depot/dev/client3/rdock/2013.1/src/exe/rbdock.cxx#4 $)

>  <Rbt.Library>
libRbt.so (2013.1, Build901 2013/11/27)

>  <Rbt.Parameter_File>
/export/apps/rDock/src/rDock_2013.1_src/data/scripts/dock_solv.prm

>  <Rbt.Receptor>
prm/pocket_docking_6.prm

>  <SCORE>
-13.09

>  <SCORE.INTER>
-4.04088

>  <SCORE.INTER.CONST>
1

>  <SCORE.INTER.POLAR>
-1.40295

>  <SCORE.INTER.ROT>
11

>  <SCORE.INTER.SOLV>
10.7905

>  <SCORE.INTER.VDW>
-12.5476

>  <SCORE.INTER.norm>
-0.288634

>  <SCORE.INTRA>
-9.04914

>  <SCORE.INTRA.DIHEDRAL>
-14.3826

>  <SCORE.INTRA.DIHEDRAL.0>
17.7811

>  <SCORE.INTRA.POLAR>
0

>  <SCORE.INTRA.POLAR.0>
0

>  <SCORE.INTRA.REPUL>
0

>  <SCORE.INTRA.REPUL.0>
0

>  <SCORE.INTRA.SOLV>
0.0566822

>  <SCORE.INTRA.SOLV.lig_0>
-47.9565

>  <SCORE.INTRA.VDW>
-1.88619

>  <SCORE.INTRA.VDW.0>
0.515983

>  <SCORE.INTRA.norm>
-0.646367

>  <SCORE.RESTR>
0

>  <SCORE.RESTR.CAVITY>
0

>  <SCORE.RESTR.norm>
0

>  <SCORE.SYSTEM>
0

>  <SCORE.SYSTEM.CONST>
0

>  <SCORE.SYSTEM.DIHEDRAL>
0

>  <SCORE.SYSTEM.SOLV>
0

>  <SCORE.SYSTEM.norm>
0

>  <SCORE.heavy>
14

>  <SCORE.norm>
-0.935001

>  <RMSD>
4.423

$$$$
1xpf_lig
 OpenBabel02141814123D
libRbt.so/2013.1/901 2013/11/27
 14 13  0  0  0  0  0  0  0  0999 V2000
   22.3433    0.3242   59.9138 N   0  0  0  0  0  0  0  0  0  0  0  0
   21.8957   -0.7226   60.8138 C   0  0  0  0  0  0  0  0  0  0  0  0
   23.0451   -1.4853   61.3553 C   0  0  0  0  0  0  0  0  0  0  0  0
   22.4858   -2.4510   62.3533 C   0  0  0  0  0  0  0  0  0  0  0  0
   22.0204   -1.6420   63.5064 N   0  0  0  0  0  0  0  0  0  0  0  0
   20.9466   -2.3638   64.2554 C   0  0  0  0  0  0  0  0  0  0  0  0
   19.9422   -1.4215   64.9410 C   0  0  0  0  0  0  0  0  0  0  0  0
   20.5950   -0.3781   65.8650 C   0  0  0  0  0  0  0  0  0  0  0  0
   19.5103    0.4989   66.4719 C   0  0  0  0  0  0  0  0  0  0  0  0
   20.2390    1.5625   67.1785 N   0  0  0  0  0  0  0  0  0  0  0  0
   19.5406    2.8596   67.4007 C   0  0  0  0  0  0  0  0  0  0  0  0
   19.7374    3.5175   66.0177 C   0  0  0  0  0  0  0  0  0  0  0  0
   21.1290    3.9139   65.5944 C   0  0  0  0  0  0  0  0  0  0  0  0
   21.7228    4.9838   66.3772 N   0  0  0  0  0  0  0  0  0  0  0  0
  1  2  1  0  0  0  0
  2  3  1  0  0  0  0
  3  4  1  0  0  0  0
  4  5  1  0  0  0  0
  5  6  1  0  0  0  0
  6  7  1  0  0  0  0
  7  8  1  0  0  0  0
  8  9  1  0  0  0  0
  9 10  1  0  0  0  0
 10 11  1  0  0  0  0
 11 12  1  0  0  0  0
 12 13  1  0  0  0  0
 13 14  1  0  0  0  0
M  END
>  <CHROM.1>
175.18777227,-69.55149593,155.05923486,-150.21474506,-54.08471077,179.47190906
-172.46712278,155.32974692,-80.56958225,-67.42891802,-66.38592770,21.08216068
0.51368308,64.43183303,-0.92032130,1.11241620,0.21834511

>  <Name>
1xpf_lig

>  <RI>
0

>  <Rbt.Current_Directory>
/home/afrankz/demos/rdock_decoys_rna/rnas/1xpf

>  <Rbt.Executable>
rbdock ($Id: //depot/dev/client3/rdock/2013.1/src/exe/rbdock.cxx#4 $)

>  <Rbt.Library>
libRbt.so (2013.1, Build901 2013/11/27)

>  <Rbt.Parameter_File>
/export/apps/rDock/src/rDock_2013.1_src/data/scripts/dock_solv.prm

>  <Rbt.Receptor>
prm/pocket_docking_4.prm

>  <SCORE>
-11.3705

>  <SCORE.INTER>
-3.83103

>  <SCORE.INTER.CONST>
1

>  <SCORE.INTER.POLAR>
-0.894427

>  <SCORE.INTER.ROT>
11

>  <SCORE.INTER.SOLV>
8.98075

>  <SCORE.INTER.VDW>
-13.4995

>  <SCORE.INTER.norm>
-0.273645

>  <SCORE.INTRA>
-7.53945

>  <SCORE.INTRA.DIHEDRAL>
-14.8659

>  <SCORE.INTRA.DIHEDRAL.0>
17.7811

>  <SCORE.INTRA.POLAR>
0

>  <SCORE.INTRA.POLAR.0>
0

>  <SCORE.INTRA.REPUL>
0

>  <SCORE.INTRA.REPUL.0>
0

>  <SCORE.INTRA.SOLV>
1.55267

>  <SCORE.INTRA.SOLV.lig_0>
-47.9565

>  <SCORE.INTRA.VDW>
-0.882811

>  <SCORE.INTRA.VDW.0>
0.515983

>  <SCORE.INTRA.norm>
-0.538532

>  <SCORE.RESTR>
0

>  <SCORE.RESTR.CAVITY>
0

>  <SCORE.RESTR.norm>
0

>  <SCORE.SYSTEM>
0

>  <SCORE.SYSTEM.CONST>
0

>  <SCORE.SYSTEM.DIHEDRAL>
0

>  <SCORE.SYSTEM.SOLV>
0

>  <SCORE.SYSTEM.norm>
0

>  <SCORE.heavy>
14

>  <SCORE.norm>
-0.812177

>  <RMSD>
4.446

$$$$
1xpf_lig
 OpenBabel02141814123D
libRbt.so/2013.1/901 2013/11/27
 14 13  0  0  0  0  0  0  0  0999 V2000
   16.5275   -2.5878   65.8648 N   0  0  0  0  0  0  0  0  0  0  0  0
   17.2459   -1.5857   65.0993 C   0  0  0  0  0  0  0  0  0  0  0  0
   17.1758   -0.2611   65.7599 C   0  0  0  0  0  0  0  0  0  0  0  0
   17.9303   -0.3843   67.0471 C   0  0  0  0  0  0  0  0  0  0  0  0
   17.9745    0.9745   67.6405 N   0  0  0  0  0  0  0  0  0  0  0  0
   19.3612    1.3068   68.0898 C   0  0  0  0  0  0  0  0  0  0  0  0
   20.0626    2.3396   67.1907 C   0  0  0  0  0  0  0  0  0  0  0  0
   19.5525    3.7794   67.3779 C   0  0  0  0  0  0  0  0  0  0  0  0
   20.6186    4.7526   66.8978 C   0  0  0  0  0  0  0  0  0  0  0  0
   20.5162    4.7283   65.4313 N   0  0  0  0  0  0  0  0  0  0  0  0
   21.5910    5.3954   64.6444 C   0  0  0  0  0  0  0  0  0  0  0  0
   20.8875    5.5272   63.2762 C   0  0  0  0  0  0  0  0  0  0  0  0
   21.6622    6.0943   62.1137 C   0  0  0  0  0  0  0  0  0  0  0  0
   22.1965    7.4277   62.3298 N   0  0  0  0  0  0  0  0  0  0  0  0
  1  2  1  0  0  0  0
  2  3  1  0  0  0  0
  3  4  1  0  0  0  0
  4  5  1  0  0  0  0
  5  6  1  0  0  0  0
  6  7  1  0  0  0  0
  7  8  1  0  0  0  0
  8  9  1  0  0  0  0
  9 10  1  0  0  0  0
 10 11  1  0  0  0  0
 11 12  1  0  0  0  0
 12 13  1  0  0  0  0
 13 14  1  0  0  0  0
M  END
>  <CHROM.1>
66.02647534,174.48096252,-132.61333509,107.28957731,74.52398391,157.96326842
77.51428275,-169.28817121,-162.93669229,-176.37757861,-57.89274068,19.52168223
2.67907189,65.62606737,2.76907030,1.03750648,1.60127566

>  <Name>
1xpf_lig

>  <RI>
0

>  <Rbt.Current_Directory>
/home/afrankz/demos/rdock_decoys_rna/rnas/1xpf

>  <Rbt.Executable>
rbdock ($Id: //depot/dev/client3/rdock/2013.1/src/exe/rbdock.cxx#4 $)

>  <Rbt.Library>
libRbt.so (2013.1, Build901 2013/11/27)

>  <Rbt.Parameter_File>
/export/apps/rDock/src/rDock_2013.1_src/data/scripts/dock_solv.prm

>  <Rbt.Receptor>
prm/pocket_docking_4.prm

>  <SCORE>
-12.3342

>  <SCORE.INTER>
-5.82162

>  <SCORE.INTER.CONST>
1

>  <SCORE.INTER.POLAR>
-1.70227

>  <SCORE.INTER.ROT>
11

>  <SCORE.INTER.SOLV>
12.5531

>  <SCORE.INTER.VDW>
-13.3245

>  <SCORE.INTER.norm>
-0.41583

>  <SCORE.INTRA>
-6.55306

>  <SCORE.INTRA.DIHEDRAL>
-11.3398

>  <SCORE.INTRA.DIHEDRAL.0>
17.7811

>  <SCORE.INTRA.POLAR>
0

>  <SCORE.INTRA.POLAR.0>
0

>  <SCORE.INTRA.REPUL>
0

>  <SCORE.INTRA.REPUL.0>
0

>  <SCORE.INTRA.SOLV>
1.15322

>  <SCORE.INTRA.SOLV.lig_0>
-47.9565

>  <SCORE.INTRA.VDW>
-1.45975

>  <SCORE.INTRA.VDW.0>
0.515983

>  <SCORE.INTRA.norm>
-0.468076

>  <SCORE.RESTR>
0.040524

>  <SCORE.RESTR.CAVITY>
0.040524

>  <SCORE.RESTR.norm>
0.00289457

>  <SCORE.SYSTEM>
0

>  <SCORE.SYSTEM.CONST>
0

>  <SCORE.SYSTEM.DIHEDRAL>
0

>  <SCORE.SYSTEM.SOLV>
0

>  <SCORE.SYSTEM.norm>
0

>  <SCORE.heavy>
14

>  <SCORE.norm>
-0.881011

>  <RMSD>
4.469

$$$$
1xpf_lig
 OpenBabel02141814123D
libRbt.so/2013.1/901 2013/11/27
 14 13  0  0  0  0  0  0  0  0999 V2000
   20.1054    3.9139   66.5083 N   0  0  0  0  0  0  0  0  0  0  0  0
   20.4855    2.6480   65.9089 C   0  0  0  0  0  0  0  0  0  0  0  0
   19.4171    1.6359   66.0819 C   0  0  0  0  0  0  0  0  0  0  0  0
   19.3840    1.2933   67.5390 C   0  0  0  0  0  0  0  0  0  0  0  0
   18.0526    0.6934   67.8000 N   0  0  0  0  0  0  0  0  0  0  0  0
   17.9533   -0.6591   67.1708 C   0  0  0  0  0  0  0  0  0  0  0  0
   16.5093   -1.1801   67.0695 C   0  0  0  0  0  0  0  0  0  0  0  0
   16.3830   -2.5350   66.3507 C   0  0  0  0  0  0  0  0  0  0  0  0
   16.6222   -3.6550   67.3519 C   0  0  0  0  0  0  0  0  0  0  0  0
   16.1576   -4.8726   66.6713 N   0  0  0  0  0  0  0  0  0  0  0  0
   17.1849   -5.8177   66.1508 C   0  0  0  0  0  0  0  0  0  0  0  0
   17.2037   -5.4096   64.6618 C   0  0  0  0  0  0  0  0  0  0  0  0
   15.9745   -5.6596   63.8254 C   0  0  0  0  0  0  0  0  0  0  0  0
   15.6148   -7.0588   63.6735 N   0  0  0  0  0  0  0  0  0  0  0  0
  1  2  1  0  0  0  0
  2  3  1  0  0  0  0
  3  4  1  0  0  0  0
  4  5  1  0  0  0  0
  5  6  1  0  0  0  0
  6  7  1  0  0  0  0
  7  8  1  0  0  0  0
  8  9  1  0  0  0  0
  9 10  1  0  0  0  0
 10 11  1  0  0  0  0
 11 12  1  0  0  0  0
 12 13  1  0  0  0  0
 13 14  1  0  0  0  0
M  END
>  <CHROM.1>
-69.67843337,159.86941203,70.42529836,-164.55307580,176.65245328,85.04044951
166.33377626,105.33410761,-99.29535035,-66.15664682,-63.20541313,17.64633722
-1.90451796,66.19741698,-0.82617822,-0.98784697,-2.27512282

>  <Name>
1xpf_lig

>  <RI>
0

>  <Rbt.Current_Directory>
/home/afrankz/demos/rdock_decoys_rna/rnas/1xpf

>  <Rbt.Executable>
rbdock ($Id: //depot/dev/client3/rdock/2013.1/src/exe/rbdock.cxx#4 $)

>  <Rbt.Library>
libRbt.so (2013.1, Build901 2013/11/27)

>  <Rbt.Parameter_File>
/export/apps/rDock/src/rDock_2013.1_src/data/scripts/dock_solv.prm

>  <Rbt.Receptor>
prm/blind_docking_100.prm

>  <SCORE>
-8.00119

>  <SCORE.INTER>
-3.75807

>  <SCORE.INTER.CONST>
1

>  <SCORE.INTER.POLAR>
-0.8

>  <SCORE.INTER.ROT>
11

>  <SCORE.INTER.SOLV>
11.0003

>  <SCORE.INTER.VDW>
-14.4388

>  <SCORE.INTER.norm>
-0.268434

>  <SCORE.INTRA>
-4.25994

>  <SCORE.INTRA.DIHEDRAL>
-10.6781

>  <SCORE.INTRA.DIHEDRAL.0>
17.7811

>  <SCORE.INTRA.POLAR>
0

>  <SCORE.INTRA.POLAR.0>
0

>  <SCORE.INTRA.REPUL>
0

>  <SCORE.INTRA.REPUL.0>
0

>  <SCORE.INTRA.SOLV>
1.74373

>  <SCORE.INTRA.SOLV.lig_0>
-47.9565

>  <SCORE.INTRA.VDW>
0.207258

>  <SCORE.INTRA.VDW.0>
0.515983

>  <SCORE.INTRA.norm>
-0.304281

>  <SCORE.RESTR>
0.0168236

>  <SCORE.RESTR.CAVITY>
0.0168236

>  <SCORE.RESTR.norm>
0.00120169

>  <SCORE.SYSTEM>
0

>  <SCORE.SYSTEM.CONST>
0

>  <SCORE.SYSTEM.DIHEDRAL>
0

>  <SCORE.SYSTEM.SOLV>
0

>  <SCORE.SYSTEM.norm>
0

>  <SCORE.heavy>
14

>  <SCORE.norm>
-0.571513

>  <RMSD>
4.471

$$$$
1xpf_lig
 OpenBabel02141814123D
libRbt.so/2013.1/901 2013/11/27
 14 13  0  0  0  0  0  0  0  0999 V2000
   16.8188   -4.7843   63.0256 N   0  0  0  0  0  0  0  0  0  0  0  0
   18.1022   -4.9750   63.6758 C   0  0  0  0  0  0  0  0  0  0  0  0
   19.1359   -4.0965   63.0796 C   0  0  0  0  0  0  0  0  0  0  0  0
   20.4025   -4.3515   63.8360 C   0  0  0  0  0  0  0  0  0  0  0  0
   21.3443   -3.2702   63.4563 N   0  0  0  0  0  0  0  0  0  0  0  0
   21.4902   -2.2849   64.5711 C   0  0  0  0  0  0  0  0  0  0  0  0
   20.2364   -1.4204   64.7890 C   0  0  0  0  0  0  0  0  0  0  0  0
   20.4118   -0.3226   65.8532 C   0  0  0  0  0  0  0  0  0  0  0  0
   19.0780    0.3745   66.0754 C   0  0  0  0  0  0  0  0  0  0  0  0
   19.3960    1.5320   66.9241 N   0  0  0  0  0  0  0  0  0  0  0  0
   19.4865    1.3162   68.3954 C   0  0  0  0  0  0  0  0  0  0  0  0
   19.7883    2.7556   68.8657 C   0  0  0  0  0  0  0  0  0  0  0  0
   19.9856    3.0114   70.3384 C   0  0  0  0  0  0  0  0  0  0  0  0
   18.8348    2.7041   71.1699 N   0  0  0  0  0  0  0  0  0  0  0  0
  1  2  1  0  0  0  0
  2  3  1  0  0  0  0
  3  4  1  0  0  0  0
  4  5  1  0  0  0  0
  5  6  1  0  0  0  0
  6  7  1  0  0  0  0
  7  8  1  0  0  0  0
  8  9  1  0  0  0  0
  9 10  1  0  0  0  0
 10 11  1  0  0  0  0
 11 12  1  0  0  0  0
 12 13  1  0  0  0  0
 13 14  1  0  0  0  0
M  END
>  <CHROM.1>
178.88584690,-167.45282349,105.99806797,-70.75154491,-175.13055944,-174.63422284
-170.85010470,-83.59135626,-178.53377292,-179.09537993,-61.50761871,19.60815103
-0.98655688,66.00391158,1.60359917,-0.27097676,-2.39324466

>  <Name>
1xpf_lig

>  <RI>
0

>  <Rbt.Current_Directory>
/home/afrankz/demos/rdock_decoys_rna/rnas/1xpf

>  <Rbt.Executable>
rbdock ($Id: //depot/dev/client3/rdock/2013.1/src/exe/rbdock.cxx#4 $)

>  <Rbt.Library>
libRbt.so (2013.1, Build901 2013/11/27)

>  <Rbt.Parameter_File>
/export/apps/rDock/src/rDock_2013.1_src/data/scripts/dock_solv.prm

>  <Rbt.Receptor>
prm/pocket_docking_8.prm

>  <SCORE>
-12.8026

>  <SCORE.INTER>
-4.1962

>  <SCORE.INTER.CONST>
1

>  <SCORE.INTER.POLAR>
0

>  <SCORE.INTER.ROT>
11

>  <SCORE.INTER.SOLV>
7.76413

>  <SCORE.INTER.VDW>
-16.3188

>  <SCORE.INTER.norm>
-0.299729

>  <SCORE.INTRA>
-8.60639

>  <SCORE.INTRA.DIHEDRAL>
-15.1276

>  <SCORE.INTRA.DIHEDRAL.0>
17.7811

>  <SCORE.INTRA.POLAR>
0

>  <SCORE.INTRA.POLAR.0>
0

>  <SCORE.INTRA.REPUL>
0

>  <SCORE.INTRA.REPUL.0>
0

>  <SCORE.INTRA.SOLV>
-0.359487

>  <SCORE.INTRA.SOLV.lig_0>
-47.9565

>  <SCORE.INTRA.VDW>
-0.86283

>  <SCORE.INTRA.VDW.0>
0.515983

>  <SCORE.INTRA.norm>
-0.614742

>  <SCORE.RESTR>
0

>  <SCORE.RESTR.CAVITY>
0

>  <SCORE.RESTR.norm>
0

>  <SCORE.SYSTEM>
0

>  <SCORE.SYSTEM.CONST>
0

>  <SCORE.SYSTEM.DIHEDRAL>
0

>  <SCORE.SYSTEM.SOLV>
0

>  <SCORE.SYSTEM.norm>
0

>  <SCORE.heavy>
14

>  <SCORE.norm>
-0.914471

>  <RMSD>
4.473

$$$$
1xpf_lig
 OpenBabel02141814123D
libRbt.so/2013.1/901 2013/11/27
 14 13  0  0  0  0  0  0  0  0999 V2000
   22.4191    2.7415   58.5179 N   0  0  0  0  0  0  0  0  0  0  0  0
   22.8681    2.8361   59.8947 C   0  0  0  0  0  0  0  0  0  0  0  0
   22.0760    1.9449   60.7745 C   0  0  0  0  0  0  0  0  0  0  0  0
   22.4774    0.5428   60.4366 C   0  0  0  0  0  0  0  0  0  0  0  0
   23.5866    0.1896   61.3561 N   0  0  0  0  0  0  0  0  0  0  0  0
   23.7251   -1.2949   61.4665 C   0  0  0  0  0  0  0  0  0  0  0  0
   22.5735   -1.9590   62.2409 C   0  0  0  0  0  0  0  0  0  0  0  0
   22.4112   -1.4442   63.6820 C   0  0  0  0  0  0  0  0  0  0  0  0
   20.9987   -1.7419   64.1620 C   0  0  0  0  0  0  0  0  0  0  0  0
   20.9729   -1.2857   65.5593 N   0  0  0  0  0  0  0  0  0  0  0  0
   20.0152   -0.2043   65.9240 C   0  0  0  0  0  0  0  0  0  0  0  0
   18.7227   -1.0306   66.1003 C   0  0  0  0  0  0  0  0  0  0  0  0
   17.5632   -0.4147   66.8413 C   0  0  0  0  0  0  0  0  0  0  0  0
   17.8033   -0.1688   68.2528 N   0  0  0  0  0  0  0  0  0  0  0  0
  1  2  1  0  0  0  0
  2  3  1  0  0  0  0
  3  4  1  0  0  0  0
  4  5  1  0  0  0  0
  5  6  1  0  0  0  0
  6  7  1  0  0  0  0
  7  8  1  0  0  0  0
  8  9  1  0  0  0  0
  9 10  1  0  0  0  0
 10 11  1  0  0  0  0
 11 12  1  0  0  0  0
 12 13  1  0  0  0  0
 13 14  1  0  0  0  0
M  END
>  <CHROM.1>
70.75809282,91.90105854,159.06000685,-70.69062022,-58.86909047,158.84856892
176.84540653,118.86714557,81.65018579,163.18469989,-66.29279578,21.30098237
-0.09226790,63.22912412,0.81308541,0.73379521,-0.70845386

>  <Name>
1xpf_lig

>  <RI>
0

>  <Rbt.Current_Directory>
/home/afrankz/demos/rdock_decoys_rna/rnas/1xpf

>  <Rbt.Executable>
rbdock ($Id: //depot/dev/client3/rdock/2013.1/src/exe/rbdock.cxx#4 $)

>  <Rbt.Library>
libRbt.so (2013.1, Build901 2013/11/27)

>  <Rbt.Parameter_File>
/export/apps/rDock/src/rDock_2013.1_src/data/scripts/dock_solv.prm

>  <Rbt.Receptor>
prm/pocket_docking_5.prm

>  <SCORE>
-12.8799

>  <SCORE.INTER>
-8.38859

>  <SCORE.INTER.CONST>
1

>  <SCORE.INTER.POLAR>
-2.75688

>  <SCORE.INTER.ROT>
11

>  <SCORE.INTER.SOLV>
15.4148

>  <SCORE.INTER.VDW>
-12.4744

>  <SCORE.INTER.norm>
-0.599185

>  <SCORE.INTRA>
-4.4913

>  <SCORE.INTRA.DIHEDRAL>
-9.47225

>  <SCORE.INTRA.DIHEDRAL.0>
17.7811

>  <SCORE.INTRA.POLAR>
0

>  <SCORE.INTRA.POLAR.0>
0

>  <SCORE.INTRA.REPUL>
0

>  <SCORE.INTRA.REPUL.0>
0

>  <SCORE.INTRA.SOLV>
1.45659

>  <SCORE.INTRA.SOLV.lig_0>
-47.9565

>  <SCORE.INTRA.VDW>
-0.483473

>  <SCORE.INTRA.VDW.0>
0.515983

>  <SCORE.INTRA.norm>
-0.320807

>  <SCORE.RESTR>
0

>  <SCORE.RESTR.CAVITY>
0

>  <SCORE.RESTR.norm>
0

>  <SCORE.SYSTEM>
0

>  <SCORE.SYSTEM.CONST>
0

>  <SCORE.SYSTEM.DIHEDRAL>
0

>  <SCORE.SYSTEM.SOLV>
0

>  <SCORE.SYSTEM.norm>
0

>  <SCORE.heavy>
14

>  <SCORE.norm>
-0.919993

>  <RMSD>
4.477

$$$$
1xpf_lig
 OpenBabel02141814123D
libRbt.so/2013.1/901 2013/11/27
 14 13  0  0  0  0  0  0  0  0999 V2000
   22.3841    7.6050   61.8842 N   0  0  0  0  0  0  0  0  0  0  0  0
   21.5355    7.4759   63.0545 C   0  0  0  0  0  0  0  0  0  0  0  0
   21.0243    6.0917   63.1902 C   0  0  0  0  0  0  0  0  0  0  0  0
   20.2122    6.0568   64.4475 C   0  0  0  0  0  0  0  0  0  0  0  0
   19.8421    4.6376   64.6700 N   0  0  0  0  0  0  0  0  0  0  0  0
   19.7971    4.3294   66.1321 C   0  0  0  0  0  0  0  0  0  0  0  0
   19.7709    2.8217   66.4371 C   0  0  0  0  0  0  0  0  0  0  0  0
   19.6160    2.4892   67.9318 C   0  0  0  0  0  0  0  0  0  0  0  0
   19.3306    1.0029   68.0852 C   0  0  0  0  0  0  0  0  0  0  0  0
   17.9401    0.8392   67.6366 N   0  0  0  0  0  0  0  0  0  0  0  0
   17.5278   -0.4917   67.1093 C   0  0  0  0  0  0  0  0  0  0  0  0
   17.2599   -0.1304   65.6322 C   0  0  0  0  0  0  0  0  0  0  0  0
   16.6325   -1.1663   64.7342 C   0  0  0  0  0  0  0  0  0  0  0  0
   17.3950   -2.3949   64.5954 N   0  0  0  0  0  0  0  0  0  0  0  0
  1  2  1  0  0  0  0
  2  3  1  0  0  0  0
  3  4  1  0  0  0  0
  4  5  1  0  0  0  0
  5  6  1  0  0  0  0
  6  7  1  0  0  0  0
  7  8  1  0  0  0  0
  8  9  1  0  0  0  0
  9 10  1  0  0  0  0
 10 11  1  0  0  0  0
 11 12  1  0  0  0  0
 12 13  1  0  0  0  0
 13 14  1  0  0  0  0
M  END
>  <CHROM.1>
177.82190978,-173.17271366,145.83313505,-165.52436024,-175.56843074,169.03146522
-73.40824139,154.28653324,-113.50801111,-172.03904805,-59.85906886,19.30483512
2.79764585,65.39602369,0.44558441,-1.08030651,-1.45647059

>  <Name>
1xpf_lig

>  <RI>
0

>  <Rbt.Current_Directory>
/home/afrankz/demos/rdock_decoys_rna/rnas/1xpf

>  <Rbt.Executable>
rbdock ($Id: //depot/dev/client3/rdock/2013.1/src/exe/rbdock.cxx#4 $)

>  <Rbt.Library>
libRbt.so (2013.1, Build901 2013/11/27)

>  <Rbt.Parameter_File>
/export/apps/rDock/src/rDock_2013.1_src/data/scripts/dock_solv.prm

>  <Rbt.Receptor>
prm/pocket_docking_4.prm

>  <SCORE>
-15.6759

>  <SCORE.INTER>
-7.11162

>  <SCORE.INTER.CONST>
1

>  <SCORE.INTER.POLAR>
-1.67052

>  <SCORE.INTER.ROT>
11

>  <SCORE.INTER.SOLV>
12.7931

>  <SCORE.INTER.VDW>
-14.3704

>  <SCORE.INTER.norm>
-0.507973

>  <SCORE.INTRA>
-8.60236

>  <SCORE.INTRA.DIHEDRAL>
-13.6084

>  <SCORE.INTRA.DIHEDRAL.0>
17.7811

>  <SCORE.INTRA.POLAR>
0

>  <SCORE.INTRA.POLAR.0>
0

>  <SCORE.INTRA.REPUL>
0

>  <SCORE.INTRA.REPUL.0>
0

>  <SCORE.INTRA.SOLV>
0.0918424

>  <SCORE.INTRA.SOLV.lig_0>
-47.9565

>  <SCORE.INTRA.VDW>
-1.84406

>  <SCORE.INTRA.VDW.0>
0.515983

>  <SCORE.INTRA.norm>
-0.614454

>  <SCORE.RESTR>
0.0381112

>  <SCORE.RESTR.CAVITY>
0.0381112

>  <SCORE.RESTR.norm>
0.00272223

>  <SCORE.SYSTEM>
0

>  <SCORE.SYSTEM.CONST>
0

>  <SCORE.SYSTEM.DIHEDRAL>
0

>  <SCORE.SYSTEM.SOLV>
0

>  <SCORE.SYSTEM.norm>
0

>  <SCORE.heavy>
14

>  <SCORE.norm>
-1.1197

>  <RMSD>
4.478

$$$$
1xpf_lig
 OpenBabel02141814123D
libRbt.so/2013.1/901 2013/11/27
 14 13  0  0  0  0  0  0  0  0999 V2000
   14.5550   -4.2277   59.9225 N   0  0  0  0  0  0  0  0  0  0  0  0
   15.8084   -4.0533   59.2119 C   0  0  0  0  0  0  0  0  0  0  0  0
   16.8346   -3.4395   60.0871 C   0  0  0  0  0  0  0  0  0  0  0  0
   16.4090   -2.0226   60.3170 C   0  0  0  0  0  0  0  0  0  0  0  0
   16.9357   -1.2347   59.1758 N   0  0  0  0  0  0  0  0  0  0  0  0
   17.0346    0.2124   59.5376 C   0  0  0  0  0  0  0  0  0  0  0  0
   18.2103    0.5269   60.4788 C   0  0  0  0  0  0  0  0  0  0  0  0
   19.5902    0.4507   59.8017 C   0  0  0  0  0  0  0  0  0  0  0  0
   20.3102    1.7780   59.9860 C   0  0  0  0  0  0  0  0  0  0  0  0
   21.7143    1.4924   59.6567 N   0  0  0  0  0  0  0  0  0  0  0  0
   22.7577    2.4161   60.1837 C   0  0  0  0  0  0  0  0  0  0  0  0
   22.8386    3.4299   59.0218 C   0  0  0  0  0  0  0  0  0  0  0  0
   23.6220    4.7023   59.2225 C   0  0  0  0  0  0  0  0  0  0  0  0
   23.6083    5.6116   58.0897 N   0  0  0  0  0  0  0  0  0  0  0  0
  1  2  1  0  0  0  0
  2  3  1  0  0  0  0
  3  4  1  0  0  0  0
  4  5  1  0  0  0  0
  5  6  1  0  0  0  0
  6  7  1  0  0  0  0
  7  8  1  0  0  0  0
  8  9  1  0  0  0  0
  9 10  1  0  0  0  0
 10 11  1  0  0  0  0
 11 12  1  0  0  0  0
 12 13  1  0  0  0  0
 13 14  1  0  0  0  0
M  END
>  <CHROM.1>
-69.75633779,-85.66100333,-158.41087854,74.47151514,72.23471780,123.85997138
164.63966667,-158.69545375,-90.50907584,169.70314854,-178.24777756,19.30211006
0.40303446,59.62106669,2.37112579,0.14628880,2.89890534

>  <Name>
1xpf_lig

>  <RI>
0

>  <Rbt.Current_Directory>
/home/afrankz/demos/rdock_decoys_rna/rnas/1xpf

>  <Rbt.Executable>
rbdock ($Id: //depot/dev/client3/rdock/2013.1/src/exe/rbdock.cxx#4 $)

>  <Rbt.Library>
libRbt.so (2013.1, Build901 2013/11/27)

>  <Rbt.Parameter_File>
/export/apps/rDock/src/rDock_2013.1_src/data/scripts/dock_solv.prm

>  <Rbt.Receptor>
prm/pocket_docking_7.prm

>  <SCORE>
-6.57411

>  <SCORE.INTER>
-3.15594

>  <SCORE.INTER.CONST>
1

>  <SCORE.INTER.POLAR>
-1.92765

>  <SCORE.INTER.ROT>
11

>  <SCORE.INTER.SOLV>
9.52294

>  <SCORE.INTER.VDW>
-9.78611

>  <SCORE.INTER.norm>
-0.225424

>  <SCORE.INTRA>
-3.41818

>  <SCORE.INTRA.DIHEDRAL>
-5.97624

>  <SCORE.INTRA.DIHEDRAL.0>
17.7811

>  <SCORE.INTRA.POLAR>
0

>  <SCORE.INTRA.POLAR.0>
0

>  <SCORE.INTRA.REPUL>
0

>  <SCORE.INTRA.REPUL.0>
0

>  <SCORE.INTRA.SOLV>
0.745886

>  <SCORE.INTRA.SOLV.lig_0>
-47.9565

>  <SCORE.INTRA.VDW>
-0.803002

>  <SCORE.INTRA.VDW.0>
0.515983

>  <SCORE.INTRA.norm>
-0.244156

>  <SCORE.RESTR>
0

>  <SCORE.RESTR.CAVITY>
0

>  <SCORE.RESTR.norm>
0

>  <SCORE.SYSTEM>
0

>  <SCORE.SYSTEM.CONST>
0

>  <SCORE.SYSTEM.DIHEDRAL>
0

>  <SCORE.SYSTEM.SOLV>
0

>  <SCORE.SYSTEM.norm>
0

>  <SCORE.heavy>
14

>  <SCORE.norm>
-0.46958

>  <RMSD>
4.482

$$$$
1xpf_lig
 OpenBabel02141814123D
libRbt.so/2013.1/901 2013/11/27
 14 13  0  0  0  0  0  0  0  0999 V2000
   23.3070    4.8453   63.5434 N   0  0  0  0  0  0  0  0  0  0  0  0
   23.9981    3.6253   63.1691 C   0  0  0  0  0  0  0  0  0  0  0  0
   23.0355    2.5371   62.8774 C   0  0  0  0  0  0  0  0  0  0  0  0
   23.8476    1.3105   62.5994 C   0  0  0  0  0  0  0  0  0  0  0  0
   22.8820    0.2292   62.2846 N   0  0  0  0  0  0  0  0  0  0  0  0
   23.5641   -1.1011   62.2861 C   0  0  0  0  0  0  0  0  0  0  0  0
   22.5855   -2.2883   62.2915 C   0  0  0  0  0  0  0  0  0  0  0  0
   21.8208   -2.4616   63.6157 C   0  0  0  0  0  0  0  0  0  0  0  0
   20.8234   -1.3232   63.7684 C   0  0  0  0  0  0  0  0  0  0  0  0
   20.1587   -1.5765   65.0551 N   0  0  0  0  0  0  0  0  0  0  0  0
   19.1498   -0.5871   65.5274 C   0  0  0  0  0  0  0  0  0  0  0  0
   19.9806    0.1663   66.5887 C   0  0  0  0  0  0  0  0  0  0  0  0
   19.2635    1.0460   67.5811 C   0  0  0  0  0  0  0  0  0  0  0  0
   18.3687    0.3428   68.4839 N   0  0  0  0  0  0  0  0  0  0  0  0
  1  2  1  0  0  0  0
  2  3  1  0  0  0  0
  3  4  1  0  0  0  0
  4  5  1  0  0  0  0
  5  6  1  0  0  0  0
  6  7  1  0  0  0  0
  7  8  1  0  0  0  0
  8  9  1  0  0  0  0
  9 10  1  0  0  0  0
 10 11  1  0  0  0  0
 11 12  1  0  0  0  0
 12 13  1  0  0  0  0
 13 14  1  0  0  0  0
M  END
>  <CHROM.1>
-176.11106571,-179.03272853,-167.56134896,166.68316929,-70.03337386,70.15303201
-179.67526216,177.39512355,-102.68742247,-164.87402163,64.51289392,21.62771037
0.34008647,64.26203334,0.09238162,0.82106414,0.34034581

>  <Name>
1xpf_lig

>  <RI>
0

>  <Rbt.Current_Directory>
/home/afrankz/demos/rdock_decoys_rna/rnas/1xpf

>  <Rbt.Executable>
rbdock ($Id: //depot/dev/client3/rdock/2013.1/src/exe/rbdock.cxx#4 $)

>  <Rbt.Library>
libRbt.so (2013.1, Build901 2013/11/27)

>  <Rbt.Parameter_File>
/export/apps/rDock/src/rDock_2013.1_src/data/scripts/dock_solv.prm

>  <Rbt.Receptor>
prm/pocket_docking_5.prm

>  <SCORE>
-11.0919

>  <SCORE.INTER>
-2.68286

>  <SCORE.INTER.CONST>
1

>  <SCORE.INTER.POLAR>
-1.25943

>  <SCORE.INTER.ROT>
11

>  <SCORE.INTER.SOLV>
8.57342

>  <SCORE.INTER.VDW>
-11.3816

>  <SCORE.INTER.norm>
-0.191633

>  <SCORE.INTRA>
-8.40907

>  <SCORE.INTRA.DIHEDRAL>
-14.7893

>  <SCORE.INTRA.DIHEDRAL.0>
17.7811

>  <SCORE.INTRA.POLAR>
0

>  <SCORE.INTRA.POLAR.0>
0

>  <SCORE.INTRA.REPUL>
0

>  <SCORE.INTRA.REPUL.0>
0

>  <SCORE.INTRA.SOLV>
0.775646

>  <SCORE.INTRA.SOLV.lig_0>
-47.9565

>  <SCORE.INTRA.VDW>
-1.40225

>  <SCORE.INTRA.VDW.0>
0.515983

>  <SCORE.INTRA.norm>
-0.600648

>  <SCORE.RESTR>
0

>  <SCORE.RESTR.CAVITY>
0

>  <SCORE.RESTR.norm>
0

>  <SCORE.SYSTEM>
0

>  <SCORE.SYSTEM.CONST>
0

>  <SCORE.SYSTEM.DIHEDRAL>
0

>  <SCORE.SYSTEM.SOLV>
0

>  <SCORE.SYSTEM.norm>
0

>  <SCORE.heavy>
14

>  <SCORE.norm>
-0.792281

>  <RMSD>
4.486

$$$$
1xpf_lig
 OpenBabel02141814123D
libRbt.so/2013.1/901 2013/11/27
 14 13  0  0  0  0  0  0  0  0999 V2000
   16.8722   -4.2357   68.0558 N   0  0  0  0  0  0  0  0  0  0  0  0
   16.8578   -3.2561   69.1265 C   0  0  0  0  0  0  0  0  0  0  0  0
   16.0814   -2.0553   68.7380 C   0  0  0  0  0  0  0  0  0  0  0  0
   16.8119   -1.4254   67.5930 C   0  0  0  0  0  0  0  0  0  0  0  0
   17.9601   -0.6915   68.1792 N   0  0  0  0  0  0  0  0  0  0  0  0
   18.7435   -0.0007   67.1096 C   0  0  0  0  0  0  0  0  0  0  0  0
   19.1335    1.4421   67.4745 C   0  0  0  0  0  0  0  0  0  0  0  0
   19.8719    2.1926   66.3520 C   0  0  0  0  0  0  0  0  0  0  0  0
   19.7520    3.6902   66.5905 C   0  0  0  0  0  0  0  0  0  0  0  0
   20.3109    4.3092   65.3797 N   0  0  0  0  0  0  0  0  0  0  0  0
   19.6687    5.5534   64.8706 C   0  0  0  0  0  0  0  0  0  0  0  0
   20.3241    5.6493   63.4759 C   0  0  0  0  0  0  0  0  0  0  0  0
   21.7998    5.9448   63.3864 C   0  0  0  0  0  0  0  0  0  0  0  0
   22.2071    7.2026   63.9885 N   0  0  0  0  0  0  0  0  0  0  0  0
  1  2  1  0  0  0  0
  2  3  1  0  0  0  0
  3  4  1  0  0  0  0
  4  5  1  0  0  0  0
  5  6  1  0  0  0  0
  6  7  1  0  0  0  0
  7  8  1  0  0  0  0
  8  9  1  0  0  0  0
  9 10  1  0  0  0  0
 10 11  1  0  0  0  0
 11 12  1  0  0  0  0
 12 13  1  0  0  0  0
 13 14  1  0  0  0  0
M  END
>  <CHROM.1>
-64.32043694,-78.11258355,-178.91814743,135.64399141,-176.75364471,159.25167532
-172.06190632,143.09241426,-167.39299538,-67.98530252,-59.52951931,19.02809933
1.73715352,66.45146595,-2.84513051,1.13788339,0.78632404

>  <Name>
1xpf_lig

>  <RI>
0

>  <Rbt.Current_Directory>
/home/afrankz/demos/rdock_decoys_rna/rnas/1xpf

>  <Rbt.Executable>
rbdock ($Id: //depot/dev/client3/rdock/2013.1/src/exe/rbdock.cxx#4 $)

>  <Rbt.Library>
libRbt.so (2013.1, Build901 2013/11/27)

>  <Rbt.Parameter_File>
/export/apps/rDock/src/rDock_2013.1_src/data/scripts/dock_solv.prm

>  <Rbt.Receptor>
prm/blind_docking_100.prm

>  <SCORE>
-11.1894

>  <SCORE.INTER>
-4.93941

>  <SCORE.INTER.CONST>
1

>  <SCORE.INTER.POLAR>
-0.8

>  <SCORE.INTER.ROT>
11

>  <SCORE.INTER.SOLV>
11.272

>  <SCORE.INTER.VDW>
-15.3169

>  <SCORE.INTER.norm>
-0.352815

>  <SCORE.INTRA>
-6.27505

>  <SCORE.INTRA.DIHEDRAL>
-12.4625

>  <SCORE.INTRA.DIHEDRAL.0>
17.7811

>  <SCORE.INTRA.POLAR>
0

>  <SCORE.INTRA.POLAR.0>
0

>  <SCORE.INTRA.REPUL>
0

>  <SCORE.INTRA.REPUL.0>
0

>  <SCORE.INTRA.SOLV>
2.35445

>  <SCORE.INTRA.SOLV.lig_0>
-47.9565

>  <SCORE.INTRA.VDW>
-1.22103

>  <SCORE.INTRA.VDW.0>
0.515983

>  <SCORE.INTRA.norm>
-0.448218

>  <SCORE.RESTR>
0.0250665

>  <SCORE.RESTR.CAVITY>
0.0250665

>  <SCORE.RESTR.norm>
0.00179046

>  <SCORE.SYSTEM>
0

>  <SCORE.SYSTEM.CONST>
0

>  <SCORE.SYSTEM.DIHEDRAL>
0

>  <SCORE.SYSTEM.SOLV>
0

>  <SCORE.SYSTEM.norm>
0

>  <SCORE.heavy>
14

>  <SCORE.norm>
-0.799242

>  <RMSD>
4.493

$$$$
1xpf_lig
 OpenBabel02141814123D
libRbt.so/2013.1/901 2013/11/27
 14 13  0  0  0  0  0  0  0  0999 V2000
   17.8027   -0.2330   68.3416 N   0  0  0  0  0  0  0  0  0  0  0  0
   17.3512   -0.5825   67.0074 C   0  0  0  0  0  0  0  0  0  0  0  0
   18.2150    0.0367   65.9748 C   0  0  0  0  0  0  0  0  0  0  0  0
   17.5942   -0.2822   64.6502 C   0  0  0  0  0  0  0  0  0  0  0  0
   18.4472    0.3601   63.6204 N   0  0  0  0  0  0  0  0  0  0  0  0
   17.6532    1.3391   62.8166 C   0  0  0  0  0  0  0  0  0  0  0  0
   18.2470    2.7583   62.8241 C   0  0  0  0  0  0  0  0  0  0  0  0
   19.5865    2.8790   62.0760 C   0  0  0  0  0  0  0  0  0  0  0  0
   20.0736    4.3180   62.1541 C   0  0  0  0  0  0  0  0  0  0  0  0
   21.2912    4.3475   61.3306 N   0  0  0  0  0  0  0  0  0  0  0  0
   21.9941    5.6511   61.1686 C   0  0  0  0  0  0  0  0  0  0  0  0
   23.3089    5.1742   60.5144 C   0  0  0  0  0  0  0  0  0  0  0  0
   23.2879    4.7528   59.0670 C   0  0  0  0  0  0  0  0  0  0  0  0
   22.4735    3.5837   58.7842 N   0  0  0  0  0  0  0  0  0  0  0  0
  1  2  1  0  0  0  0
  2  3  1  0  0  0  0
  3  4  1  0  0  0  0
  4  5  1  0  0  0  0
  5  6  1  0  0  0  0
  6  7  1  0  0  0  0
  7  8  1  0  0  0  0
  8  9  1  0  0  0  0
  9 10  1  0  0  0  0
 10 11  1  0  0  0  0
 11 12  1  0  0  0  0
 12 13  1  0  0  0  0
 13 14  1  0  0  0  0
M  END
>  <CHROM.1>
-175.01546293,178.97572823,-120.57864810,123.83889912,68.28324169,-179.87557260
-175.79648038,178.10695753,168.96836215,74.38876949,-64.03863421,19.80893332
2.43607190,62.88065342,-2.37466694,-0.76366868,-1.52303072

>  <Name>
1xpf_lig

>  <RI>
0

>  <Rbt.Current_Directory>
/home/afrankz/demos/rdock_decoys_rna/rnas/1xpf

>  <Rbt.Executable>
rbdock ($Id: //depot/dev/client3/rdock/2013.1/src/exe/rbdock.cxx#4 $)

>  <Rbt.Library>
libRbt.so (2013.1, Build901 2013/11/27)

>  <Rbt.Parameter_File>
/export/apps/rDock/src/rDock_2013.1_src/data/scripts/dock_solv.prm

>  <Rbt.Receptor>
prm/pocket_docking_6.prm

>  <SCORE>
-13.8581

>  <SCORE.INTER>
-5.94951

>  <SCORE.INTER.CONST>
1

>  <SCORE.INTER.POLAR>
-2.4913

>  <SCORE.INTER.ROT>
11

>  <SCORE.INTER.SOLV>
12.1099

>  <SCORE.INTER.VDW>
-10.632

>  <SCORE.INTER.norm>
-0.424965

>  <SCORE.INTRA>
-7.90857

>  <SCORE.INTRA.DIHEDRAL>
-14.0651

>  <SCORE.INTRA.DIHEDRAL.0>
17.7811

>  <SCORE.INTRA.POLAR>
0

>  <SCORE.INTRA.POLAR.0>
0

>  <SCORE.INTRA.REPUL>
0

>  <SCORE.INTRA.REPUL.0>
0

>  <SCORE.INTRA.SOLV>
2.27338

>  <SCORE.INTRA.SOLV.lig_0>
-47.9565

>  <SCORE.INTRA.VDW>
-2.0127

>  <SCORE.INTRA.VDW.0>
0.515983

>  <SCORE.INTRA.norm>
-0.564898

>  <SCORE.RESTR>
0

>  <SCORE.RESTR.CAVITY>
0

>  <SCORE.RESTR.norm>
0

>  <SCORE.SYSTEM>
0

>  <SCORE.SYSTEM.CONST>
0

>  <SCORE.SYSTEM.DIHEDRAL>
0

>  <SCORE.SYSTEM.SOLV>
0

>  <SCORE.SYSTEM.norm>
0

>  <SCORE.heavy>
14

>  <SCORE.norm>
-0.989863

>  <RMSD>
4.501

$$$$
1xpf_lig
 OpenBabel02141814123D
libRbt.so/2013.1/901 2013/11/27
 14 13  0  0  0  0  0  0  0  0999 V2000
   15.9616   -4.2067   69.0951 N   0  0  0  0  0  0  0  0  0  0  0  0
   16.4743   -3.3017   68.0830 C   0  0  0  0  0  0  0  0  0  0  0  0
   16.5699   -1.9185   68.6059 C   0  0  0  0  0  0  0  0  0  0  0  0
   17.2247   -1.1009   67.5363 C   0  0  0  0  0  0  0  0  0  0  0  0
   17.9633   -0.0165   68.2286 N   0  0  0  0  0  0  0  0  0  0  0  0
   18.5534    0.9336   67.2367 C   0  0  0  0  0  0  0  0  0  0  0  0
   19.6834    1.7998   67.8194 C   0  0  0  0  0  0  0  0  0  0  0  0
   19.8815    3.1410   67.0910 C   0  0  0  0  0  0  0  0  0  0  0  0
   20.3850    2.8732   65.6808 C   0  0  0  0  0  0  0  0  0  0  0  0
   20.7528    4.1963   65.1558 N   0  0  0  0  0  0  0  0  0  0  0  0
   19.6839    5.0195   64.5239 C   0  0  0  0  0  0  0  0  0  0  0  0
   20.5124    6.2385   64.0638 C   0  0  0  0  0  0  0  0  0  0  0  0
   21.2675    6.1528   62.7617 C   0  0  0  0  0  0  0  0  0  0  0  0
   21.8523    7.4044   62.3127 N   0  0  0  0  0  0  0  0  0  0  0  0
  1  2  1  0  0  0  0
  2  3  1  0  0  0  0
  3  4  1  0  0  0  0
  4  5  1  0  0  0  0
  5  6  1  0  0  0  0
  6  7  1  0  0  0  0
  7  8  1  0  0  0  0
  8  9  1  0  0  0  0
  9 10  1  0  0  0  0
 10 11  1  0  0  0  0
 11 12  1  0  0  0  0
 12 13  1  0  0  0  0
 13 14  1  0  0  0  0
M  END
>  <CHROM.1>
174.77508094,-150.28152854,-174.83888658,-161.41950505,-154.57254849,-66.79302023
-170.83353568,-85.87194763,-176.93316866,82.67740514,171.24652918,19.05467027
1.94395216,66.29965995,2.34281359,0.95501306,1.95136160

>  <Name>
1xpf_lig

>  <RI>
0

>  <Rbt.Current_Directory>
/home/afrankz/demos/rdock_decoys_rna/rnas/1xpf

>  <Rbt.Executable>
rbdock ($Id: //depot/dev/client3/rdock/2013.1/src/exe/rbdock.cxx#4 $)

>  <Rbt.Library>
libRbt.so (2013.1, Build901 2013/11/27)

>  <Rbt.Parameter_File>
/export/apps/rDock/src/rDock_2013.1_src/data/scripts/dock_solv.prm

>  <Rbt.Receptor>
prm/blind_docking_100.prm

>  <SCORE>
-16.4423

>  <SCORE.INTER>
-10.4328

>  <SCORE.INTER.CONST>
1

>  <SCORE.INTER.POLAR>
-2.24371

>  <SCORE.INTER.ROT>
11

>  <SCORE.INTER.SOLV>
14.7636

>  <SCORE.INTER.VDW>
-15.3307

>  <SCORE.INTER.norm>
-0.745201

>  <SCORE.INTRA>
-6.03695

>  <SCORE.INTRA.DIHEDRAL>
-9.57481

>  <SCORE.INTRA.DIHEDRAL.0>
17.7811

>  <SCORE.INTRA.POLAR>
0

>  <SCORE.INTRA.POLAR.0>
0

>  <SCORE.INTRA.REPUL>
0

>  <SCORE.INTRA.REPUL.0>
0

>  <SCORE.INTRA.SOLV>
-0.550019

>  <SCORE.INTRA.SOLV.lig_0>
-47.9565

>  <SCORE.INTRA.VDW>
-0.974532

>  <SCORE.INTRA.VDW.0>
0.515983

>  <SCORE.INTRA.norm>
-0.431211

>  <SCORE.RESTR>
0.027474

>  <SCORE.RESTR.CAVITY>
0.027474

>  <SCORE.RESTR.norm>
0.00196243

>  <SCORE.SYSTEM>
0

>  <SCORE.SYSTEM.CONST>
0

>  <SCORE.SYSTEM.DIHEDRAL>
0

>  <SCORE.SYSTEM.SOLV>
0

>  <SCORE.SYSTEM.norm>
0

>  <SCORE.heavy>
14

>  <SCORE.norm>
-1.17445

>  <RMSD>
4.525

$$$$
1xpf_lig
 OpenBabel02141814123D
libRbt.so/2013.1/901 2013/11/27
 14 13  0  0  0  0  0  0  0  0999 V2000
   17.8388   -0.1819   68.3193 N   0  0  0  0  0  0  0  0  0  0  0  0
   17.7066   -0.2973   66.8787 C   0  0  0  0  0  0  0  0  0  0  0  0
   16.4846   -1.0528   66.5159 C   0  0  0  0  0  0  0  0  0  0  0  0
   16.4613   -1.1368   65.0213 C   0  0  0  0  0  0  0  0  0  0  0  0
   15.1518   -0.5895   64.5895 N   0  0  0  0  0  0  0  0  0  0  0  0
   15.3013    0.1951   63.3258 C   0  0  0  0  0  0  0  0  0  0  0  0
   16.0694    1.5147   63.5145 C   0  0  0  0  0  0  0  0  0  0  0  0
   16.9140    1.9257   62.2954 C   0  0  0  0  0  0  0  0  0  0  0  0
   17.8136    3.0901   62.6814 C   0  0  0  0  0  0  0  0  0  0  0  0
   18.6741    3.3046   61.5089 N   0  0  0  0  0  0  0  0  0  0  0  0
   20.1349    3.4872   61.7379 C   0  0  0  0  0  0  0  0  0  0  0  0
   20.6510    3.4193   60.2842 C   0  0  0  0  0  0  0  0  0  0  0  0
   22.1390    3.4059   60.0425 C   0  0  0  0  0  0  0  0  0  0  0  0
   22.8434    4.5867   60.5111 N   0  0  0  0  0  0  0  0  0  0  0  0
  1  2  1  0  0  0  0
  2  3  1  0  0  0  0
  3  4  1  0  0  0  0
  4  5  1  0  0  0  0
  5  6  1  0  0  0  0
  6  7  1  0  0  0  0
  7  8  1  0  0  0  0
  8  9  1  0  0  0  0
  9 10  1  0  0  0  0
 10 11  1  0  0  0  0
 11 12  1  0  0  0  0
 12 13  1  0  0  0  0
 13 14  1  0  0  0  0
M  END
>  <CHROM.1>
-178.84765050,-125.22811654,142.59736693,-69.61981203,147.00373104,-169.82571508
173.91306378,-133.97376190,170.35349172,-173.17886001,-61.52556188,18.15579865
1.54783147,63.37315603,-2.21136990,-0.29919795,-1.10836064

>  <Name>
1xpf_lig

>  <RI>
0

>  <Rbt.Current_Directory>
/home/afrankz/demos/rdock_decoys_rna/rnas/1xpf

>  <Rbt.Executable>
rbdock ($Id: //depot/dev/client3/rdock/2013.1/src/exe/rbdock.cxx#4 $)

>  <Rbt.Library>
libRbt.so (2013.1, Build901 2013/11/27)

>  <Rbt.Parameter_File>
/export/apps/rDock/src/rDock_2013.1_src/data/scripts/dock_solv.prm

>  <Rbt.Receptor>
prm/pocket_docking_6.prm

>  <SCORE>
-11.2995

>  <SCORE.INTER>
-6.46274

>  <SCORE.INTER.CONST>
1

>  <SCORE.INTER.POLAR>
-1.52721

>  <SCORE.INTER.ROT>
11

>  <SCORE.INTER.SOLV>
13.5805

>  <SCORE.INTER.VDW>
-14.678

>  <SCORE.INTER.norm>
-0.461624

>  <SCORE.INTRA>
-4.8368

>  <SCORE.INTRA.DIHEDRAL>
-6.39894

>  <SCORE.INTRA.DIHEDRAL.0>
17.7811

>  <SCORE.INTRA.POLAR>
0

>  <SCORE.INTRA.POLAR.0>
0

>  <SCORE.INTRA.REPUL>
0

>  <SCORE.INTRA.REPUL.0>
0

>  <SCORE.INTRA.SOLV>
-0.23574

>  <SCORE.INTRA.SOLV.lig_0>
-47.9565

>  <SCORE.INTRA.VDW>
-1.51946

>  <SCORE.INTRA.VDW.0>
0.515983

>  <SCORE.INTRA.norm>
-0.345485

>  <SCORE.RESTR>
0

>  <SCORE.RESTR.CAVITY>
0

>  <SCORE.RESTR.norm>
0

>  <SCORE.SYSTEM>
0

>  <SCORE.SYSTEM.CONST>
0

>  <SCORE.SYSTEM.DIHEDRAL>
0

>  <SCORE.SYSTEM.SOLV>
0

>  <SCORE.SYSTEM.norm>
0

>  <SCORE.heavy>
14

>  <SCORE.norm>
-0.80711

>  <RMSD>
4.533

$$$$
1xpf_lig
 OpenBabel02141814123D
libRbt.so/2013.1/901 2013/11/27
 14 13  0  0  0  0  0  0  0  0999 V2000
   20.0328    5.7662   68.3430 N   0  0  0  0  0  0  0  0  0  0  0  0
   20.4664    4.3934   68.5264 C   0  0  0  0  0  0  0  0  0  0  0  0
   19.3125    3.4640   68.5040 C   0  0  0  0  0  0  0  0  0  0  0  0
   19.8618    2.0938   68.7536 C   0  0  0  0  0  0  0  0  0  0  0  0
   18.7077    1.1629   68.7065 N   0  0  0  0  0  0  0  0  0  0  0  0
   18.6610    0.4498   67.3934 C   0  0  0  0  0  0  0  0  0  0  0  0
   17.5764   -0.6394   67.3291 C   0  0  0  0  0  0  0  0  0  0  0  0
   17.5824   -1.4505   66.0212 C   0  0  0  0  0  0  0  0  0  0  0  0
   16.5835   -2.5919   66.1375 C   0  0  0  0  0  0  0  0  0  0  0  0
   16.8094   -3.4122   64.9385 N   0  0  0  0  0  0  0  0  0  0  0  0
   16.0442   -4.6837   64.8071 C   0  0  0  0  0  0  0  0  0  0  0  0
   16.7608   -5.3106   63.5915 C   0  0  0  0  0  0  0  0  0  0  0  0
   16.3167   -6.6679   63.1082 C   0  0  0  0  0  0  0  0  0  0  0  0
   14.9358   -6.7344   62.6623 N   0  0  0  0  0  0  0  0  0  0  0  0
  1  2  1  0  0  0  0
  2  3  1  0  0  0  0
  3  4  1  0  0  0  0
  4  5  1  0  0  0  0
  5  6  1  0  0  0  0
  6  7  1  0  0  0  0
  7  8  1  0  0  0  0
  8  9  1  0  0  0  0
  9 10  1  0  0  0  0
 10 11  1  0  0  0  0
 11 12  1  0  0  0  0
 12 13  1  0  0  0  0
 13 14  1  0  0  0  0
M  END
>  <CHROM.1>
-177.83460466,-179.01898637,101.49975463,173.95738782,-175.82905473,173.50264099
-171.77108928,175.41271267,-170.26658199,178.68916785,61.23791473,17.83232781
-1.01155089,66.34452706,-0.61216006,-1.14897280,-1.74711387

>  <Name>
1xpf_lig

>  <RI>
0

>  <Rbt.Current_Directory>
/home/afrankz/demos/rdock_decoys_rna/rnas/1xpf

>  <Rbt.Executable>
rbdock ($Id: //depot/dev/client3/rdock/2013.1/src/exe/rbdock.cxx#4 $)

>  <Rbt.Library>
libRbt.so (2013.1, Build901 2013/11/27)

>  <Rbt.Parameter_File>
/export/apps/rDock/src/rDock_2013.1_src/data/scripts/dock_solv.prm

>  <Rbt.Receptor>
prm/pocket_docking_6.prm

>  <SCORE>
-14.343

>  <SCORE.INTER>
-4.41387

>  <SCORE.INTER.CONST>
1

>  <SCORE.INTER.POLAR>
-0.8

>  <SCORE.INTER.ROT>
11

>  <SCORE.INTER.SOLV>
6.47834

>  <SCORE.INTER.VDW>
-13.3687

>  <SCORE.INTER.norm>
-0.315276

>  <SCORE.INTRA>
-9.92917

>  <SCORE.INTRA.DIHEDRAL>
-16.1911

>  <SCORE.INTRA.DIHEDRAL.0>
17.7811

>  <SCORE.INTRA.POLAR>
0

>  <SCORE.INTRA.POLAR.0>
0

>  <SCORE.INTRA.REPUL>
0

>  <SCORE.INTRA.REPUL.0>
0

>  <SCORE.INTRA.SOLV>
-0.361452

>  <SCORE.INTRA.SOLV.lig_0>
-47.9565

>  <SCORE.INTRA.VDW>
-1.65287

>  <SCORE.INTRA.VDW.0>
0.515983

>  <SCORE.INTRA.norm>
-0.709226

>  <SCORE.RESTR>
0

>  <SCORE.RESTR.CAVITY>
0

>  <SCORE.RESTR.norm>
0

>  <SCORE.SYSTEM>
0

>  <SCORE.SYSTEM.CONST>
0

>  <SCORE.SYSTEM.DIHEDRAL>
0

>  <SCORE.SYSTEM.SOLV>
0

>  <SCORE.SYSTEM.norm>
0

>  <SCORE.heavy>
14

>  <SCORE.norm>
-1.0245

>  <RMSD>
4.533

$$$$
1xpf_lig
 OpenBabel02141814123D
libRbt.so/2013.1/901 2013/11/27
 14 13  0  0  0  0  0  0  0  0999 V2000
   22.4726    7.7598   62.1572 N   0  0  0  0  0  0  0  0  0  0  0  0
   21.5254    7.6068   63.2460 C   0  0  0  0  0  0  0  0  0  0  0  0
   21.0770    6.1996   63.3667 C   0  0  0  0  0  0  0  0  0  0  0  0
   20.2083    6.1301   64.5840 C   0  0  0  0  0  0  0  0  0  0  0  0
   19.8218    4.7069   64.7443 N   0  0  0  0  0  0  0  0  0  0  0  0
   19.8533    4.3132   66.1862 C   0  0  0  0  0  0  0  0  0  0  0  0
   19.7105    2.7974   66.4078 C   0  0  0  0  0  0  0  0  0  0  0  0
   19.6792    2.3830   67.8896 C   0  0  0  0  0  0  0  0  0  0  0  0
   19.3789    0.8947   67.9850 C   0  0  0  0  0  0  0  0  0  0  0  0
   17.9425    0.7820   67.6927 N   0  0  0  0  0  0  0  0  0  0  0  0
   17.3850   -0.5763   67.4403 C   0  0  0  0  0  0  0  0  0  0  0  0
   17.1744   -0.5067   65.9122 C   0  0  0  0  0  0  0  0  0  0  0  0
   16.5749   -1.6971   65.2075 C   0  0  0  0  0  0  0  0  0  0  0  0
   16.5062   -1.5783   63.7614 N   0  0  0  0  0  0  0  0  0  0  0  0
  1  2  1  0  0  0  0
  2  3  1  0  0  0  0
  3  4  1  0  0  0  0
  4  5  1  0  0  0  0
  5  6  1  0  0  0  0
  6  7  1  0  0  0  0
  7  8  1  0  0  0  0
  8  9  1  0  0  0  0
  9 10  1  0  0  0  0
 10 11  1  0  0  0  0
 11 12  1  0  0  0  0
 12 13  1  0  0  0  0
 13 14  1  0  0  0  0
M  END
>  <CHROM.1>
175.02202084,-176.96924382,139.68212488,-169.69518157,-177.46010127,173.66003111
-75.11300055,168.07362024,-106.25245497,-178.56192099,-175.67133860,19.23644585
2.80102151,65.47042876,0.55005299,-1.01738971,-1.30065089

>  <Name>
1xpf_lig

>  <RI>
0

>  <Rbt.Current_Directory>
/home/afrankz/demos/rdock_decoys_rna/rnas/1xpf

>  <Rbt.Executable>
rbdock ($Id: //depot/dev/client3/rdock/2013.1/src/exe/rbdock.cxx#4 $)

>  <Rbt.Library>
libRbt.so (2013.1, Build901 2013/11/27)

>  <Rbt.Parameter_File>
/export/apps/rDock/src/rDock_2013.1_src/data/scripts/dock_solv.prm

>  <Rbt.Receptor>
prm/pocket_docking_5.prm

>  <SCORE>
-17.2269

>  <SCORE.INTER>
-7.99436

>  <SCORE.INTER.CONST>
1

>  <SCORE.INTER.POLAR>
-1.71652

>  <SCORE.INTER.ROT>
11

>  <SCORE.INTER.SOLV>
12.7939

>  <SCORE.INTER.VDW>
-14.8058

>  <SCORE.INTER.norm>
-0.571026

>  <SCORE.INTRA>
-9.23251

>  <SCORE.INTRA.DIHEDRAL>
-14.4051

>  <SCORE.INTRA.DIHEDRAL.0>
17.7811

>  <SCORE.INTRA.POLAR>
0

>  <SCORE.INTRA.POLAR.0>
0

>  <SCORE.INTRA.REPUL>
0

>  <SCORE.INTRA.REPUL.0>
0

>  <SCORE.INTRA.SOLV>
-0.577694

>  <SCORE.INTRA.SOLV.lig_0>
-47.9565

>  <SCORE.INTRA.VDW>
-1.7411

>  <SCORE.INTRA.VDW.0>
0.515983

>  <SCORE.INTRA.norm>
-0.659465

>  <SCORE.RESTR>
0

>  <SCORE.RESTR.CAVITY>
0

>  <SCORE.RESTR.norm>
0

>  <SCORE.SYSTEM>
0

>  <SCORE.SYSTEM.CONST>
0

>  <SCORE.SYSTEM.DIHEDRAL>
0

>  <SCORE.SYSTEM.SOLV>
0

>  <SCORE.SYSTEM.norm>
0

>  <SCORE.heavy>
14

>  <SCORE.norm>
-1.23049

>  <RMSD>
4.539

$$$$
1xpf_lig
 OpenBabel02141814123D
libRbt.so/2013.1/901 2013/11/27
 14 13  0  0  0  0  0  0  0  0999 V2000
   15.0298   -4.5709   69.5083 N   0  0  0  0  0  0  0  0  0  0  0  0
   16.3798   -4.6362   68.9798 C   0  0  0  0  0  0  0  0  0  0  0  0
   17.0888   -3.3494   69.1722 C   0  0  0  0  0  0  0  0  0  0  0  0
   16.4598   -2.3693   68.2315 C   0  0  0  0  0  0  0  0  0  0  0  0
   17.2886   -1.1402   68.2882 N   0  0  0  0  0  0  0  0  0  0  0  0
   17.5464   -0.6164   66.9119 C   0  0  0  0  0  0  0  0  0  0  0  0
   18.8058    0.2624   66.8198 C   0  0  0  0  0  0  0  0  0  0  0  0
   18.8916    1.3471   67.9082 C   0  0  0  0  0  0  0  0  0  0  0  0
   20.0789    2.2526   67.6174 C   0  0  0  0  0  0  0  0  0  0  0  0
   19.7166    2.9616   66.3814 N   0  0  0  0  0  0  0  0  0  0  0  0
   20.6818    3.9582   65.8386 C   0  0  0  0  0  0  0  0  0  0  0  0
   19.7593    4.7376   64.8765 C   0  0  0  0  0  0  0  0  0  0  0  0
   20.3400    5.8774   64.0786 C   0  0  0  0  0  0  0  0  0  0  0  0
   21.4178    5.5046   63.1789 N   0  0  0  0  0  0  0  0  0  0  0  0
  1  2  1  0  0  0  0
  2  3  1  0  0  0  0
  3  4  1  0  0  0  0
  4  5  1  0  0  0  0
  5  6  1  0  0  0  0
  6  7  1  0  0  0  0
  7  8  1  0  0  0  0
  8  9  1  0  0  0  0
  9 10  1  0  0  0  0
 10 11  1  0  0  0  0
 11 12  1  0  0  0  0
 12 13  1  0  0  0  0
 13 14  1  0  0  0  0
M  END
>  <CHROM.1>
-70.80729600,-172.33544340,135.08331256,-156.62986580,-48.55252259,-173.17613462
67.32424487,178.96853444,-163.01452347,-179.69677865,60.74936867,18.53471194
0.72995478,66.98514809,2.26010022,0.86456070,2.11631936

>  <Name>
1xpf_lig

>  <RI>
0

>  <Rbt.Current_Directory>
/home/afrankz/demos/rdock_decoys_rna/rnas/1xpf

>  <Rbt.Executable>
rbdock ($Id: //depot/dev/client3/rdock/2013.1/src/exe/rbdock.cxx#4 $)

>  <Rbt.Library>
libRbt.so (2013.1, Build901 2013/11/27)

>  <Rbt.Parameter_File>
/export/apps/rDock/src/rDock_2013.1_src/data/scripts/dock_solv.prm

>  <Rbt.Receptor>
prm/blind_docking_100.prm

>  <SCORE>
-14.0001

>  <SCORE.INTER>
-6.15862

>  <SCORE.INTER.CONST>
1

>  <SCORE.INTER.POLAR>
-1.24528

>  <SCORE.INTER.ROT>
11

>  <SCORE.INTER.SOLV>
12.9265

>  <SCORE.INTER.VDW>
-15.197

>  <SCORE.INTER.norm>
-0.439902

>  <SCORE.INTRA>
-7.88714

>  <SCORE.INTRA.DIHEDRAL>
-14.613

>  <SCORE.INTRA.DIHEDRAL.0>
17.7811

>  <SCORE.INTRA.POLAR>
0

>  <SCORE.INTRA.POLAR.0>
0

>  <SCORE.INTRA.REPUL>
0

>  <SCORE.INTRA.REPUL.0>
0

>  <SCORE.INTRA.SOLV>
1.34284

>  <SCORE.INTRA.SOLV.lig_0>
-47.9565

>  <SCORE.INTRA.VDW>
-1.25205

>  <SCORE.INTRA.VDW.0>
0.515983

>  <SCORE.INTRA.norm>
-0.563367

>  <SCORE.RESTR>
0.0456757

>  <SCORE.RESTR.CAVITY>
0.0456757

>  <SCORE.RESTR.norm>
0.00326255

>  <SCORE.SYSTEM>
0

>  <SCORE.SYSTEM.CONST>
0

>  <SCORE.SYSTEM.DIHEDRAL>
0

>  <SCORE.SYSTEM.SOLV>
0

>  <SCORE.SYSTEM.norm>
0

>  <SCORE.heavy>
14

>  <SCORE.norm>
-1.00001

>  <RMSD>
4.542

$$$$
1xpf_lig
 OpenBabel02141814123D
libRbt.so/2013.1/901 2013/11/27
 14 13  0  0  0  0  0  0  0  0999 V2000
   17.7670   -0.1804   68.2548 N   0  0  0  0  0  0  0  0  0  0  0  0
   17.1008   -0.6542   67.0557 C   0  0  0  0  0  0  0  0  0  0  0  0
   17.9330   -0.4109   65.8540 C   0  0  0  0  0  0  0  0  0  0  0  0
   19.2434   -1.0935   66.0955 C   0  0  0  0  0  0  0  0  0  0  0  0
   19.9831   -1.0507   64.8103 N   0  0  0  0  0  0  0  0  0  0  0  0
   20.9475   -2.1896   64.7211 C   0  0  0  0  0  0  0  0  0  0  0  0
   21.2183   -2.6478   63.2776 C   0  0  0  0  0  0  0  0  0  0  0  0
   19.9546   -3.0761   62.5107 C   0  0  0  0  0  0  0  0  0  0  0  0
   19.5594   -4.4795   62.9447 C   0  0  0  0  0  0  0  0  0  0  0  0
   18.7306   -4.2825   64.1429 N   0  0  0  0  0  0  0  0  0  0  0  0
   17.2526   -4.2176   63.9676 C   0  0  0  0  0  0  0  0  0  0  0  0
   16.7899   -4.7060   65.3575 C   0  0  0  0  0  0  0  0  0  0  0  0
   17.1156   -6.1173   65.7759 C   0  0  0  0  0  0  0  0  0  0  0  0
   16.4899   -6.5454   67.0151 N   0  0  0  0  0  0  0  0  0  0  0  0
  1  2  1  0  0  0  0
  2  3  1  0  0  0  0
  3  4  1  0  0  0  0
  4  5  1  0  0  0  0
  5  6  1  0  0  0  0
  6  7  1  0  0  0  0
  7  8  1  0  0  0  0
  8  9  1  0  0  0  0
  9 10  1  0  0  0  0
 10 11  1  0  0  0  0
 11 12  1  0  0  0  0
 12 13  1  0  0  0  0
 13 14  1  0  0  0  0
M  END
>  <CHROM.1>
56.87944759,170.47470566,-153.37941282,151.13331617,-57.66184469,-78.52275584
85.96037682,94.31043211,153.36048628,-64.36429836,-172.10101236,18.57767709
-2.97509410,65.12700215,1.17336372,0.77175323,0.49505857

>  <Name>
1xpf_lig

>  <RI>
0

>  <Rbt.Current_Directory>
/home/afrankz/demos/rdock_decoys_rna/rnas/1xpf

>  <Rbt.Executable>
rbdock ($Id: //depot/dev/client3/rdock/2013.1/src/exe/rbdock.cxx#4 $)

>  <Rbt.Library>
libRbt.so (2013.1, Build901 2013/11/27)

>  <Rbt.Parameter_File>
/export/apps/rDock/src/rDock_2013.1_src/data/scripts/dock_solv.prm

>  <Rbt.Receptor>
prm/pocket_docking_6.prm

>  <SCORE>
-11.947

>  <SCORE.INTER>
-6.21017

>  <SCORE.INTER.CONST>
1

>  <SCORE.INTER.POLAR>
-1.50421

>  <SCORE.INTER.ROT>
11

>  <SCORE.INTER.SOLV>
10.4765

>  <SCORE.INTER.VDW>
-13.5516

>  <SCORE.INTER.norm>
-0.443584

>  <SCORE.INTRA>
-5.73684

>  <SCORE.INTRA.DIHEDRAL>
-11.2846

>  <SCORE.INTRA.DIHEDRAL.0>
17.7811

>  <SCORE.INTRA.POLAR>
0

>  <SCORE.INTRA.POLAR.0>
0

>  <SCORE.INTRA.REPUL>
0

>  <SCORE.INTRA.REPUL.0>
0

>  <SCORE.INTRA.SOLV>
2.83993

>  <SCORE.INTRA.SOLV.lig_0>
-47.9565

>  <SCORE.INTRA.VDW>
-1.51452

>  <SCORE.INTRA.VDW.0>
0.515983

>  <SCORE.INTRA.norm>
-0.409774

>  <SCORE.RESTR>
0

>  <SCORE.RESTR.CAVITY>
0

>  <SCORE.RESTR.norm>
0

>  <SCORE.SYSTEM>
0

>  <SCORE.SYSTEM.CONST>
0

>  <SCORE.SYSTEM.DIHEDRAL>
0

>  <SCORE.SYSTEM.SOLV>
0

>  <SCORE.SYSTEM.norm>
0

>  <SCORE.heavy>
14

>  <SCORE.norm>
-0.853358

>  <RMSD>
4.551

$$$$
1xpf_lig
 OpenBabel02141814123D
libRbt.so/2013.1/901 2013/11/27
 14 13  0  0  0  0  0  0  0  0999 V2000
   20.5319    2.4230   66.2884 N   0  0  0  0  0  0  0  0  0  0  0  0
   19.7458    2.7469   67.4645 C   0  0  0  0  0  0  0  0  0  0  0  0
   19.4240    1.5267   68.2414 C   0  0  0  0  0  0  0  0  0  0  0  0
   18.5785    0.6658   67.3552 C   0  0  0  0  0  0  0  0  0  0  0  0
   17.7585   -0.1842   68.2528 N   0  0  0  0  0  0  0  0  0  0  0  0
   16.8089   -1.0231   67.4593 C   0  0  0  0  0  0  0  0  0  0  0  0
   17.2528   -2.4905   67.3304 C   0  0  0  0  0  0  0  0  0  0  0  0
   16.3853   -3.3234   66.3700 C   0  0  0  0  0  0  0  0  0  0  0  0
   16.6595   -2.8822   64.9403 C   0  0  0  0  0  0  0  0  0  0  0  0
   17.9325   -3.5268   64.5860 N   0  0  0  0  0  0  0  0  0  0  0  0
   18.2966   -3.6092   63.1437 C   0  0  0  0  0  0  0  0  0  0  0  0
   19.5445   -4.5148   63.2273 C   0  0  0  0  0  0  0  0  0  0  0  0
   20.7661   -4.0022   63.9469 C   0  0  0  0  0  0  0  0  0  0  0  0
   21.3030   -2.7572   63.4255 N   0  0  0  0  0  0  0  0  0  0  0  0
  1  2  1  0  0  0  0
  2  3  1  0  0  0  0
  3  4  1  0  0  0  0
  4  5  1  0  0  0  0
  5  6  1  0  0  0  0
  6  7  1  0  0  0  0
  7  8  1  0  0  0  0
  8  9  1  0  0  0  0
  9 10  1  0  0  0  0
 10 11  1  0  0  0  0
 11 12  1  0  0  0  0
 12 13  1  0  0  0  0
 13 14  1  0  0  0  0
M  END
>  <CHROM.1>
-63.10784692,-154.29505824,176.29449076,103.25264077,-172.57080996,71.14840461
78.37008469,163.36381556,-171.95409735,-64.72817790,-57.68898570,18.64168865
-1.49670846,65.85949339,-1.54459675,-0.54596044,-2.52029850

>  <Name>
1xpf_lig

>  <RI>
0

>  <Rbt.Current_Directory>
/home/afrankz/demos/rdock_decoys_rna/rnas/1xpf

>  <Rbt.Executable>
rbdock ($Id: //depot/dev/client3/rdock/2013.1/src/exe/rbdock.cxx#4 $)

>  <Rbt.Library>
libRbt.so (2013.1, Build901 2013/11/27)

>  <Rbt.Parameter_File>
/export/apps/rDock/src/rDock_2013.1_src/data/scripts/dock_solv.prm

>  <Rbt.Receptor>
prm/pocket_docking_8.prm

>  <SCORE>
-15.5846

>  <SCORE.INTER>
-9.71159

>  <SCORE.INTER.CONST>
1

>  <SCORE.INTER.POLAR>
-1.52595

>  <SCORE.INTER.ROT>
11

>  <SCORE.INTER.SOLV>
13.5076

>  <SCORE.INTER.VDW>
-16.8238

>  <SCORE.INTER.norm>
-0.693685

>  <SCORE.INTRA>
-5.87298

>  <SCORE.INTRA.DIHEDRAL>
-12.3405

>  <SCORE.INTRA.DIHEDRAL.0>
17.7811

>  <SCORE.INTRA.POLAR>
0

>  <SCORE.INTRA.POLAR.0>
0

>  <SCORE.INTRA.REPUL>
0

>  <SCORE.INTRA.REPUL.0>
0

>  <SCORE.INTRA.SOLV>
2.22292

>  <SCORE.INTRA.SOLV.lig_0>
-47.9565

>  <SCORE.INTRA.VDW>
-0.814171

>  <SCORE.INTRA.VDW.0>
0.515983

>  <SCORE.INTRA.norm>
-0.419499

>  <SCORE.RESTR>
0

>  <SCORE.RESTR.CAVITY>
0

>  <SCORE.RESTR.norm>
0

>  <SCORE.SYSTEM>
0

>  <SCORE.SYSTEM.CONST>
0

>  <SCORE.SYSTEM.DIHEDRAL>
0

>  <SCORE.SYSTEM.SOLV>
0

>  <SCORE.SYSTEM.norm>
0

>  <SCORE.heavy>
14

>  <SCORE.norm>
-1.11318

>  <RMSD>
4.589

$$$$
1xpf_lig
 OpenBabel02141814123D
libRbt.so/2013.1/901 2013/11/27
 14 13  0  0  0  0  0  0  0  0999 V2000
   15.3565    1.0550   62.6453 N   0  0  0  0  0  0  0  0  0  0  0  0
   14.3344    0.4936   61.7814 C   0  0  0  0  0  0  0  0  0  0  0  0
   14.8897   -0.5883   60.9347 C   0  0  0  0  0  0  0  0  0  0  0  0
   15.7720    0.0716   59.9211 C   0  0  0  0  0  0  0  0  0  0  0  0
   16.3284   -1.0141   59.0771 N   0  0  0  0  0  0  0  0  0  0  0  0
   17.5713   -1.5729   59.6918 C   0  0  0  0  0  0  0  0  0  0  0  0
   18.8164   -0.7026   59.4489 C   0  0  0  0  0  0  0  0  0  0  0  0
   18.8215    0.6159   60.2426 C   0  0  0  0  0  0  0  0  0  0  0  0
   20.0675    1.4106   59.8816 C   0  0  0  0  0  0  0  0  0  0  0  0
   20.0477    2.5706   60.7847 N   0  0  0  0  0  0  0  0  0  0  0  0
   21.0241    3.6677   60.5347 C   0  0  0  0  0  0  0  0  0  0  0  0
   20.9013    4.4512   61.8596 C   0  0  0  0  0  0  0  0  0  0  0  0
   21.6624    5.7437   62.0114 C   0  0  0  0  0  0  0  0  0  0  0  0
   21.5299    6.3802   63.3105 N   0  0  0  0  0  0  0  0  0  0  0  0
  1  2  1  0  0  0  0
  2  3  1  0  0  0  0
  3  4  1  0  0  0  0
  4  5  1  0  0  0  0
  5  6  1  0  0  0  0
  6  7  1  0  0  0  0
  7  8  1  0  0  0  0
  8  9  1  0  0  0  0
  9 10  1  0  0  0  0
 10 11  1  0  0  0  0
 11 12  1  0  0  0  0
 12 13  1  0  0  0  0
 13 14  1  0  0  0  0
M  END
>  <CHROM.1>
-71.41619372,179.88257233,-86.61992977,-79.27422785,71.49068791,-177.83439121
-174.36261191,-170.23847266,-166.52224395,-175.39438673,-177.52887184,18.36595544
1.61275806,60.86585381,2.40245544,-0.37084691,-2.49290402

>  <Name>
1xpf_lig

>  <RI>
0

>  <Rbt.Current_Directory>
/home/afrankz/demos/rdock_decoys_rna/rnas/1xpf

>  <Rbt.Executable>
rbdock ($Id: //depot/dev/client3/rdock/2013.1/src/exe/rbdock.cxx#4 $)

>  <Rbt.Library>
libRbt.so (2013.1, Build901 2013/11/27)

>  <Rbt.Parameter_File>
/export/apps/rDock/src/rDock_2013.1_src/data/scripts/dock_solv.prm

>  <Rbt.Receptor>
prm/pocket_docking_6.prm

>  <SCORE>
-7.74384

>  <SCORE.INTER>
0.3173

>  <SCORE.INTER.CONST>
1

>  <SCORE.INTER.POLAR>
-0.724005

>  <SCORE.INTER.ROT>
11

>  <SCORE.INTER.SOLV>
8.1465

>  <SCORE.INTER.VDW>
-11.0239

>  <SCORE.INTER.norm>
0.0226643

>  <SCORE.INTRA>
-8.06114

>  <SCORE.INTRA.DIHEDRAL>
-15.581

>  <SCORE.INTRA.DIHEDRAL.0>
17.7811

>  <SCORE.INTRA.POLAR>
0

>  <SCORE.INTRA.POLAR.0>
0

>  <SCORE.INTRA.REPUL>
0

>  <SCORE.INTRA.REPUL.0>
0

>  <SCORE.INTRA.SOLV>
0.620849

>  <SCORE.INTRA.SOLV.lig_0>
-47.9565

>  <SCORE.INTRA.VDW>
-0.581052

>  <SCORE.INTRA.VDW.0>
0.515983

>  <SCORE.INTRA.norm>
-0.575796

>  <SCORE.RESTR>
0

>  <SCORE.RESTR.CAVITY>
0

>  <SCORE.RESTR.norm>
0

>  <SCORE.SYSTEM>
0

>  <SCORE.SYSTEM.CONST>
0

>  <SCORE.SYSTEM.DIHEDRAL>
0

>  <SCORE.SYSTEM.SOLV>
0

>  <SCORE.SYSTEM.norm>
0

>  <SCORE.heavy>
14

>  <SCORE.norm>
-0.553131

>  <RMSD>
4.601

$$$$
1xpf_lig
 OpenBabel02141814123D
libRbt.so/2013.1/901 2013/11/27
 14 13  0  0  0  0  0  0  0  0999 V2000
   18.8856    1.5056   68.7942 N   0  0  0  0  0  0  0  0  0  0  0  0
   19.8426    1.1091   67.7779 C   0  0  0  0  0  0  0  0  0  0  0  0
   19.2625    0.0923   66.8694 C   0  0  0  0  0  0  0  0  0  0  0  0
   20.3593   -0.3272   65.9406 C   0  0  0  0  0  0  0  0  0  0  0  0
   19.7520   -1.2733   64.9727 N   0  0  0  0  0  0  0  0  0  0  0  0
   20.8090   -2.0953   64.3078 C   0  0  0  0  0  0  0  0  0  0  0  0
   20.2592   -3.0258   63.2129 C   0  0  0  0  0  0  0  0  0  0  0  0
   19.1878   -4.0119   63.7111 C   0  0  0  0  0  0  0  0  0  0  0  0
   18.5632   -4.7156   62.5158 C   0  0  0  0  0  0  0  0  0  0  0  0
   17.5289   -5.5875   63.0917 N   0  0  0  0  0  0  0  0  0  0  0  0
   16.5874   -6.2662   62.1577 C   0  0  0  0  0  0  0  0  0  0  0  0
   15.9984   -7.3420   63.0958 C   0  0  0  0  0  0  0  0  0  0  0  0
   14.9731   -8.3011   62.5464 C   0  0  0  0  0  0  0  0  0  0  0  0
   13.7536   -7.6781   62.0618 N   0  0  0  0  0  0  0  0  0  0  0  0
  1  2  1  0  0  0  0
  2  3  1  0  0  0  0
  3  4  1  0  0  0  0
  4  5  1  0  0  0  0
  5  6  1  0  0  0  0
  6  7  1  0  0  0  0
  7  8  1  0  0  0  0
  8  9  1  0  0  0  0
  9 10  1  0  0  0  0
 10 11  1  0  0  0  0
 11 12  1  0  0  0  0
 12 13  1  0  0  0  0
 13 14  1  0  0  0  0
M  END
>  <CHROM.1>
-175.36016746,-176.11988122,-160.87575489,-175.65353588,-57.98237565,170.94733558
-177.91641012,170.88523240,164.18149681,-179.45248948,-61.21069008,18.26908405
-3.42271067,64.36098697,1.08098290,0.43468268,0.76070380

>  <Name>
1xpf_lig

>  <RI>
0

>  <Rbt.Current_Directory>
/home/afrankz/demos/rdock_decoys_rna/rnas/1xpf

>  <Rbt.Executable>
rbdock ($Id: //depot/dev/client3/rdock/2013.1/src/exe/rbdock.cxx#4 $)

>  <Rbt.Library>
libRbt.so (2013.1, Build901 2013/11/27)

>  <Rbt.Parameter_File>
/export/apps/rDock/src/rDock_2013.1_src/data/scripts/dock_solv.prm

>  <Rbt.Receptor>
prm/pocket_docking_7.prm

>  <SCORE>
-14.7021

>  <SCORE.INTER>
-4.5368

>  <SCORE.INTER.CONST>
1

>  <SCORE.INTER.POLAR>
-0.8

>  <SCORE.INTER.ROT>
11

>  <SCORE.INTER.SOLV>
9.88971

>  <SCORE.INTER.VDW>
-14.5878

>  <SCORE.INTER.norm>
-0.324057

>  <SCORE.INTRA>
-10.1653

>  <SCORE.INTRA.DIHEDRAL>
-16.7141

>  <SCORE.INTRA.DIHEDRAL.0>
17.7811

>  <SCORE.INTRA.POLAR>
0

>  <SCORE.INTRA.POLAR.0>
0

>  <SCORE.INTRA.REPUL>
0

>  <SCORE.INTRA.REPUL.0>
0

>  <SCORE.INTRA.SOLV>
0.0562536

>  <SCORE.INTRA.SOLV.lig_0>
-47.9565

>  <SCORE.INTRA.VDW>
-1.83633

>  <SCORE.INTRA.VDW.0>
0.515983

>  <SCORE.INTRA.norm>
-0.72609

>  <SCORE.RESTR>
0

>  <SCORE.RESTR.CAVITY>
0

>  <SCORE.RESTR.norm>
0

>  <SCORE.SYSTEM>
0

>  <SCORE.SYSTEM.CONST>
0

>  <SCORE.SYSTEM.DIHEDRAL>
0

>  <SCORE.SYSTEM.SOLV>
0

>  <SCORE.SYSTEM.norm>
0

>  <SCORE.heavy>
14

>  <SCORE.norm>
-1.05015

>  <RMSD>
4.602

$$$$
1xpf_lig
 OpenBabel02141814123D
libRbt.so/2013.1/901 2013/11/27
 14 13  0  0  0  0  0  0  0  0999 V2000
   17.7804    2.0213   61.9593 N   0  0  0  0  0  0  0  0  0  0  0  0
   18.4720    3.0554   62.7066 C   0  0  0  0  0  0  0  0  0  0  0  0
   19.1182    2.4948   63.9165 C   0  0  0  0  0  0  0  0  0  0  0  0
   19.8019    3.6355   64.6040 C   0  0  0  0  0  0  0  0  0  0  0  0
   20.5065    3.0594   65.7755 N   0  0  0  0  0  0  0  0  0  0  0  0
   19.6850    3.2205   67.0141 C   0  0  0  0  0  0  0  0  0  0  0  0
   20.0044    2.1763   68.0979 C   0  0  0  0  0  0  0  0  0  0  0  0
   19.7781    0.7215   67.6497 C   0  0  0  0  0  0  0  0  0  0  0  0
   18.2897    0.4912   67.4360 C   0  0  0  0  0  0  0  0  0  0  0  0
   18.1244   -0.9687   67.4875 N   0  0  0  0  0  0  0  0  0  0  0  0
   16.8791   -1.5519   66.9142 C   0  0  0  0  0  0  0  0  0  0  0  0
   16.6750   -2.7512   67.8650 C   0  0  0  0  0  0  0  0  0  0  0  0
   16.2727   -2.4845   69.2933 C   0  0  0  0  0  0  0  0  0  0  0  0
   16.2173   -3.6627   70.1412 N   0  0  0  0  0  0  0  0  0  0  0  0
  1  2  1  0  0  0  0
  2  3  1  0  0  0  0
  3  4  1  0  0  0  0
  4  5  1  0  0  0  0
  5  6  1  0  0  0  0
  6  7  1  0  0  0  0
  7  8  1  0  0  0  0
  8  9  1  0  0  0  0
  9 10  1  0  0  0  0
 10 11  1  0  0  0  0
 11 12  1  0  0  0  0
 12 13  1  0  0  0  0
 13 14  1  0  0  0  0
M  END
>  <CHROM.1>
179.75140959,-177.11594734,-97.16539840,155.03093418,-59.70168248,-67.35266933
-160.55860215,-161.85613667,-146.47017872,69.91509476,-174.90055017,18.40043649
0.67572867,66.49012745,1.03955823,-0.86390600,-1.12605435

>  <Name>
1xpf_lig

>  <RI>
0

>  <Rbt.Current_Directory>
/home/afrankz/demos/rdock_decoys_rna/rnas/1xpf

>  <Rbt.Executable>
rbdock ($Id: //depot/dev/client3/rdock/2013.1/src/exe/rbdock.cxx#4 $)

>  <Rbt.Library>
libRbt.so (2013.1, Build901 2013/11/27)

>  <Rbt.Parameter_File>
/export/apps/rDock/src/rDock_2013.1_src/data/scripts/dock_solv.prm

>  <Rbt.Receptor>
prm/pocket_docking_8.prm

>  <SCORE>
-14.7063

>  <SCORE.INTER>
-6.68905

>  <SCORE.INTER.CONST>
1

>  <SCORE.INTER.POLAR>
-0.8

>  <SCORE.INTER.ROT>
11

>  <SCORE.INTER.SOLV>
13.0485

>  <SCORE.INTER.VDW>
-17.0755

>  <SCORE.INTER.norm>
-0.477789

>  <SCORE.INTRA>
-8.01721

>  <SCORE.INTRA.DIHEDRAL>
-13.5281

>  <SCORE.INTRA.DIHEDRAL.0>
17.7811

>  <SCORE.INTRA.POLAR>
0

>  <SCORE.INTRA.POLAR.0>
0

>  <SCORE.INTRA.REPUL>
0

>  <SCORE.INTRA.REPUL.0>
0

>  <SCORE.INTRA.SOLV>
0.204457

>  <SCORE.INTRA.SOLV.lig_0>
-47.9565

>  <SCORE.INTRA.VDW>
-1.3554

>  <SCORE.INTRA.VDW.0>
0.515983

>  <SCORE.INTRA.norm>
-0.572658

>  <SCORE.RESTR>
0

>  <SCORE.RESTR.CAVITY>
0

>  <SCORE.RESTR.norm>
0

>  <SCORE.SYSTEM>
0

>  <SCORE.SYSTEM.CONST>
0

>  <SCORE.SYSTEM.DIHEDRAL>
0

>  <SCORE.SYSTEM.SOLV>
0

>  <SCORE.SYSTEM.norm>
0

>  <SCORE.heavy>
14

>  <SCORE.norm>
-1.05045

>  <RMSD>
4.611

$$$$
1xpf_lig
 OpenBabel02141814123D
libRbt.so/2013.1/901 2013/11/27
 14 13  0  0  0  0  0  0  0  0999 V2000
   23.5400    5.5431   58.0954 N   0  0  0  0  0  0  0  0  0  0  0  0
   23.4115    4.7042   59.2727 C   0  0  0  0  0  0  0  0  0  0  0  0
   23.1097    3.3030   58.8967 C   0  0  0  0  0  0  0  0  0  0  0  0
   23.0849    2.5143   60.1689 C   0  0  0  0  0  0  0  0  0  0  0  0
   22.7341    1.1225   59.7943 N   0  0  0  0  0  0  0  0  0  0  0  0
   23.1973    0.1634   60.8434 C   0  0  0  0  0  0  0  0  0  0  0  0
   22.0998   -0.2116   61.8543 C   0  0  0  0  0  0  0  0  0  0  0  0
   22.5807   -1.1421   62.9819 C   0  0  0  0  0  0  0  0  0  0  0  0
   21.3786   -1.6140   63.7858 C   0  0  0  0  0  0  0  0  0  0  0  0
   20.9195   -0.4202   64.5107 N   0  0  0  0  0  0  0  0  0  0  0  0
   19.4515   -0.2137   64.6587 C   0  0  0  0  0  0  0  0  0  0  0  0
   19.3210   -0.2652   66.1964 C   0  0  0  0  0  0  0  0  0  0  0  0
   17.9503   -0.1452   66.8126 C   0  0  0  0  0  0  0  0  0  0  0  0
   17.9372   -0.0895   68.2641 N   0  0  0  0  0  0  0  0  0  0  0  0
  1  2  1  0  0  0  0
  2  3  1  0  0  0  0
  3  4  1  0  0  0  0
  4  5  1  0  0  0  0
  5  6  1  0  0  0  0
  6  7  1  0  0  0  0
  7  8  1  0  0  0  0
  8  9  1  0  0  0  0
  9 10  1  0  0  0  0
 10 11  1  0  0  0  0
 11 12  1  0  0  0  0
 12 13  1  0  0  0  0
 13 14  1  0  0  0  0
M  END
>  <CHROM.1>
176.48491278,177.99267247,157.51510334,96.15181124,-177.05250783,-171.30730810
-70.08951454,141.51298381,117.92625501,-177.81645046,-174.98504347,21.47980069
0.94612427,62.58110500,0.77093973,0.87588246,-0.39534029

>  <Name>
1xpf_lig

>  <RI>
0

>  <Rbt.Current_Directory>
/home/afrankz/demos/rdock_decoys_rna/rnas/1xpf

>  <Rbt.Executable>
rbdock ($Id: //depot/dev/client3/rdock/2013.1/src/exe/rbdock.cxx#4 $)

>  <Rbt.Library>
libRbt.so (2013.1, Build901 2013/11/27)

>  <Rbt.Parameter_File>
/export/apps/rDock/src/rDock_2013.1_src/data/scripts/dock_solv.prm

>  <Rbt.Receptor>
prm/pocket_docking_8.prm

>  <SCORE>
-17.4534

>  <SCORE.INTER>
-8.81919

>  <SCORE.INTER.CONST>
1

>  <SCORE.INTER.POLAR>
-3.13097

>  <SCORE.INTER.ROT>
11

>  <SCORE.INTER.SOLV>
12.0903

>  <SCORE.INTER.VDW>
-10.4063

>  <SCORE.INTER.norm>
-0.629942

>  <SCORE.INTRA>
-8.63417

>  <SCORE.INTRA.DIHEDRAL>
-13.6717

>  <SCORE.INTRA.DIHEDRAL.0>
17.7811

>  <SCORE.INTRA.POLAR>
0

>  <SCORE.INTRA.POLAR.0>
0

>  <SCORE.INTRA.REPUL>
0

>  <SCORE.INTRA.REPUL.0>
0

>  <SCORE.INTRA.SOLV>
-0.567973

>  <SCORE.INTRA.SOLV.lig_0>
-47.9565

>  <SCORE.INTRA.VDW>
-1.51433

>  <SCORE.INTRA.VDW.0>
0.515983

>  <SCORE.INTRA.norm>
-0.616727

>  <SCORE.RESTR>
0

>  <SCORE.RESTR.CAVITY>
0

>  <SCORE.RESTR.norm>
0

>  <SCORE.SYSTEM>
0

>  <SCORE.SYSTEM.CONST>
0

>  <SCORE.SYSTEM.DIHEDRAL>
0

>  <SCORE.SYSTEM.SOLV>
0

>  <SCORE.SYSTEM.norm>
0

>  <SCORE.heavy>
14

>  <SCORE.norm>
-1.24667

>  <RMSD>
4.613

$$$$
1xpf_lig
 OpenBabel02141814123D
libRbt.so/2013.1/901 2013/11/27
 14 13  0  0  0  0  0  0  0  0999 V2000
   17.8681   -0.1712   68.3060 N   0  0  0  0  0  0  0  0  0  0  0  0
   17.9947   -0.1196   66.8612 C   0  0  0  0  0  0  0  0  0  0  0  0
   17.3435   -1.2907   66.2285 C   0  0  0  0  0  0  0  0  0  0  0  0
   17.8416   -1.3469   64.8177 C   0  0  0  0  0  0  0  0  0  0  0  0
   17.0302   -2.3783   64.1259 N   0  0  0  0  0  0  0  0  0  0  0  0
   17.9071   -3.4633   63.5884 C   0  0  0  0  0  0  0  0  0  0  0  0
   18.6547   -3.0635   62.3046 C   0  0  0  0  0  0  0  0  0  0  0  0
   17.7358   -2.5580   61.1784 C   0  0  0  0  0  0  0  0  0  0  0  0
   18.5729   -2.2780   59.9394 C   0  0  0  0  0  0  0  0  0  0  0  0
   19.5440   -1.2593   60.3647 N   0  0  0  0  0  0  0  0  0  0  0  0
   19.0516    0.1308   60.5761 C   0  0  0  0  0  0  0  0  0  0  0  0
   20.2395    0.9328   60.0018 C   0  0  0  0  0  0  0  0  0  0  0  0
   20.2676    2.4275   60.1967 C   0  0  0  0  0  0  0  0  0  0  0  0
   20.4241    2.8597   61.5747 N   0  0  0  0  0  0  0  0  0  0  0  0
  1  2  1  0  0  0  0
  2  3  1  0  0  0  0
  3  4  1  0  0  0  0
  4  5  1  0  0  0  0
  5  6  1  0  0  0  0
  6  7  1  0  0  0  0
  7  8  1  0  0  0  0
  8  9  1  0  0  0  0
  9 10  1  0  0  0  0
 10 11  1  0  0  0  0
 11 12  1  0  0  0  0
 12 13  1  0  0  0  0
 13 14  1  0  0  0  0
M  END
>  <CHROM.1>
-164.81267496,-171.09979110,-120.93406717,-76.77641176,-54.56561280,-176.48073922
-59.59920757,-73.28759170,-141.18172226,-170.89473891,66.49846716,18.60534036
-0.82724195,62.86143382,-2.43253236,-1.14724809,-2.11741268

>  <Name>
1xpf_lig

>  <RI>
0

>  <Rbt.Current_Directory>
/home/afrankz/demos/rdock_decoys_rna/rnas/1xpf

>  <Rbt.Executable>
rbdock ($Id: //depot/dev/client3/rdock/2013.1/src/exe/rbdock.cxx#4 $)

>  <Rbt.Library>
libRbt.so (2013.1, Build901 2013/11/27)

>  <Rbt.Parameter_File>
/export/apps/rDock/src/rDock_2013.1_src/data/scripts/dock_solv.prm

>  <Rbt.Receptor>
prm/pocket_docking_5.prm

>  <SCORE>
-8.66749

>  <SCORE.INTER>
-1.82847

>  <SCORE.INTER.CONST>
1

>  <SCORE.INTER.POLAR>
-1.50554

>  <SCORE.INTER.ROT>
11

>  <SCORE.INTER.SOLV>
9.28128

>  <SCORE.INTER.VDW>
-10.2276

>  <SCORE.INTER.norm>
-0.130605

>  <SCORE.INTRA>
-6.83902

>  <SCORE.INTRA.DIHEDRAL>
-13.6067

>  <SCORE.INTRA.DIHEDRAL.0>
17.7811

>  <SCORE.INTRA.POLAR>
0

>  <SCORE.INTRA.POLAR.0>
0

>  <SCORE.INTRA.REPUL>
0

>  <SCORE.INTRA.REPUL.0>
0

>  <SCORE.INTRA.SOLV>
0.566216

>  <SCORE.INTRA.SOLV.lig_0>
-47.9565

>  <SCORE.INTRA.VDW>
-0.318751

>  <SCORE.INTRA.VDW.0>
0.515983

>  <SCORE.INTRA.norm>
-0.488501

>  <SCORE.RESTR>
0

>  <SCORE.RESTR.CAVITY>
0

>  <SCORE.RESTR.norm>
0

>  <SCORE.SYSTEM>
0

>  <SCORE.SYSTEM.CONST>
0

>  <SCORE.SYSTEM.DIHEDRAL>
0

>  <SCORE.SYSTEM.SOLV>
0

>  <SCORE.SYSTEM.norm>
0

>  <SCORE.heavy>
14

>  <SCORE.norm>
-0.619106

>  <RMSD>
4.624

$$$$
1xpf_lig
 OpenBabel02141814123D
libRbt.so/2013.1/901 2013/11/27
 14 13  0  0  0  0  0  0  0  0999 V2000
   26.5554    3.4495   57.4417 N   0  0  0  0  0  0  0  0  0  0  0  0
   25.5735    3.5477   58.5059 C   0  0  0  0  0  0  0  0  0  0  0  0
   24.2500    3.0573   58.0547 C   0  0  0  0  0  0  0  0  0  0  0  0
   23.3218    3.1963   59.2211 C   0  0  0  0  0  0  0  0  0  0  0  0
   22.0311    2.5945   58.8057 N   0  0  0  0  0  0  0  0  0  0  0  0
   21.1153    2.4536   59.9789 C   0  0  0  0  0  0  0  0  0  0  0  0
   19.9282    1.5109   59.7163 C   0  0  0  0  0  0  0  0  0  0  0  0
   18.9649    1.3722   60.9085 C   0  0  0  0  0  0  0  0  0  0  0  0
   17.8085    0.4666   60.5128 C   0  0  0  0  0  0  0  0  0  0  0  0
   18.3815   -0.8873   60.4936 N   0  0  0  0  0  0  0  0  0  0  0  0
   17.6167   -1.9601   59.7981 C   0  0  0  0  0  0  0  0  0  0  0  0
   17.9726   -3.1711   60.6875 C   0  0  0  0  0  0  0  0  0  0  0  0
   17.5529   -3.1561   62.1354 C   0  0  0  0  0  0  0  0  0  0  0  0
   17.9488   -4.3281   62.8970 N   0  0  0  0  0  0  0  0  0  0  0  0
  1  2  1  0  0  0  0
  2  3  1  0  0  0  0
  3  4  1  0  0  0  0
  4  5  1  0  0  0  0
  5  6  1  0  0  0  0
  6  7  1  0  0  0  0
  7  8  1  0  0  0  0
  8  9  1  0  0  0  0
  9 10  1  0  0  0  0
 10 11  1  0  0  0  0
 11 12  1  0  0  0  0
 12 13  1  0  0  0  0
 13 14  1  0  0  0  0
M  END
>  <CHROM.1>
179.74995995,-175.09897047,169.51966304,-164.54333860,-179.13940828,177.69250760
73.79937779,-163.95652034,-146.08264103,62.52012803,-179.12208810,20.64414210
0.58199647,59.93981938,-0.73985828,-0.21531918,2.89043545

>  <Name>
1xpf_lig

>  <RI>
0

>  <Rbt.Current_Directory>
/home/afrankz/demos/rdock_decoys_rna/rnas/1xpf

>  <Rbt.Executable>
rbdock ($Id: //depot/dev/client3/rdock/2013.1/src/exe/rbdock.cxx#4 $)

>  <Rbt.Library>
libRbt.so (2013.1, Build901 2013/11/27)

>  <Rbt.Parameter_File>
/export/apps/rDock/src/rDock_2013.1_src/data/scripts/dock_solv.prm

>  <Rbt.Receptor>
prm/pocket_docking_7.prm

>  <SCORE>
-8.05347

>  <SCORE.INTER>
1.44893

>  <SCORE.INTER.CONST>
1

>  <SCORE.INTER.POLAR>
-1.05846

>  <SCORE.INTER.ROT>
11

>  <SCORE.INTER.SOLV>
7.39778

>  <SCORE.INTER.VDW>
-8.90512

>  <SCORE.INTER.norm>
0.103495

>  <SCORE.INTRA>
-9.5024

>  <SCORE.INTRA.DIHEDRAL>
-15.753

>  <SCORE.INTRA.DIHEDRAL.0>
17.7811

>  <SCORE.INTRA.POLAR>
0

>  <SCORE.INTRA.POLAR.0>
0

>  <SCORE.INTRA.REPUL>
0

>  <SCORE.INTRA.REPUL.0>
0

>  <SCORE.INTRA.SOLV>
-0.0838183

>  <SCORE.INTRA.SOLV.lig_0>
-47.9565

>  <SCORE.INTRA.VDW>
-1.584

>  <SCORE.INTRA.VDW.0>
0.515983

>  <SCORE.INTRA.norm>
-0.678743

>  <SCORE.RESTR>
0

>  <SCORE.RESTR.CAVITY>
0

>  <SCORE.RESTR.norm>
0

>  <SCORE.SYSTEM>
0

>  <SCORE.SYSTEM.CONST>
0

>  <SCORE.SYSTEM.DIHEDRAL>
0

>  <SCORE.SYSTEM.SOLV>
0

>  <SCORE.SYSTEM.norm>
0

>  <SCORE.heavy>
14

>  <SCORE.norm>
-0.575248

>  <RMSD>
4.636

$$$$
1xpf_lig
 OpenBabel02141814123D
libRbt.so/2013.1/901 2013/11/27
 14 13  0  0  0  0  0  0  0  0999 V2000
   22.8538    0.2167   59.6960 N   0  0  0  0  0  0  0  0  0  0  0  0
   23.9623   -0.7165   59.7778 C   0  0  0  0  0  0  0  0  0  0  0  0
   24.0388   -1.3344   61.1225 C   0  0  0  0  0  0  0  0  0  0  0  0
   22.8042   -2.1661   61.2822 C   0  0  0  0  0  0  0  0  0  0  0  0
   22.9269   -2.8543   62.5905 N   0  0  0  0  0  0  0  0  0  0  0  0
   21.9284   -2.3149   63.5637 C   0  0  0  0  0  0  0  0  0  0  0  0
   21.0504   -3.4042   64.2035 C   0  0  0  0  0  0  0  0  0  0  0  0
   19.9974   -3.9975   63.2508 C   0  0  0  0  0  0  0  0  0  0  0  0
   18.9683   -2.9282   62.9165 C   0  0  0  0  0  0  0  0  0  0  0  0
   18.2255   -3.4678   61.7682 N   0  0  0  0  0  0  0  0  0  0  0  0
   17.7159   -2.5061   60.7509 C   0  0  0  0  0  0  0  0  0  0  0  0
   17.2663   -3.4874   59.6468 C   0  0  0  0  0  0  0  0  0  0  0  0
   16.0485   -4.3427   59.8882 C   0  0  0  0  0  0  0  0  0  0  0  0
   15.6770   -5.2018   58.7773 N   0  0  0  0  0  0  0  0  0  0  0  0
  1  2  1  0  0  0  0
  2  3  1  0  0  0  0
  3  4  1  0  0  0  0
  4  5  1  0  0  0  0
  5  6  1  0  0  0  0
  6  7  1  0  0  0  0
  7  8  1  0  0  0  0
  8  9  1  0  0  0  0
  9 10  1  0  0  0  0
 10 11  1  0  0  0  0
 11 12  1  0  0  0  0
 12 13  1  0  0  0  0
 13 14  1  0  0  0  0
M  END
>  <CHROM.1>
65.62587134,176.30571612,110.88670579,126.29770292,-72.94885986,-67.08984117
166.18537723,-146.91761928,169.88128762,70.73139287,178.06426157,20.24753879
-2.75034867,61.37420347,-0.03749691,-0.42033667,-1.22135975

>  <Name>
1xpf_lig

>  <RI>
0

>  <Rbt.Current_Directory>
/home/afrankz/demos/rdock_decoys_rna/rnas/1xpf

>  <Rbt.Executable>
rbdock ($Id: //depot/dev/client3/rdock/2013.1/src/exe/rbdock.cxx#4 $)

>  <Rbt.Library>
libRbt.so (2013.1, Build901 2013/11/27)

>  <Rbt.Parameter_File>
/export/apps/rDock/src/rDock_2013.1_src/data/scripts/dock_solv.prm

>  <Rbt.Receptor>
prm/pocket_docking_6.prm

>  <SCORE>
-11.657

>  <SCORE.INTER>
-4.82643

>  <SCORE.INTER.CONST>
1

>  <SCORE.INTER.POLAR>
-1.52737

>  <SCORE.INTER.ROT>
11

>  <SCORE.INTER.SOLV>
10.9722

>  <SCORE.INTER.VDW>
-12.7171

>  <SCORE.INTER.norm>
-0.344745

>  <SCORE.INTRA>
-6.83059

>  <SCORE.INTRA.DIHEDRAL>
-12.5829

>  <SCORE.INTRA.DIHEDRAL.0>
17.7811

>  <SCORE.INTRA.POLAR>
0

>  <SCORE.INTRA.POLAR.0>
0

>  <SCORE.INTRA.REPUL>
0

>  <SCORE.INTRA.REPUL.0>
0

>  <SCORE.INTRA.SOLV>
0.992959

>  <SCORE.INTRA.SOLV.lig_0>
-47.9565

>  <SCORE.INTRA.VDW>
-1.03562

>  <SCORE.INTRA.VDW.0>
0.515983

>  <SCORE.INTRA.norm>
-0.4879

>  <SCORE.RESTR>
0

>  <SCORE.RESTR.CAVITY>
0

>  <SCORE.RESTR.norm>
0

>  <SCORE.SYSTEM>
0

>  <SCORE.SYSTEM.CONST>
0

>  <SCORE.SYSTEM.DIHEDRAL>
0

>  <SCORE.SYSTEM.SOLV>
0

>  <SCORE.SYSTEM.norm>
0

>  <SCORE.heavy>
14

>  <SCORE.norm>
-0.832644

>  <RMSD>
4.638

$$$$
1xpf_lig
 OpenBabel02141814123D
libRbt.so/2013.1/901 2013/11/27
 14 13  0  0  0  0  0  0  0  0999 V2000
   17.9086   -0.0835   68.2432 N   0  0  0  0  0  0  0  0  0  0  0  0
   18.3852    0.0107   66.8757 C   0  0  0  0  0  0  0  0  0  0  0  0
   19.8508    0.2260   66.8371 C   0  0  0  0  0  0  0  0  0  0  0  0
   20.2978   -0.1201   65.4508 C   0  0  0  0  0  0  0  0  0  0  0  0
   20.1445   -1.5892   65.3139 N   0  0  0  0  0  0  0  0  0  0  0  0
   21.3605   -2.1879   64.6831 C   0  0  0  0  0  0  0  0  0  0  0  0
   21.0408   -3.3390   63.7137 C   0  0  0  0  0  0  0  0  0  0  0  0
   20.2303   -2.9085   62.4783 C   0  0  0  0  0  0  0  0  0  0  0  0
   21.1269   -2.1046   61.5488 C   0  0  0  0  0  0  0  0  0  0  0  0
   20.2491   -1.0704   60.9819 N   0  0  0  0  0  0  0  0  0  0  0  0
   20.3718    0.3171   61.5103 C   0  0  0  0  0  0  0  0  0  0  0  0
   19.0069    0.8964   61.0792 C   0  0  0  0  0  0  0  0  0  0  0  0
   18.5969    2.2510   61.5988 C   0  0  0  0  0  0  0  0  0  0  0  0
   18.4752    2.3383   63.0437 N   0  0  0  0  0  0  0  0  0  0  0  0
  1  2  1  0  0  0  0
  2  3  1  0  0  0  0
  3  4  1  0  0  0  0
  4  5  1  0  0  0  0
  5  6  1  0  0  0  0
  6  7  1  0  0  0  0
  7  8  1  0  0  0  0
  8  9  1  0  0  0  0
  9 10  1  0  0  0  0
 10 11  1  0  0  0  0
 11 12  1  0  0  0  0
 12 13  1  0  0  0  0
 13 14  1  0  0  0  0
M  END
>  <CHROM.1>
162.49218105,-69.29903248,-134.25442513,-142.43922942,64.39393285,72.05780974
-143.79534009,103.83137805,-159.87804172,170.64417870,-61.22117354,19.78918333
-0.52615720,63.81107453,1.92828039,-1.05890911,1.85477543

>  <Name>
1xpf_lig

>  <RI>
0

>  <Rbt.Current_Directory>
/home/afrankz/demos/rdock_decoys_rna/rnas/1xpf

>  <Rbt.Executable>
rbdock ($Id: //depot/dev/client3/rdock/2013.1/src/exe/rbdock.cxx#4 $)

>  <Rbt.Library>
libRbt.so (2013.1, Build901 2013/11/27)

>  <Rbt.Parameter_File>
/export/apps/rDock/src/rDock_2013.1_src/data/scripts/dock_solv.prm

>  <Rbt.Receptor>
prm/pocket_docking_6.prm

>  <SCORE>
-10.0408

>  <SCORE.INTER>
-5.14137

>  <SCORE.INTER.CONST>
1

>  <SCORE.INTER.POLAR>
-1.38943

>  <SCORE.INTER.ROT>
11

>  <SCORE.INTER.SOLV>
10.8819

>  <SCORE.INTER.VDW>
-13.3568

>  <SCORE.INTER.norm>
-0.367241

>  <SCORE.INTRA>
-4.8994

>  <SCORE.INTRA.DIHEDRAL>
-8.57311

>  <SCORE.INTRA.DIHEDRAL.0>
17.7811

>  <SCORE.INTRA.POLAR>
0

>  <SCORE.INTRA.POLAR.0>
0

>  <SCORE.INTRA.REPUL>
0

>  <SCORE.INTRA.REPUL.0>
0

>  <SCORE.INTRA.SOLV>
2.3949

>  <SCORE.INTRA.SOLV.lig_0>
-47.9565

>  <SCORE.INTRA.VDW>
-1.81029

>  <SCORE.INTRA.VDW.0>
0.515983

>  <SCORE.INTRA.norm>
-0.349957

>  <SCORE.RESTR>
0

>  <SCORE.RESTR.CAVITY>
0

>  <SCORE.RESTR.norm>
0

>  <SCORE.SYSTEM>
0

>  <SCORE.SYSTEM.CONST>
0

>  <SCORE.SYSTEM.DIHEDRAL>
0

>  <SCORE.SYSTEM.SOLV>
0

>  <SCORE.SYSTEM.norm>
0

>  <SCORE.heavy>
14

>  <SCORE.norm>
-0.717198

>  <RMSD>
4.647

$$$$
1xpf_lig
 OpenBabel02141814123D
libRbt.so/2013.1/901 2013/11/27
 14 13  0  0  0  0  0  0  0  0999 V2000
   19.9856    4.7771   67.5538 N   0  0  0  0  0  0  0  0  0  0  0  0
   19.7267    3.3698   67.3120 C   0  0  0  0  0  0  0  0  0  0  0  0
   19.6680    2.6137   68.5851 C   0  0  0  0  0  0  0  0  0  0  0  0
   19.5344    1.1683   68.2187 C   0  0  0  0  0  0  0  0  0  0  0  0
   18.1336    0.9757   67.7700 N   0  0  0  0  0  0  0  0  0  0  0  0
   17.9570   -0.3805   67.1664 C   0  0  0  0  0  0  0  0  0  0  0  0
   16.7951   -1.1769   67.7852 C   0  0  0  0  0  0  0  0  0  0  0  0
   16.8049   -2.6742   67.4297 C   0  0  0  0  0  0  0  0  0  0  0  0
   16.5574   -2.8343   65.9373 C   0  0  0  0  0  0  0  0  0  0  0  0
   16.5140   -4.2873   65.7176 N   0  0  0  0  0  0  0  0  0  0  0  0
   16.6988   -4.7898   64.3273 C   0  0  0  0  0  0  0  0  0  0  0  0
   16.6988   -6.3125   64.5839 C   0  0  0  0  0  0  0  0  0  0  0  0
   15.4059   -6.9823   64.9747 C   0  0  0  0  0  0  0  0  0  0  0  0
   14.8860   -6.5927   66.2739 N   0  0  0  0  0  0  0  0  0  0  0  0
  1  2  1  0  0  0  0
  2  3  1  0  0  0  0
  3  4  1  0  0  0  0
  4  5  1  0  0  0  0
  5  6  1  0  0  0  0
  6  7  1  0  0  0  0
  7  8  1  0  0  0  0
  8  9  1  0  0  0  0
  9 10  1  0  0  0  0
 10 11  1  0  0  0  0
 11 12  1  0  0  0  0
 12 13  1  0  0  0  0
 13 14  1  0  0  0  0
M  END
>  <CHROM.1>
-174.52806561,-75.04119170,170.54616680,127.17745540,-166.03814466,-66.06107400
-177.04828656,-161.77153322,175.54781833,70.78607580,-66.45952912,17.52620763
-1.65200231,66.68820098,-0.88258527,-0.96010039,-2.26255363

>  <Name>
1xpf_lig

>  <RI>
0

>  <Rbt.Current_Directory>
/home/afrankz/demos/rdock_decoys_rna/rnas/1xpf

>  <Rbt.Executable>
rbdock ($Id: //depot/dev/client3/rdock/2013.1/src/exe/rbdock.cxx#4 $)

>  <Rbt.Library>
libRbt.so (2013.1, Build901 2013/11/27)

>  <Rbt.Parameter_File>
/export/apps/rDock/src/rDock_2013.1_src/data/scripts/dock_solv.prm

>  <Rbt.Receptor>
prm/pocket_docking_6.prm

>  <SCORE>
-12.2764

>  <SCORE.INTER>
-5.54069

>  <SCORE.INTER.CONST>
1

>  <SCORE.INTER.POLAR>
-0.8

>  <SCORE.INTER.ROT>
11

>  <SCORE.INTER.SOLV>
9.78585

>  <SCORE.INTER.VDW>
-15.2224

>  <SCORE.INTER.norm>
-0.395764

>  <SCORE.INTRA>
-6.73575

>  <SCORE.INTRA.DIHEDRAL>
-13.8806

>  <SCORE.INTRA.DIHEDRAL.0>
17.7811

>  <SCORE.INTRA.POLAR>
0

>  <SCORE.INTRA.POLAR.0>
0

>  <SCORE.INTRA.REPUL>
0

>  <SCORE.INTRA.REPUL.0>
0

>  <SCORE.INTRA.SOLV>
2.62359

>  <SCORE.INTRA.SOLV.lig_0>
-47.9565

>  <SCORE.INTRA.VDW>
-1.10727

>  <SCORE.INTRA.VDW.0>
0.515983

>  <SCORE.INTRA.norm>
-0.481125

>  <SCORE.RESTR>
0

>  <SCORE.RESTR.CAVITY>
0

>  <SCORE.RESTR.norm>
0

>  <SCORE.SYSTEM>
0

>  <SCORE.SYSTEM.CONST>
0

>  <SCORE.SYSTEM.DIHEDRAL>
0

>  <SCORE.SYSTEM.SOLV>
0

>  <SCORE.SYSTEM.norm>
0

>  <SCORE.heavy>
14

>  <SCORE.norm>
-0.876889

>  <RMSD>
4.650

$$$$
1xpf_lig
 OpenBabel02141814123D
libRbt.so/2013.1/901 2013/11/27
 14 13  0  0  0  0  0  0  0  0999 V2000
   21.8242    5.3621   66.0081 N   0  0  0  0  0  0  0  0  0  0  0  0
   21.2121    4.1660   65.4595 C   0  0  0  0  0  0  0  0  0  0  0  0
   19.9618    4.4935   64.7346 C   0  0  0  0  0  0  0  0  0  0  0  0
   19.4682    3.2143   64.1335 C   0  0  0  0  0  0  0  0  0  0  0  0
   18.2327    3.5507   63.3844 N   0  0  0  0  0  0  0  0  0  0  0  0
   17.4527    2.3135   63.0746 C   0  0  0  0  0  0  0  0  0  0  0  0
   15.9500    2.5744   62.8731 C   0  0  0  0  0  0  0  0  0  0  0  0
   15.1620    1.3445   62.3884 C   0  0  0  0  0  0  0  0  0  0  0  0
   14.8846    0.4311   63.5729 C   0  0  0  0  0  0  0  0  0  0  0  0
   16.1764   -0.2070   63.8655 N   0  0  0  0  0  0  0  0  0  0  0  0
   16.2153   -1.2520   64.9266 C   0  0  0  0  0  0  0  0  0  0  0  0
   16.9294   -0.4731   66.0525 C   0  0  0  0  0  0  0  0  0  0  0  0
   16.9731   -1.0732   67.4349 C   0  0  0  0  0  0  0  0  0  0  0  0
   17.7455   -0.3154   68.4041 N   0  0  0  0  0  0  0  0  0  0  0  0
  1  2  1  0  0  0  0
  2  3  1  0  0  0  0
  3  4  1  0  0  0  0
  4  5  1  0  0  0  0
  5  6  1  0  0  0  0
  6  7  1  0  0  0  0
  7  8  1  0  0  0  0
  8  9  1  0  0  0  0
  9 10  1  0  0  0  0
 10 11  1  0  0  0  0
 11 12  1  0  0  0  0
 12 13  1  0  0  0  0
 13 14  1  0  0  0  0
M  END
>  <CHROM.1>
176.15608531,-178.81229492,-163.92200054,154.96565735,173.02678808,79.40183178
-74.14952433,-175.46377339,-106.66039083,169.26344018,175.85359249,17.72739590
1.72338123,64.73635166,-0.45603649,0.68090892,2.27207890

>  <Name>
1xpf_lig

>  <RI>
0

>  <Rbt.Current_Directory>
/home/afrankz/demos/rdock_decoys_rna/rnas/1xpf

>  <Rbt.Executable>
rbdock ($Id: //depot/dev/client3/rdock/2013.1/src/exe/rbdock.cxx#4 $)

>  <Rbt.Library>
libRbt.so (2013.1, Build901 2013/11/27)

>  <Rbt.Parameter_File>
/export/apps/rDock/src/rDock_2013.1_src/data/scripts/dock_solv.prm

>  <Rbt.Receptor>
prm/pocket_docking_6.prm

>  <SCORE>
-14.7737

>  <SCORE.INTER>
-6.72278

>  <SCORE.INTER.CONST>
1

>  <SCORE.INTER.POLAR>
-1.27259

>  <SCORE.INTER.ROT>
11

>  <SCORE.INTER.SOLV>
11.8725

>  <SCORE.INTER.VDW>
-15.1307

>  <SCORE.INTER.norm>
-0.480199

>  <SCORE.INTRA>
-8.05095

>  <SCORE.INTRA.DIHEDRAL>
-13.1549

>  <SCORE.INTRA.DIHEDRAL.0>
17.7811

>  <SCORE.INTRA.POLAR>
0

>  <SCORE.INTRA.POLAR.0>
0

>  <SCORE.INTRA.REPUL>
0

>  <SCORE.INTRA.REPUL.0>
0

>  <SCORE.INTRA.SOLV>
0.0228276

>  <SCORE.INTRA.SOLV.lig_0>
-47.9565

>  <SCORE.INTRA.VDW>
-1.48491

>  <SCORE.INTRA.VDW.0>
0.515983

>  <SCORE.INTRA.norm>
-0.575068

>  <SCORE.RESTR>
0

>  <SCORE.RESTR.CAVITY>
0

>  <SCORE.RESTR.norm>
0

>  <SCORE.SYSTEM>
0

>  <SCORE.SYSTEM.CONST>
0

>  <SCORE.SYSTEM.DIHEDRAL>
0

>  <SCORE.SYSTEM.SOLV>
0

>  <SCORE.SYSTEM.norm>
0

>  <SCORE.heavy>
14

>  <SCORE.norm>
-1.05527

>  <RMSD>
4.657

$$$$
1xpf_lig
 OpenBabel02141814123D
libRbt.so/2013.1/901 2013/11/27
 14 13  0  0  0  0  0  0  0  0999 V2000
   23.6156    5.5324   57.7256 N   0  0  0  0  0  0  0  0  0  0  0  0
   23.6856    4.6521   58.8773 C   0  0  0  0  0  0  0  0  0  0  0  0
   23.5030    3.2372   58.4768 C   0  0  0  0  0  0  0  0  0  0  0  0
   23.5711    2.4247   59.7324 C   0  0  0  0  0  0  0  0  0  0  0  0
   23.3534    1.0129   59.3323 N   0  0  0  0  0  0  0  0  0  0  0  0
   22.6280    0.2682   60.4066 C   0  0  0  0  0  0  0  0  0  0  0  0
   23.3335   -1.0314   60.8309 C   0  0  0  0  0  0  0  0  0  0  0  0
   22.4942   -1.9219   61.7642 C   0  0  0  0  0  0  0  0  0  0  0  0
   22.3168   -1.2164   63.1003 C   0  0  0  0  0  0  0  0  0  0  0  0
   21.2392   -1.9549   63.7747 N   0  0  0  0  0  0  0  0  0  0  0  0
   20.9505   -1.6248   65.1985 C   0  0  0  0  0  0  0  0  0  0  0  0
   19.5967   -0.8986   65.0425 C   0  0  0  0  0  0  0  0  0  0  0  0
   19.0009   -0.2088   66.2434 C   0  0  0  0  0  0  0  0  0  0  0  0
   18.5621   -1.1003   67.3030 N   0  0  0  0  0  0  0  0  0  0  0  0
  1  2  1  0  0  0  0
  2  3  1  0  0  0  0
  3  4  1  0  0  0  0
  4  5  1  0  0  0  0
  5  6  1  0  0  0  0
  6  7  1  0  0  0  0
  7  8  1  0  0  0  0
  8  9  1  0  0  0  0
  9 10  1  0  0  0  0
 10 11  1  0  0  0  0
 11 12  1  0  0  0  0
 12 13  1  0  0  0  0
 13 14  1  0  0  0  0
M  END
>  <CHROM.1>
-179.14043613,178.59178411,-146.80780878,-127.48135294,-170.59439078,-67.08826723
165.64026294,171.69950021,108.56480756,-171.75530703,-67.89250962,21.98944636
0.51202629,61.98631598,0.83548100,0.92396353,-0.33965502

>  <Name>
1xpf_lig

>  <RI>
0

>  <Rbt.Current_Directory>
/home/afrankz/demos/rdock_decoys_rna/rnas/1xpf

>  <Rbt.Executable>
rbdock ($Id: //depot/dev/client3/rdock/2013.1/src/exe/rbdock.cxx#4 $)

>  <Rbt.Library>
libRbt.so (2013.1, Build901 2013/11/27)

>  <Rbt.Parameter_File>
/export/apps/rDock/src/rDock_2013.1_src/data/scripts/dock_solv.prm

>  <Rbt.Receptor>
prm/pocket_docking_6.prm

>  <SCORE>
-15.4693

>  <SCORE.INTER>
-7.64238

>  <SCORE.INTER.CONST>
1

>  <SCORE.INTER.POLAR>
-2.48208

>  <SCORE.INTER.ROT>
11

>  <SCORE.INTER.SOLV>
11.3463

>  <SCORE.INTER.VDW>
-11.5367

>  <SCORE.INTER.norm>
-0.545884

>  <SCORE.INTRA>
-7.82695

>  <SCORE.INTRA.DIHEDRAL>
-12.9991

>  <SCORE.INTRA.DIHEDRAL.0>
17.7811

>  <SCORE.INTRA.POLAR>
0

>  <SCORE.INTRA.POLAR.0>
0

>  <SCORE.INTRA.REPUL>
0

>  <SCORE.INTRA.REPUL.0>
0

>  <SCORE.INTRA.SOLV>
-0.167868

>  <SCORE.INTRA.SOLV.lig_0>
-47.9565

>  <SCORE.INTRA.VDW>
-1.24348

>  <SCORE.INTRA.VDW.0>
0.515983

>  <SCORE.INTRA.norm>
-0.559068

>  <SCORE.RESTR>
0

>  <SCORE.RESTR.CAVITY>
0

>  <SCORE.RESTR.norm>
0

>  <SCORE.SYSTEM>
0

>  <SCORE.SYSTEM.CONST>
0

>  <SCORE.SYSTEM.DIHEDRAL>
0

>  <SCORE.SYSTEM.SOLV>
0

>  <SCORE.SYSTEM.norm>
0

>  <SCORE.heavy>
14

>  <SCORE.norm>
-1.10495

>  <RMSD>
4.676

$$$$
1xpf_lig
 OpenBabel02141814123D
libRbt.so/2013.1/901 2013/11/27
 14 13  0  0  0  0  0  0  0  0999 V2000
   25.0948    7.1830   59.9728 N   0  0  0  0  0  0  0  0  0  0  0  0
   24.2787    7.3566   61.1603 C   0  0  0  0  0  0  0  0  0  0  0  0
   23.6194    6.0857   61.5426 C   0  0  0  0  0  0  0  0  0  0  0  0
   22.6546    6.4168   62.6384 C   0  0  0  0  0  0  0  0  0  0  0  0
   21.9474    5.1561   62.9715 N   0  0  0  0  0  0  0  0  0  0  0  0
   20.6127    5.1091   62.2997 C   0  0  0  0  0  0  0  0  0  0  0  0
   20.0449    3.6852   62.1700 C   0  0  0  0  0  0  0  0  0  0  0  0
   19.6711    3.0367   63.5147 C   0  0  0  0  0  0  0  0  0  0  0  0
   19.3198    1.5749   63.2830 C   0  0  0  0  0  0  0  0  0  0  0  0
   19.1613    1.0087   64.6305 N   0  0  0  0  0  0  0  0  0  0  0  0
   19.4468   -0.4415   64.8174 C   0  0  0  0  0  0  0  0  0  0  0  0
   19.2402   -0.5674   66.3425 C   0  0  0  0  0  0  0  0  0  0  0  0
   17.9030   -0.1892   66.9271 C   0  0  0  0  0  0  0  0  0  0  0  0
   17.8410   -0.2214   68.3780 N   0  0  0  0  0  0  0  0  0  0  0  0
  1  2  1  0  0  0  0
  2  3  1  0  0  0  0
  3  4  1  0  0  0  0
  4  5  1  0  0  0  0
  5  6  1  0  0  0  0
  6  7  1  0  0  0  0
  7  8  1  0  0  0  0
  8  9  1  0  0  0  0
  9 10  1  0  0  0  0
 10 11  1  0  0  0  0
 11 12  1  0  0  0  0
 12 13  1  0  0  0  0
 13 14  1  0  0  0  0
M  END
>  <CHROM.1>
-171.73447503,177.20435599,-98.96150551,159.35934506,67.32027416,-171.73803485
172.50123902,-151.76727617,176.81872019,58.48215616,-174.55154192,20.77388785
3.22807275,63.61761587,-0.68908158,0.83407830,1.76274391

>  <Name>
1xpf_lig

>  <RI>
0

>  <Rbt.Current_Directory>
/home/afrankz/demos/rdock_decoys_rna/rnas/1xpf

>  <Rbt.Executable>
rbdock ($Id: //depot/dev/client3/rdock/2013.1/src/exe/rbdock.cxx#4 $)

>  <Rbt.Library>
libRbt.so (2013.1, Build901 2013/11/27)

>  <Rbt.Parameter_File>
/export/apps/rDock/src/rDock_2013.1_src/data/scripts/dock_solv.prm

>  <Rbt.Receptor>
prm/pocket_docking_5.prm

>  <SCORE>
-10.7225

>  <SCORE.INTER>
-1.80548

>  <SCORE.INTER.CONST>
1

>  <SCORE.INTER.POLAR>
-1.49799

>  <SCORE.INTER.ROT>
11

>  <SCORE.INTER.SOLV>
9.45149

>  <SCORE.INTER.VDW>
-10.2942

>  <SCORE.INTER.norm>
-0.128963

>  <SCORE.INTRA>
-8.92064

>  <SCORE.INTRA.DIHEDRAL>
-14.9429

>  <SCORE.INTRA.DIHEDRAL.0>
17.7811

>  <SCORE.INTRA.POLAR>
0

>  <SCORE.INTRA.POLAR.0>
0

>  <SCORE.INTRA.REPUL>
0

>  <SCORE.INTRA.REPUL.0>
0

>  <SCORE.INTRA.SOLV>
-0.0246779

>  <SCORE.INTRA.SOLV.lig_0>
-47.9565

>  <SCORE.INTRA.VDW>
-1.43687

>  <SCORE.INTRA.VDW.0>
0.515983

>  <SCORE.INTRA.norm>
-0.637189

>  <SCORE.RESTR>
0.00358931

>  <SCORE.RESTR.CAVITY>
0.00358931

>  <SCORE.RESTR.norm>
0.000256379

>  <SCORE.SYSTEM>
0

>  <SCORE.SYSTEM.CONST>
0

>  <SCORE.SYSTEM.DIHEDRAL>
0

>  <SCORE.SYSTEM.SOLV>
0

>  <SCORE.SYSTEM.norm>
0

>  <SCORE.heavy>
14

>  <SCORE.norm>
-0.765895

>  <RMSD>
4.685

$$$$
1xpf_lig
 OpenBabel02141814123D
libRbt.so/2013.1/901 2013/11/27
 14 13  0  0  0  0  0  0  0  0999 V2000
   15.7480   -7.5715   63.3343 N   0  0  0  0  0  0  0  0  0  0  0  0
   15.5085   -6.1480   63.1849 C   0  0  0  0  0  0  0  0  0  0  0  0
   15.3450   -5.4950   64.5050 C   0  0  0  0  0  0  0  0  0  0  0  0
   16.7071   -5.4327   65.1232 C   0  0  0  0  0  0  0  0  0  0  0  0
   16.5190   -4.9287   66.5057 N   0  0  0  0  0  0  0  0  0  0  0  0
   16.5071   -3.4339   66.5229 C   0  0  0  0  0  0  0  0  0  0  0  0
   16.6898   -2.8386   67.9298 C   0  0  0  0  0  0  0  0  0  0  0  0
   16.5999   -1.3029   67.9749 C   0  0  0  0  0  0  0  0  0  0  0  0
   17.7692   -0.7119   67.2018 C   0  0  0  0  0  0  0  0  0  0  0  0
   17.8639    0.6787   67.6695 N   0  0  0  0  0  0  0  0  0  0  0  0
   19.1542    1.1307   68.2616 C   0  0  0  0  0  0  0  0  0  0  0  0
   20.0180    1.2392   66.9864 C   0  0  0  0  0  0  0  0  0  0  0  0
   19.7679    2.3824   66.0358 C   0  0  0  0  0  0  0  0  0  0  0  0
   20.0498    3.6998   66.5791 N   0  0  0  0  0  0  0  0  0  0  0  0
  1  2  1  0  0  0  0
  2  3  1  0  0  0  0
  3  4  1  0  0  0  0
  4  5  1  0  0  0  0
  5  6  1  0  0  0  0
  6  7  1  0  0  0  0
  7  8  1  0  0  0  0
  8  9  1  0  0  0  0
  9 10  1  0  0  0  0
 10 11  1  0  0  0  0
 11 12  1  0  0  0  0
 12 13  1  0  0  0  0
 13 14  1  0  0  0  0
M  END
>  <CHROM.1>
73.48049088,-173.41209123,-86.13667746,-164.75453883,-176.71198926,-65.63501581
-161.39592109,122.73707762,73.73187694,73.17542174,64.82334380,17.44619610
-2.05232751,66.27259070,-2.40083939,1.02266547,1.07803261

>  <Name>
1xpf_lig

>  <RI>
0

>  <Rbt.Current_Directory>
/home/afrankz/demos/rdock_decoys_rna/rnas/1xpf

>  <Rbt.Executable>
rbdock ($Id: //depot/dev/client3/rdock/2013.1/src/exe/rbdock.cxx#4 $)

>  <Rbt.Library>
libRbt.so (2013.1, Build901 2013/11/27)

>  <Rbt.Parameter_File>
/export/apps/rDock/src/rDock_2013.1_src/data/scripts/dock_solv.prm

>  <Rbt.Receptor>
prm/blind_docking_100.prm

>  <SCORE>
-9.56383

>  <SCORE.INTER>
-4.43331

>  <SCORE.INTER.CONST>
1

>  <SCORE.INTER.POLAR>
-0.793406

>  <SCORE.INTER.ROT>
11

>  <SCORE.INTER.SOLV>
12.2141

>  <SCORE.INTER.VDW>
-15.3156

>  <SCORE.INTER.norm>
-0.316665

>  <SCORE.INTRA>
-5.13052

>  <SCORE.INTRA.DIHEDRAL>
-12.8552

>  <SCORE.INTRA.DIHEDRAL.0>
17.7811

>  <SCORE.INTRA.POLAR>
0

>  <SCORE.INTRA.POLAR.0>
0

>  <SCORE.INTRA.REPUL>
0

>  <SCORE.INTRA.REPUL.0>
0

>  <SCORE.INTRA.SOLV>
1.46057

>  <SCORE.INTRA.SOLV.lig_0>
-47.9565

>  <SCORE.INTRA.VDW>
0.566769

>  <SCORE.INTRA.VDW.0>
0.515983

>  <SCORE.INTRA.norm>
-0.366466

>  <SCORE.RESTR>
0

>  <SCORE.RESTR.CAVITY>
0

>  <SCORE.RESTR.norm>
0

>  <SCORE.SYSTEM>
0

>  <SCORE.SYSTEM.CONST>
0

>  <SCORE.SYSTEM.DIHEDRAL>
0

>  <SCORE.SYSTEM.SOLV>
0

>  <SCORE.SYSTEM.norm>
0

>  <SCORE.heavy>
14

>  <SCORE.norm>
-0.683131

>  <RMSD>
4.690

$$$$
1xpf_lig
 OpenBabel02141814123D
libRbt.so/2013.1/901 2013/11/27
 14 13  0  0  0  0  0  0  0  0999 V2000
   15.6071   -7.6437   63.7457 N   0  0  0  0  0  0  0  0  0  0  0  0
   16.0962   -7.0359   64.9694 C   0  0  0  0  0  0  0  0  0  0  0  0
   15.8930   -5.5681   64.9520 C   0  0  0  0  0  0  0  0  0  0  0  0
   16.3807   -5.0529   66.2704 C   0  0  0  0  0  0  0  0  0  0  0  0
   16.1586   -3.5862   66.2570 N   0  0  0  0  0  0  0  0  0  0  0  0
   16.8192   -2.9441   67.4344 C   0  0  0  0  0  0  0  0  0  0  0  0
   16.5563   -1.4314   67.5314 C   0  0  0  0  0  0  0  0  0  0  0  0
   17.0568   -0.6311   66.3159 C   0  0  0  0  0  0  0  0  0  0  0  0
   16.0369   -0.7401   65.1925 C   0  0  0  0  0  0  0  0  0  0  0  0
   16.5231    0.1793   64.1534 N   0  0  0  0  0  0  0  0  0  0  0  0
   15.5300    0.7361   63.1924 C   0  0  0  0  0  0  0  0  0  0  0  0
   15.8813    2.2375   63.2742 C   0  0  0  0  0  0  0  0  0  0  0  0
   17.1285    2.7293   62.5846 C   0  0  0  0  0  0  0  0  0  0  0  0
   18.3685    2.1738   63.0982 N   0  0  0  0  0  0  0  0  0  0  0  0
  1  2  1  0  0  0  0
  2  3  1  0  0  0  0
  3  4  1  0  0  0  0
  4  5  1  0  0  0  0
  5  6  1  0  0  0  0
  6  7  1  0  0  0  0
  7  8  1  0  0  0  0
  8  9  1  0  0  0  0
  9 10  1  0  0  0  0
 10 11  1  0  0  0  0
 11 12  1  0  0  0  0
 12 13  1  0  0  0  0
 13 14  1  0  0  0  0
M  END
>  <CHROM.1>
177.92137668,-179.23392716,-170.56200354,-176.44375485,-60.28458619,80.96954794
173.35322197,-155.44621794,130.33819340,75.23640692,-63.02977354,16.43106674
-1.89826096,64.92678959,2.14564245,1.39229427,2.34210807

>  <Name>
1xpf_lig

>  <RI>
0

>  <Rbt.Current_Directory>
/home/afrankz/demos/rdock_decoys_rna/rnas/1xpf

>  <Rbt.Executable>
rbdock ($Id: //depot/dev/client3/rdock/2013.1/src/exe/rbdock.cxx#4 $)

>  <Rbt.Library>
libRbt.so (2013.1, Build901 2013/11/27)

>  <Rbt.Parameter_File>
/export/apps/rDock/src/rDock_2013.1_src/data/scripts/dock_solv.prm

>  <Rbt.Receptor>
prm/pocket_docking_5.prm

>  <SCORE>
-10.6594

>  <SCORE.INTER>
-3.60403

>  <SCORE.INTER.CONST>
1

>  <SCORE.INTER.POLAR>
0

>  <SCORE.INTER.ROT>
11

>  <SCORE.INTER.SOLV>
6.80144

>  <SCORE.INTER.VDW>
-15.6032

>  <SCORE.INTER.norm>
-0.257431

>  <SCORE.INTRA>
-7.07402

>  <SCORE.INTRA.DIHEDRAL>
-13.4354

>  <SCORE.INTRA.DIHEDRAL.0>
17.7811

>  <SCORE.INTRA.POLAR>
0

>  <SCORE.INTRA.POLAR.0>
0

>  <SCORE.INTRA.REPUL>
0

>  <SCORE.INTRA.REPUL.0>
0

>  <SCORE.INTRA.SOLV>
2.85368

>  <SCORE.INTRA.SOLV.lig_0>
-47.9565

>  <SCORE.INTRA.VDW>
-1.78317

>  <SCORE.INTRA.VDW.0>
0.515983

>  <SCORE.INTRA.norm>
-0.505287

>  <SCORE.RESTR>
0.0186554

>  <SCORE.RESTR.CAVITY>
0.0186554

>  <SCORE.RESTR.norm>
0.00133253

>  <SCORE.SYSTEM>
0

>  <SCORE.SYSTEM.CONST>
0

>  <SCORE.SYSTEM.DIHEDRAL>
0

>  <SCORE.SYSTEM.SOLV>
0

>  <SCORE.SYSTEM.norm>
0

>  <SCORE.heavy>
14

>  <SCORE.norm>
-0.761385

>  <RMSD>
4.698

$$$$
1xpf_lig
 OpenBabel02141814123D
libRbt.so/2013.1/901 2013/11/27
 14 13  0  0  0  0  0  0  0  0999 V2000
   20.6372    0.4735   64.5638 N   0  0  0  0  0  0  0  0  0  0  0  0
   19.4465    0.1607   65.3323 C   0  0  0  0  0  0  0  0  0  0  0  0
   19.6467    0.4627   66.7691 C   0  0  0  0  0  0  0  0  0  0  0  0
   18.3284    0.2364   67.4417 C   0  0  0  0  0  0  0  0  0  0  0  0
   18.1008   -1.2295   67.4387 N   0  0  0  0  0  0  0  0  0  0  0  0
   16.7119   -1.5447   66.9844 C   0  0  0  0  0  0  0  0  0  0  0  0
   16.6367   -2.7698   66.0569 C   0  0  0  0  0  0  0  0  0  0  0  0
   17.3560   -2.5787   64.7098 C   0  0  0  0  0  0  0  0  0  0  0  0
   17.3081   -3.8835   63.9292 C   0  0  0  0  0  0  0  0  0  0  0  0
   15.9329   -3.9634   63.4153 N   0  0  0  0  0  0  0  0  0  0  0  0
   15.5313   -5.1964   62.6820 C   0  0  0  0  0  0  0  0  0  0  0  0
   15.7081   -4.7184   61.2244 C   0  0  0  0  0  0  0  0  0  0  0  0
   15.3425   -5.6579   60.1034 C   0  0  0  0  0  0  0  0  0  0  0  0
   15.5866   -5.1387   58.7689 N   0  0  0  0  0  0  0  0  0  0  0  0
  1  2  1  0  0  0  0
  2  3  1  0  0  0  0
  3  4  1  0  0  0  0
  4  5  1  0  0  0  0
  5  6  1  0  0  0  0
  6  7  1  0  0  0  0
  7  8  1  0  0  0  0
  8  9  1  0  0  0  0
  9 10  1  0  0  0  0
 10 11  1  0  0  0  0
 11 12  1  0  0  0  0
 12 13  1  0  0  0  0
 13 14  1  0  0  0  0
M  END
>  <CHROM.1>
174.48961819,70.60538080,-133.12790253,139.78378795,-64.94780313,175.60533509
75.95435084,-175.47466848,-98.11732721,-177.26840344,-177.93059274,17.30515715
-2.52485586,64.24456162,-0.99139774,-0.76300977,-1.85223054

>  <Name>
1xpf_lig

>  <RI>
0

>  <Rbt.Current_Directory>
/home/afrankz/demos/rdock_decoys_rna/rnas/1xpf

>  <Rbt.Executable>
rbdock ($Id: //depot/dev/client3/rdock/2013.1/src/exe/rbdock.cxx#4 $)

>  <Rbt.Library>
libRbt.so (2013.1, Build901 2013/11/27)

>  <Rbt.Parameter_File>
/export/apps/rDock/src/rDock_2013.1_src/data/scripts/dock_solv.prm

>  <Rbt.Receptor>
prm/pocket_docking_5.prm

>  <SCORE>
-12.472

>  <SCORE.INTER>
-4.47189

>  <SCORE.INTER.CONST>
1

>  <SCORE.INTER.POLAR>
-1.55493

>  <SCORE.INTER.ROT>
11

>  <SCORE.INTER.SOLV>
9.61267

>  <SCORE.INTER.VDW>
-11.9357

>  <SCORE.INTER.norm>
-0.319421

>  <SCORE.INTRA>
-8.00013

>  <SCORE.INTRA.DIHEDRAL>
-13.2931

>  <SCORE.INTRA.DIHEDRAL.0>
17.7811

>  <SCORE.INTRA.POLAR>
0

>  <SCORE.INTRA.POLAR.0>
0

>  <SCORE.INTRA.REPUL>
0

>  <SCORE.INTRA.REPUL.0>
0

>  <SCORE.INTRA.SOLV>
0.473596

>  <SCORE.INTRA.SOLV.lig_0>
-47.9565

>  <SCORE.INTRA.VDW>
-1.59039

>  <SCORE.INTRA.VDW.0>
0.515983

>  <SCORE.INTRA.norm>
-0.571438

>  <SCORE.RESTR>
0

>  <SCORE.RESTR.CAVITY>
0

>  <SCORE.RESTR.norm>
0

>  <SCORE.SYSTEM>
0

>  <SCORE.SYSTEM.CONST>
0

>  <SCORE.SYSTEM.DIHEDRAL>
0

>  <SCORE.SYSTEM.SOLV>
0

>  <SCORE.SYSTEM.norm>
0

>  <SCORE.heavy>
14

>  <SCORE.norm>
-0.890858

>  <RMSD>
4.712

$$$$
1xpf_lig
 OpenBabel02141814123D
libRbt.so/2013.1/901 2013/11/27
 14 13  0  0  0  0  0  0  0  0999 V2000
   16.6996   -1.6874   64.9867 N   0  0  0  0  0  0  0  0  0  0  0  0
   17.8162   -1.3136   65.8350 C   0  0  0  0  0  0  0  0  0  0  0  0
   17.5157   -0.0776   66.5952 C   0  0  0  0  0  0  0  0  0  0  0  0
   18.7350    0.2327   67.4067 C   0  0  0  0  0  0  0  0  0  0  0  0
   18.4775    1.5332   68.0724 N   0  0  0  0  0  0  0  0  0  0  0  0
   19.7082    2.3818   68.0614 C   0  0  0  0  0  0  0  0  0  0  0  0
   19.7782    3.3393   66.8591 C   0  0  0  0  0  0  0  0  0  0  0  0
   19.8950    2.6275   65.4997 C   0  0  0  0  0  0  0  0  0  0  0  0
   19.7207    3.6484   64.3855 C   0  0  0  0  0  0  0  0  0  0  0  0
   19.9124    2.8853   63.1436 N   0  0  0  0  0  0  0  0  0  0  0  0
   19.6888    3.5886   61.8494 C   0  0  0  0  0  0  0  0  0  0  0  0
   20.2181    2.5242   60.8639 C   0  0  0  0  0  0  0  0  0  0  0  0
   21.6868    2.1843   60.8829 C   0  0  0  0  0  0  0  0  0  0  0  0
   22.0914    1.1749   59.9198 N   0  0  0  0  0  0  0  0  0  0  0  0
  1  2  1  0  0  0  0
  2  3  1  0  0  0  0
  3  4  1  0  0  0  0
  4  5  1  0  0  0  0
  5  6  1  0  0  0  0
  6  7  1  0  0  0  0
  7  8  1  0  0  0  0
  8  9  1  0  0  0  0
  9 10  1  0  0  0  0
 10 11  1  0  0  0  0
 11 12  1  0  0  0  0
 12 13  1  0  0  0  0
 13 14  1  0  0  0  0
M  END
>  <CHROM.1>
-178.73931973,175.07078013,-139.67518749,93.18206951,-65.00773278,170.56108979
177.37525953,174.91523830,170.98582020,-66.13607552,-179.89395471,19.42458305
1.64608944,64.59745847,2.42824416,1.02947271,1.08966638

>  <Name>
1xpf_lig

>  <RI>
0

>  <Rbt.Current_Directory>
/home/afrankz/demos/rdock_decoys_rna/rnas/1xpf

>  <Rbt.Executable>
rbdock ($Id: //depot/dev/client3/rdock/2013.1/src/exe/rbdock.cxx#4 $)

>  <Rbt.Library>
libRbt.so (2013.1, Build901 2013/11/27)

>  <Rbt.Parameter_File>
/export/apps/rDock/src/rDock_2013.1_src/data/scripts/dock_solv.prm

>  <Rbt.Receptor>
prm/pocket_docking_4.prm

>  <SCORE>
-16.2422

>  <SCORE.INTER>
-6.69684

>  <SCORE.INTER.CONST>
1

>  <SCORE.INTER.POLAR>
-1.69443

>  <SCORE.INTER.ROT>
11

>  <SCORE.INTER.SOLV>
9.89973

>  <SCORE.INTER.VDW>
-13.0497

>  <SCORE.INTER.norm>
-0.478346

>  <SCORE.INTRA>
-9.54745

>  <SCORE.INTRA.DIHEDRAL>
-15.3608

>  <SCORE.INTRA.DIHEDRAL.0>
17.7811

>  <SCORE.INTRA.POLAR>
0

>  <SCORE.INTRA.POLAR.0>
0

>  <SCORE.INTRA.REPUL>
0

>  <SCORE.INTRA.REPUL.0>
0

>  <SCORE.INTRA.SOLV>
-0.142573

>  <SCORE.INTRA.SOLV.lig_0>
-47.9565

>  <SCORE.INTRA.VDW>
-1.79576

>  <SCORE.INTRA.VDW.0>
0.515983

>  <SCORE.INTRA.norm>
-0.681961

>  <SCORE.RESTR>
0.00204657

>  <SCORE.RESTR.CAVITY>
0.00204657

>  <SCORE.RESTR.norm>
0.000146184

>  <SCORE.SYSTEM>
0

>  <SCORE.SYSTEM.CONST>
0

>  <SCORE.SYSTEM.DIHEDRAL>
0

>  <SCORE.SYSTEM.SOLV>
0

>  <SCORE.SYSTEM.norm>
0

>  <SCORE.heavy>
14

>  <SCORE.norm>
-1.16016

>  <RMSD>
4.714

$$$$
1xpf_lig
 OpenBabel02141814123D
libRbt.so/2013.1/901 2013/11/27
 14 13  0  0  0  0  0  0  0  0999 V2000
   23.6285    5.7642   57.5178 N   0  0  0  0  0  0  0  0  0  0  0  0
   23.6486    4.4537   58.1408 C   0  0  0  0  0  0  0  0  0  0  0  0
   22.6396    4.3638   59.2224 C   0  0  0  0  0  0  0  0  0  0  0  0
   22.5897    2.9278   59.6428 C   0  0  0  0  0  0  0  0  0  0  0  0
   21.4857    2.8158   60.6274 N   0  0  0  0  0  0  0  0  0  0  0  0
   20.4354    1.8733   60.1342 C   0  0  0  0  0  0  0  0  0  0  0  0
   20.2917    0.6115   61.0026 C   0  0  0  0  0  0  0  0  0  0  0  0
   19.9214    0.9006   62.4681 C   0  0  0  0  0  0  0  0  0  0  0  0
   19.9358   -0.4026   63.2527 C   0  0  0  0  0  0  0  0  0  0  0  0
   19.4632   -0.0374   64.5961 N   0  0  0  0  0  0  0  0  0  0  0  0
   20.3700   -0.2943   65.7499 C   0  0  0  0  0  0  0  0  0  0  0  0
   19.6679    0.5417   66.8419 C   0  0  0  0  0  0  0  0  0  0  0  0
   18.2563    0.1849   67.2333 C   0  0  0  0  0  0  0  0  0  0  0  0
   18.1090   -1.1150   67.8649 N   0  0  0  0  0  0  0  0  0  0  0  0
  1  2  1  0  0  0  0
  2  3  1  0  0  0  0
  3  4  1  0  0  0  0
  4  5  1  0  0  0  0
  5  6  1  0  0  0  0
  6  7  1  0  0  0  0
  7  8  1  0  0  0  0
  8  9  1  0  0  0  0
  9 10  1  0  0  0  0
 10 11  1  0  0  0  0
 11 12  1  0  0  0  0
 12 13  1  0  0  0  0
 13 14  1  0  0  0  0
M  END
>  <CHROM.1>
171.10875930,-174.45751698,119.04478904,115.25561221,59.60752463,-174.74864280
-175.38126636,-120.48070277,166.08431090,61.36475106,65.27867279,20.74592921
1.61332230,62.44954086,-0.77247627,0.98897784,1.38488945

>  <Name>
1xpf_lig

>  <RI>
0

>  <Rbt.Current_Directory>
/home/afrankz/demos/rdock_decoys_rna/rnas/1xpf

>  <Rbt.Executable>
rbdock ($Id: //depot/dev/client3/rdock/2013.1/src/exe/rbdock.cxx#4 $)

>  <Rbt.Library>
libRbt.so (2013.1, Build901 2013/11/27)

>  <Rbt.Parameter_File>
/export/apps/rDock/src/rDock_2013.1_src/data/scripts/dock_solv.prm

>  <Rbt.Receptor>
prm/pocket_docking_5.prm

>  <SCORE>
-11.0439

>  <SCORE.INTER>
-3.29508

>  <SCORE.INTER.CONST>
1

>  <SCORE.INTER.POLAR>
-1.69443

>  <SCORE.INTER.ROT>
11

>  <SCORE.INTER.SOLV>
12.3695

>  <SCORE.INTER.VDW>
-11.6051

>  <SCORE.INTER.norm>
-0.235363

>  <SCORE.INTRA>
-7.74883

>  <SCORE.INTRA.DIHEDRAL>
-13.3313

>  <SCORE.INTRA.DIHEDRAL.0>
17.7811

>  <SCORE.INTRA.POLAR>
0

>  <SCORE.INTRA.POLAR.0>
0

>  <SCORE.INTRA.REPUL>
0

>  <SCORE.INTRA.REPUL.0>
0

>  <SCORE.INTRA.SOLV>
1.06049

>  <SCORE.INTRA.SOLV.lig_0>
-47.9565

>  <SCORE.INTRA.VDW>
-1.61341

>  <SCORE.INTRA.VDW.0>
0.515983

>  <SCORE.INTRA.norm>
-0.553488

>  <SCORE.RESTR>
0

>  <SCORE.RESTR.CAVITY>
0

>  <SCORE.RESTR.norm>
0

>  <SCORE.SYSTEM>
0

>  <SCORE.SYSTEM.CONST>
0

>  <SCORE.SYSTEM.DIHEDRAL>
0

>  <SCORE.SYSTEM.SOLV>
0

>  <SCORE.SYSTEM.norm>
0

>  <SCORE.heavy>
14

>  <SCORE.norm>
-0.78885

>  <RMSD>
4.715

$$$$
1xpf_lig
 OpenBabel02141814123D
libRbt.so/2013.1/901 2013/11/27
 14 13  0  0  0  0  0  0  0  0999 V2000
   17.9556   -0.1211   68.3885 N   0  0  0  0  0  0  0  0  0  0  0  0
   18.3649    0.1401   67.0209 C   0  0  0  0  0  0  0  0  0  0  0  0
   19.5864    0.9781   66.9825 C   0  0  0  0  0  0  0  0  0  0  0  0
   19.9651    1.1168   65.5407 C   0  0  0  0  0  0  0  0  0  0  0  0
   20.7051   -0.1171   65.1795 N   0  0  0  0  0  0  0  0  0  0  0  0
   19.8463   -1.0230   64.3568 C   0  0  0  0  0  0  0  0  0  0  0  0
   19.4801   -0.4349   62.9832 C   0  0  0  0  0  0  0  0  0  0  0  0
   18.7353   -1.4170   62.0616 C   0  0  0  0  0  0  0  0  0  0  0  0
   18.2957   -0.6842   60.8030 C   0  0  0  0  0  0  0  0  0  0  0  0
   19.5470   -0.2490   60.1656 N   0  0  0  0  0  0  0  0  0  0  0  0
   19.5810    1.1047   59.5444 C   0  0  0  0  0  0  0  0  0  0  0  0
   20.6003    1.8050   60.4690 C   0  0  0  0  0  0  0  0  0  0  0  0
   20.8903    3.2686   60.2523 C   0  0  0  0  0  0  0  0  0  0  0  0
   21.8573    3.8412   61.1727 N   0  0  0  0  0  0  0  0  0  0  0  0
  1  2  1  0  0  0  0
  2  3  1  0  0  0  0
  3  4  1  0  0  0  0
  4  5  1  0  0  0  0
  5  6  1  0  0  0  0
  6  7  1  0  0  0  0
  7  8  1  0  0  0  0
  8  9  1  0  0  0  0
  9 10  1  0  0  0  0
 10 11  1  0  0  0  0
 11 12  1  0  0  0  0
 12 13  1  0  0  0  0
 13 14  1  0  0  0  0
M  END
>  <CHROM.1>
176.69162478,-81.61942399,104.76883638,65.33315851,173.29560596,173.91793598
62.27914453,-140.22163024,113.97645809,-176.36529984,179.76826112,19.67203843
0.58619811,63.20840301,-1.93424623,-1.03547557,-1.66737074

>  <Name>
1xpf_lig

>  <RI>
0

>  <Rbt.Current_Directory>
/home/afrankz/demos/rdock_decoys_rna/rnas/1xpf

>  <Rbt.Executable>
rbdock ($Id: //depot/dev/client3/rdock/2013.1/src/exe/rbdock.cxx#4 $)

>  <Rbt.Library>
libRbt.so (2013.1, Build901 2013/11/27)

>  <Rbt.Parameter_File>
/export/apps/rDock/src/rDock_2013.1_src/data/scripts/dock_solv.prm

>  <Rbt.Receptor>
prm/pocket_docking_6.prm

>  <SCORE>
-8.1775

>  <SCORE.INTER>
-1.39316

>  <SCORE.INTER.CONST>
1

>  <SCORE.INTER.POLAR>
-1.4354

>  <SCORE.INTER.ROT>
11

>  <SCORE.INTER.SOLV>
11.462

>  <SCORE.INTER.VDW>
-10.8981

>  <SCORE.INTER.norm>
-0.0995115

>  <SCORE.INTRA>
-6.78434

>  <SCORE.INTRA.DIHEDRAL>
-12.6538

>  <SCORE.INTRA.DIHEDRAL.0>
17.7811

>  <SCORE.INTRA.POLAR>
0

>  <SCORE.INTRA.POLAR.0>
0

>  <SCORE.INTRA.REPUL>
0

>  <SCORE.INTRA.REPUL.0>
0

>  <SCORE.INTRA.SOLV>
0.080633

>  <SCORE.INTRA.SOLV.lig_0>
-47.9565

>  <SCORE.INTRA.VDW>
-0.497737

>  <SCORE.INTRA.VDW.0>
0.515983

>  <SCORE.INTRA.norm>
-0.484596

>  <SCORE.RESTR>
0

>  <SCORE.RESTR.CAVITY>
0

>  <SCORE.RESTR.norm>
0

>  <SCORE.SYSTEM>
0

>  <SCORE.SYSTEM.CONST>
0

>  <SCORE.SYSTEM.DIHEDRAL>
0

>  <SCORE.SYSTEM.SOLV>
0

>  <SCORE.SYSTEM.norm>
0

>  <SCORE.heavy>
14

>  <SCORE.norm>
-0.584107

>  <RMSD>
4.715

$$$$
1xpf_lig
 OpenBabel02141814123D
libRbt.so/2013.1/901 2013/11/27
 14 13  0  0  0  0  0  0  0  0999 V2000
   16.8957   -2.0136   69.1635 N   0  0  0  0  0  0  0  0  0  0  0  0
   16.3820   -2.5720   67.9264 C   0  0  0  0  0  0  0  0  0  0  0  0
   16.4139   -1.5684   66.8366 C   0  0  0  0  0  0  0  0  0  0  0  0
   17.8470   -1.4263   66.4275 C   0  0  0  0  0  0  0  0  0  0  0  0
   18.5356   -0.7301   67.5419 N   0  0  0  0  0  0  0  0  0  0  0  0
   18.6943    0.7243   67.2345 C   0  0  0  0  0  0  0  0  0  0  0  0
   19.6419    1.4526   68.2033 C   0  0  0  0  0  0  0  0  0  0  0  0
   19.6630    2.9812   68.0256 C   0  0  0  0  0  0  0  0  0  0  0  0
   20.2390    3.3165   66.6581 C   0  0  0  0  0  0  0  0  0  0  0  0
   20.0468    4.7670   66.5151 N   0  0  0  0  0  0  0  0  0  0  0  0
   19.1135    5.2477   65.4580 C   0  0  0  0  0  0  0  0  0  0  0  0
   19.1815    6.7705   65.7040 C   0  0  0  0  0  0  0  0  0  0  0  0
   20.4949    7.4810   65.4964 C   0  0  0  0  0  0  0  0  0  0  0  0
   21.0191    7.4101   64.1434 N   0  0  0  0  0  0  0  0  0  0  0  0
  1  2  1  0  0  0  0
  2  3  1  0  0  0  0
  3  4  1  0  0  0  0
  4  5  1  0  0  0  0
  5  6  1  0  0  0  0
  6  7  1  0  0  0  0
  7  8  1  0  0  0  0
  8  9  1  0  0  0  0
  9 10  1  0  0  0  0
 10 11  1  0  0  0  0
 11 12  1  0  0  0  0
 12 13  1  0  0  0  0
 13 14  1  0  0  0  0
M  END
>  <CHROM.1>
74.10375621,-70.57318326,-99.64599663,-168.33922079,-171.84300884,-65.23921766
172.53331104,-114.34574086,177.96390097,63.75773332,61.26515156,18.86906004
2.27430113,66.80957846,-2.09769177,-0.85651787,-0.69240326

>  <Name>
1xpf_lig

>  <RI>
0

>  <Rbt.Current_Directory>
/home/afrankz/demos/rdock_decoys_rna/rnas/1xpf

>  <Rbt.Executable>
rbdock ($Id: //depot/dev/client3/rdock/2013.1/src/exe/rbdock.cxx#4 $)

>  <Rbt.Library>
libRbt.so (2013.1, Build901 2013/11/27)

>  <Rbt.Parameter_File>
/export/apps/rDock/src/rDock_2013.1_src/data/scripts/dock_solv.prm

>  <Rbt.Receptor>
prm/pocket_docking_8.prm

>  <SCORE>
-13.629

>  <SCORE.INTER>
-8.65867

>  <SCORE.INTER.CONST>
1

>  <SCORE.INTER.POLAR>
-1.33409

>  <SCORE.INTER.ROT>
11

>  <SCORE.INTER.SOLV>
11.1934

>  <SCORE.INTER.VDW>
-15.99

>  <SCORE.INTER.norm>
-0.618477

>  <SCORE.INTRA>
-4.97033

>  <SCORE.INTRA.DIHEDRAL>
-13.8439

>  <SCORE.INTRA.DIHEDRAL.0>
17.7811

>  <SCORE.INTRA.POLAR>
0

>  <SCORE.INTRA.POLAR.0>
0

>  <SCORE.INTRA.REPUL>
0

>  <SCORE.INTRA.REPUL.0>
0

>  <SCORE.INTRA.SOLV>
4.3687

>  <SCORE.INTRA.SOLV.lig_0>
-47.9565

>  <SCORE.INTRA.VDW>
-0.23273

>  <SCORE.INTRA.VDW.0>
0.515983

>  <SCORE.INTRA.norm>
-0.355024

>  <SCORE.RESTR>
0

>  <SCORE.RESTR.CAVITY>
0

>  <SCORE.RESTR.norm>
0

>  <SCORE.SYSTEM>
0

>  <SCORE.SYSTEM.CONST>
0

>  <SCORE.SYSTEM.DIHEDRAL>
0

>  <SCORE.SYSTEM.SOLV>
0

>  <SCORE.SYSTEM.norm>
0

>  <SCORE.heavy>
14

>  <SCORE.norm>
-0.973501

>  <RMSD>
4.721

$$$$
1xpf_lig
 OpenBabel02141814123D
libRbt.so/2013.1/901 2013/11/27
 14 13  0  0  0  0  0  0  0  0999 V2000
   16.3759   -2.7286   65.7391 N   0  0  0  0  0  0  0  0  0  0  0  0
   16.6643   -1.5734   66.5688 C   0  0  0  0  0  0  0  0  0  0  0  0
   18.0362   -1.0707   66.3218 C   0  0  0  0  0  0  0  0  0  0  0  0
   18.2400    0.0890   67.2463 C   0  0  0  0  0  0  0  0  0  0  0  0
   19.6253    0.5691   67.0199 N   0  0  0  0  0  0  0  0  0  0  0  0
   20.0435    1.5008   68.1117 C   0  0  0  0  0  0  0  0  0  0  0  0
   19.5117    2.9328   67.9286 C   0  0  0  0  0  0  0  0  0  0  0  0
   20.0627    3.6493   66.6831 C   0  0  0  0  0  0  0  0  0  0  0  0
   19.5087    5.0652   66.6362 C   0  0  0  0  0  0  0  0  0  0  0  0
   20.1289    5.6720   65.4493 N   0  0  0  0  0  0  0  0  0  0  0  0
   19.5819    6.9687   64.9605 C   0  0  0  0  0  0  0  0  0  0  0  0
   20.7860    7.4833   64.1424 C   0  0  0  0  0  0  0  0  0  0  0  0
   21.1082    6.8177   62.8286 C   0  0  0  0  0  0  0  0  0  0  0  0
   22.2797    7.3440   62.1497 N   0  0  0  0  0  0  0  0  0  0  0  0
  1  2  1  0  0  0  0
  2  3  1  0  0  0  0
  3  4  1  0  0  0  0
  4  5  1  0  0  0  0
  5  6  1  0  0  0  0
  6  7  1  0  0  0  0
  7  8  1  0  0  0  0
  8  9  1  0  0  0  0
  9 10  1  0  0  0  0
 10 11  1  0  0  0  0
 11 12  1  0  0  0  0
 12 13  1  0  0  0  0
 13 14  1  0  0  0  0
M  END
>  <CHROM.1>
-178.57893134,178.66328558,-166.29023741,-80.44382060,-64.46044661,-177.96660324
177.98744025,167.67721073,158.93234244,72.30247542,-178.31020421,19.42515488
3.05150970,65.84216017,2.62507553,1.14624079,1.78814405

>  <Name>
1xpf_lig

>  <RI>
0

>  <Rbt.Current_Directory>
/home/afrankz/demos/rdock_decoys_rna/rnas/1xpf

>  <Rbt.Executable>
rbdock ($Id: //depot/dev/client3/rdock/2013.1/src/exe/rbdock.cxx#4 $)

>  <Rbt.Library>
libRbt.so (2013.1, Build901 2013/11/27)

>  <Rbt.Parameter_File>
/export/apps/rDock/src/rDock_2013.1_src/data/scripts/dock_solv.prm

>  <Rbt.Receptor>
prm/pocket_docking_5.prm

>  <SCORE>
-14.9366

>  <SCORE.INTER>
-5.17146

>  <SCORE.INTER.CONST>
1

>  <SCORE.INTER.POLAR>
-0.916491

>  <SCORE.INTER.ROT>
11

>  <SCORE.INTER.SOLV>
13.1594

>  <SCORE.INTER.VDW>
-15.7125

>  <SCORE.INTER.norm>
-0.36939

>  <SCORE.INTRA>
-9.76514

>  <SCORE.INTRA.DIHEDRAL>
-16.1849

>  <SCORE.INTRA.DIHEDRAL.0>
17.7811

>  <SCORE.INTRA.POLAR>
0

>  <SCORE.INTRA.POLAR.0>
0

>  <SCORE.INTRA.REPUL>
0

>  <SCORE.INTRA.REPUL.0>
0

>  <SCORE.INTRA.SOLV>
-0.227553

>  <SCORE.INTRA.SOLV.lig_0>
-47.9565

>  <SCORE.INTRA.VDW>
-1.55892

>  <SCORE.INTRA.VDW.0>
0.515983

>  <SCORE.INTRA.norm>
-0.69751

>  <SCORE.RESTR>
0

>  <SCORE.RESTR.CAVITY>
0

>  <SCORE.RESTR.norm>
0

>  <SCORE.SYSTEM>
0

>  <SCORE.SYSTEM.CONST>
0

>  <SCORE.SYSTEM.DIHEDRAL>
0

>  <SCORE.SYSTEM.SOLV>
0

>  <SCORE.SYSTEM.norm>
0

>  <SCORE.heavy>
14

>  <SCORE.norm>
-1.0669

>  <RMSD>
4.728

$$$$
1xpf_lig
 OpenBabel02141814123D
libRbt.so/2013.1/901 2013/11/27
 14 13  0  0  0  0  0  0  0  0999 V2000
   20.5578   -1.8169   64.0120 N   0  0  0  0  0  0  0  0  0  0  0  0
   19.6983   -1.2386   65.0284 C   0  0  0  0  0  0  0  0  0  0  0  0
   20.4348   -0.2452   65.8448 C   0  0  0  0  0  0  0  0  0  0  0  0
   19.4786    0.2456   66.8870 C   0  0  0  0  0  0  0  0  0  0  0  0
   20.1893    1.3045   67.6448 N   0  0  0  0  0  0  0  0  0  0  0  0
   19.3690    2.5531   67.6980 C   0  0  0  0  0  0  0  0  0  0  0  0
   19.8246    3.6255   66.6933 C   0  0  0  0  0  0  0  0  0  0  0  0
   19.8864    3.1312   65.2372 C   0  0  0  0  0  0  0  0  0  0  0  0
   20.2952    4.2861   64.3354 C   0  0  0  0  0  0  0  0  0  0  0  0
   20.6797    3.6529   63.0654 N   0  0  0  0  0  0  0  0  0  0  0  0
   19.6513    3.5591   61.9916 C   0  0  0  0  0  0  0  0  0  0  0  0
   20.2338    2.3996   61.1546 C   0  0  0  0  0  0  0  0  0  0  0  0
   21.5896    2.5738   60.5185 C   0  0  0  0  0  0  0  0  0  0  0  0
   22.0951    1.3991   59.8295 N   0  0  0  0  0  0  0  0  0  0  0  0
  1  2  1  0  0  0  0
  2  3  1  0  0  0  0
  3  4  1  0  0  0  0
  4  5  1  0  0  0  0
  5  6  1  0  0  0  0
  6  7  1  0  0  0  0
  7  8  1  0  0  0  0
  8  9  1  0  0  0  0
  9 10  1  0  0  0  0
 10 11  1  0  0  0  0
 11 12  1  0  0  0  0
 12 13  1  0  0  0  0
 13 14  1  0  0  0  0
M  END
>  <CHROM.1>
-177.85366482,-176.31168007,127.73184453,-101.16893531,54.69568165,177.86581824
165.02575988,94.98154949,-158.21094052,-61.66884409,175.92496713,20.28430044
1.81668981,64.28173481,-2.65280851,1.33683060,-0.27467267

>  <Name>
1xpf_lig

>  <RI>
0

>  <Rbt.Current_Directory>
/home/afrankz/demos/rdock_decoys_rna/rnas/1xpf

>  <Rbt.Executable>
rbdock ($Id: //depot/dev/client3/rdock/2013.1/src/exe/rbdock.cxx#4 $)

>  <Rbt.Library>
libRbt.so (2013.1, Build901 2013/11/27)

>  <Rbt.Parameter_File>
/export/apps/rDock/src/rDock_2013.1_src/data/scripts/dock_solv.prm

>  <Rbt.Receptor>
prm/pocket_docking_4.prm

>  <SCORE>
-11.5447

>  <SCORE.INTER>
-3.07289

>  <SCORE.INTER.CONST>
1

>  <SCORE.INTER.POLAR>
-0.889447

>  <SCORE.INTER.ROT>
11

>  <SCORE.INTER.SOLV>
9.06424

>  <SCORE.INTER.VDW>
-13.0385

>  <SCORE.INTER.norm>
-0.219492

>  <SCORE.INTRA>
-8.47178

>  <SCORE.INTRA.DIHEDRAL>
-13.5213

>  <SCORE.INTRA.DIHEDRAL.0>
17.7811

>  <SCORE.INTRA.POLAR>
0

>  <SCORE.INTRA.POLAR.0>
0

>  <SCORE.INTRA.REPUL>
0

>  <SCORE.INTRA.REPUL.0>
0

>  <SCORE.INTRA.SOLV>
-0.0338397

>  <SCORE.INTRA.SOLV.lig_0>
-47.9565

>  <SCORE.INTRA.VDW>
-1.69423

>  <SCORE.INTRA.VDW.0>
0.515983

>  <SCORE.INTRA.norm>
-0.605127

>  <SCORE.RESTR>
0

>  <SCORE.RESTR.CAVITY>
0

>  <SCORE.RESTR.norm>
0

>  <SCORE.SYSTEM>
0

>  <SCORE.SYSTEM.CONST>
0

>  <SCORE.SYSTEM.DIHEDRAL>
0

>  <SCORE.SYSTEM.SOLV>
0

>  <SCORE.SYSTEM.norm>
0

>  <SCORE.heavy>
14

>  <SCORE.norm>
-0.824619

>  <RMSD>
4.739

$$$$
1xpf_lig
 OpenBabel02141814123D
libRbt.so/2013.1/901 2013/11/27
 14 13  0  0  0  0  0  0  0  0999 V2000
   24.3295    5.4524   59.7194 N   0  0  0  0  0  0  0  0  0  0  0  0
   22.9832    4.9686   59.9633 C   0  0  0  0  0  0  0  0  0  0  0  0
   22.8466    3.5499   59.5578 C   0  0  0  0  0  0  0  0  0  0  0  0
   21.4634    3.1260   59.9431 C   0  0  0  0  0  0  0  0  0  0  0  0
   21.3714    1.6745   59.6507 N   0  0  0  0  0  0  0  0  0  0  0  0
   20.1094    1.1041   60.2135 C   0  0  0  0  0  0  0  0  0  0  0  0
   20.3361    0.2392   61.4655 C   0  0  0  0  0  0  0  0  0  0  0  0
   21.1186    0.9512   62.5833 C   0  0  0  0  0  0  0  0  0  0  0  0
   21.3740   -0.0308   63.7167 C   0  0  0  0  0  0  0  0  0  0  0  0
   20.1093   -0.0778   64.4649 N   0  0  0  0  0  0  0  0  0  0  0  0
   20.0030   -1.0389   65.5983 C   0  0  0  0  0  0  0  0  0  0  0  0
   19.0156   -0.2791   66.5104 C   0  0  0  0  0  0  0  0  0  0  0  0
   19.4692    1.0026   67.1619 C   0  0  0  0  0  0  0  0  0  0  0  0
   18.5201    1.5797   68.0980 N   0  0  0  0  0  0  0  0  0  0  0  0
  1  2  1  0  0  0  0
  2  3  1  0  0  0  0
  3  4  1  0  0  0  0
  4  5  1  0  0  0  0
  5  6  1  0  0  0  0
  6  7  1  0  0  0  0
  7  8  1  0  0  0  0
  8  9  1  0  0  0  0
  9 10  1  0  0  0  0
 10 11  1  0  0  0  0
 11 12  1  0  0  0  0
 12 13  1  0  0  0  0
 13 14  1  0  0  0  0
M  END
>  <CHROM.1>
175.89735415,-174.92441434,170.40770207,-106.29590506,53.99549579,-175.61686666
-79.51332946,175.70950055,149.87146789,-67.74914926,-174.51424905,20.93202770
1.58702059,62.76041027,-0.57663218,1.08178551,1.11638123

>  <Name>
1xpf_lig

>  <RI>
0

>  <Rbt.Current_Directory>
/home/afrankz/demos/rdock_decoys_rna/rnas/1xpf

>  <Rbt.Executable>
rbdock ($Id: //depot/dev/client3/rdock/2013.1/src/exe/rbdock.cxx#4 $)

>  <Rbt.Library>
libRbt.so (2013.1, Build901 2013/11/27)

>  <Rbt.Parameter_File>
/export/apps/rDock/src/rDock_2013.1_src/data/scripts/dock_solv.prm

>  <Rbt.Receptor>
prm/pocket_docking_4.prm

>  <SCORE>
-9.5828

>  <SCORE.INTER>
-0.915625

>  <SCORE.INTER.CONST>
1

>  <SCORE.INTER.POLAR>
-1.29677

>  <SCORE.INTER.ROT>
11

>  <SCORE.INTER.SOLV>
10.4507

>  <SCORE.INTER.VDW>
-10.7048

>  <SCORE.INTER.norm>
-0.0654018

>  <SCORE.INTRA>
-8.66717

>  <SCORE.INTRA.DIHEDRAL>
-14.0033

>  <SCORE.INTRA.DIHEDRAL.0>
17.7811

>  <SCORE.INTRA.POLAR>
0

>  <SCORE.INTRA.POLAR.0>
0

>  <SCORE.INTRA.REPUL>
0

>  <SCORE.INTRA.REPUL.0>
0

>  <SCORE.INTRA.SOLV>
0.201147

>  <SCORE.INTRA.SOLV.lig_0>
-47.9565

>  <SCORE.INTRA.VDW>
-1.76612

>  <SCORE.INTRA.VDW.0>
0.515983

>  <SCORE.INTRA.norm>
-0.619084

>  <SCORE.RESTR>
0

>  <SCORE.RESTR.CAVITY>
0

>  <SCORE.RESTR.norm>
0

>  <SCORE.SYSTEM>
0

>  <SCORE.SYSTEM.CONST>
0

>  <SCORE.SYSTEM.DIHEDRAL>
0

>  <SCORE.SYSTEM.SOLV>
0

>  <SCORE.SYSTEM.norm>
0

>  <SCORE.heavy>
14

>  <SCORE.norm>
-0.684486

>  <RMSD>
4.752

$$$$
1xpf_lig
 OpenBabel02141814123D
libRbt.so/2013.1/901 2013/11/27
 14 13  0  0  0  0  0  0  0  0999 V2000
   17.9445   -0.1092   68.3157 N   0  0  0  0  0  0  0  0  0  0  0  0
   18.3555   -0.2169   66.9281 C   0  0  0  0  0  0  0  0  0  0  0  0
   19.7288    0.3066   66.7383 C   0  0  0  0  0  0  0  0  0  0  0  0
   20.1656   -0.1232   65.3724 C   0  0  0  0  0  0  0  0  0  0  0  0
   20.4307   -1.5805   65.4545 N   0  0  0  0  0  0  0  0  0  0  0  0
   20.4867   -2.1822   64.0872 C   0  0  0  0  0  0  0  0  0  0  0  0
   21.9194   -2.3441   63.5503 C   0  0  0  0  0  0  0  0  0  0  0  0
   22.6724   -1.0143   63.3685 C   0  0  0  0  0  0  0  0  0  0  0  0
   24.0572   -1.2980   62.8063 C   0  0  0  0  0  0  0  0  0  0  0  0
   24.6360    0.0283   62.5468 N   0  0  0  0  0  0  0  0  0  0  0  0
   24.4647    0.6118   61.1867 C   0  0  0  0  0  0  0  0  0  0  0  0
   25.1286    1.9904   61.3942 C   0  0  0  0  0  0  0  0  0  0  0  0
   25.1940    2.9466   60.2304 C   0  0  0  0  0  0  0  0  0  0  0  0
   23.9042    3.4098   59.7488 N   0  0  0  0  0  0  0  0  0  0  0  0
  1  2  1  0  0  0  0
  2  3  1  0  0  0  0
  3  4  1  0  0  0  0
  4  5  1  0  0  0  0
  5  6  1  0  0  0  0
  6  7  1  0  0  0  0
  7  8  1  0  0  0  0
  8  9  1  0  0  0  0
  9 10  1  0  0  0  0
 10 11  1  0  0  0  0
 11 12  1  0  0  0  0
 12 13  1  0  0  0  0
 13 14  1  0  0  0  0
M  END
>  <CHROM.1>
167.65277424,-72.93981083,163.61995715,97.42486458,-62.89137254,-178.72339956
174.55585046,-92.67069493,176.74789600,179.48474291,64.42044672,22.07786505
0.03020387,63.69473375,2.73036440,-0.75948566,2.97193362

>  <Name>
1xpf_lig

>  <RI>
0

>  <Rbt.Current_Directory>
/home/afrankz/demos/rdock_decoys_rna/rnas/1xpf

>  <Rbt.Executable>
rbdock ($Id: //depot/dev/client3/rdock/2013.1/src/exe/rbdock.cxx#4 $)

>  <Rbt.Library>
libRbt.so (2013.1, Build901 2013/11/27)

>  <Rbt.Parameter_File>
/export/apps/rDock/src/rDock_2013.1_src/data/scripts/dock_solv.prm

>  <Rbt.Receptor>
prm/pocket_docking_5.prm

>  <SCORE>
-11.0795

>  <SCORE.INTER>
-2.74903

>  <SCORE.INTER.CONST>
1

>  <SCORE.INTER.POLAR>
-1.2977

>  <SCORE.INTER.ROT>
11

>  <SCORE.INTER.SOLV>
9.52798

>  <SCORE.INTER.VDW>
-11.6163

>  <SCORE.INTER.norm>
-0.196359

>  <SCORE.INTRA>
-8.33383

>  <SCORE.INTRA.DIHEDRAL>
-14.6629

>  <SCORE.INTRA.DIHEDRAL.0>
17.7811

>  <SCORE.INTRA.POLAR>
0

>  <SCORE.INTRA.POLAR.0>
0

>  <SCORE.INTRA.REPUL>
0

>  <SCORE.INTRA.REPUL.0>
0

>  <SCORE.INTRA.SOLV>
0.642994

>  <SCORE.INTRA.SOLV.lig_0>
-47.9565

>  <SCORE.INTRA.VDW>
-1.32388

>  <SCORE.INTRA.VDW.0>
0.515983

>  <SCORE.INTRA.norm>
-0.595274

>  <SCORE.RESTR>
0.00338212

>  <SCORE.RESTR.CAVITY>
0.00338212

>  <SCORE.RESTR.norm>
0.00024158

>  <SCORE.SYSTEM>
0

>  <SCORE.SYSTEM.CONST>
0

>  <SCORE.SYSTEM.DIHEDRAL>
0

>  <SCORE.SYSTEM.SOLV>
0

>  <SCORE.SYSTEM.norm>
0

>  <SCORE.heavy>
14

>  <SCORE.norm>
-0.791391

>  <RMSD>
4.755

$$$$
1xpf_lig
 OpenBabel02141814123D
libRbt.so/2013.1/901 2013/11/27
 14 13  0  0  0  0  0  0  0  0999 V2000
   24.4498    3.3587   58.5088 N   0  0  0  0  0  0  0  0  0  0  0  0
   24.6208    1.9243   58.6482 C   0  0  0  0  0  0  0  0  0  0  0  0
   24.5268    1.5133   60.0688 C   0  0  0  0  0  0  0  0  0  0  0  0
   23.0988    1.7040   60.4759 C   0  0  0  0  0  0  0  0  0  0  0  0
   22.3481    0.5458   59.9321 N   0  0  0  0  0  0  0  0  0  0  0  0
   20.9959    0.4531   60.5630 C   0  0  0  0  0  0  0  0  0  0  0  0
   20.9440   -0.5193   61.7541 C   0  0  0  0  0  0  0  0  0  0  0  0
   21.9672   -0.2071   62.8605 C   0  0  0  0  0  0  0  0  0  0  0  0
   21.5876   -0.9702   64.1206 C   0  0  0  0  0  0  0  0  0  0  0  0
   20.4241   -0.2507   64.6591 N   0  0  0  0  0  0  0  0  0  0  0  0
   19.8431   -0.7253   65.9463 C   0  0  0  0  0  0  0  0  0  0  0  0
   18.4241   -0.1250   65.8445 C   0  0  0  0  0  0  0  0  0  0  0  0
   17.4168   -0.4582   66.9156 C   0  0  0  0  0  0  0  0  0  0  0  0
   17.8326   -0.1272   68.2675 N   0  0  0  0  0  0  0  0  0  0  0  0
  1  2  1  0  0  0  0
  2  3  1  0  0  0  0
  3  4  1  0  0  0  0
  4  5  1  0  0  0  0
  5  6  1  0  0  0  0
  6  7  1  0  0  0  0
  7  8  1  0  0  0  0
  8  9  1  0  0  0  0
  9 10  1  0  0  0  0
 10 11  1  0  0  0  0
 11 12  1  0  0  0  0
 12 13  1  0  0  0  0
 13 14  1  0  0  0  0
M  END
>  <CHROM.1>
69.40192400,78.45783981,165.68886322,-95.83778348,55.81611481,164.91848945
-74.29080833,-177.38251375,-158.77230838,174.95368850,56.63082479,21.32000545
0.43669070,62.75460322,-0.79480613,0.61834846,1.35628743

>  <Name>
1xpf_lig

>  <RI>
0

>  <Rbt.Current_Directory>
/home/afrankz/demos/rdock_decoys_rna/rnas/1xpf

>  <Rbt.Executable>
rbdock ($Id: //depot/dev/client3/rdock/2013.1/src/exe/rbdock.cxx#4 $)

>  <Rbt.Library>
libRbt.so (2013.1, Build901 2013/11/27)

>  <Rbt.Parameter_File>
/export/apps/rDock/src/rDock_2013.1_src/data/scripts/dock_solv.prm

>  <Rbt.Receptor>
prm/pocket_docking_6.prm

>  <SCORE>
-12.402

>  <SCORE.INTER>
-5.74701

>  <SCORE.INTER.CONST>
1

>  <SCORE.INTER.POLAR>
-2.42203

>  <SCORE.INTER.ROT>
11

>  <SCORE.INTER.SOLV>
9.63754

>  <SCORE.INTER.VDW>
-9.90376

>  <SCORE.INTER.norm>
-0.410501

>  <SCORE.INTRA>
-6.65498

>  <SCORE.INTRA.DIHEDRAL>
-13.1334

>  <SCORE.INTRA.DIHEDRAL.0>
17.7811

>  <SCORE.INTRA.POLAR>
0

>  <SCORE.INTRA.POLAR.0>
0

>  <SCORE.INTRA.REPUL>
0

>  <SCORE.INTRA.REPUL.0>
0

>  <SCORE.INTRA.SOLV>
2.07839

>  <SCORE.INTRA.SOLV.lig_0>
-47.9565

>  <SCORE.INTRA.VDW>
-1.12749

>  <SCORE.INTRA.VDW.0>
0.515983

>  <SCORE.INTRA.norm>
-0.475356

>  <SCORE.RESTR>
0

>  <SCORE.RESTR.CAVITY>
0

>  <SCORE.RESTR.norm>
0

>  <SCORE.SYSTEM>
0

>  <SCORE.SYSTEM.CONST>
0

>  <SCORE.SYSTEM.DIHEDRAL>
0

>  <SCORE.SYSTEM.SOLV>
0

>  <SCORE.SYSTEM.norm>
0

>  <SCORE.heavy>
14

>  <SCORE.norm>
-0.885857

>  <RMSD>
4.773

$$$$
1xpf_lig
 OpenBabel02141814123D
libRbt.so/2013.1/901 2013/11/27
 14 13  0  0  0  0  0  0  0  0999 V2000
   23.9393    6.5663   64.1531 N   0  0  0  0  0  0  0  0  0  0  0  0
   23.4582    5.3421   64.7664 C   0  0  0  0  0  0  0  0  0  0  0  0
   22.0983    5.0047   64.2839 C   0  0  0  0  0  0  0  0  0  0  0  0
   21.6848    3.7599   65.0056 C   0  0  0  0  0  0  0  0  0  0  0  0
   20.2027    3.7810   65.0653 N   0  0  0  0  0  0  0  0  0  0  0  0
   19.6868    2.5541   65.7462 C   0  0  0  0  0  0  0  0  0  0  0  0
   20.0041    2.5125   67.2510 C   0  0  0  0  0  0  0  0  0  0  0  0
   18.9905    1.7051   68.0811 C   0  0  0  0  0  0  0  0  0  0  0  0
   18.7963    0.3392   67.4402 C   0  0  0  0  0  0  0  0  0  0  0  0
   17.7949   -0.3317   68.2820 N   0  0  0  0  0  0  0  0  0  0  0  0
   16.7777   -1.1882   67.6103 C   0  0  0  0  0  0  0  0  0  0  0  0
   16.0392   -1.7544   68.8424 C   0  0  0  0  0  0  0  0  0  0  0  0
   16.6538   -2.9114   69.5883 C   0  0  0  0  0  0  0  0  0  0  0  0
   16.6713   -4.1671   68.8581 N   0  0  0  0  0  0  0  0  0  0  0  0
  1  2  1  0  0  0  0
  2  3  1  0  0  0  0
  3  4  1  0  0  0  0
  4  5  1  0  0  0  0
  5  6  1  0  0  0  0
  6  7  1  0  0  0  0
  7  8  1  0  0  0  0
  8  9  1  0  0  0  0
  9 10  1  0  0  0  0
 10 11  1  0  0  0  0
 11 12  1  0  0  0  0
 12 13  1  0  0  0  0
 13 14  1  0  0  0  0
M  END
>  <CHROM.1>
-178.27002143,153.08722358,178.72570403,69.11514859,152.25806791,50.66094321
-178.61272396,142.07546496,175.77947015,-80.27849494,-68.48182605,19.48550120
1.51517285,66.78392361,-0.92366742,0.36183891,2.37407295

>  <Name>
1xpf_lig

>  <RI>
0

>  <Rbt.Current_Directory>
/home/afrankz/demos/rdock_decoys_rna/rnas/1xpf

>  <Rbt.Executable>
rbdock ($Id: //depot/dev/client3/rdock/2013.1/src/exe/rbdock.cxx#4 $)

>  <Rbt.Library>
libRbt.so (2013.1, Build901 2013/11/27)

>  <Rbt.Parameter_File>
/export/apps/rDock/src/rDock_2013.1_src/data/scripts/dock_solv.prm

>  <Rbt.Receptor>
prm/blind_docking_100.prm

>  <SCORE>
-10.0271

>  <SCORE.INTER>
-5.44737

>  <SCORE.INTER.CONST>
1

>  <SCORE.INTER.POLAR>
-1.26397

>  <SCORE.INTER.ROT>
11

>  <SCORE.INTER.SOLV>
13.6319

>  <SCORE.INTER.VDW>
-14.8956

>  <SCORE.INTER.norm>
-0.389098

>  <SCORE.INTRA>
-4.59418

>  <SCORE.INTRA.DIHEDRAL>
-10.0461

>  <SCORE.INTRA.DIHEDRAL.0>
17.7811

>  <SCORE.INTRA.POLAR>
0

>  <SCORE.INTRA.POLAR.0>
0

>  <SCORE.INTRA.REPUL>
0

>  <SCORE.INTRA.REPUL.0>
0

>  <SCORE.INTRA.SOLV>
0.501461

>  <SCORE.INTRA.SOLV.lig_0>
-47.9565

>  <SCORE.INTRA.VDW>
0.178117

>  <SCORE.INTRA.VDW.0>
0.515983

>  <SCORE.INTRA.norm>
-0.328156

>  <SCORE.RESTR>
0.0144472

>  <SCORE.RESTR.CAVITY>
0.0144472

>  <SCORE.RESTR.norm>
0.00103194

>  <SCORE.SYSTEM>
0

>  <SCORE.SYSTEM.CONST>
0

>  <SCORE.SYSTEM.DIHEDRAL>
0

>  <SCORE.SYSTEM.SOLV>
0

>  <SCORE.SYSTEM.norm>
0

>  <SCORE.heavy>
14

>  <SCORE.norm>
-0.716222

>  <RMSD>
4.793

$$$$
1xpf_lig
 OpenBabel02141814123D
libRbt.so/2013.1/901 2013/11/27
 14 13  0  0  0  0  0  0  0  0999 V2000
   21.8394    2.5753   58.9363 N   0  0  0  0  0  0  0  0  0  0  0  0
   21.2981    2.4508   60.2771 C   0  0  0  0  0  0  0  0  0  0  0  0
   19.9482    1.8402   60.2508 C   0  0  0  0  0  0  0  0  0  0  0  0
   20.1276    0.4245   59.7980 C   0  0  0  0  0  0  0  0  0  0  0  0
   20.6720   -0.3225   60.9584 N   0  0  0  0  0  0  0  0  0  0  0  0
   21.8820   -1.1044   60.5590 C   0  0  0  0  0  0  0  0  0  0  0  0
   22.3042   -2.1511   61.6045 C   0  0  0  0  0  0  0  0  0  0  0  0
   22.3877   -1.6020   63.0398 C   0  0  0  0  0  0  0  0  0  0  0  0
   21.0159   -1.6968   63.6906 C   0  0  0  0  0  0  0  0  0  0  0  0
   20.9908   -0.6045   64.6743 N   0  0  0  0  0  0  0  0  0  0  0  0
   20.0555   -0.7240   65.8278 C   0  0  0  0  0  0  0  0  0  0  0  0
   20.0853    0.7265   66.3564 C   0  0  0  0  0  0  0  0  0  0  0  0
   19.4144    1.0335   67.6712 C   0  0  0  0  0  0  0  0  0  0  0  0
   17.9846    0.7787   67.7001 N   0  0  0  0  0  0  0  0  0  0  0  0
  1  2  1  0  0  0  0
  2  3  1  0  0  0  0
  3  4  1  0  0  0  0
  4  5  1  0  0  0  0
  5  6  1  0  0  0  0
  6  7  1  0  0  0  0
  7  8  1  0  0  0  0
  8  9  1  0  0  0  0
  9 10  1  0  0  0  0
 10 11  1  0  0  0  0
 11 12  1  0  0  0  0
 12 13  1  0  0  0  0
 13 14  1  0  0  0  0
M  END
>  <CHROM.1>
67.27989675,76.03031599,-129.63712242,-166.42696586,-48.78622443,86.84814759
-151.72825248,-156.41319412,-166.02403625,-171.31414364,-61.56956718,20.71483430
0.11580601,62.95311508,1.04393521,1.04643703,-1.02123379

>  <Name>
1xpf_lig

>  <RI>
0

>  <Rbt.Current_Directory>
/home/afrankz/demos/rdock_decoys_rna/rnas/1xpf

>  <Rbt.Executable>
rbdock ($Id: //depot/dev/client3/rdock/2013.1/src/exe/rbdock.cxx#4 $)

>  <Rbt.Library>
libRbt.so (2013.1, Build901 2013/11/27)

>  <Rbt.Parameter_File>
/export/apps/rDock/src/rDock_2013.1_src/data/scripts/dock_solv.prm

>  <Rbt.Receptor>
prm/pocket_docking_4.prm

>  <SCORE>
-9.28201

>  <SCORE.INTER>
-5.11644

>  <SCORE.INTER.CONST>
1

>  <SCORE.INTER.POLAR>
-1.68688

>  <SCORE.INTER.ROT>
11

>  <SCORE.INTER.SOLV>
15.3027

>  <SCORE.INTER.VDW>
-13.8223

>  <SCORE.INTER.norm>
-0.36546

>  <SCORE.INTRA>
-4.26563

>  <SCORE.INTRA.DIHEDRAL>
-9.02018

>  <SCORE.INTRA.DIHEDRAL.0>
17.7811

>  <SCORE.INTRA.POLAR>
0

>  <SCORE.INTRA.POLAR.0>
0

>  <SCORE.INTRA.REPUL>
0

>  <SCORE.INTRA.REPUL.0>
0

>  <SCORE.INTRA.SOLV>
3.25724

>  <SCORE.INTRA.SOLV.lig_0>
-47.9565

>  <SCORE.INTRA.VDW>
-1.38416

>  <SCORE.INTRA.VDW.0>
0.515983

>  <SCORE.INTRA.norm>
-0.304688

>  <SCORE.RESTR>
0.10005

>  <SCORE.RESTR.CAVITY>
0.10005

>  <SCORE.RESTR.norm>
0.00714646

>  <SCORE.SYSTEM>
0

>  <SCORE.SYSTEM.CONST>
0

>  <SCORE.SYSTEM.DIHEDRAL>
0

>  <SCORE.SYSTEM.SOLV>
0

>  <SCORE.SYSTEM.norm>
0

>  <SCORE.heavy>
14

>  <SCORE.norm>
-0.663001

>  <RMSD>
4.794

$$$$
1xpf_lig
 OpenBabel02141814123D
libRbt.so/2013.1/901 2013/11/27
 14 13  0  0  0  0  0  0  0  0999 V2000
   20.2425    3.3106   68.4932 N   0  0  0  0  0  0  0  0  0  0  0  0
   19.6198    2.4405   67.5127 C   0  0  0  0  0  0  0  0  0  0  0  0
   19.3007    1.1187   68.1017 C   0  0  0  0  0  0  0  0  0  0  0  0
   18.5808    0.3414   67.0439 C   0  0  0  0  0  0  0  0  0  0  0  0
   18.1510   -0.9302   67.6754 N   0  0  0  0  0  0  0  0  0  0  0  0
   16.7581   -1.2791   67.2592 C   0  0  0  0  0  0  0  0  0  0  0  0
   16.6792   -2.5527   66.3998 C   0  0  0  0  0  0  0  0  0  0  0  0
   17.4618   -2.4636   65.0777 C   0  0  0  0  0  0  0  0  0  0  0  0
   17.4202   -3.8155   64.3814 C   0  0  0  0  0  0  0  0  0  0  0  0
   18.3598   -3.6883   63.2578 N   0  0  0  0  0  0  0  0  0  0  0  0
   19.4589   -4.6881   63.1491 C   0  0  0  0  0  0  0  0  0  0  0  0
   20.6016   -3.9160   63.8435 C   0  0  0  0  0  0  0  0  0  0  0  0
   21.0703   -2.6162   63.2403 C   0  0  0  0  0  0  0  0  0  0  0  0
   22.1005   -1.9284   63.9993 N   0  0  0  0  0  0  0  0  0  0  0  0
  1  2  1  0  0  0  0
  2  3  1  0  0  0  0
  3  4  1  0  0  0  0
  4  5  1  0  0  0  0
  5  6  1  0  0  0  0
  6  7  1  0  0  0  0
  7  8  1  0  0  0  0
  8  9  1  0  0  0  0
  9 10  1  0  0  0  0
 10 11  1  0  0  0  0
 11 12  1  0  0  0  0
 12 13  1  0  0  0  0
 13 14  1  0  0  0  0
M  END
>  <CHROM.1>
176.08254381,-174.80741935,137.90444305,113.83689233,-60.82341307,174.68612880
-171.27544072,125.00801771,-95.89220463,-61.96176768,177.00022478,18.98579455
-1.47647528,65.67384802,-1.59044455,-0.40853792,-2.47936579

>  <Name>
1xpf_lig

>  <RI>
0

>  <Rbt.Current_Directory>
/home/afrankz/demos/rdock_decoys_rna/rnas/1xpf

>  <Rbt.Executable>
rbdock ($Id: //depot/dev/client3/rdock/2013.1/src/exe/rbdock.cxx#4 $)

>  <Rbt.Library>
libRbt.so (2013.1, Build901 2013/11/27)

>  <Rbt.Parameter_File>
/export/apps/rDock/src/rDock_2013.1_src/data/scripts/dock_solv.prm

>  <Rbt.Receptor>
prm/pocket_docking_6.prm

>  <SCORE>
-15.872

>  <SCORE.INTER>
-7.63688

>  <SCORE.INTER.CONST>
1

>  <SCORE.INTER.POLAR>
-0.8

>  <SCORE.INTER.ROT>
11

>  <SCORE.INTER.SOLV>
10.5694

>  <SCORE.INTER.VDW>
-16.8811

>  <SCORE.INTER.norm>
-0.545492

>  <SCORE.INTRA>
-8.2351

>  <SCORE.INTRA.DIHEDRAL>
-13.0843

>  <SCORE.INTRA.DIHEDRAL.0>
17.7811

>  <SCORE.INTRA.POLAR>
0

>  <SCORE.INTRA.POLAR.0>
0

>  <SCORE.INTRA.REPUL>
0

>  <SCORE.INTRA.REPUL.0>
0

>  <SCORE.INTRA.SOLV>
-0.0489139

>  <SCORE.INTRA.SOLV.lig_0>
-47.9565

>  <SCORE.INTRA.VDW>
-1.66851

>  <SCORE.INTRA.VDW.0>
0.515983

>  <SCORE.INTRA.norm>
-0.588221

>  <SCORE.RESTR>
0

>  <SCORE.RESTR.CAVITY>
0

>  <SCORE.RESTR.norm>
0

>  <SCORE.SYSTEM>
0

>  <SCORE.SYSTEM.CONST>
0

>  <SCORE.SYSTEM.DIHEDRAL>
0

>  <SCORE.SYSTEM.SOLV>
0

>  <SCORE.SYSTEM.norm>
0

>  <SCORE.heavy>
14

>  <SCORE.norm>
-1.13371

>  <RMSD>
4.804

$$$$
1xpf_lig
 OpenBabel02141814123D
libRbt.so/2013.1/901 2013/11/27
 14 13  0  0  0  0  0  0  0  0999 V2000
   18.1557    0.7329   67.8611 N   0  0  0  0  0  0  0  0  0  0  0  0
   19.5304    1.1856   67.7541 C   0  0  0  0  0  0  0  0  0  0  0  0
   20.0146    1.0891   66.3569 C   0  0  0  0  0  0  0  0  0  0  0  0
   20.1956   -0.3684   66.0664 C   0  0  0  0  0  0  0  0  0  0  0  0
   21.0461   -0.4533   64.8539 N   0  0  0  0  0  0  0  0  0  0  0  0
   20.2703   -1.0155   63.7063 C   0  0  0  0  0  0  0  0  0  0  0  0
   21.0103   -0.9132   62.3614 C   0  0  0  0  0  0  0  0  0  0  0  0
   20.1847   -1.3964   61.1558 C   0  0  0  0  0  0  0  0  0  0  0  0
   20.9920   -1.1893   59.8832 C   0  0  0  0  0  0  0  0  0  0  0  0
   21.1384    0.2688   59.7645 N   0  0  0  0  0  0  0  0  0  0  0  0
   19.8993    1.0896   59.6622 C   0  0  0  0  0  0  0  0  0  0  0  0
   20.4533    2.4737   60.0644 C   0  0  0  0  0  0  0  0  0  0  0  0
   21.0161    2.6548   61.4513 C   0  0  0  0  0  0  0  0  0  0  0  0
   21.4897    3.9959   61.7466 N   0  0  0  0  0  0  0  0  0  0  0  0
  1  2  1  0  0  0  0
  2  3  1  0  0  0  0
  3  4  1  0  0  0  0
  4  5  1  0  0  0  0
  5  6  1  0  0  0  0
  6  7  1  0  0  0  0
  7  8  1  0  0  0  0
  8  9  1  0  0  0  0
  9 10  1  0  0  0  0
 10 11  1  0  0  0  0
 11 12  1  0  0  0  0
 12 13  1  0  0  0  0
 13 14  1  0  0  0  0
M  END
>  <CHROM.1>
-71.93569583,-163.39953889,-113.13207492,170.27655920,-175.89373890,177.45411852
-65.04942037,-59.85941105,160.71936636,-62.90655864,-178.88173874,20.38544080
0.58221242,63.04895914,-3.01392076,-1.38621105,-2.95994288

>  <Name>
1xpf_lig

>  <RI>
0

>  <Rbt.Current_Directory>
/home/afrankz/demos/rdock_decoys_rna/rnas/1xpf

>  <Rbt.Executable>
rbdock ($Id: //depot/dev/client3/rdock/2013.1/src/exe/rbdock.cxx#4 $)

>  <Rbt.Library>
libRbt.so (2013.1, Build901 2013/11/27)

>  <Rbt.Parameter_File>
/export/apps/rDock/src/rDock_2013.1_src/data/scripts/dock_solv.prm

>  <Rbt.Receptor>
prm/pocket_docking_6.prm

>  <SCORE>
-9.05711

>  <SCORE.INTER>
-2.22696

>  <SCORE.INTER.CONST>
1

>  <SCORE.INTER.POLAR>
-1.20606

>  <SCORE.INTER.ROT>
11

>  <SCORE.INTER.SOLV>
12.5885

>  <SCORE.INTER.VDW>
-12.5939

>  <SCORE.INTER.norm>
-0.159069

>  <SCORE.INTRA>
-6.83015

>  <SCORE.INTRA.DIHEDRAL>
-14.5392

>  <SCORE.INTRA.DIHEDRAL.0>
17.7811

>  <SCORE.INTRA.POLAR>
0

>  <SCORE.INTRA.POLAR.0>
0

>  <SCORE.INTRA.REPUL>
0

>  <SCORE.INTRA.REPUL.0>
0

>  <SCORE.INTRA.SOLV>
0.751066

>  <SCORE.INTRA.SOLV.lig_0>
-47.9565

>  <SCORE.INTRA.VDW>
0.0639308

>  <SCORE.INTRA.VDW.0>
0.515983

>  <SCORE.INTRA.norm>
-0.487868

>  <SCORE.RESTR>
0

>  <SCORE.RESTR.CAVITY>
0

>  <SCORE.RESTR.norm>
0

>  <SCORE.SYSTEM>
0

>  <SCORE.SYSTEM.CONST>
0

>  <SCORE.SYSTEM.DIHEDRAL>
0

>  <SCORE.SYSTEM.SOLV>
0

>  <SCORE.SYSTEM.norm>
0

>  <SCORE.heavy>
14

>  <SCORE.norm>
-0.646936

>  <RMSD>
4.827

$$$$
1xpf_lig
 OpenBabel02141814123D
libRbt.so/2013.1/901 2013/11/27
 14 13  0  0  0  0  0  0  0  0999 V2000
   22.2590    3.8689   58.9409 N   0  0  0  0  0  0  0  0  0  0  0  0
   21.8347    4.5030   60.1754 C   0  0  0  0  0  0  0  0  0  0  0  0
   22.6451    5.7108   60.4585 C   0  0  0  0  0  0  0  0  0  0  0  0
   22.0487    6.3513   61.6732 C   0  0  0  0  0  0  0  0  0  0  0  0
   22.2248    5.3870   62.7866 N   0  0  0  0  0  0  0  0  0  0  0  0
   20.9595    5.2540   63.5716 C   0  0  0  0  0  0  0  0  0  0  0  0
   21.0341    4.1812   64.6718 C   0  0  0  0  0  0  0  0  0  0  0  0
   19.7336    4.0229   65.4792 C   0  0  0  0  0  0  0  0  0  0  0  0
   19.9623    3.0226   66.6023 C   0  0  0  0  0  0  0  0  0  0  0  0
   20.0896    1.7228   65.9273 N   0  0  0  0  0  0  0  0  0  0  0  0
   19.8327    0.4920   66.7265 C   0  0  0  0  0  0  0  0  0  0  0  0
   20.3728   -0.5820   65.7574 C   0  0  0  0  0  0  0  0  0  0  0  0
   19.6782   -0.7803   64.4341 C   0  0  0  0  0  0  0  0  0  0  0  0
   20.2165   -1.8549   63.6182 N   0  0  0  0  0  0  0  0  0  0  0  0
  1  2  1  0  0  0  0
  2  3  1  0  0  0  0
  3  4  1  0  0  0  0
  4  5  1  0  0  0  0
  5  6  1  0  0  0  0
  6  7  1  0  0  0  0
  7  8  1  0  0  0  0
  8  9  1  0  0  0  0
  9 10  1  0  0  0  0
 10 11  1  0  0  0  0
 11 12  1  0  0  0  0
 12 13  1  0  0  0  0
 13 14  1  0  0  0  0
M  END
>  <CHROM.1>
174.95627657,64.01074392,-134.15961529,175.18879857,-179.40776482,-175.44282647
-70.37293691,-158.33129413,-167.99680780,-64.73709928,-177.15262533,20.92071778
2.95022732,63.63053259,-0.35572011,-1.24821166,-2.68122809

>  <Name>
1xpf_lig

>  <RI>
0

>  <Rbt.Current_Directory>
/home/afrankz/demos/rdock_decoys_rna/rnas/1xpf

>  <Rbt.Executable>
rbdock ($Id: //depot/dev/client3/rdock/2013.1/src/exe/rbdock.cxx#4 $)

>  <Rbt.Library>
libRbt.so (2013.1, Build901 2013/11/27)

>  <Rbt.Parameter_File>
/export/apps/rDock/src/rDock_2013.1_src/data/scripts/dock_solv.prm

>  <Rbt.Receptor>
prm/pocket_docking_3.prm

>  <SCORE>
-9.69117

>  <SCORE.INTER>
-1.21665

>  <SCORE.INTER.CONST>
1

>  <SCORE.INTER.POLAR>
-0.846068

>  <SCORE.INTER.ROT>
11

>  <SCORE.INTER.SOLV>
8.87871

>  <SCORE.INTER.VDW>
-11.8838

>  <SCORE.INTER.norm>
-0.0869034

>  <SCORE.INTRA>
-8.4783

>  <SCORE.INTRA.DIHEDRAL>
-15.5019

>  <SCORE.INTRA.DIHEDRAL.0>
17.7811

>  <SCORE.INTRA.POLAR>
0

>  <SCORE.INTRA.POLAR.0>
0

>  <SCORE.INTRA.REPUL>
0

>  <SCORE.INTRA.REPUL.0>
0

>  <SCORE.INTRA.SOLV>
0.529398

>  <SCORE.INTRA.SOLV.lig_0>
-47.9565

>  <SCORE.INTRA.VDW>
-0.992057

>  <SCORE.INTRA.VDW.0>
0.515983

>  <SCORE.INTRA.norm>
-0.605593

>  <SCORE.RESTR>
0.0037727

>  <SCORE.RESTR.CAVITY>
0.0037727

>  <SCORE.RESTR.norm>
0.000269479

>  <SCORE.SYSTEM>
0

>  <SCORE.SYSTEM.CONST>
0

>  <SCORE.SYSTEM.DIHEDRAL>
0

>  <SCORE.SYSTEM.SOLV>
0

>  <SCORE.SYSTEM.norm>
0

>  <SCORE.heavy>
14

>  <SCORE.norm>
-0.692227

>  <RMSD>
4.839

$$$$
1xpf_lig
 OpenBabel02141814123D
libRbt.so/2013.1/901 2013/11/27
 14 13  0  0  0  0  0  0  0  0999 V2000
   16.2836   -4.0433   69.8947 N   0  0  0  0  0  0  0  0  0  0  0  0
   16.9665   -3.1570   68.9704 C   0  0  0  0  0  0  0  0  0  0  0  0
   16.1164   -1.9939   68.6231 C   0  0  0  0  0  0  0  0  0  0  0  0
   16.8731   -1.1999   67.6042 C   0  0  0  0  0  0  0  0  0  0  0  0
   17.7700   -0.2915   68.3599 N   0  0  0  0  0  0  0  0  0  0  0  0
   18.6056    0.5207   67.4235 C   0  0  0  0  0  0  0  0  0  0  0  0
   19.1147    1.8337   68.0429 C   0  0  0  0  0  0  0  0  0  0  0  0
   19.8449    2.7523   67.0472 C   0  0  0  0  0  0  0  0  0  0  0  0
   20.0851    4.1051   67.7003 C   0  0  0  0  0  0  0  0  0  0  0  0
   20.5629    4.9686   66.6106 N   0  0  0  0  0  0  0  0  0  0  0  0
   19.5471    5.6918   65.7952 C   0  0  0  0  0  0  0  0  0  0  0  0
   19.3565    4.6860   64.6393 C   0  0  0  0  0  0  0  0  0  0  0  0
   20.5495    4.3171   63.7944 C   0  0  0  0  0  0  0  0  0  0  0  0
   20.2760    3.3557   62.7404 N   0  0  0  0  0  0  0  0  0  0  0  0
  1  2  1  0  0  0  0
  2  3  1  0  0  0  0
  3  4  1  0  0  0  0
  4  5  1  0  0  0  0
  5  6  1  0  0  0  0
  6  7  1  0  0  0  0
  7  8  1  0  0  0  0
  8  9  1  0  0  0  0
  9 10  1  0  0  0  0
 10 11  1  0  0  0  0
 11 12  1  0  0  0  0
 12 13  1  0  0  0  0
 13 14  1  0  0  0  0
M  END
>  <CHROM.1>
-176.33420139,-85.83952361,178.24577751,156.54409479,-173.64270731,170.25253909
-170.40396574,87.93922567,-93.21825358,-59.56583987,179.45154607,18.71085437
1.53919210,66.94616474,2.80053362,1.14700209,1.44555873

>  <Name>
1xpf_lig

>  <RI>
0

>  <Rbt.Current_Directory>
/home/afrankz/demos/rdock_decoys_rna/rnas/1xpf

>  <Rbt.Executable>
rbdock ($Id: //depot/dev/client3/rdock/2013.1/src/exe/rbdock.cxx#4 $)

>  <Rbt.Library>
libRbt.so (2013.1, Build901 2013/11/27)

>  <Rbt.Parameter_File>
/export/apps/rDock/src/rDock_2013.1_src/data/scripts/dock_solv.prm

>  <Rbt.Receptor>
prm/pocket_docking_7.prm

>  <SCORE>
-16.3462

>  <SCORE.INTER>
-9.14258

>  <SCORE.INTER.CONST>
1

>  <SCORE.INTER.POLAR>
-1.44869

>  <SCORE.INTER.ROT>
11

>  <SCORE.INTER.SOLV>
10.413

>  <SCORE.INTER.VDW>
-15.6704

>  <SCORE.INTER.norm>
-0.653041

>  <SCORE.INTRA>
-7.2036

>  <SCORE.INTRA.DIHEDRAL>
-13.0455

>  <SCORE.INTRA.DIHEDRAL.0>
17.7811

>  <SCORE.INTRA.POLAR>
0

>  <SCORE.INTRA.POLAR.0>
0

>  <SCORE.INTRA.REPUL>
0

>  <SCORE.INTRA.REPUL.0>
0

>  <SCORE.INTRA.SOLV>
0.153091

>  <SCORE.INTRA.SOLV.lig_0>
-47.9565

>  <SCORE.INTRA.VDW>
-0.75739

>  <SCORE.INTRA.VDW.0>
0.515983

>  <SCORE.INTRA.norm>
-0.514543

>  <SCORE.RESTR>
0

>  <SCORE.RESTR.CAVITY>
0

>  <SCORE.RESTR.norm>
0

>  <SCORE.SYSTEM>
0

>  <SCORE.SYSTEM.CONST>
0

>  <SCORE.SYSTEM.DIHEDRAL>
0

>  <SCORE.SYSTEM.SOLV>
0

>  <SCORE.SYSTEM.norm>
0

>  <SCORE.heavy>
14

>  <SCORE.norm>
-1.16758

>  <RMSD>
4.851

$$$$
1xpf_lig
 OpenBabel02141814123D
libRbt.so/2013.1/901 2013/11/27
 14 13  0  0  0  0  0  0  0  0999 V2000
   14.6510   -6.0555   59.6994 N   0  0  0  0  0  0  0  0  0  0  0  0
   15.5497   -6.9719   60.3766 C   0  0  0  0  0  0  0  0  0  0  0  0
   15.5193   -6.7599   61.8429 C   0  0  0  0  0  0  0  0  0  0  0  0
   16.1322   -5.4173   62.0940 C   0  0  0  0  0  0  0  0  0  0  0  0
   16.0040   -5.1619   63.5497 N   0  0  0  0  0  0  0  0  0  0  0  0
   16.6527   -3.8655   63.9148 C   0  0  0  0  0  0  0  0  0  0  0  0
   16.4247   -3.4612   65.3816 C   0  0  0  0  0  0  0  0  0  0  0  0
   17.2404   -2.2339   65.8254 C   0  0  0  0  0  0  0  0  0  0  0  0
   16.9577   -1.9512   67.2931 C   0  0  0  0  0  0  0  0  0  0  0  0
   18.0835   -1.1171   67.7385 N   0  0  0  0  0  0  0  0  0  0  0  0
   18.0981    0.3148   67.3272 C   0  0  0  0  0  0  0  0  0  0  0  0
   19.6053    0.5055   67.0516 C   0  0  0  0  0  0  0  0  0  0  0  0
   20.2262   -0.2164   65.8827 C   0  0  0  0  0  0  0  0  0  0  0  0
   19.7486    0.2106   64.5790 N   0  0  0  0  0  0  0  0  0  0  0  0
  1  2  1  0  0  0  0
  2  3  1  0  0  0  0
  3  4  1  0  0  0  0
  4  5  1  0  0  0  0
  5  6  1  0  0  0  0
  6  7  1  0  0  0  0
  7  8  1  0  0  0  0
  8  9  1  0  0  0  0
  9 10  1  0  0  0  0
 10 11  1  0  0  0  0
 11 12  1  0  0  0  0
 12 13  1  0  0  0  0
 13 14  1  0  0  0  0
M  END
>  <CHROM.1>
-67.86260332,175.66883635,177.15213248,173.67261026,172.09875197,-178.71091866
160.67244363,75.80020872,-141.50472920,67.67855891,65.78364795,17.20670873
-3.01291385,64.46855408,-2.16150648,0.80334284,1.19806874

>  <Name>
1xpf_lig

>  <RI>
0

>  <Rbt.Current_Directory>
/home/afrankz/demos/rdock_decoys_rna/rnas/1xpf

>  <Rbt.Executable>
rbdock ($Id: //depot/dev/client3/rdock/2013.1/src/exe/rbdock.cxx#4 $)

>  <Rbt.Library>
libRbt.so (2013.1, Build901 2013/11/27)

>  <Rbt.Parameter_File>
/export/apps/rDock/src/rDock_2013.1_src/data/scripts/dock_solv.prm

>  <Rbt.Receptor>
prm/pocket_docking_5.prm

>  <SCORE>
-10.5358

>  <SCORE.INTER>
-3.27778

>  <SCORE.INTER.CONST>
1

>  <SCORE.INTER.POLAR>
-0.8

>  <SCORE.INTER.ROT>
11

>  <SCORE.INTER.SOLV>
6.54142

>  <SCORE.INTER.VDW>
-12.6323

>  <SCORE.INTER.norm>
-0.234127

>  <SCORE.INTRA>
-7.26293

>  <SCORE.INTRA.DIHEDRAL>
-14.5063

>  <SCORE.INTRA.DIHEDRAL.0>
17.7811

>  <SCORE.INTRA.POLAR>
0

>  <SCORE.INTRA.POLAR.0>
0

>  <SCORE.INTRA.REPUL>
0

>  <SCORE.INTRA.REPUL.0>
0

>  <SCORE.INTRA.SOLV>
2.35032

>  <SCORE.INTRA.SOLV.lig_0>
-47.9565

>  <SCORE.INTRA.VDW>
-1.18495

>  <SCORE.INTRA.VDW.0>
0.515983

>  <SCORE.INTRA.norm>
-0.518781

>  <SCORE.RESTR>
0.00488164

>  <SCORE.RESTR.CAVITY>
0.00488164

>  <SCORE.RESTR.norm>
0.000348688

>  <SCORE.SYSTEM>
0

>  <SCORE.SYSTEM.CONST>
0

>  <SCORE.SYSTEM.DIHEDRAL>
0

>  <SCORE.SYSTEM.SOLV>
0

>  <SCORE.SYSTEM.norm>
0

>  <SCORE.heavy>
14

>  <SCORE.norm>
-0.752559

>  <RMSD>
4.861

$$$$
1xpf_lig
 OpenBabel02141814123D
libRbt.so/2013.1/901 2013/11/27
 14 13  0  0  0  0  0  0  0  0999 V2000
   20.6902    3.7810   69.9110 N   0  0  0  0  0  0  0  0  0  0  0  0
   20.0067    3.1983   68.7711 C   0  0  0  0  0  0  0  0  0  0  0  0
   19.4416    1.8714   69.1115 C   0  0  0  0  0  0  0  0  0  0  0  0
   18.8117    1.3410   67.8612 C   0  0  0  0  0  0  0  0  0  0  0  0
   18.1061    0.0930   68.2424 N   0  0  0  0  0  0  0  0  0  0  0  0
   17.9679   -0.8140   67.0621 C   0  0  0  0  0  0  0  0  0  0  0  0
   16.5317   -0.8896   66.5158 C   0  0  0  0  0  0  0  0  0  0  0  0
   16.3806   -1.7919   65.2783 C   0  0  0  0  0  0  0  0  0  0  0  0
   16.6133   -3.2392   65.6849 C   0  0  0  0  0  0  0  0  0  0  0  0
   16.6370   -3.9858   64.4186 N   0  0  0  0  0  0  0  0  0  0  0  0
   17.6396   -5.0776   64.2696 C   0  0  0  0  0  0  0  0  0  0  0  0
   18.1556   -4.7834   62.8443 C   0  0  0  0  0  0  0  0  0  0  0  0
   18.9160   -3.5052   62.5974 C   0  0  0  0  0  0  0  0  0  0  0  0
   20.1777   -3.3993   63.3096 N   0  0  0  0  0  0  0  0  0  0  0  0
  1  2  1  0  0  0  0
  2  3  1  0  0  0  0
  3  4  1  0  0  0  0
  4  5  1  0  0  0  0
  5  6  1  0  0  0  0
  6  7  1  0  0  0  0
  7  8  1  0  0  0  0
  8  9  1  0  0  0  0
  9 10  1  0  0  0  0
 10 11  1  0  0  0  0
 11 12  1  0  0  0  0
 12 13  1  0  0  0  0
 13 14  1  0  0  0  0
M  END
>  <CHROM.1>
-177.81991255,-173.29677903,-154.98498531,-107.24463533,178.53155983,67.95854791
-172.23470040,139.95311431,-135.54780582,65.99073565,63.87963820,18.29088370
-1.22881823,66.13399886,-1.35407808,-0.36871884,-2.38422419

>  <Name>
1xpf_lig

>  <RI>
0

>  <Rbt.Current_Directory>
/home/afrankz/demos/rdock_decoys_rna/rnas/1xpf

>  <Rbt.Executable>
rbdock ($Id: //depot/dev/client3/rdock/2013.1/src/exe/rbdock.cxx#4 $)

>  <Rbt.Library>
libRbt.so (2013.1, Build901 2013/11/27)

>  <Rbt.Parameter_File>
/export/apps/rDock/src/rDock_2013.1_src/data/scripts/dock_solv.prm

>  <Rbt.Receptor>
prm/pocket_docking_6.prm

>  <SCORE>
-15.0486

>  <SCORE.INTER>
-7.46334

>  <SCORE.INTER.CONST>
1

>  <SCORE.INTER.POLAR>
-1.41771

>  <SCORE.INTER.ROT>
11

>  <SCORE.INTER.SOLV>
10.2909

>  <SCORE.INTER.VDW>
-14.6135

>  <SCORE.INTER.norm>
-0.533096

>  <SCORE.INTRA>
-7.58528

>  <SCORE.INTRA.DIHEDRAL>
-13.479

>  <SCORE.INTRA.DIHEDRAL.0>
17.7811

>  <SCORE.INTRA.POLAR>
0

>  <SCORE.INTRA.POLAR.0>
0

>  <SCORE.INTRA.REPUL>
0

>  <SCORE.INTRA.REPUL.0>
0

>  <SCORE.INTRA.SOLV>
1.20877

>  <SCORE.INTRA.SOLV.lig_0>
-47.9565

>  <SCORE.INTRA.VDW>
-1.45018

>  <SCORE.INTRA.VDW.0>
0.515983

>  <SCORE.INTRA.norm>
-0.541806

>  <SCORE.RESTR>
0

>  <SCORE.RESTR.CAVITY>
0

>  <SCORE.RESTR.norm>
0

>  <SCORE.SYSTEM>
0

>  <SCORE.SYSTEM.CONST>
0

>  <SCORE.SYSTEM.DIHEDRAL>
0

>  <SCORE.SYSTEM.SOLV>
0

>  <SCORE.SYSTEM.norm>
0

>  <SCORE.heavy>
14

>  <SCORE.norm>
-1.0749

>  <RMSD>
4.868

$$$$
1xpf_lig
 OpenBabel02141814123D
libRbt.so/2013.1/901 2013/11/27
 14 13  0  0  0  0  0  0  0  0999 V2000
   15.2661   -4.2811   69.6446 N   0  0  0  0  0  0  0  0  0  0  0  0
   16.3910   -3.5586   70.2092 C   0  0  0  0  0  0  0  0  0  0  0  0
   16.2076   -2.0950   70.0680 C   0  0  0  0  0  0  0  0  0  0  0  0
   16.2778   -1.7942   68.6031 C   0  0  0  0  0  0  0  0  0  0  0  0
   17.2906   -0.7223   68.4418 N   0  0  0  0  0  0  0  0  0  0  0  0
   17.5875   -0.4936   66.9946 C   0  0  0  0  0  0  0  0  0  0  0  0
   18.7614    0.4724   66.7581 C   0  0  0  0  0  0  0  0  0  0  0  0
   19.0926    0.7011   65.2727 C   0  0  0  0  0  0  0  0  0  0  0  0
   20.2015    1.7367   65.1626 C   0  0  0  0  0  0  0  0  0  0  0  0
   20.4298    1.8904   63.7184 N   0  0  0  0  0  0  0  0  0  0  0  0
   21.5020    2.8252   63.2758 C   0  0  0  0  0  0  0  0  0  0  0  0
   21.5326    2.5115   61.7642 C   0  0  0  0  0  0  0  0  0  0  0  0
   21.9682    1.1393   61.3167 C   0  0  0  0  0  0  0  0  0  0  0  0
   22.0432    0.9629   59.8767 N   0  0  0  0  0  0  0  0  0  0  0  0
  1  2  1  0  0  0  0
  2  3  1  0  0  0  0
  3  4  1  0  0  0  0
  4  5  1  0  0  0  0
  5  6  1  0  0  0  0
  6  7  1  0  0  0  0
  7  8  1  0  0  0  0
  8  9  1  0  0  0  0
  9 10  1  0  0  0  0
 10 11  1  0  0  0  0
 11 12  1  0  0  0  0
 12 13  1  0  0  0  0
 13 14  1  0  0  0  0
M  END
>  <CHROM.1>
-67.18428772,-127.42894631,171.37620388,-172.40354335,179.12469490,176.32658962
-179.43316087,-178.33399963,171.79110526,-65.30235013,-176.42526936,18.89661111
-0.05018822,65.79346895,3.05266407,1.02307521,0.64120044

>  <Name>
1xpf_lig

>  <RI>
0

>  <Rbt.Current_Directory>
/home/afrankz/demos/rdock_decoys_rna/rnas/1xpf

>  <Rbt.Executable>
rbdock ($Id: //depot/dev/client3/rdock/2013.1/src/exe/rbdock.cxx#4 $)

>  <Rbt.Library>
libRbt.so (2013.1, Build901 2013/11/27)

>  <Rbt.Parameter_File>
/export/apps/rDock/src/rDock_2013.1_src/data/scripts/dock_solv.prm

>  <Rbt.Receptor>
prm/pocket_docking_8.prm

>  <SCORE>
-14.6655

>  <SCORE.INTER>
-7.50677

>  <SCORE.INTER.CONST>
1

>  <SCORE.INTER.POLAR>
-2.22591

>  <SCORE.INTER.ROT>
11

>  <SCORE.INTER.SOLV>
12.9996

>  <SCORE.INTER.VDW>
-12.8513

>  <SCORE.INTER.norm>
-0.536198

>  <SCORE.INTRA>
-7.15873

>  <SCORE.INTRA.DIHEDRAL>
-11.896

>  <SCORE.INTRA.DIHEDRAL.0>
17.7811

>  <SCORE.INTRA.POLAR>
0

>  <SCORE.INTRA.POLAR.0>
0

>  <SCORE.INTRA.REPUL>
0

>  <SCORE.INTRA.REPUL.0>
0

>  <SCORE.INTRA.SOLV>
0.385934

>  <SCORE.INTRA.SOLV.lig_0>
-47.9565

>  <SCORE.INTRA.VDW>
-1.40369

>  <SCORE.INTRA.VDW.0>
0.515983

>  <SCORE.INTRA.norm>
-0.511338

>  <SCORE.RESTR>
0

>  <SCORE.RESTR.CAVITY>
0

>  <SCORE.RESTR.norm>
0

>  <SCORE.SYSTEM>
0

>  <SCORE.SYSTEM.CONST>
0

>  <SCORE.SYSTEM.DIHEDRAL>
0

>  <SCORE.SYSTEM.SOLV>
0

>  <SCORE.SYSTEM.norm>
0

>  <SCORE.heavy>
14

>  <SCORE.norm>
-1.04754

>  <RMSD>
4.868

$$$$
1xpf_lig
 OpenBabel02141814123D
libRbt.so/2013.1/901 2013/11/27
 14 13  0  0  0  0  0  0  0  0999 V2000
   17.5050   -2.1697   68.1885 N   0  0  0  0  0  0  0  0  0  0  0  0
   16.5223   -1.6136   67.2769 C   0  0  0  0  0  0  0  0  0  0  0  0
   17.1784   -0.9933   66.1019 C   0  0  0  0  0  0  0  0  0  0  0  0
   16.0833   -0.4497   65.2377 C   0  0  0  0  0  0  0  0  0  0  0  0
   16.7414    0.1405   64.0463 N   0  0  0  0  0  0  0  0  0  0  0  0
   15.9878    1.3408   63.5706 C   0  0  0  0  0  0  0  0  0  0  0  0
   16.7467    2.1562   62.5093 C   0  0  0  0  0  0  0  0  0  0  0  0
   18.1140    2.6795   62.9836 C   0  0  0  0  0  0  0  0  0  0  0  0
   18.8704    3.2491   61.7929 C   0  0  0  0  0  0  0  0  0  0  0  0
   19.1838    2.0828   60.9544 N   0  0  0  0  0  0  0  0  0  0  0  0
   20.5610    1.5193   61.0272 C   0  0  0  0  0  0  0  0  0  0  0  0
   20.3589    0.2000   60.2508 C   0  0  0  0  0  0  0  0  0  0  0  0
   21.5040   -0.7774   60.1707 C   0  0  0  0  0  0  0  0  0  0  0  0
   22.0050   -1.2359   61.4548 N   0  0  0  0  0  0  0  0  0  0  0  0
  1  2  1  0  0  0  0
  2  3  1  0  0  0  0
  3  4  1  0  0  0  0
  4  5  1  0  0  0  0
  5  6  1  0  0  0  0
  6  7  1  0  0  0  0
  7  8  1  0  0  0  0
  8  9  1  0  0  0  0
  9 10  1  0  0  0  0
 10 11  1  0  0  0  0
 11 12  1  0  0  0  0
 12 13  1  0  0  0  0
 13 14  1  0  0  0  0
M  END
>  <CHROM.1>
-179.71189982,-178.62803007,-145.99528279,169.20674789,-58.86211098,170.07682419
-68.15698502,-100.79868273,169.08695757,-174.91550376,57.98423187,18.38280067
0.43806065,63.25451674,-2.28244010,0.63891191,-0.76951013

>  <Name>
1xpf_lig

>  <RI>
0

>  <Rbt.Current_Directory>
/home/afrankz/demos/rdock_decoys_rna/rnas/1xpf

>  <Rbt.Executable>
rbdock ($Id: //depot/dev/client3/rdock/2013.1/src/exe/rbdock.cxx#4 $)

>  <Rbt.Library>
libRbt.so (2013.1, Build901 2013/11/27)

>  <Rbt.Parameter_File>
/export/apps/rDock/src/rDock_2013.1_src/data/scripts/dock_solv.prm

>  <Rbt.Receptor>
prm/pocket_docking_7.prm

>  <SCORE>
-12.7092

>  <SCORE.INTER>
-3.78296

>  <SCORE.INTER.CONST>
1

>  <SCORE.INTER.POLAR>
-0.8

>  <SCORE.INTER.ROT>
11

>  <SCORE.INTER.SOLV>
9.42673

>  <SCORE.INTER.VDW>
-13.9309

>  <SCORE.INTER.norm>
-0.270211

>  <SCORE.INTRA>
-8.92626

>  <SCORE.INTRA.DIHEDRAL>
-15.1694

>  <SCORE.INTRA.DIHEDRAL.0>
17.7811

>  <SCORE.INTRA.POLAR>
0

>  <SCORE.INTRA.POLAR.0>
0

>  <SCORE.INTRA.REPUL>
0

>  <SCORE.INTRA.REPUL.0>
0

>  <SCORE.INTRA.SOLV>
0.580127

>  <SCORE.INTRA.SOLV.lig_0>
-47.9565

>  <SCORE.INTRA.VDW>
-1.6316

>  <SCORE.INTRA.VDW.0>
0.515983

>  <SCORE.INTRA.norm>
-0.63759

>  <SCORE.RESTR>
0

>  <SCORE.RESTR.CAVITY>
0

>  <SCORE.RESTR.norm>
0

>  <SCORE.SYSTEM>
0

>  <SCORE.SYSTEM.CONST>
0

>  <SCORE.SYSTEM.DIHEDRAL>
0

>  <SCORE.SYSTEM.SOLV>
0

>  <SCORE.SYSTEM.norm>
0

>  <SCORE.heavy>
14

>  <SCORE.norm>
-0.907801

>  <RMSD>
4.887

$$$$
1xpf_lig
 OpenBabel02141814123D
libRbt.so/2013.1/901 2013/11/27
 14 13  0  0  0  0  0  0  0  0999 V2000
   16.7998   -2.1484   65.9298 N   0  0  0  0  0  0  0  0  0  0  0  0
   17.9676   -1.3211   66.1710 C   0  0  0  0  0  0  0  0  0  0  0  0
   17.6546   -0.2218   67.1140 C   0  0  0  0  0  0  0  0  0  0  0  0
   18.9252    0.5438   67.3156 C   0  0  0  0  0  0  0  0  0  0  0  0
   18.6030    1.6573   68.2414 N   0  0  0  0  0  0  0  0  0  0  0  0
   19.7667    2.5870   68.3701 C   0  0  0  0  0  0  0  0  0  0  0  0
   19.5946    3.8931   67.5755 C   0  0  0  0  0  0  0  0  0  0  0  0
   19.6121    3.7023   66.0485 C   0  0  0  0  0  0  0  0  0  0  0  0
   21.0464    3.4883   65.5890 C   0  0  0  0  0  0  0  0  0  0  0  0
   20.9395    3.1808   64.1553 N   0  0  0  0  0  0  0  0  0  0  0  0
   22.1974    3.1068   63.3605 C   0  0  0  0  0  0  0  0  0  0  0  0
   21.6941    2.3345   62.1218 C   0  0  0  0  0  0  0  0  0  0  0  0
   22.6711    2.0172   61.0183 C   0  0  0  0  0  0  0  0  0  0  0  0
   22.1034    1.3017   59.8886 N   0  0  0  0  0  0  0  0  0  0  0  0
  1  2  1  0  0  0  0
  2  3  1  0  0  0  0
  3  4  1  0  0  0  0
  4  5  1  0  0  0  0
  5  6  1  0  0  0  0
  6  7  1  0  0  0  0
  7  8  1  0  0  0  0
  8  9  1  0  0  0  0
  9 10  1  0  0  0  0
 10 11  1  0  0  0  0
 11 12  1  0  0  0  0
 12 13  1  0  0  0  0
 13 14  1  0  0  0  0
M  END
>  <CHROM.1>
178.71523219,179.04378606,-172.73792993,103.44517302,-67.98242056,-76.46966043
174.34525208,171.48680570,162.17461472,-179.65190816,-179.35798654,19.96981125
1.72325660,65.20737102,2.66965118,0.91210769,0.88523197

>  <Name>
1xpf_lig

>  <RI>
0

>  <Rbt.Current_Directory>
/home/afrankz/demos/rdock_decoys_rna/rnas/1xpf

>  <Rbt.Executable>
rbdock ($Id: //depot/dev/client3/rdock/2013.1/src/exe/rbdock.cxx#4 $)

>  <Rbt.Library>
libRbt.so (2013.1, Build901 2013/11/27)

>  <Rbt.Parameter_File>
/export/apps/rDock/src/rDock_2013.1_src/data/scripts/dock_solv.prm

>  <Rbt.Receptor>
prm/pocket_docking_6.prm

>  <SCORE>
-14.1983

>  <SCORE.INTER>
-4.77701

>  <SCORE.INTER.CONST>
1

>  <SCORE.INTER.POLAR>
-1.69443

>  <SCORE.INTER.ROT>
11

>  <SCORE.INTER.SOLV>
10.8114

>  <SCORE.INTER.VDW>
-12.0737

>  <SCORE.INTER.norm>
-0.341215

>  <SCORE.INTRA>
-9.42127

>  <SCORE.INTRA.DIHEDRAL>
-15.0099

>  <SCORE.INTRA.DIHEDRAL.0>
17.7811

>  <SCORE.INTRA.POLAR>
0

>  <SCORE.INTRA.POLAR.0>
0

>  <SCORE.INTRA.REPUL>
0

>  <SCORE.INTRA.REPUL.0>
0

>  <SCORE.INTRA.SOLV>
-0.333879

>  <SCORE.INTRA.SOLV.lig_0>
-47.9565

>  <SCORE.INTRA.VDW>
-1.74936

>  <SCORE.INTRA.VDW.0>
0.515983

>  <SCORE.INTRA.norm>
-0.672948

>  <SCORE.RESTR>
0

>  <SCORE.RESTR.CAVITY>
0

>  <SCORE.RESTR.norm>
0

>  <SCORE.SYSTEM>
0

>  <SCORE.SYSTEM.CONST>
0

>  <SCORE.SYSTEM.DIHEDRAL>
0

>  <SCORE.SYSTEM.SOLV>
0

>  <SCORE.SYSTEM.norm>
0

>  <SCORE.heavy>
14

>  <SCORE.norm>
-1.01416

>  <RMSD>
4.905

$$$$
1xpf_lig
 OpenBabel02141814123D
libRbt.so/2013.1/901 2013/11/27
 14 13  0  0  0  0  0  0  0  0999 V2000
   15.9909   -2.1746   59.3958 N   0  0  0  0  0  0  0  0  0  0  0  0
   16.8214   -2.8102   60.4020 C   0  0  0  0  0  0  0  0  0  0  0  0
   16.1681   -2.7727   61.7315 C   0  0  0  0  0  0  0  0  0  0  0  0
   17.0508   -3.5427   62.6639 C   0  0  0  0  0  0  0  0  0  0  0  0
   16.3326   -3.6147   63.9599 N   0  0  0  0  0  0  0  0  0  0  0  0
   17.0304   -2.7906   64.9938 C   0  0  0  0  0  0  0  0  0  0  0  0
   16.4973   -3.0202   66.4185 C   0  0  0  0  0  0  0  0  0  0  0  0
   17.2543   -2.2334   67.5031 C   0  0  0  0  0  0  0  0  0  0  0  0
   16.9389   -0.7524   67.3568 C   0  0  0  0  0  0  0  0  0  0  0  0
   17.9279   -0.0722   68.2057 N   0  0  0  0  0  0  0  0  0  0  0  0
   19.0786    0.5987   67.5382 C   0  0  0  0  0  0  0  0  0  0  0  0
   19.0163    1.9860   68.2133 C   0  0  0  0  0  0  0  0  0  0  0  0
   19.9316    3.0762   67.7167 C   0  0  0  0  0  0  0  0  0  0  0  0
   19.8677    4.3162   68.4706 N   0  0  0  0  0  0  0  0  0  0  0  0
  1  2  1  0  0  0  0
  2  3  1  0  0  0  0
  3  4  1  0  0  0  0
  4  5  1  0  0  0  0
  5  6  1  0  0  0  0
  6  7  1  0  0  0  0
  7  8  1  0  0  0  0
  8  9  1  0  0  0  0
  9 10  1  0  0  0  0
 10 11  1  0  0  0  0
 11 12  1  0  0  0  0
 12 13  1  0  0  0  0
 13 14  1  0  0  0  0
M  END
>  <CHROM.1>
175.64060342,-174.69387268,-111.06907663,-169.37613269,176.99965494,69.97911426
-167.18316956,103.65347703,129.92072051,-173.22483697,-175.96271058,17.56479849
-0.98643969,65.32653951,-2.42351759,1.14549217,1.71474358

>  <Name>
1xpf_lig

>  <RI>
0

>  <Rbt.Current_Directory>
/home/afrankz/demos/rdock_decoys_rna/rnas/1xpf

>  <Rbt.Executable>
rbdock ($Id: //depot/dev/client3/rdock/2013.1/src/exe/rbdock.cxx#4 $)

>  <Rbt.Library>
libRbt.so (2013.1, Build901 2013/11/27)

>  <Rbt.Parameter_File>
/export/apps/rDock/src/rDock_2013.1_src/data/scripts/dock_solv.prm

>  <Rbt.Receptor>
prm/pocket_docking_5.prm

>  <SCORE>
-16.6306

>  <SCORE.INTER>
-8.56534

>  <SCORE.INTER.CONST>
1

>  <SCORE.INTER.POLAR>
-2.38304

>  <SCORE.INTER.ROT>
11

>  <SCORE.INTER.SOLV>
11.1542

>  <SCORE.INTER.VDW>
-12.4181

>  <SCORE.INTER.norm>
-0.61181

>  <SCORE.INTRA>
-8.06944

>  <SCORE.INTRA.DIHEDRAL>
-12.9893

>  <SCORE.INTRA.DIHEDRAL.0>
17.7811

>  <SCORE.INTRA.POLAR>
0

>  <SCORE.INTRA.POLAR.0>
0

>  <SCORE.INTRA.REPUL>
0

>  <SCORE.INTRA.REPUL.0>
0

>  <SCORE.INTRA.SOLV>
-0.754335

>  <SCORE.INTRA.SOLV.lig_0>
-47.9565

>  <SCORE.INTRA.VDW>
-1.19761

>  <SCORE.INTRA.VDW.0>
0.515983

>  <SCORE.INTRA.norm>
-0.576389

>  <SCORE.RESTR>
0.00421388

>  <SCORE.RESTR.CAVITY>
0.00421388

>  <SCORE.RESTR.norm>
0.000300992

>  <SCORE.SYSTEM>
0

>  <SCORE.SYSTEM.CONST>
0

>  <SCORE.SYSTEM.DIHEDRAL>
0

>  <SCORE.SYSTEM.SOLV>
0

>  <SCORE.SYSTEM.norm>
0

>  <SCORE.heavy>
14

>  <SCORE.norm>
-1.1879

>  <RMSD>
4.944

$$$$
1xpf_lig
 OpenBabel02141814123D
libRbt.so/2013.1/901 2013/11/27
 14 13  0  0  0  0  0  0  0  0999 V2000
   15.3247   -9.7020   62.9823 N   0  0  0  0  0  0  0  0  0  0  0  0
   15.9774   -8.5685   63.6111 C   0  0  0  0  0  0  0  0  0  0  0  0
   15.9113   -7.3688   62.7439 C   0  0  0  0  0  0  0  0  0  0  0  0
   16.5975   -6.2651   63.4872 C   0  0  0  0  0  0  0  0  0  0  0  0
   16.4377   -5.0411   62.6645 N   0  0  0  0  0  0  0  0  0  0  0  0
   17.5855   -4.8903   61.7185 C   0  0  0  0  0  0  0  0  0  0  0  0
   18.6192   -3.8463   62.1753 C   0  0  0  0  0  0  0  0  0  0  0  0
   19.4894   -4.3052   63.3588 C   0  0  0  0  0  0  0  0  0  0  0  0
   20.3532   -3.1422   63.8231 C   0  0  0  0  0  0  0  0  0  0  0  0
   19.4046   -2.1736   64.3918 N   0  0  0  0  0  0  0  0  0  0  0  0
   19.9578   -0.9511   65.0393 C   0  0  0  0  0  0  0  0  0  0  0  0
   18.9929   -0.8147   66.2370 C   0  0  0  0  0  0  0  0  0  0  0  0
   19.1367    0.3742   67.1528 C   0  0  0  0  0  0  0  0  0  0  0  0
   18.3631    0.2957   68.3798 N   0  0  0  0  0  0  0  0  0  0  0  0
  1  2  1  0  0  0  0
  2  3  1  0  0  0  0
  3  4  1  0  0  0  0
  4  5  1  0  0  0  0
  5  6  1  0  0  0  0
  6  7  1  0  0  0  0
  7  8  1  0  0  0  0
  8  9  1  0  0  0  0
  9 10  1  0  0  0  0
 10 11  1  0  0  0  0
 11 12  1  0  0  0  0
 12 13  1  0  0  0  0
 13 14  1  0  0  0  0
M  END
>  <CHROM.1>
179.51501499,-175.70794165,-90.79606063,-102.33101512,73.12711711,-173.45720641
67.63755173,175.28034464,-141.28453866,-176.48587385,-169.08354921,18.01104784
-4.02844793,64.12591483,2.12372556,-0.80810549,-2.26734316

>  <Name>
1xpf_lig

>  <RI>
0

>  <Rbt.Current_Directory>
/home/afrankz/demos/rdock_decoys_rna/rnas/1xpf

>  <Rbt.Executable>
rbdock ($Id: //depot/dev/client3/rdock/2013.1/src/exe/rbdock.cxx#4 $)

>  <Rbt.Library>
libRbt.so (2013.1, Build901 2013/11/27)

>  <Rbt.Parameter_File>
/export/apps/rDock/src/rDock_2013.1_src/data/scripts/dock_solv.prm

>  <Rbt.Receptor>
prm/pocket_docking_5.prm

>  <SCORE>
-15.2314

>  <SCORE.INTER>
-6.93815

>  <SCORE.INTER.CONST>
1

>  <SCORE.INTER.POLAR>
-2.01474

>  <SCORE.INTER.ROT>
11

>  <SCORE.INTER.SOLV>
14.6799

>  <SCORE.INTER.VDW>
-13.7363

>  <SCORE.INTER.norm>
-0.495582

>  <SCORE.INTRA>
-8.2932

>  <SCORE.INTRA.DIHEDRAL>
-13.7346

>  <SCORE.INTRA.DIHEDRAL.0>
17.7811

>  <SCORE.INTRA.POLAR>
0

>  <SCORE.INTRA.POLAR.0>
0

>  <SCORE.INTRA.REPUL>
0

>  <SCORE.INTRA.REPUL.0>
0

>  <SCORE.INTRA.SOLV>
-0.17778

>  <SCORE.INTRA.SOLV.lig_0>
-47.9565

>  <SCORE.INTRA.VDW>
-1.33704

>  <SCORE.INTRA.VDW.0>
0.515983

>  <SCORE.INTRA.norm>
-0.592372

>  <SCORE.RESTR>
0

>  <SCORE.RESTR.CAVITY>
0

>  <SCORE.RESTR.norm>
0

>  <SCORE.SYSTEM>
0

>  <SCORE.SYSTEM.CONST>
0

>  <SCORE.SYSTEM.DIHEDRAL>
0

>  <SCORE.SYSTEM.SOLV>
0

>  <SCORE.SYSTEM.norm>
0

>  <SCORE.heavy>
14

>  <SCORE.norm>
-1.08795

>  <RMSD>
4.963

$$$$
1xpf_lig
 OpenBabel02141814123D
libRbt.so/2013.1/901 2013/11/27
 14 13  0  0  0  0  0  0  0  0999 V2000
   16.9576   -1.7988   65.9372 N   0  0  0  0  0  0  0  0  0  0  0  0
   17.7524   -1.0959   66.9273 C   0  0  0  0  0  0  0  0  0  0  0  0
   18.5899   -0.0512   66.2925 C   0  0  0  0  0  0  0  0  0  0  0  0
   19.5115    0.4624   67.3547 C   0  0  0  0  0  0  0  0  0  0  0  0
   18.6655    1.1985   68.3258 N   0  0  0  0  0  0  0  0  0  0  0  0
   19.4366    2.3144   68.9543 C   0  0  0  0  0  0  0  0  0  0  0  0
   19.3811    3.6237   68.1484 C   0  0  0  0  0  0  0  0  0  0  0  0
   19.9993    3.5189   66.7429 C   0  0  0  0  0  0  0  0  0  0  0  0
   19.8419    4.8524   66.0280 C   0  0  0  0  0  0  0  0  0  0  0  0
   20.4892    4.6572   64.7224 N   0  0  0  0  0  0  0  0  0  0  0  0
   20.5551    5.8205   63.7940 C   0  0  0  0  0  0  0  0  0  0  0  0
   21.5181    5.2628   62.7236 C   0  0  0  0  0  0  0  0  0  0  0  0
   21.8550    6.1229   61.5321 C   0  0  0  0  0  0  0  0  0  0  0  0
   22.4578    7.4043   61.8562 N   0  0  0  0  0  0  0  0  0  0  0  0
  1  2  1  0  0  0  0
  2  3  1  0  0  0  0
  3  4  1  0  0  0  0
  4  5  1  0  0  0  0
  5  6  1  0  0  0  0
  6  7  1  0  0  0  0
  7  8  1  0  0  0  0
  8  9  1  0  0  0  0
  9 10  1  0  0  0  0
 10 11  1  0  0  0  0
 11 12  1  0  0  0  0
 12 13  1  0  0  0  0
 13 14  1  0  0  0  0
M  END
>  <CHROM.1>
-171.55951368,-68.68806346,-149.32998736,87.37140911,-62.41510173,177.99392333
178.58770704,-177.41656107,169.60830774,178.54342294,58.44474577,19.78657138
3.02093950,65.66728310,2.80662025,1.14187891,1.29902651

>  <Name>
1xpf_lig

>  <RI>
0

>  <Rbt.Current_Directory>
/home/afrankz/demos/rdock_decoys_rna/rnas/1xpf

>  <Rbt.Executable>
rbdock ($Id: //depot/dev/client3/rdock/2013.1/src/exe/rbdock.cxx#4 $)

>  <Rbt.Library>
libRbt.so (2013.1, Build901 2013/11/27)

>  <Rbt.Parameter_File>
/export/apps/rDock/src/rDock_2013.1_src/data/scripts/dock_solv.prm

>  <Rbt.Receptor>
prm/pocket_docking_6.prm

>  <SCORE>
-15.9928

>  <SCORE.INTER>
-7.24121

>  <SCORE.INTER.CONST>
1

>  <SCORE.INTER.POLAR>
-1.71652

>  <SCORE.INTER.ROT>
11

>  <SCORE.INTER.SOLV>
12.0256

>  <SCORE.INTER.VDW>
-14.0476

>  <SCORE.INTER.norm>
-0.51723

>  <SCORE.INTRA>
-8.75162

>  <SCORE.INTRA.DIHEDRAL>
-15.9407

>  <SCORE.INTRA.DIHEDRAL.0>
17.7811

>  <SCORE.INTRA.POLAR>
0

>  <SCORE.INTRA.POLAR.0>
0

>  <SCORE.INTRA.REPUL>
0

>  <SCORE.INTRA.REPUL.0>
0

>  <SCORE.INTRA.SOLV>
0.566704

>  <SCORE.INTRA.SOLV.lig_0>
-47.9565

>  <SCORE.INTRA.VDW>
-1.0646

>  <SCORE.INTRA.VDW.0>
0.515983

>  <SCORE.INTRA.norm>
-0.625116

>  <SCORE.RESTR>
0

>  <SCORE.RESTR.CAVITY>
0

>  <SCORE.RESTR.norm>
0

>  <SCORE.SYSTEM>
0

>  <SCORE.SYSTEM.CONST>
0

>  <SCORE.SYSTEM.DIHEDRAL>
0

>  <SCORE.SYSTEM.SOLV>
0

>  <SCORE.SYSTEM.norm>
0

>  <SCORE.heavy>
14

>  <SCORE.norm>
-1.14235

>  <RMSD>
4.977

$$$$
1xpf_lig
 OpenBabel02141814123D
libRbt.so/2013.1/901 2013/11/27
 14 13  0  0  0  0  0  0  0  0999 V2000
   16.5396   -2.2937   66.5288 N   0  0  0  0  0  0  0  0  0  0  0  0
   17.7537   -1.5911   66.9009 C   0  0  0  0  0  0  0  0  0  0  0  0
   17.4689   -0.1741   67.2277 C   0  0  0  0  0  0  0  0  0  0  0  0
   18.7828    0.4599   67.5642 C   0  0  0  0  0  0  0  0  0  0  0  0
   18.4744    1.8098   68.0966 N   0  0  0  0  0  0  0  0  0  0  0  0
   19.7001    2.6657   68.1002 C   0  0  0  0  0  0  0  0  0  0  0  0
   19.7684    3.6382   66.9100 C   0  0  0  0  0  0  0  0  0  0  0  0
   19.8866    2.9437   65.5418 C   0  0  0  0  0  0  0  0  0  0  0  0
   19.7825    3.9887   64.4412 C   0  0  0  0  0  0  0  0  0  0  0  0
   20.9959    4.8065   64.5840 N   0  0  0  0  0  0  0  0  0  0  0  0
   21.3735    5.7003   63.4535 C   0  0  0  0  0  0  0  0  0  0  0  0
   22.5273    6.4934   64.1046 C   0  0  0  0  0  0  0  0  0  0  0  0
   23.2594    7.5197   63.2777 C   0  0  0  0  0  0  0  0  0  0  0  0
   22.4307    8.6025   62.7766 N   0  0  0  0  0  0  0  0  0  0  0  0
  1  2  1  0  0  0  0
  2  3  1  0  0  0  0
  3  4  1  0  0  0  0
  4  5  1  0  0  0  0
  5  6  1  0  0  0  0
  6  7  1  0  0  0  0
  7  8  1  0  0  0  0
  8  9  1  0  0  0  0
  9 10  1  0  0  0  0
 10 11  1  0  0  0  0
 11 12  1  0  0  0  0
 12 13  1  0  0  0  0
 13 14  1  0  0  0  0
M  END
>  <CHROM.1>
-178.73041609,-171.22079237,-163.96559618,99.98127714,-64.70393216,173.46606747
66.94335642,164.80895776,171.74595951,178.14841369,60.58506105,19.91040108
3.18352566,65.67919763,2.80159903,1.04224424,1.50244495

>  <Name>
1xpf_lig

>  <RI>
0

>  <Rbt.Current_Directory>
/home/afrankz/demos/rdock_decoys_rna/rnas/1xpf

>  <Rbt.Executable>
rbdock ($Id: //depot/dev/client3/rdock/2013.1/src/exe/rbdock.cxx#4 $)

>  <Rbt.Library>
libRbt.so (2013.1, Build901 2013/11/27)

>  <Rbt.Parameter_File>
/export/apps/rDock/src/rDock_2013.1_src/data/scripts/dock_solv.prm

>  <Rbt.Receptor>
prm/blind_docking_100.prm

>  <SCORE>
-15.0162

>  <SCORE.INTER>
-5.77246

>  <SCORE.INTER.CONST>
1

>  <SCORE.INTER.POLAR>
-1.68948

>  <SCORE.INTER.ROT>
11

>  <SCORE.INTER.SOLV>
18.0044

>  <SCORE.INTER.VDW>
-15.1515

>  <SCORE.INTER.norm>
-0.412319

>  <SCORE.INTRA>
-9.24375

>  <SCORE.INTRA.DIHEDRAL>
-15.6992

>  <SCORE.INTRA.DIHEDRAL.0>
17.7811

>  <SCORE.INTRA.POLAR>
0

>  <SCORE.INTRA.POLAR.0>
0

>  <SCORE.INTRA.REPUL>
0

>  <SCORE.INTRA.REPUL.0>
0

>  <SCORE.INTRA.SOLV>
0.466648

>  <SCORE.INTRA.SOLV.lig_0>
-47.9565

>  <SCORE.INTRA.VDW>
-1.62747

>  <SCORE.INTRA.VDW.0>
0.515983

>  <SCORE.INTRA.norm>
-0.660268

>  <SCORE.RESTR>
0

>  <SCORE.RESTR.CAVITY>
0

>  <SCORE.RESTR.norm>
0

>  <SCORE.SYSTEM>
0

>  <SCORE.SYSTEM.CONST>
0

>  <SCORE.SYSTEM.DIHEDRAL>
0

>  <SCORE.SYSTEM.SOLV>
0

>  <SCORE.SYSTEM.norm>
0

>  <SCORE.heavy>
14

>  <SCORE.norm>
-1.07259

>  <RMSD>
4.982

$$$$
1xpf_lig
 OpenBabel02141814123D
libRbt.so/2013.1/901 2013/11/27
 14 13  0  0  0  0  0  0  0  0999 V2000
   18.5197    0.4365   68.5433 N   0  0  0  0  0  0  0  0  0  0  0  0
   19.4733    1.2708   67.8357 C   0  0  0  0  0  0  0  0  0  0  0  0
   20.0651    0.5449   66.6873 C   0  0  0  0  0  0  0  0  0  0  0  0
   18.9344    0.2072   65.7659 C   0  0  0  0  0  0  0  0  0  0  0  0
   19.5480   -0.3232   64.5238 N   0  0  0  0  0  0  0  0  0  0  0  0
   19.8521   -1.7797   64.6684 C   0  0  0  0  0  0  0  0  0  0  0  0
   21.3540   -2.0773   64.8188 C   0  0  0  0  0  0  0  0  0  0  0  0
   22.2101   -1.5819   63.6397 C   0  0  0  0  0  0  0  0  0  0  0  0
   21.9031   -2.4253   62.4114 C   0  0  0  0  0  0  0  0  0  0  0  0
   22.3309   -1.5997   61.2726 N   0  0  0  0  0  0  0  0  0  0  0  0
   21.5316   -1.6720   60.0175 C   0  0  0  0  0  0  0  0  0  0  0  0
   20.3272   -0.7883   60.4081 C   0  0  0  0  0  0  0  0  0  0  0  0
   19.1980   -0.6240   59.4228 C   0  0  0  0  0  0  0  0  0  0  0  0
   18.0999    0.2060   59.8869 N   0  0  0  0  0  0  0  0  0  0  0  0
  1  2  1  0  0  0  0
  2  3  1  0  0  0  0
  3  4  1  0  0  0  0
  4  5  1  0  0  0  0
  5  6  1  0  0  0  0
  6  7  1  0  0  0  0
  7  8  1  0  0  0  0
  8  9  1  0  0  0  0
  9 10  1  0  0  0  0
 10 11  1  0  0  0  0
 11 12  1  0  0  0  0
 12 13  1  0  0  0  0
 13 14  1  0  0  0  0
M  END
>  <CHROM.1>
61.38857365,171.20528458,84.05375817,-107.03150614,-58.73243810,-69.53890320
158.92768004,-144.55723573,77.71943989,-177.33554741,178.99907014,20.23934800
-0.72916273,63.56445391,1.77217411,-0.59424112,1.47005510

>  <Name>
1xpf_lig

>  <RI>
0

>  <Rbt.Current_Directory>
/home/afrankz/demos/rdock_decoys_rna/rnas/1xpf

>  <Rbt.Executable>
rbdock ($Id: //depot/dev/client3/rdock/2013.1/src/exe/rbdock.cxx#4 $)

>  <Rbt.Library>
libRbt.so (2013.1, Build901 2013/11/27)

>  <Rbt.Parameter_File>
/export/apps/rDock/src/rDock_2013.1_src/data/scripts/dock_solv.prm

>  <Rbt.Receptor>
prm/pocket_docking_6.prm

>  <SCORE>
-11.1083

>  <SCORE.INTER>
-5.18112

>  <SCORE.INTER.CONST>
1

>  <SCORE.INTER.POLAR>
-1.15066

>  <SCORE.INTER.ROT>
11

>  <SCORE.INTER.SOLV>
11.6577

>  <SCORE.INTER.VDW>
-14.4378

>  <SCORE.INTER.norm>
-0.37008

>  <SCORE.INTRA>
-5.92717

>  <SCORE.INTRA.DIHEDRAL>
-13.0675

>  <SCORE.INTRA.DIHEDRAL.0>
17.7811

>  <SCORE.INTRA.POLAR>
0

>  <SCORE.INTRA.POLAR.0>
0

>  <SCORE.INTRA.REPUL>
0

>  <SCORE.INTRA.REPUL.0>
0

>  <SCORE.INTRA.SOLV>
0.941157

>  <SCORE.INTRA.SOLV.lig_0>
-47.9565

>  <SCORE.INTRA.VDW>
0.135984

>  <SCORE.INTRA.VDW.0>
0.515983

>  <SCORE.INTRA.norm>
-0.42337

>  <SCORE.RESTR>
0

>  <SCORE.RESTR.CAVITY>
0

>  <SCORE.RESTR.norm>
0

>  <SCORE.SYSTEM>
0

>  <SCORE.SYSTEM.CONST>
0

>  <SCORE.SYSTEM.DIHEDRAL>
0

>  <SCORE.SYSTEM.SOLV>
0

>  <SCORE.SYSTEM.norm>
0

>  <SCORE.heavy>
14

>  <SCORE.norm>
-0.793449

>  <RMSD>
4.984

$$$$
1xpf_lig
 OpenBabel02141814123D
libRbt.so/2013.1/901 2013/11/27
 14 13  0  0  0  0  0  0  0  0999 V2000
   20.1947    3.1690   68.5191 N   0  0  0  0  0  0  0  0  0  0  0  0
   19.5179    2.3729   67.5120 C   0  0  0  0  0  0  0  0  0  0  0  0
   19.3622    0.9691   67.9604 C   0  0  0  0  0  0  0  0  0  0  0  0
   18.6461    0.2461   66.8624 C   0  0  0  0  0  0  0  0  0  0  0  0
   18.4169   -1.1365   67.3487 N   0  0  0  0  0  0  0  0  0  0  0  0
   16.9650   -1.4853   67.2754 C   0  0  0  0  0  0  0  0  0  0  0  0
   16.6820   -2.7464   66.4408 C   0  0  0  0  0  0  0  0  0  0  0  0
   16.9054   -2.5585   64.9298 C   0  0  0  0  0  0  0  0  0  0  0  0
   16.5750   -3.8581   64.2114 C   0  0  0  0  0  0  0  0  0  0  0  0
   16.6746   -3.5324   62.7812 N   0  0  0  0  0  0  0  0  0  0  0  0
   15.8900   -4.3573   61.8202 C   0  0  0  0  0  0  0  0  0  0  0  0
   16.1281   -3.5620   60.5182 C   0  0  0  0  0  0  0  0  0  0  0  0
   15.3427   -3.9348   59.2865 C   0  0  0  0  0  0  0  0  0  0  0  0
   15.6100   -5.2671   58.7730 N   0  0  0  0  0  0  0  0  0  0  0  0
  1  2  1  0  0  0  0
  2  3  1  0  0  0  0
  3  4  1  0  0  0  0
  4  5  1  0  0  0  0
  5  6  1  0  0  0  0
  6  7  1  0  0  0  0
  7  8  1  0  0  0  0
  8  9  1  0  0  0  0
  9 10  1  0  0  0  0
 10 11  1  0  0  0  0
 11 12  1  0  0  0  0
 12 13  1  0  0  0  0
 13 14  1  0  0  0  0
M  END
>  <CHROM.1>
179.43807727,-176.56065966,124.88634461,123.56323630,-70.34454417,-179.12628963
173.93143574,-154.73709938,172.43235508,-171.32646477,-64.07424399,17.35060730
-1.83444178,64.58860445,-0.75510576,-1.08238944,-1.46397758

>  <Name>
1xpf_lig

>  <RI>
0

>  <Rbt.Current_Directory>
/home/afrankz/demos/rdock_decoys_rna/rnas/1xpf

>  <Rbt.Executable>
rbdock ($Id: //depot/dev/client3/rdock/2013.1/src/exe/rbdock.cxx#4 $)

>  <Rbt.Library>
libRbt.so (2013.1, Build901 2013/11/27)

>  <Rbt.Parameter_File>
/export/apps/rDock/src/rDock_2013.1_src/data/scripts/dock_solv.prm

>  <Rbt.Receptor>
prm/pocket_docking_7.prm

>  <SCORE>
-14.8074

>  <SCORE.INTER>
-5.85187

>  <SCORE.INTER.CONST>
1

>  <SCORE.INTER.POLAR>
-1.55141

>  <SCORE.INTER.ROT>
11

>  <SCORE.INTER.SOLV>
10.6648

>  <SCORE.INTER.VDW>
-13.2181

>  <SCORE.INTER.norm>
-0.417991

>  <SCORE.INTRA>
-8.95558

>  <SCORE.INTRA.DIHEDRAL>
-13.9873

>  <SCORE.INTRA.DIHEDRAL.0>
17.7811

>  <SCORE.INTRA.POLAR>
0

>  <SCORE.INTRA.POLAR.0>
0

>  <SCORE.INTRA.REPUL>
0

>  <SCORE.INTRA.REPUL.0>
0

>  <SCORE.INTRA.SOLV>
-0.0544033

>  <SCORE.INTRA.SOLV.lig_0>
-47.9565

>  <SCORE.INTRA.VDW>
-1.93475

>  <SCORE.INTRA.VDW.0>
0.515983

>  <SCORE.INTRA.norm>
-0.639684

>  <SCORE.RESTR>
0

>  <SCORE.RESTR.CAVITY>
0

>  <SCORE.RESTR.norm>
0

>  <SCORE.SYSTEM>
0

>  <SCORE.SYSTEM.CONST>
0

>  <SCORE.SYSTEM.DIHEDRAL>
0

>  <SCORE.SYSTEM.SOLV>
0

>  <SCORE.SYSTEM.norm>
0

>  <SCORE.heavy>
14

>  <SCORE.norm>
-1.05767

>  <RMSD>
4.984

$$$$
1xpf_lig
 OpenBabel02141814123D
libRbt.so/2013.1/901 2013/11/27
 14 13  0  0  0  0  0  0  0  0999 V2000
   23.6764    6.3262   57.6365 N   0  0  0  0  0  0  0  0  0  0  0  0
   23.9958    5.1443   58.4158 C   0  0  0  0  0  0  0  0  0  0  0  0
   24.1939    3.9666   57.5385 C   0  0  0  0  0  0  0  0  0  0  0  0
   23.8764    2.7592   58.3648 C   0  0  0  0  0  0  0  0  0  0  0  0
   22.4014    2.7317   58.5200 N   0  0  0  0  0  0  0  0  0  0  0  0
   22.0227    2.8422   59.9620 C   0  0  0  0  0  0  0  0  0  0  0  0
   20.5058    2.7524   60.2028 C   0  0  0  0  0  0  0  0  0  0  0  0
   19.8725    1.4375   59.7144 C   0  0  0  0  0  0  0  0  0  0  0  0
   20.4079    0.2851   60.5508 C   0  0  0  0  0  0  0  0  0  0  0  0
   19.7443   -0.9106   60.0110 N   0  0  0  0  0  0  0  0  0  0  0  0
   18.3333   -1.1687   60.4134 C   0  0  0  0  0  0  0  0  0  0  0  0
   18.1757   -2.6296   59.9388 C   0  0  0  0  0  0  0  0  0  0  0  0
   16.8285   -3.2936   60.0697 C   0  0  0  0  0  0  0  0  0  0  0  0
   15.7777   -2.7058   59.2571 N   0  0  0  0  0  0  0  0  0  0  0  0
  1  2  1  0  0  0  0
  2  3  1  0  0  0  0
  3  4  1  0  0  0  0
  4  5  1  0  0  0  0
  5  6  1  0  0  0  0
  6  7  1  0  0  0  0
  7  8  1  0  0  0  0
  8  9  1  0  0  0  0
  9 10  1  0  0  0  0
 10 11  1  0  0  0  0
 11 12  1  0  0  0  0
 12 13  1  0  0  0  0
 13 14  1  0  0  0  0
M  END
>  <CHROM.1>
-153.99935876,73.48534860,-118.38211423,-177.23961703,59.49096729,66.10125513
179.84621349,-78.28261893,-166.50890036,-176.05697950,64.78005040,20.70100324
1.25258137,59.32846368,0.78538329,0.37096919,0.10177195

>  <Name>
1xpf_lig

>  <RI>
0

>  <Rbt.Current_Directory>
/home/afrankz/demos/rdock_decoys_rna/rnas/1xpf

>  <Rbt.Executable>
rbdock ($Id: //depot/dev/client3/rdock/2013.1/src/exe/rbdock.cxx#4 $)

>  <Rbt.Library>
libRbt.so (2013.1, Build901 2013/11/27)

>  <Rbt.Parameter_File>
/export/apps/rDock/src/rDock_2013.1_src/data/scripts/dock_solv.prm

>  <Rbt.Receptor>
prm/pocket_docking_7.prm

>  <SCORE>
-14.0636

>  <SCORE.INTER>
-7.72159

>  <SCORE.INTER.CONST>
1

>  <SCORE.INTER.POLAR>
-2.82268

>  <SCORE.INTER.ROT>
11

>  <SCORE.INTER.SOLV>
12.3734

>  <SCORE.INTER.VDW>
-10.7966

>  <SCORE.INTER.norm>
-0.551542

>  <SCORE.INTRA>
-6.34199

>  <SCORE.INTRA.DIHEDRAL>
-13.0322

>  <SCORE.INTRA.DIHEDRAL.0>
17.7811

>  <SCORE.INTRA.POLAR>
0

>  <SCORE.INTRA.POLAR.0>
0

>  <SCORE.INTRA.REPUL>
0

>  <SCORE.INTRA.REPUL.0>
0

>  <SCORE.INTRA.SOLV>
1.35873

>  <SCORE.INTRA.SOLV.lig_0>
-47.9565

>  <SCORE.INTRA.VDW>
-0.50526

>  <SCORE.INTRA.VDW.0>
0.515983

>  <SCORE.INTRA.norm>
-0.452999

>  <SCORE.RESTR>
0

>  <SCORE.RESTR.CAVITY>
0

>  <SCORE.RESTR.norm>
0

>  <SCORE.SYSTEM>
0

>  <SCORE.SYSTEM.CONST>
0

>  <SCORE.SYSTEM.DIHEDRAL>
0

>  <SCORE.SYSTEM.SOLV>
0

>  <SCORE.SYSTEM.norm>
0

>  <SCORE.heavy>
14

>  <SCORE.norm>
-1.00454

>  <RMSD>
4.995

$$$$
1xpf_lig
 OpenBabel02141814123D
libRbt.so/2013.1/901 2013/11/27
 14 13  0  0  0  0  0  0  0  0999 V2000
   22.4521    4.0115   58.7173 N   0  0  0  0  0  0  0  0  0  0  0  0
   22.8267    3.6887   60.0817 C   0  0  0  0  0  0  0  0  0  0  0  0
   22.2007    2.4186   60.5184 C   0  0  0  0  0  0  0  0  0  0  0  0
   20.7198    2.6339   60.4738 C   0  0  0  0  0  0  0  0  0  0  0  0
   20.0965    1.3649   60.9233 N   0  0  0  0  0  0  0  0  0  0  0  0
   19.2231    0.7995   59.8498 C   0  0  0  0  0  0  0  0  0  0  0  0
   18.0563   -0.0431   60.3935 C   0  0  0  0  0  0  0  0  0  0  0  0
   17.1034   -0.5670   59.3045 C   0  0  0  0  0  0  0  0  0  0  0  0
   16.0742   -1.4875   59.9429 C   0  0  0  0  0  0  0  0  0  0  0  0
   15.3806   -2.1180   58.8103 N   0  0  0  0  0  0  0  0  0  0  0  0
   13.8939   -2.2007   58.8594 C   0  0  0  0  0  0  0  0  0  0  0  0
   13.6459   -3.3062   57.8103 C   0  0  0  0  0  0  0  0  0  0  0  0
   13.9702   -4.7339   58.1702 C   0  0  0  0  0  0  0  0  0  0  0  0
   15.3785   -4.9974   58.4093 N   0  0  0  0  0  0  0  0  0  0  0  0
  1  2  1  0  0  0  0
  2  3  1  0  0  0  0
  3  4  1  0  0  0  0
  4  5  1  0  0  0  0
  5  6  1  0  0  0  0
  6  7  1  0  0  0  0
  7  8  1  0  0  0  0
  8  9  1  0  0  0  0
  9 10  1  0  0  0  0
 10 11  1  0  0  0  0
 11 12  1  0  0  0  0
 12 13  1  0  0  0  0
 13 14  1  0  0  0  0
M  END
>  <CHROM.1>
-62.15096123,-179.49653418,-119.73218610,-151.43527589,176.77318076,174.71375229
-169.99834955,-134.90748470,-161.24975137,73.87315788,-64.73469600,17.92995968
-0.32400403,59.44756865,0.73625226,-0.01566542,0.21785279

>  <Name>
1xpf_lig

>  <RI>
0

>  <Rbt.Current_Directory>
/home/afrankz/demos/rdock_decoys_rna/rnas/1xpf

>  <Rbt.Executable>
rbdock ($Id: //depot/dev/client3/rdock/2013.1/src/exe/rbdock.cxx#4 $)

>  <Rbt.Library>
libRbt.so (2013.1, Build901 2013/11/27)

>  <Rbt.Parameter_File>
/export/apps/rDock/src/rDock_2013.1_src/data/scripts/dock_solv.prm

>  <Rbt.Receptor>
prm/pocket_docking_8.prm

>  <SCORE>
-12.6236

>  <SCORE.INTER>
-5.97183

>  <SCORE.INTER.CONST>
1

>  <SCORE.INTER.POLAR>
-2.84314

>  <SCORE.INTER.ROT>
11

>  <SCORE.INTER.SOLV>
11.4134

>  <SCORE.INTER.VDW>
-9.24189

>  <SCORE.INTER.norm>
-0.42656

>  <SCORE.INTRA>
-6.65172

>  <SCORE.INTRA.DIHEDRAL>
-13.408

>  <SCORE.INTRA.DIHEDRAL.0>
17.7811

>  <SCORE.INTRA.POLAR>
0

>  <SCORE.INTRA.POLAR.0>
0

>  <SCORE.INTRA.REPUL>
0

>  <SCORE.INTRA.REPUL.0>
0

>  <SCORE.INTRA.SOLV>
2.97231

>  <SCORE.INTRA.SOLV.lig_0>
-47.9565

>  <SCORE.INTRA.VDW>
-1.43386

>  <SCORE.INTRA.VDW.0>
0.515983

>  <SCORE.INTRA.norm>
-0.475123

>  <SCORE.RESTR>
0

>  <SCORE.RESTR.CAVITY>
0

>  <SCORE.RESTR.norm>
0

>  <SCORE.SYSTEM>
0

>  <SCORE.SYSTEM.CONST>
0

>  <SCORE.SYSTEM.DIHEDRAL>
0

>  <SCORE.SYSTEM.SOLV>
0

>  <SCORE.SYSTEM.norm>
0

>  <SCORE.heavy>
14

>  <SCORE.norm>
-0.901682

>  <RMSD>
5.024

$$$$
1xpf_lig
 OpenBabel02141814123D
libRbt.so/2013.1/901 2013/11/27
 14 13  0  0  0  0  0  0  0  0999 V2000
   20.2142   -0.5632   64.1037 N   0  0  0  0  0  0  0  0  0  0  0  0
   21.3929   -1.2421   64.6097 C   0  0  0  0  0  0  0  0  0  0  0  0
   21.3927   -2.6711   64.2172 C   0  0  0  0  0  0  0  0  0  0  0  0
   21.6156   -2.7084   62.7373 C   0  0  0  0  0  0  0  0  0  0  0  0
   23.0571   -2.4323   62.5218 N   0  0  0  0  0  0  0  0  0  0  0  0
   23.3476   -2.2632   61.0651 C   0  0  0  0  0  0  0  0  0  0  0  0
   23.5560   -0.7962   60.6510 C   0  0  0  0  0  0  0  0  0  0  0  0
   22.2675    0.0452   60.6624 C   0  0  0  0  0  0  0  0  0  0  0  0
   22.6343    1.5200   60.5957 C   0  0  0  0  0  0  0  0  0  0  0  0
   23.1882    1.7086   59.2470 N   0  0  0  0  0  0  0  0  0  0  0  0
   24.0655    2.8893   59.0104 C   0  0  0  0  0  0  0  0  0  0  0  0
   23.5318    3.3570   57.6390 C   0  0  0  0  0  0  0  0  0  0  0  0
   24.0914    4.6201   57.0352 C   0  0  0  0  0  0  0  0  0  0  0  0
   23.7809    5.8354   57.7678 N   0  0  0  0  0  0  0  0  0  0  0  0
  1  2  1  0  0  0  0
  2  3  1  0  0  0  0
  3  4  1  0  0  0  0
  4  5  1  0  0  0  0
  5  6  1  0  0  0  0
  6  7  1  0  0  0  0
  7  8  1  0  0  0  0
  8  9  1  0  0  0  0
  9 10  1  0  0  0  0
 10 11  1  0  0  0  0
 11 12  1  0  0  0  0
 12 13  1  0  0  0  0
 13 14  1  0  0  0  0
M  END
>  <CHROM.1>
69.40930559,76.00598655,-172.29564712,104.06739494,-71.29668384,165.47892212
68.42229371,-159.06262519,-137.43306636,176.03986691,-66.08713449,22.72405160
0.52111459,60.84734752,1.98698600,-0.92204319,2.75047273

>  <Name>
1xpf_lig

>  <RI>
0

>  <Rbt.Current_Directory>
/home/afrankz/demos/rdock_decoys_rna/rnas/1xpf

>  <Rbt.Executable>
rbdock ($Id: //depot/dev/client3/rdock/2013.1/src/exe/rbdock.cxx#4 $)

>  <Rbt.Library>
libRbt.so (2013.1, Build901 2013/11/27)

>  <Rbt.Parameter_File>
/export/apps/rDock/src/rDock_2013.1_src/data/scripts/dock_solv.prm

>  <Rbt.Receptor>
prm/pocket_docking_5.prm

>  <SCORE>
-13.5476

>  <SCORE.INTER>
-7.02072

>  <SCORE.INTER.CONST>
1

>  <SCORE.INTER.POLAR>
-1.78818

>  <SCORE.INTER.ROT>
11

>  <SCORE.INTER.SOLV>
7.40586

>  <SCORE.INTER.VDW>
-12.1218

>  <SCORE.INTER.norm>
-0.50148

>  <SCORE.INTRA>
-6.5269

>  <SCORE.INTRA.DIHEDRAL>
-12.4213

>  <SCORE.INTRA.DIHEDRAL.0>
17.7811

>  <SCORE.INTRA.POLAR>
0

>  <SCORE.INTRA.POLAR.0>
0

>  <SCORE.INTRA.REPUL>
0

>  <SCORE.INTRA.REPUL.0>
0

>  <SCORE.INTRA.SOLV>
2.48902

>  <SCORE.INTRA.SOLV.lig_0>
-47.9565

>  <SCORE.INTRA.VDW>
-1.56079

>  <SCORE.INTRA.VDW.0>
0.515983

>  <SCORE.INTRA.norm>
-0.466207

>  <SCORE.RESTR>
0

>  <SCORE.RESTR.CAVITY>
0

>  <SCORE.RESTR.norm>
0

>  <SCORE.SYSTEM>
0

>  <SCORE.SYSTEM.CONST>
0

>  <SCORE.SYSTEM.DIHEDRAL>
0

>  <SCORE.SYSTEM.SOLV>
0

>  <SCORE.SYSTEM.norm>
0

>  <SCORE.heavy>
14

>  <SCORE.norm>
-0.967687

>  <RMSD>
5.034

$$$$
1xpf_lig
 OpenBabel02141814123D
libRbt.so/2013.1/901 2013/11/27
 14 13  0  0  0  0  0  0  0  0999 V2000
   24.8676    2.9336   59.4238 N   0  0  0  0  0  0  0  0  0  0  0  0
   24.2930    1.6162   59.2228 C   0  0  0  0  0  0  0  0  0  0  0  0
   25.0295    0.5911   59.9991 C   0  0  0  0  0  0  0  0  0  0  0  0
   24.4360   -0.7331   59.6305 C   0  0  0  0  0  0  0  0  0  0  0  0
   23.0776   -0.7656   60.2258 N   0  0  0  0  0  0  0  0  0  0  0  0
   23.0212   -1.7461   61.3528 C   0  0  0  0  0  0  0  0  0  0  0  0
   21.7355   -1.6386   62.1910 C   0  0  0  0  0  0  0  0  0  0  0  0
   21.7246   -2.5422   63.4368 C   0  0  0  0  0  0  0  0  0  0  0  0
   20.3649   -2.4444   64.1120 C   0  0  0  0  0  0  0  0  0  0  0  0
   20.3164   -1.0822   64.6630 N   0  0  0  0  0  0  0  0  0  0  0  0
   19.8492   -0.9126   66.0674 C   0  0  0  0  0  0  0  0  0  0  0  0
   18.4174   -0.3906   65.8190 C   0  0  0  0  0  0  0  0  0  0  0  0
   17.3983   -0.5144   66.9231 C   0  0  0  0  0  0  0  0  0  0  0  0
   17.8649   -0.0945   68.2331 N   0  0  0  0  0  0  0  0  0  0  0  0
  1  2  1  0  0  0  0
  2  3  1  0  0  0  0
  3  4  1  0  0  0  0
  4  5  1  0  0  0  0
  5  6  1  0  0  0  0
  6  7  1  0  0  0  0
  7  8  1  0  0  0  0
  8  9  1  0  0  0  0
  9 10  1  0  0  0  0
 10 11  1  0  0  0  0
 11 12  1  0  0  0  0
 12 13  1  0  0  0  0
 13 14  1  0  0  0  0
M  END
>  <CHROM.1>
-175.21611776,-70.23185180,-110.18507381,168.73948132,-174.18004526,-175.00171616
-69.21729864,-133.35869368,-103.31534295,159.40850107,46.55236997,21.59976745
-0.55200641,62.94994135,0.12660212,0.86836414,0.04016485

>  <Name>
1xpf_lig

>  <RI>
0

>  <Rbt.Current_Directory>
/home/afrankz/demos/rdock_decoys_rna/rnas/1xpf

>  <Rbt.Executable>
rbdock ($Id: //depot/dev/client3/rdock/2013.1/src/exe/rbdock.cxx#4 $)

>  <Rbt.Library>
libRbt.so (2013.1, Build901 2013/11/27)

>  <Rbt.Parameter_File>
/export/apps/rDock/src/rDock_2013.1_src/data/scripts/dock_solv.prm

>  <Rbt.Receptor>
prm/pocket_docking_6.prm

>  <SCORE>
-11.7597

>  <SCORE.INTER>
-5.50592

>  <SCORE.INTER.CONST>
1

>  <SCORE.INTER.POLAR>
-1.49394

>  <SCORE.INTER.ROT>
11

>  <SCORE.INTER.SOLV>
8.89836

>  <SCORE.INTER.VDW>
-12.5903

>  <SCORE.INTER.norm>
-0.39328

>  <SCORE.INTRA>
-6.25376

>  <SCORE.INTRA.DIHEDRAL>
-11.3824

>  <SCORE.INTRA.DIHEDRAL.0>
17.7811

>  <SCORE.INTRA.POLAR>
0

>  <SCORE.INTRA.POLAR.0>
0

>  <SCORE.INTRA.REPUL>
0

>  <SCORE.INTRA.REPUL.0>
0

>  <SCORE.INTRA.SOLV>
0.753016

>  <SCORE.INTRA.SOLV.lig_0>
-47.9565

>  <SCORE.INTRA.VDW>
-0.939048

>  <SCORE.INTRA.VDW.0>
0.515983

>  <SCORE.INTRA.norm>
-0.446697

>  <SCORE.RESTR>
0

>  <SCORE.RESTR.CAVITY>
0

>  <SCORE.RESTR.norm>
0

>  <SCORE.SYSTEM>
0

>  <SCORE.SYSTEM.CONST>
0

>  <SCORE.SYSTEM.DIHEDRAL>
0

>  <SCORE.SYSTEM.SOLV>
0

>  <SCORE.SYSTEM.norm>
0

>  <SCORE.heavy>
14

>  <SCORE.norm>
-0.839977

>  <RMSD>
5.051

$$$$
1xpf_lig
 OpenBabel02141814123D
libRbt.so/2013.1/901 2013/11/27
 14 13  0  0  0  0  0  0  0  0999 V2000
   20.7330    4.7061   71.0212 N   0  0  0  0  0  0  0  0  0  0  0  0
   20.7862    3.8841   69.8263 C   0  0  0  0  0  0  0  0  0  0  0  0
   19.6677    2.9125   69.7993 C   0  0  0  0  0  0  0  0  0  0  0  0
   19.8079    2.1338   68.5284 C   0  0  0  0  0  0  0  0  0  0  0  0
   18.6438    1.2162   68.4666 N   0  0  0  0  0  0  0  0  0  0  0  0
   18.7003    0.3783   67.2298 C   0  0  0  0  0  0  0  0  0  0  0  0
   17.5612   -0.6517   67.1384 C   0  0  0  0  0  0  0  0  0  0  0  0
   17.6588   -1.5844   65.9181 C   0  0  0  0  0  0  0  0  0  0  0  0
   16.5665   -2.6393   66.0079 C   0  0  0  0  0  0  0  0  0  0  0  0
   16.8220   -3.5417   64.8757 N   0  0  0  0  0  0  0  0  0  0  0  0
   15.9510   -4.7413   64.7276 C   0  0  0  0  0  0  0  0  0  0  0  0
   16.7746   -5.5536   63.7048 C   0  0  0  0  0  0  0  0  0  0  0  0
   16.2345   -6.8771   63.2257 C   0  0  0  0  0  0  0  0  0  0  0  0
   14.9850   -6.7950   62.4893 N   0  0  0  0  0  0  0  0  0  0  0  0
  1  2  1  0  0  0  0
  2  3  1  0  0  0  0
  3  4  1  0  0  0  0
  4  5  1  0  0  0  0
  5  6  1  0  0  0  0
  6  7  1  0  0  0  0
  7  8  1  0  0  0  0
  8  9  1  0  0  0  0
  9 10  1  0  0  0  0
 10 11  1  0  0  0  0
 11 12  1  0  0  0  0
 12 13  1  0  0  0  0
 13 14  1  0  0  0  0
M  END
>  <CHROM.1>
179.34658221,-176.83215259,-179.42728037,176.89599832,-176.14016868,174.45664527
-174.97573483,176.79258527,-165.76231962,-178.66832757,63.52540219,17.92094729
-1.22527387,66.63990508,1.20104400,0.22833823,0.68118234

>  <Name>
1xpf_lig

>  <RI>
0

>  <Rbt.Current_Directory>
/home/afrankz/demos/rdock_decoys_rna/rnas/1xpf

>  <Rbt.Executable>
rbdock ($Id: //depot/dev/client3/rdock/2013.1/src/exe/rbdock.cxx#4 $)

>  <Rbt.Library>
libRbt.so (2013.1, Build901 2013/11/27)

>  <Rbt.Parameter_File>
/export/apps/rDock/src/rDock_2013.1_src/data/scripts/dock_solv.prm

>  <Rbt.Receptor>
prm/pocket_docking_7.prm

>  <SCORE>
-15.0324

>  <SCORE.INTER>
-4.38248

>  <SCORE.INTER.CONST>
1

>  <SCORE.INTER.POLAR>
-0.8

>  <SCORE.INTER.ROT>
11

>  <SCORE.INTER.SOLV>
6.17158

>  <SCORE.INTER.VDW>
-13.2455

>  <SCORE.INTER.norm>
-0.313035

>  <SCORE.INTRA>
-10.6499

>  <SCORE.INTRA.DIHEDRAL>
-17.2331

>  <SCORE.INTRA.DIHEDRAL.0>
17.7811

>  <SCORE.INTRA.POLAR>
0

>  <SCORE.INTRA.POLAR.0>
0

>  <SCORE.INTRA.REPUL>
0

>  <SCORE.INTRA.REPUL.0>
0

>  <SCORE.INTRA.SOLV>
-0.385043

>  <SCORE.INTRA.SOLV.lig_0>
-47.9565

>  <SCORE.INTRA.VDW>
-1.84088

>  <SCORE.INTRA.VDW.0>
0.515983

>  <SCORE.INTRA.norm>
-0.760711

>  <SCORE.RESTR>
0

>  <SCORE.RESTR.CAVITY>
0

>  <SCORE.RESTR.norm>
0

>  <SCORE.SYSTEM>
0

>  <SCORE.SYSTEM.CONST>
0

>  <SCORE.SYSTEM.DIHEDRAL>
0

>  <SCORE.SYSTEM.SOLV>
0

>  <SCORE.SYSTEM.norm>
0

>  <SCORE.heavy>
14

>  <SCORE.norm>
-1.07375

>  <RMSD>
5.056

$$$$
1xpf_lig
 OpenBabel02141814123D
libRbt.so/2013.1/901 2013/11/27
 14 13  0  0  0  0  0  0  0  0999 V2000
   18.4554   -1.4295   64.7834 N   0  0  0  0  0  0  0  0  0  0  0  0
   18.5545   -0.9358   66.1445 C   0  0  0  0  0  0  0  0  0  0  0  0
   19.3837    0.2908   66.2060 C   0  0  0  0  0  0  0  0  0  0  0  0
   19.4495    0.6910   67.6471 C   0  0  0  0  0  0  0  0  0  0  0  0
   20.2684    1.9267   67.7035 N   0  0  0  0  0  0  0  0  0  0  0  0
   19.3962    3.1271   67.8865 C   0  0  0  0  0  0  0  0  0  0  0  0
   19.8384    4.3364   67.0444 C   0  0  0  0  0  0  0  0  0  0  0  0
   19.7079    4.1215   65.5261 C   0  0  0  0  0  0  0  0  0  0  0  0
   20.7826    3.1482   65.0658 C   0  0  0  0  0  0  0  0  0  0  0  0
   20.5806    3.0245   63.6149 N   0  0  0  0  0  0  0  0  0  0  0  0
   21.3267    1.9553   62.8939 C   0  0  0  0  0  0  0  0  0  0  0  0
   20.3900    1.7337   61.6866 C   0  0  0  0  0  0  0  0  0  0  0  0
   20.7324    0.6544   60.6911 C   0  0  0  0  0  0  0  0  0  0  0  0
   21.9550    0.8830   59.9406 N   0  0  0  0  0  0  0  0  0  0  0  0
  1  2  1  0  0  0  0
  2  3  1  0  0  0  0
  3  4  1  0  0  0  0
  4  5  1  0  0  0  0
  5  6  1  0  0  0  0
  6  7  1  0  0  0  0
  7  8  1  0  0  0  0
  8  9  1  0  0  0  0
  9 10  1  0  0  0  0
 10 11  1  0  0  0  0
 11 12  1  0  0  0  0
 12 13  1  0  0  0  0
 13 14  1  0  0  0  0
M  END
>  <CHROM.1>
-178.53667593,-179.43045740,103.33883985,-139.46593235,65.77479793,-71.95984051
-179.42810609,-169.51342913,154.40864281,-177.08396704,-65.40962436,20.05855870
1.68076637,64.77421075,0.91059078,-1.16542557,-2.34253428

>  <Name>
1xpf_lig

>  <RI>
0

>  <Rbt.Current_Directory>
/home/afrankz/demos/rdock_decoys_rna/rnas/1xpf

>  <Rbt.Executable>
rbdock ($Id: //depot/dev/client3/rdock/2013.1/src/exe/rbdock.cxx#4 $)

>  <Rbt.Library>
libRbt.so (2013.1, Build901 2013/11/27)

>  <Rbt.Parameter_File>
/export/apps/rDock/src/rDock_2013.1_src/data/scripts/dock_solv.prm

>  <Rbt.Receptor>
prm/pocket_docking_4.prm

>  <SCORE>
-10.0227

>  <SCORE.INTER>
-1.33674

>  <SCORE.INTER.CONST>
1

>  <SCORE.INTER.POLAR>
-0.883228

>  <SCORE.INTER.ROT>
11

>  <SCORE.INTER.SOLV>
7.35486

>  <SCORE.INTER.VDW>
-11.332

>  <SCORE.INTER.norm>
-0.0954818

>  <SCORE.INTRA>
-8.68599

>  <SCORE.INTRA.DIHEDRAL>
-14.4714

>  <SCORE.INTRA.DIHEDRAL.0>
17.7811

>  <SCORE.INTRA.POLAR>
0

>  <SCORE.INTRA.POLAR.0>
0

>  <SCORE.INTRA.REPUL>
0

>  <SCORE.INTRA.REPUL.0>
0

>  <SCORE.INTRA.SOLV>
0.969884

>  <SCORE.INTRA.SOLV.lig_0>
-47.9565

>  <SCORE.INTRA.VDW>
-1.9352

>  <SCORE.INTRA.VDW.0>
0.515983

>  <SCORE.INTRA.norm>
-0.620428

>  <SCORE.RESTR>
0

>  <SCORE.RESTR.CAVITY>
0

>  <SCORE.RESTR.norm>
0

>  <SCORE.SYSTEM>
0

>  <SCORE.SYSTEM.CONST>
0

>  <SCORE.SYSTEM.DIHEDRAL>
0

>  <SCORE.SYSTEM.SOLV>
0

>  <SCORE.SYSTEM.norm>
0

>  <SCORE.heavy>
14

>  <SCORE.norm>
-0.715909

>  <RMSD>
5.072

$$$$
1xpf_lig
 OpenBabel02141814123D
libRbt.so/2013.1/901 2013/11/27
 14 13  0  0  0  0  0  0  0  0999 V2000
   16.1869   -2.1329   64.2665 N   0  0  0  0  0  0  0  0  0  0  0  0
   17.2363   -1.9164   65.2453 C   0  0  0  0  0  0  0  0  0  0  0  0
   16.9747   -0.6960   66.0440 C   0  0  0  0  0  0  0  0  0  0  0  0
   18.1587   -0.5096   66.9410 C   0  0  0  0  0  0  0  0  0  0  0  0
   17.9030    0.7240   67.7244 N   0  0  0  0  0  0  0  0  0  0  0  0
   19.1887    1.4081   68.0618 C   0  0  0  0  0  0  0  0  0  0  0  0
   18.9979    2.8442   68.5795 C   0  0  0  0  0  0  0  0  0  0  0  0
   20.3158    3.6004   68.8242 C   0  0  0  0  0  0  0  0  0  0  0  0
   20.0053    5.0580   69.1291 C   0  0  0  0  0  0  0  0  0  0  0  0
   19.4216    5.5854   67.8870 N   0  0  0  0  0  0  0  0  0  0  0  0
   20.3425    6.1869   66.8822 C   0  0  0  0  0  0  0  0  0  0  0  0
   19.4862    6.0441   65.6053 C   0  0  0  0  0  0  0  0  0  0  0  0
   19.2608    4.6676   65.0331 C   0  0  0  0  0  0  0  0  0  0  0  0
   20.4519    4.0237   64.5067 N   0  0  0  0  0  0  0  0  0  0  0  0
  1  2  1  0  0  0  0
  2  3  1  0  0  0  0
  3  4  1  0  0  0  0
  4  5  1  0  0  0  0
  5  6  1  0  0  0  0
  6  7  1  0  0  0  0
  7  8  1  0  0  0  0
  8  9  1  0  0  0  0
  9 10  1  0  0  0  0
 10 11  1  0  0  0  0
 11 12  1  0  0  0  0
 12 13  1  0  0  0  0
 13 14  1  0  0  0  0
M  END
>  <CHROM.1>
-175.74055627,179.17009221,-149.39537421,166.56334603,-175.35957579,171.60328662
-65.29109111,-90.38650235,157.39969538,-70.31697071,-66.60482670,18.85231552
2.49213842,66.76671140,3.03463718,1.17529404,1.90909934

>  <Name>
1xpf_lig

>  <RI>
0

>  <Rbt.Current_Directory>
/home/afrankz/demos/rdock_decoys_rna/rnas/1xpf

>  <Rbt.Executable>
rbdock ($Id: //depot/dev/client3/rdock/2013.1/src/exe/rbdock.cxx#4 $)

>  <Rbt.Library>
libRbt.so (2013.1, Build901 2013/11/27)

>  <Rbt.Parameter_File>
/export/apps/rDock/src/rDock_2013.1_src/data/scripts/dock_solv.prm

>  <Rbt.Receptor>
prm/pocket_docking_7.prm

>  <SCORE>
-11.4026

>  <SCORE.INTER>
-2.87377

>  <SCORE.INTER.CONST>
1

>  <SCORE.INTER.POLAR>
-0.8

>  <SCORE.INTER.ROT>
11

>  <SCORE.INTER.SOLV>
8.18081

>  <SCORE.INTER.VDW>
-12.9094

>  <SCORE.INTER.norm>
-0.205269

>  <SCORE.INTRA>
-8.52882

>  <SCORE.INTRA.DIHEDRAL>
-14.9295

>  <SCORE.INTRA.DIHEDRAL.0>
17.7811

>  <SCORE.INTRA.POLAR>
0

>  <SCORE.INTRA.POLAR.0>
0

>  <SCORE.INTRA.REPUL>
0

>  <SCORE.INTRA.REPUL.0>
0

>  <SCORE.INTRA.SOLV>
1.41948

>  <SCORE.INTRA.SOLV.lig_0>
-47.9565

>  <SCORE.INTRA.VDW>
-1.77382

>  <SCORE.INTRA.VDW.0>
0.515983

>  <SCORE.INTRA.norm>
-0.609201

>  <SCORE.RESTR>
0

>  <SCORE.RESTR.CAVITY>
0

>  <SCORE.RESTR.norm>
0

>  <SCORE.SYSTEM>
0

>  <SCORE.SYSTEM.CONST>
0

>  <SCORE.SYSTEM.DIHEDRAL>
0

>  <SCORE.SYSTEM.SOLV>
0

>  <SCORE.SYSTEM.norm>
0

>  <SCORE.heavy>
14

>  <SCORE.norm>
-0.81447

>  <RMSD>
5.106

$$$$
1xpf_lig
 OpenBabel02141814123D
libRbt.so/2013.1/901 2013/11/27
 14 13  0  0  0  0  0  0  0  0999 V2000
   23.7415    5.3996   59.5122 N   0  0  0  0  0  0  0  0  0  0  0  0
   24.3582    4.2190   58.9360 C   0  0  0  0  0  0  0  0  0  0  0  0
   23.5931    2.9977   59.2806 C   0  0  0  0  0  0  0  0  0  0  0  0
   24.3955    1.8355   58.7837 C   0  0  0  0  0  0  0  0  0  0  0  0
   23.6433    0.6135   59.1597 N   0  0  0  0  0  0  0  0  0  0  0  0
   24.5830   -0.5052   59.4767 C   0  0  0  0  0  0  0  0  0  0  0  0
   23.9474   -1.6102   60.3380 C   0  0  0  0  0  0  0  0  0  0  0  0
   23.4068   -1.1144   61.6909 C   0  0  0  0  0  0  0  0  0  0  0  0
   22.6948   -2.2604   62.3938 C   0  0  0  0  0  0  0  0  0  0  0  0
   22.1368   -1.6627   63.6156 N   0  0  0  0  0  0  0  0  0  0  0  0
   21.3044   -2.5266   64.4991 C   0  0  0  0  0  0  0  0  0  0  0  0
   20.6574   -1.4534   65.4012 C   0  0  0  0  0  0  0  0  0  0  0  0
   19.7220   -0.4490   64.7773 C   0  0  0  0  0  0  0  0  0  0  0  0
   19.1677    0.5243   65.7023 N   0  0  0  0  0  0  0  0  0  0  0  0
  1  2  1  0  0  0  0
  2  3  1  0  0  0  0
  3  4  1  0  0  0  0
  4  5  1  0  0  0  0
  5  6  1  0  0  0  0
  6  7  1  0  0  0  0
  7  8  1  0  0  0  0
  8  9  1  0  0  0  0
  9 10  1  0  0  0  0
 10 11  1  0  0  0  0
 11 12  1  0  0  0  0
 12 13  1  0  0  0  0
 13 14  1  0  0  0  0
M  END
>  <CHROM.1>
-173.35356231,178.63944435,-146.39419382,159.24979149,-58.65863214,174.92458409
-175.98791774,176.74620762,-166.15871186,64.56236524,-179.71449572,22.66820237
0.28588324,61.68324217,0.79734189,0.89448494,-0.27422535

>  <Name>
1xpf_lig

>  <RI>
0

>  <Rbt.Current_Directory>
/home/afrankz/demos/rdock_decoys_rna/rnas/1xpf

>  <Rbt.Executable>
rbdock ($Id: //depot/dev/client3/rdock/2013.1/src/exe/rbdock.cxx#4 $)

>  <Rbt.Library>
libRbt.so (2013.1, Build901 2013/11/27)

>  <Rbt.Parameter_File>
/export/apps/rDock/src/rDock_2013.1_src/data/scripts/dock_solv.prm

>  <Rbt.Receptor>
prm/pocket_docking_6.prm

>  <SCORE>
-12.6099

>  <SCORE.INTER>
-2.72794

>  <SCORE.INTER.CONST>
1

>  <SCORE.INTER.POLAR>
-0.894427

>  <SCORE.INTER.ROT>
11

>  <SCORE.INTER.SOLV>
5.75747

>  <SCORE.INTER.VDW>
-11.6897

>  <SCORE.INTER.norm>
-0.194853

>  <SCORE.INTRA>
-9.88192

>  <SCORE.INTRA.DIHEDRAL>
-16.1623

>  <SCORE.INTRA.DIHEDRAL.0>
17.7811

>  <SCORE.INTRA.POLAR>
0

>  <SCORE.INTRA.POLAR.0>
0

>  <SCORE.INTRA.REPUL>
0

>  <SCORE.INTRA.REPUL.0>
0

>  <SCORE.INTRA.SOLV>
-0.096659

>  <SCORE.INTRA.SOLV.lig_0>
-47.9565

>  <SCORE.INTRA.VDW>
-1.75243

>  <SCORE.INTRA.VDW.0>
0.515983

>  <SCORE.INTRA.norm>
-0.705851

>  <SCORE.RESTR>
0

>  <SCORE.RESTR.CAVITY>
0

>  <SCORE.RESTR.norm>
0

>  <SCORE.SYSTEM>
0

>  <SCORE.SYSTEM.CONST>
0

>  <SCORE.SYSTEM.DIHEDRAL>
0

>  <SCORE.SYSTEM.SOLV>
0

>  <SCORE.SYSTEM.norm>
0

>  <SCORE.heavy>
14

>  <SCORE.norm>
-0.900704

>  <RMSD>
5.108

$$$$
1xpf_lig
 OpenBabel02141814123D
libRbt.so/2013.1/901 2013/11/27
 14 13  0  0  0  0  0  0  0  0999 V2000
   19.6018    2.5106   66.9687 N   0  0  0  0  0  0  0  0  0  0  0  0
   19.5632    1.3183   67.7951 C   0  0  0  0  0  0  0  0  0  0  0  0
   19.2029    0.1263   66.9919 C   0  0  0  0  0  0  0  0  0  0  0  0
   20.3463   -0.1221   66.0580 C   0  0  0  0  0  0  0  0  0  0  0  0
   20.0316   -1.3769   65.3320 N   0  0  0  0  0  0  0  0  0  0  0  0
   21.2465   -1.8997   64.6352 C   0  0  0  0  0  0  0  0  0  0  0  0
   20.9949   -3.2116   63.8721 C   0  0  0  0  0  0  0  0  0  0  0  0
   19.9846   -3.0795   62.7187 C   0  0  0  0  0  0  0  0  0  0  0  0
   20.6856   -2.4832   61.5074 C   0  0  0  0  0  0  0  0  0  0  0  0
   20.7859   -1.0462   61.8013 N   0  0  0  0  0  0  0  0  0  0  0  0
   21.4378   -0.1694   60.7885 C   0  0  0  0  0  0  0  0  0  0  0  0
   20.1915    0.4355   60.1065 C   0  0  0  0  0  0  0  0  0  0  0  0
   19.2770    1.3178   60.9177 C   0  0  0  0  0  0  0  0  0  0  0  0
   19.9012    2.5163   61.4507 N   0  0  0  0  0  0  0  0  0  0  0  0
  1  2  1  0  0  0  0
  2  3  1  0  0  0  0
  3  4  1  0  0  0  0
  4  5  1  0  0  0  0
  5  6  1  0  0  0  0
  6  7  1  0  0  0  0
  7  8  1  0  0  0  0
  8  9  1  0  0  0  0
  9 10  1  0  0  0  0
 10 11  1  0  0  0  0
 11 12  1  0  0  0  0
 12 13  1  0  0  0  0
 13 14  1  0  0  0  0
M  END
>  <CHROM.1>
67.54082905,175.58839244,-165.66566901,179.38609947,63.44348472,80.14370867
-77.71114652,179.95646195,100.35479164,64.43743159,60.84067971,20.23225791
-0.36925580,63.63874991,2.15595540,-1.34609440,1.93134475

>  <Name>
1xpf_lig

>  <RI>
0

>  <Rbt.Current_Directory>
/home/afrankz/demos/rdock_decoys_rna/rnas/1xpf

>  <Rbt.Executable>
rbdock ($Id: //depot/dev/client3/rdock/2013.1/src/exe/rbdock.cxx#4 $)

>  <Rbt.Library>
libRbt.so (2013.1, Build901 2013/11/27)

>  <Rbt.Parameter_File>
/export/apps/rDock/src/rDock_2013.1_src/data/scripts/dock_solv.prm

>  <Rbt.Receptor>
prm/pocket_docking_4.prm

>  <SCORE>
-6.67493

>  <SCORE.INTER>
-0.412654

>  <SCORE.INTER.CONST>
1

>  <SCORE.INTER.POLAR>
0

>  <SCORE.INTER.ROT>
11

>  <SCORE.INTER.SOLV>
8.16349

>  <SCORE.INTER.VDW>
-13.9296

>  <SCORE.INTER.norm>
-0.0294753

>  <SCORE.INTRA>
-6.26228

>  <SCORE.INTRA.DIHEDRAL>
-13.6486

>  <SCORE.INTRA.DIHEDRAL.0>
17.7811

>  <SCORE.INTRA.POLAR>
0

>  <SCORE.INTRA.POLAR.0>
0

>  <SCORE.INTRA.REPUL>
0

>  <SCORE.INTRA.REPUL.0>
0

>  <SCORE.INTRA.SOLV>
3.41385

>  <SCORE.INTRA.SOLV.lig_0>
-47.9565

>  <SCORE.INTRA.VDW>
-1.1449

>  <SCORE.INTRA.VDW.0>
0.515983

>  <SCORE.INTRA.norm>
-0.447305

>  <SCORE.RESTR>
0

>  <SCORE.RESTR.CAVITY>
0

>  <SCORE.RESTR.norm>
0

>  <SCORE.SYSTEM>
0

>  <SCORE.SYSTEM.CONST>
0

>  <SCORE.SYSTEM.DIHEDRAL>
0

>  <SCORE.SYSTEM.SOLV>
0

>  <SCORE.SYSTEM.norm>
0

>  <SCORE.heavy>
14

>  <SCORE.norm>
-0.476781

>  <RMSD>
5.112

$$$$
1xpf_lig
 OpenBabel02141814123D
libRbt.so/2013.1/901 2013/11/27
 14 13  0  0  0  0  0  0  0  0999 V2000
   20.4846    2.9138   70.4888 N   0  0  0  0  0  0  0  0  0  0  0  0
   20.3593    3.4056   69.1292 C   0  0  0  0  0  0  0  0  0  0  0  0
   19.0921    2.9472   68.5128 C   0  0  0  0  0  0  0  0  0  0  0  0
   19.2592    1.4873   68.2261 C   0  0  0  0  0  0  0  0  0  0  0  0
   17.9199    0.9780   67.8421 N   0  0  0  0  0  0  0  0  0  0  0  0
   18.0369   -0.3500   67.1656 C   0  0  0  0  0  0  0  0  0  0  0  0
   16.6839   -0.9243   66.7112 C   0  0  0  0  0  0  0  0  0  0  0  0
   16.7912   -2.2790   65.9888 C   0  0  0  0  0  0  0  0  0  0  0  0
   17.4247   -2.0667   64.6221 C   0  0  0  0  0  0  0  0  0  0  0  0
   18.8687   -1.9847   64.8861 N   0  0  0  0  0  0  0  0  0  0  0  0
   19.6428   -0.9064   64.2098 C   0  0  0  0  0  0  0  0  0  0  0  0
   21.0835   -1.3681   64.5189 C   0  0  0  0  0  0  0  0  0  0  0  0
   21.6156   -2.5974   63.8271 C   0  0  0  0  0  0  0  0  0  0  0  0
   20.8930   -3.8229   64.1208 N   0  0  0  0  0  0  0  0  0  0  0  0
  1  2  1  0  0  0  0
  2  3  1  0  0  0  0
  3  4  1  0  0  0  0
  4  5  1  0  0  0  0
  5  6  1  0  0  0  0
  6  7  1  0  0  0  0
  7  8  1  0  0  0  0
  8  9  1  0  0  0  0
  9 10  1  0  0  0  0
 10 11  1  0  0  0  0
 11 12  1  0  0  0  0
 12 13  1  0  0  0  0
 13 14  1  0  0  0  0
M  END
>  <CHROM.1>
-72.88775603,169.96544396,163.75927494,-178.72375796,178.88779488,-70.65190342
80.63478417,-135.16287619,-168.74504057,70.78215670,-62.01478318,19.15380413
-0.32619066,66.44622931,-1.58704037,-0.19249061,-2.39428367

>  <Name>
1xpf_lig

>  <RI>
0

>  <Rbt.Current_Directory>
/home/afrankz/demos/rdock_decoys_rna/rnas/1xpf

>  <Rbt.Executable>
rbdock ($Id: //depot/dev/client3/rdock/2013.1/src/exe/rbdock.cxx#4 $)

>  <Rbt.Library>
libRbt.so (2013.1, Build901 2013/11/27)

>  <Rbt.Parameter_File>
/export/apps/rDock/src/rDock_2013.1_src/data/scripts/dock_solv.prm

>  <Rbt.Receptor>
prm/pocket_docking_8.prm

>  <SCORE>
-10.7363

>  <SCORE.INTER>
-4.89896

>  <SCORE.INTER.CONST>
1

>  <SCORE.INTER.POLAR>
-0.8

>  <SCORE.INTER.ROT>
11

>  <SCORE.INTER.SOLV>
12.9718

>  <SCORE.INTER.VDW>
-15.8566

>  <SCORE.INTER.norm>
-0.349926

>  <SCORE.INTRA>
-5.83729

>  <SCORE.INTRA.DIHEDRAL>
-13.1043

>  <SCORE.INTRA.DIHEDRAL.0>
17.7811

>  <SCORE.INTRA.POLAR>
0

>  <SCORE.INTRA.POLAR.0>
0

>  <SCORE.INTRA.REPUL>
0

>  <SCORE.INTRA.REPUL.0>
0

>  <SCORE.INTRA.SOLV>
4.01216

>  <SCORE.INTRA.SOLV.lig_0>
-47.9565

>  <SCORE.INTRA.VDW>
-1.2912

>  <SCORE.INTRA.VDW.0>
0.515983

>  <SCORE.INTRA.norm>
-0.41695

>  <SCORE.RESTR>
0

>  <SCORE.RESTR.CAVITY>
0

>  <SCORE.RESTR.norm>
0

>  <SCORE.SYSTEM>
0

>  <SCORE.SYSTEM.CONST>
0

>  <SCORE.SYSTEM.DIHEDRAL>
0

>  <SCORE.SYSTEM.SOLV>
0

>  <SCORE.SYSTEM.norm>
0

>  <SCORE.heavy>
14

>  <SCORE.norm>
-0.766875

>  <RMSD>
5.114

$$$$
1xpf_lig
 OpenBabel02141814123D
libRbt.so/2013.1/901 2013/11/27
 14 13  0  0  0  0  0  0  0  0999 V2000
   17.7706   -1.0023   60.4215 N   0  0  0  0  0  0  0  0  0  0  0  0
   19.0261   -1.2647   59.7424 C   0  0  0  0  0  0  0  0  0  0  0  0
   20.1190   -0.4392   60.3080 C   0  0  0  0  0  0  0  0  0  0  0  0
   19.7983    0.9840   59.9718 C   0  0  0  0  0  0  0  0  0  0  0  0
   20.8158    1.8178   60.6573 N   0  0  0  0  0  0  0  0  0  0  0  0
   20.7118    3.2424   60.2161 C   0  0  0  0  0  0  0  0  0  0  0  0
   21.3542    4.2344   61.2009 C   0  0  0  0  0  0  0  0  0  0  0  0
   20.6266    4.3315   62.5536 C   0  0  0  0  0  0  0  0  0  0  0  0
   20.9088    3.0748   63.3631 C   0  0  0  0  0  0  0  0  0  0  0  0
   20.1058    3.2272   64.5851 N   0  0  0  0  0  0  0  0  0  0  0  0
   20.7798    3.7589   65.8027 C   0  0  0  0  0  0  0  0  0  0  0  0
   19.7654    3.3327   66.8859 C   0  0  0  0  0  0  0  0  0  0  0  0
   19.5988    1.8647   67.1865 C   0  0  0  0  0  0  0  0  0  0  0  0
   18.5099    1.5481   68.0943 N   0  0  0  0  0  0  0  0  0  0  0  0
  1  2  1  0  0  0  0
  2  3  1  0  0  0  0
  3  4  1  0  0  0  0
  4  5  1  0  0  0  0
  5  6  1  0  0  0  0
  6  7  1  0  0  0  0
  7  8  1  0  0  0  0
  8  9  1  0  0  0  0
  9 10  1  0  0  0  0
 10 11  1  0  0  0  0
 11 12  1  0  0  0  0
 12 13  1  0  0  0  0
 13 14  1  0  0  0  0
M  END
>  <CHROM.1>
-66.63620616,174.28002881,171.27110484,159.55976712,-67.03526054,73.32587026
-176.42005704,-97.00323830,-162.77078403,68.22191551,-172.65365858,19.99248752
2.05100255,62.92759252,1.59540773,-1.06008276,-1.89212427

>  <Name>
1xpf_lig

>  <RI>
0

>  <Rbt.Current_Directory>
/home/afrankz/demos/rdock_decoys_rna/rnas/1xpf

>  <Rbt.Executable>
rbdock ($Id: //depot/dev/client3/rdock/2013.1/src/exe/rbdock.cxx#4 $)

>  <Rbt.Library>
libRbt.so (2013.1, Build901 2013/11/27)

>  <Rbt.Parameter_File>
/export/apps/rDock/src/rDock_2013.1_src/data/scripts/dock_solv.prm

>  <Rbt.Receptor>
prm/pocket_docking_4.prm

>  <SCORE>
-6.64767

>  <SCORE.INTER>
0.862434

>  <SCORE.INTER.CONST>
1

>  <SCORE.INTER.POLAR>
-0.8

>  <SCORE.INTER.ROT>
11

>  <SCORE.INTER.SOLV>
10.0507

>  <SCORE.INTER.VDW>
-11.0419

>  <SCORE.INTER.norm>
0.0616024

>  <SCORE.INTRA>
-7.51011

>  <SCORE.INTRA.DIHEDRAL>
-14.6743

>  <SCORE.INTRA.DIHEDRAL.0>
17.7811

>  <SCORE.INTRA.POLAR>
0

>  <SCORE.INTRA.POLAR.0>
0

>  <SCORE.INTRA.REPUL>
0

>  <SCORE.INTRA.REPUL.0>
0

>  <SCORE.INTRA.SOLV>
1.57051

>  <SCORE.INTRA.SOLV.lig_0>
-47.9565

>  <SCORE.INTRA.VDW>
-0.958188

>  <SCORE.INTRA.VDW.0>
0.515983

>  <SCORE.INTRA.norm>
-0.536436

>  <SCORE.RESTR>
0

>  <SCORE.RESTR.CAVITY>
0

>  <SCORE.RESTR.norm>
0

>  <SCORE.SYSTEM>
0

>  <SCORE.SYSTEM.CONST>
0

>  <SCORE.SYSTEM.DIHEDRAL>
0

>  <SCORE.SYSTEM.SOLV>
0

>  <SCORE.SYSTEM.norm>
0

>  <SCORE.heavy>
14

>  <SCORE.norm>
-0.474834

>  <RMSD>
5.116

$$$$
1xpf_lig
 OpenBabel02141814123D
libRbt.so/2013.1/901 2013/11/27
 14 13  0  0  0  0  0  0  0  0999 V2000
   23.0904    7.6583   62.1112 N   0  0  0  0  0  0  0  0  0  0  0  0
   22.8452    7.7956   63.5350 C   0  0  0  0  0  0  0  0  0  0  0  0
   22.8494    6.4739   64.2050 C   0  0  0  0  0  0  0  0  0  0  0  0
   22.3681    6.7018   65.6042 C   0  0  0  0  0  0  0  0  0  0  0  0
   22.3710    5.3768   66.2712 N   0  0  0  0  0  0  0  0  0  0  0  0
   21.2384    5.2745   67.2416 C   0  0  0  0  0  0  0  0  0  0  0  0
   19.8797    5.0152   66.5680 C   0  0  0  0  0  0  0  0  0  0  0  0
   19.8256    3.7111   65.7525 C   0  0  0  0  0  0  0  0  0  0  0  0
   19.9349    2.5257   66.6995 C   0  0  0  0  0  0  0  0  0  0  0  0
   19.8295    1.3423   65.8335 N   0  0  0  0  0  0  0  0  0  0  0  0
   20.1935    0.0184   66.4117 C   0  0  0  0  0  0  0  0  0  0  0  0
   18.8664   -0.7441   66.2079 C   0  0  0  0  0  0  0  0  0  0  0  0
   17.6389   -0.2741   66.9463 C   0  0  0  0  0  0  0  0  0  0  0  0
   17.7929   -0.1811   68.3878 N   0  0  0  0  0  0  0  0  0  0  0  0
  1  2  1  0  0  0  0
  2  3  1  0  0  0  0
  3  4  1  0  0  0  0
  4  5  1  0  0  0  0
  5  6  1  0  0  0  0
  6  7  1  0  0  0  0
  7  8  1  0  0  0  0
  8  9  1  0  0  0  0
  9 10  1  0  0  0  0
 10 11  1  0  0  0  0
 11 12  1  0  0  0  0
 12 13  1  0  0  0  0
 13 14  1  0  0  0  0
M  END
>  <CHROM.1>
-170.84328589,179.89430678,-145.52349096,77.40875037,59.94361492,66.97047326
178.21752946,166.96675345,121.45430820,-64.49757364,-55.06813617,20.62306832
3.62104801,65.84117592,-0.27857166,-1.06093752,-2.27357993

>  <Name>
1xpf_lig

>  <RI>
0

>  <Rbt.Current_Directory>
/home/afrankz/demos/rdock_decoys_rna/rnas/1xpf

>  <Rbt.Executable>
rbdock ($Id: //depot/dev/client3/rdock/2013.1/src/exe/rbdock.cxx#4 $)

>  <Rbt.Library>
libRbt.so (2013.1, Build901 2013/11/27)

>  <Rbt.Parameter_File>
/export/apps/rDock/src/rDock_2013.1_src/data/scripts/dock_solv.prm

>  <Rbt.Receptor>
prm/pocket_docking_6.prm

>  <SCORE>
-15.8712

>  <SCORE.INTER>
-8.54667

>  <SCORE.INTER.CONST>
1

>  <SCORE.INTER.POLAR>
-2.41226

>  <SCORE.INTER.ROT>
11

>  <SCORE.INTER.SOLV>
15.1533

>  <SCORE.INTER.VDW>
-13.6414

>  <SCORE.INTER.norm>
-0.610477

>  <SCORE.INTRA>
-7.32455

>  <SCORE.INTRA.DIHEDRAL>
-14.7841

>  <SCORE.INTRA.DIHEDRAL.0>
17.7811

>  <SCORE.INTRA.POLAR>
0

>  <SCORE.INTRA.POLAR.0>
0

>  <SCORE.INTRA.REPUL>
0

>  <SCORE.INTRA.REPUL.0>
0

>  <SCORE.INTRA.SOLV>
2.18126

>  <SCORE.INTRA.SOLV.lig_0>
-47.9565

>  <SCORE.INTRA.VDW>
-1.02312

>  <SCORE.INTRA.VDW.0>
0.515983

>  <SCORE.INTRA.norm>
-0.523182

>  <SCORE.RESTR>
0

>  <SCORE.RESTR.CAVITY>
0

>  <SCORE.RESTR.norm>
0

>  <SCORE.SYSTEM>
0

>  <SCORE.SYSTEM.CONST>
0

>  <SCORE.SYSTEM.DIHEDRAL>
0

>  <SCORE.SYSTEM.SOLV>
0

>  <SCORE.SYSTEM.norm>
0

>  <SCORE.heavy>
14

>  <SCORE.norm>
-1.13366

>  <RMSD>
5.120

$$$$
1xpf_lig
 OpenBabel02141814123D
libRbt.so/2013.1/901 2013/11/27
 14 13  0  0  0  0  0  0  0  0999 V2000
   22.9011    6.5298   64.3321 N   0  0  0  0  0  0  0  0  0  0  0  0
   24.0241    7.0610   63.5819 C   0  0  0  0  0  0  0  0  0  0  0  0
   24.3812    6.1672   62.4552 C   0  0  0  0  0  0  0  0  0  0  0  0
   23.2925    6.3061   61.4371 C   0  0  0  0  0  0  0  0  0  0  0  0
   23.5477    5.2720   60.4045 N   0  0  0  0  0  0  0  0  0  0  0  0
   22.2606    4.7777   59.8266 C   0  0  0  0  0  0  0  0  0  0  0  0
   21.8584    3.3832   60.3371 C   0  0  0  0  0  0  0  0  0  0  0  0
   20.3857    3.0224   60.0741 C   0  0  0  0  0  0  0  0  0  0  0  0
   20.1431    1.5801   60.4924 C   0  0  0  0  0  0  0  0  0  0  0  0
   18.6979    1.3758   60.3154 N   0  0  0  0  0  0  0  0  0  0  0  0
   18.1683   -0.0116   60.4346 C   0  0  0  0  0  0  0  0  0  0  0  0
   16.6947    0.2223   60.0372 C   0  0  0  0  0  0  0  0  0  0  0  0
   15.7208   -0.9224   60.1558 C   0  0  0  0  0  0  0  0  0  0  0  0
   16.0690   -2.1015   59.3821 N   0  0  0  0  0  0  0  0  0  0  0  0
  1  2  1  0  0  0  0
  2  3  1  0  0  0  0
  3  4  1  0  0  0  0
  4  5  1  0  0  0  0
  5  6  1  0  0  0  0
  6  7  1  0  0  0  0
  7  8  1  0  0  0  0
  8  9  1  0  0  0  0
  9 10  1  0  0  0  0
 10 11  1  0  0  0  0
 11 12  1  0  0  0  0
 12 13  1  0  0  0  0
 13 14  1  0  0  0  0
M  END
>  <CHROM.1>
71.77416789,-172.04424114,147.67981149,-104.59344020,164.01612937,174.37286231
175.12685369,170.38051740,-174.26293935,-173.76450132,-58.42737294,20.58190483
3.04740589,60.94751006,0.50702621,0.67418521,1.18282165

>  <Name>
1xpf_lig

>  <RI>
0

>  <Rbt.Current_Directory>
/home/afrankz/demos/rdock_decoys_rna/rnas/1xpf

>  <Rbt.Executable>
rbdock ($Id: //depot/dev/client3/rdock/2013.1/src/exe/rbdock.cxx#4 $)

>  <Rbt.Library>
libRbt.so (2013.1, Build901 2013/11/27)

>  <Rbt.Parameter_File>
/export/apps/rDock/src/rDock_2013.1_src/data/scripts/dock_solv.prm

>  <Rbt.Receptor>
prm/pocket_docking_5.prm

>  <SCORE>
-7.61883

>  <SCORE.INTER>
0.719573

>  <SCORE.INTER.CONST>
1

>  <SCORE.INTER.POLAR>
-0.897599

>  <SCORE.INTER.ROT>
11

>  <SCORE.INTER.SOLV>
7.30674

>  <SCORE.INTER.VDW>
-9.8972

>  <SCORE.INTER.norm>
0.0513981

>  <SCORE.INTRA>
-8.34001

>  <SCORE.INTRA.DIHEDRAL>
-13.9599

>  <SCORE.INTRA.DIHEDRAL.0>
17.7811

>  <SCORE.INTRA.POLAR>
0

>  <SCORE.INTRA.POLAR.0>
0

>  <SCORE.INTRA.REPUL>
0

>  <SCORE.INTRA.REPUL.0>
0

>  <SCORE.INTRA.SOLV>
0.551615

>  <SCORE.INTRA.SOLV.lig_0>
-47.9565

>  <SCORE.INTRA.VDW>
-1.63587

>  <SCORE.INTRA.VDW.0>
0.515983

>  <SCORE.INTRA.norm>
-0.595715

>  <SCORE.RESTR>
0.001605

>  <SCORE.RESTR.CAVITY>
0.001605

>  <SCORE.RESTR.norm>
0.000114643

>  <SCORE.SYSTEM>
0

>  <SCORE.SYSTEM.CONST>
0

>  <SCORE.SYSTEM.DIHEDRAL>
0

>  <SCORE.SYSTEM.SOLV>
0

>  <SCORE.SYSTEM.norm>
0

>  <SCORE.heavy>
14

>  <SCORE.norm>
-0.544202

>  <RMSD>
5.144

$$$$
1xpf_lig
 OpenBabel02141814123D
libRbt.so/2013.1/901 2013/11/27
 14 13  0  0  0  0  0  0  0  0999 V2000
   19.6845   -0.2060   64.6282 N   0  0  0  0  0  0  0  0  0  0  0  0
   20.5234   -1.1173   65.3845 C   0  0  0  0  0  0  0  0  0  0  0  0
   21.2545   -2.0388   64.4832 C   0  0  0  0  0  0  0  0  0  0  0  0
   22.2783   -1.2141   63.7669 C   0  0  0  0  0  0  0  0  0  0  0  0
   22.9788   -2.1304   62.8340 N   0  0  0  0  0  0  0  0  0  0  0  0
   24.3726   -1.6544   62.5775 C   0  0  0  0  0  0  0  0  0  0  0  0
   24.4589   -0.5862   61.4737 C   0  0  0  0  0  0  0  0  0  0  0  0
   23.8812   -1.0379   60.1207 C   0  0  0  0  0  0  0  0  0  0  0  0
   24.1488    0.0386   59.0797 C   0  0  0  0  0  0  0  0  0  0  0  0
   23.1889    1.1080   59.3900 N   0  0  0  0  0  0  0  0  0  0  0  0
   23.7247    2.4045   59.8915 C   0  0  0  0  0  0  0  0  0  0  0  0
   23.4799    3.2985   58.6566 C   0  0  0  0  0  0  0  0  0  0  0  0
   23.9478    4.7311   58.6938 C   0  0  0  0  0  0  0  0  0  0  0  0
   23.6441    5.5028   57.5011 N   0  0  0  0  0  0  0  0  0  0  0  0
  1  2  1  0  0  0  0
  2  3  1  0  0  0  0
  3  4  1  0  0  0  0
  4  5  1  0  0  0  0
  5  6  1  0  0  0  0
  6  7  1  0  0  0  0
  7  8  1  0  0  0  0
  8  9  1  0  0  0  0
  9 10  1  0  0  0  0
 10 11  1  0  0  0  0
 11 12  1  0  0  0  0
 12 13  1  0  0  0  0
 13 14  1  0  0  0  0
M  END
>  <CHROM.1>
70.23570344,-178.22207935,-152.36437126,-83.95360003,-57.27931962,-174.27882060
-74.91463768,112.65746167,108.27607987,-176.98532378,-178.52751484,22.96925810
0.50680466,61.32018414,1.96174962,-0.76181766,2.58318888

>  <Name>
1xpf_lig

>  <RI>
0

>  <Rbt.Current_Directory>
/home/afrankz/demos/rdock_decoys_rna/rnas/1xpf

>  <Rbt.Executable>
rbdock ($Id: //depot/dev/client3/rdock/2013.1/src/exe/rbdock.cxx#4 $)

>  <Rbt.Library>
libRbt.so (2013.1, Build901 2013/11/27)

>  <Rbt.Parameter_File>
/export/apps/rDock/src/rDock_2013.1_src/data/scripts/dock_solv.prm

>  <Rbt.Receptor>
prm/pocket_docking_6.prm

>  <SCORE>
-13.6274

>  <SCORE.INTER>
-6.25604

>  <SCORE.INTER.CONST>
1

>  <SCORE.INTER.POLAR>
-1.68878

>  <SCORE.INTER.ROT>
11

>  <SCORE.INTER.SOLV>
8.27737

>  <SCORE.INTER.VDW>
-12.2339

>  <SCORE.INTER.norm>
-0.44686

>  <SCORE.INTRA>
-7.3983

>  <SCORE.INTRA.DIHEDRAL>
-13.1899

>  <SCORE.INTRA.DIHEDRAL.0>
17.7811

>  <SCORE.INTRA.POLAR>
0

>  <SCORE.INTRA.POLAR.0>
0

>  <SCORE.INTRA.REPUL>
0

>  <SCORE.INTRA.REPUL.0>
0

>  <SCORE.INTRA.SOLV>
0.655897

>  <SCORE.INTRA.SOLV.lig_0>
-47.9565

>  <SCORE.INTRA.VDW>
-1.13128

>  <SCORE.INTRA.VDW.0>
0.515983

>  <SCORE.INTRA.norm>
-0.52845

>  <SCORE.RESTR>
0.0269525

>  <SCORE.RESTR.CAVITY>
0.0269525

>  <SCORE.RESTR.norm>
0.00192518

>  <SCORE.SYSTEM>
0

>  <SCORE.SYSTEM.CONST>
0

>  <SCORE.SYSTEM.DIHEDRAL>
0

>  <SCORE.SYSTEM.SOLV>
0

>  <SCORE.SYSTEM.norm>
0

>  <SCORE.heavy>
14

>  <SCORE.norm>
-0.973385

>  <RMSD>
5.181

$$$$
1xpf_lig
 OpenBabel02141814123D
libRbt.so/2013.1/901 2013/11/27
 14 13  0  0  0  0  0  0  0  0999 V2000
   16.5461   -4.5660   69.5250 N   0  0  0  0  0  0  0  0  0  0  0  0
   16.1598   -3.2249   69.1270 C   0  0  0  0  0  0  0  0  0  0  0  0
   16.9932   -2.7442   68.0000 C   0  0  0  0  0  0  0  0  0  0  0  0
   16.4977   -1.3741   67.6554 C   0  0  0  0  0  0  0  0  0  0  0  0
   17.4609   -0.8121   66.6770 N   0  0  0  0  0  0  0  0  0  0  0  0
   18.1947    0.3479   67.2692 C   0  0  0  0  0  0  0  0  0  0  0  0
   19.2058    0.9879   66.3023 C   0  0  0  0  0  0  0  0  0  0  0  0
   20.4781    0.1499   66.0841 C   0  0  0  0  0  0  0  0  0  0  0  0
   20.1033   -1.1581   65.4038 C   0  0  0  0  0  0  0  0  0  0  0  0
   21.3846   -1.8391   65.1675 N   0  0  0  0  0  0  0  0  0  0  0  0
   21.5292   -2.6441   63.9222 C   0  0  0  0  0  0  0  0  0  0  0  0
   22.2091   -1.6067   63.0025 C   0  0  0  0  0  0  0  0  0  0  0  0
   23.5949   -1.1262   63.3509 C   0  0  0  0  0  0  0  0  0  0  0  0
   24.0956   -0.0502   62.5132 N   0  0  0  0  0  0  0  0  0  0  0  0
  1  2  1  0  0  0  0
  2  3  1  0  0  0  0
  3  4  1  0  0  0  0
  4  5  1  0  0  0  0
  5  6  1  0  0  0  0
  6  7  1  0  0  0  0
  7  8  1  0  0  0  0
  8  9  1  0  0  0  0
  9 10  1  0  0  0  0
 10 11  1  0  0  0  0
 11 12  1  0  0  0  0
 12 13  1  0  0  0  0
 13 14  1  0  0  0  0
M  END
>  <CHROM.1>
178.95611717,171.38578649,-113.41704446,-179.56687979,-73.81921183,64.50397339
176.58794197,-144.44803054,95.61275916,65.21534705,-173.73472227,19.60366307
-1.40411404,66.00001952,-2.88664771,0.67110302,-0.08783811

>  <Name>
1xpf_lig

>  <RI>
0

>  <Rbt.Current_Directory>
/home/afrankz/demos/rdock_decoys_rna/rnas/1xpf

>  <Rbt.Executable>
rbdock ($Id: //depot/dev/client3/rdock/2013.1/src/exe/rbdock.cxx#4 $)

>  <Rbt.Library>
libRbt.so (2013.1, Build901 2013/11/27)

>  <Rbt.Parameter_File>
/export/apps/rDock/src/rDock_2013.1_src/data/scripts/dock_solv.prm

>  <Rbt.Receptor>
prm/blind_docking_100.prm

>  <SCORE>
-10.0823

>  <SCORE.INTER>
-3.315

>  <SCORE.INTER.CONST>
1

>  <SCORE.INTER.POLAR>
0

>  <SCORE.INTER.ROT>
11

>  <SCORE.INTER.SOLV>
10.6401

>  <SCORE.INTER.VDW>
-16.69

>  <SCORE.INTER.norm>
-0.236786

>  <SCORE.INTRA>
-7.48718

>  <SCORE.INTRA.DIHEDRAL>
-13.7207

>  <SCORE.INTRA.DIHEDRAL.0>
17.7811

>  <SCORE.INTRA.POLAR>
0

>  <SCORE.INTRA.POLAR.0>
0

>  <SCORE.INTRA.REPUL>
0

>  <SCORE.INTRA.REPUL.0>
0

>  <SCORE.INTRA.SOLV>
0.585445

>  <SCORE.INTRA.SOLV.lig_0>
-47.9565

>  <SCORE.INTRA.VDW>
-0.919557

>  <SCORE.INTRA.VDW.0>
0.515983

>  <SCORE.INTRA.norm>
-0.534799

>  <SCORE.RESTR>
0.719891

>  <SCORE.RESTR.CAVITY>
0.719891

>  <SCORE.RESTR.norm>
0.0514208

>  <SCORE.SYSTEM>
0

>  <SCORE.SYSTEM.CONST>
0

>  <SCORE.SYSTEM.DIHEDRAL>
0

>  <SCORE.SYSTEM.SOLV>
0

>  <SCORE.SYSTEM.norm>
0

>  <SCORE.heavy>
14

>  <SCORE.norm>
-0.720163

>  <RMSD>
5.182

$$$$
1xpf_lig
 OpenBabel02141814123D
libRbt.so/2013.1/901 2013/11/27
 14 13  0  0  0  0  0  0  0  0999 V2000
   16.8828   -1.5168   64.6476 N   0  0  0  0  0  0  0  0  0  0  0  0
   17.0252   -0.8433   65.9252 C   0  0  0  0  0  0  0  0  0  0  0  0
   18.4175   -0.3789   66.1290 C   0  0  0  0  0  0  0  0  0  0  0  0
   18.4314    0.3783   67.4204 C   0  0  0  0  0  0  0  0  0  0  0  0
   19.8097    0.9012   67.5868 N   0  0  0  0  0  0  0  0  0  0  0  0
   19.9339    1.6556   68.8714 C   0  0  0  0  0  0  0  0  0  0  0  0
   19.2951    3.0543   68.8216 C   0  0  0  0  0  0  0  0  0  0  0  0
   20.0645    4.0617   67.9488 C   0  0  0  0  0  0  0  0  0  0  0  0
   19.8797    3.6957   66.4839 C   0  0  0  0  0  0  0  0  0  0  0  0
   20.6990    4.6692   65.7473 N   0  0  0  0  0  0  0  0  0  0  0  0
   21.9218    4.1728   65.0561 C   0  0  0  0  0  0  0  0  0  0  0  0
   23.0105    4.9292   65.8478 C   0  0  0  0  0  0  0  0  0  0  0  0
   23.1592    6.4149   65.6388 C   0  0  0  0  0  0  0  0  0  0  0  0
   22.0175    7.2072   66.0617 N   0  0  0  0  0  0  0  0  0  0  0  0
  1  2  1  0  0  0  0
  2  3  1  0  0  0  0
  3  4  1  0  0  0  0
  4  5  1  0  0  0  0
  5  6  1  0  0  0  0
  6  7  1  0  0  0  0
  7  8  1  0  0  0  0
  8  9  1  0  0  0  0
  9 10  1  0  0  0  0
 10 11  1  0  0  0  0
 11 12  1  0  0  0  0
 12 13  1  0  0  0  0
 13 14  1  0  0  0  0
M  END
>  <CHROM.1>
176.15520161,-177.14938284,-178.87392810,-75.97508096,-70.76789027,71.76167788
-177.33339487,111.10324033,-115.71759515,-71.86462879,64.73697300,20.03921340
2.74290109,66.58497961,-3.04074599,0.95506475,1.39706562

>  <Name>
1xpf_lig

>  <RI>
0

>  <Rbt.Current_Directory>
/home/afrankz/demos/rdock_decoys_rna/rnas/1xpf

>  <Rbt.Executable>
rbdock ($Id: //depot/dev/client3/rdock/2013.1/src/exe/rbdock.cxx#4 $)

>  <Rbt.Library>
libRbt.so (2013.1, Build901 2013/11/27)

>  <Rbt.Parameter_File>
/export/apps/rDock/src/rDock_2013.1_src/data/scripts/dock_solv.prm

>  <Rbt.Receptor>
prm/pocket_docking_6.prm

>  <SCORE>
-8.18276

>  <SCORE.INTER>
-1.67419

>  <SCORE.INTER.CONST>
1

>  <SCORE.INTER.POLAR>
0

>  <SCORE.INTER.ROT>
11

>  <SCORE.INTER.SOLV>
6.41407

>  <SCORE.INTER.VDW>
-14.1875

>  <SCORE.INTER.norm>
-0.119585

>  <SCORE.INTRA>
-6.50857

>  <SCORE.INTRA.DIHEDRAL>
-13.5583

>  <SCORE.INTRA.DIHEDRAL.0>
17.7811

>  <SCORE.INTRA.POLAR>
0

>  <SCORE.INTRA.POLAR.0>
0

>  <SCORE.INTRA.REPUL>
0

>  <SCORE.INTRA.REPUL.0>
0

>  <SCORE.INTRA.SOLV>
3.28237

>  <SCORE.INTRA.SOLV.lig_0>
-47.9565

>  <SCORE.INTRA.VDW>
-1.37061

>  <SCORE.INTRA.VDW.0>
0.515983

>  <SCORE.INTRA.norm>
-0.464898

>  <SCORE.RESTR>
0

>  <SCORE.RESTR.CAVITY>
0

>  <SCORE.RESTR.norm>
0

>  <SCORE.SYSTEM>
0

>  <SCORE.SYSTEM.CONST>
0

>  <SCORE.SYSTEM.DIHEDRAL>
0

>  <SCORE.SYSTEM.SOLV>
0

>  <SCORE.SYSTEM.norm>
0

>  <SCORE.heavy>
14

>  <SCORE.norm>
-0.584483

>  <RMSD>
5.187

$$$$
1xpf_lig
 OpenBabel02141814123D
libRbt.so/2013.1/901 2013/11/27
 14 13  0  0  0  0  0  0  0  0999 V2000
   17.8826   -0.1385   68.2929 N   0  0  0  0  0  0  0  0  0  0  0  0
   18.2022    0.1281   66.9026 C   0  0  0  0  0  0  0  0  0  0  0  0
   19.6608    0.3142   66.7188 C   0  0  0  0  0  0  0  0  0  0  0  0
   20.0097    1.6213   67.3599 C   0  0  0  0  0  0  0  0  0  0  0  0
   19.6186    2.6798   66.3971 N   0  0  0  0  0  0  0  0  0  0  0  0
   20.7095    2.9142   65.4021 C   0  0  0  0  0  0  0  0  0  0  0  0
   20.3364    2.4796   63.9742 C   0  0  0  0  0  0  0  0  0  0  0  0
   19.3356    3.4181   63.2770 C   0  0  0  0  0  0  0  0  0  0  0  0
   20.1015    4.4263   62.4338 C   0  0  0  0  0  0  0  0  0  0  0  0
   20.9166    5.1799   63.3978 N   0  0  0  0  0  0  0  0  0  0  0  0
   20.4055    6.4991   63.8647 C   0  0  0  0  0  0  0  0  0  0  0  0
   21.3622    7.4468   63.1090 C   0  0  0  0  0  0  0  0  0  0  0  0
   22.8453    7.3240   63.3502 C   0  0  0  0  0  0  0  0  0  0  0  0
   23.2423    7.3768   64.7465 N   0  0  0  0  0  0  0  0  0  0  0  0
  1  2  1  0  0  0  0
  2  3  1  0  0  0  0
  3  4  1  0  0  0  0
  4  5  1  0  0  0  0
  5  6  1  0  0  0  0
  6  7  1  0  0  0  0
  7  8  1  0  0  0  0
  8  9  1  0  0  0  0
  9 10  1  0  0  0  0
 10 11  1  0  0  0  0
 11 12  1  0  0  0  0
 12 13  1  0  0  0  0
 13 14  1  0  0  0  0
M  END
>  <CHROM.1>
-70.33170636,-79.30959340,-85.03184026,112.25016395,73.49464324,94.78728989
-62.00302777,-98.12445214,-106.98636062,-58.95103609,-52.83357997,20.33057726
3.69065967,64.94444726,-2.21736962,-0.89189165,-1.06446223

>  <Name>
1xpf_lig

>  <RI>
0

>  <Rbt.Current_Directory>
/home/afrankz/demos/rdock_decoys_rna/rnas/1xpf

>  <Rbt.Executable>
rbdock ($Id: //depot/dev/client3/rdock/2013.1/src/exe/rbdock.cxx#4 $)

>  <Rbt.Library>
libRbt.so (2013.1, Build901 2013/11/27)

>  <Rbt.Parameter_File>
/export/apps/rDock/src/rDock_2013.1_src/data/scripts/dock_solv.prm

>  <Rbt.Receptor>
prm/blind_docking_100.prm

>  <SCORE>
-7.67001

>  <SCORE.INTER>
-5.51155

>  <SCORE.INTER.CONST>
1

>  <SCORE.INTER.POLAR>
-1.52522

>  <SCORE.INTER.ROT>
11

>  <SCORE.INTER.SOLV>
13.4227

>  <SCORE.INTER.VDW>
-13.9979

>  <SCORE.INTER.norm>
-0.393682

>  <SCORE.INTRA>
-2.15846

>  <SCORE.INTRA.DIHEDRAL>
-7.89073

>  <SCORE.INTRA.DIHEDRAL.0>
17.7811

>  <SCORE.INTRA.POLAR>
0

>  <SCORE.INTRA.POLAR.0>
0

>  <SCORE.INTRA.REPUL>
0

>  <SCORE.INTRA.REPUL.0>
0

>  <SCORE.INTRA.SOLV>
3.91468

>  <SCORE.INTRA.SOLV.lig_0>
-47.9565

>  <SCORE.INTRA.VDW>
-0.170442

>  <SCORE.INTRA.VDW.0>
0.515983

>  <SCORE.INTRA.norm>
-0.154176

>  <SCORE.RESTR>
0

>  <SCORE.RESTR.CAVITY>
0

>  <SCORE.RESTR.norm>
0

>  <SCORE.SYSTEM>
0

>  <SCORE.SYSTEM.CONST>
0

>  <SCORE.SYSTEM.DIHEDRAL>
0

>  <SCORE.SYSTEM.SOLV>
0

>  <SCORE.SYSTEM.norm>
0

>  <SCORE.heavy>
14

>  <SCORE.norm>
-0.547858

>  <RMSD>
5.195

$$$$
1xpf_lig
 OpenBabel02141814123D
libRbt.so/2013.1/901 2013/11/27
 14 13  0  0  0  0  0  0  0  0999 V2000
   16.4492   -3.9067   67.9370 N   0  0  0  0  0  0  0  0  0  0  0  0
   16.5757   -2.4612   67.9617 C   0  0  0  0  0  0  0  0  0  0  0  0
   17.2632   -1.9669   66.7456 C   0  0  0  0  0  0  0  0  0  0  0  0
   17.4561   -0.4940   66.9319 C   0  0  0  0  0  0  0  0  0  0  0  0
   18.1932   -0.0120   65.7381 N   0  0  0  0  0  0  0  0  0  0  0  0
   19.6332    0.2183   66.0673 C   0  0  0  0  0  0  0  0  0  0  0  0
   20.5508   -0.9370   65.6311 C   0  0  0  0  0  0  0  0  0  0  0  0
   20.5963   -1.1581   64.1088 C   0  0  0  0  0  0  0  0  0  0  0  0
   21.4096   -2.4085   63.8104 C   0  0  0  0  0  0  0  0  0  0  0  0
   20.5399   -3.5256   64.2070 N   0  0  0  0  0  0  0  0  0  0  0  0
   19.7973   -4.2476   63.1362 C   0  0  0  0  0  0  0  0  0  0  0  0
   18.5127   -4.6296   63.9031 C   0  0  0  0  0  0  0  0  0  0  0  0
   17.3723   -5.2562   63.1416 C   0  0  0  0  0  0  0  0  0  0  0  0
   16.2406   -5.6570   63.9594 N   0  0  0  0  0  0  0  0  0  0  0  0
  1  2  1  0  0  0  0
  2  3  1  0  0  0  0
  3  4  1  0  0  0  0
  4  5  1  0  0  0  0
  5  6  1  0  0  0  0
  6  7  1  0  0  0  0
  7  8  1  0  0  0  0
  8  9  1  0  0  0  0
  9 10  1  0  0  0  0
 10 11  1  0  0  0  0
 11 12  1  0  0  0  0
 12 13  1  0  0  0  0
 13 14  1  0  0  0  0
M  END
>  <CHROM.1>
-174.75442092,177.75636884,-103.09214972,99.45168887,63.65325882,-173.99741812
73.53081530,100.32447531,-147.23089534,172.90820138,176.34461536,18.61388353
-2.60273599,65.23415099,1.50516120,0.60133104,0.64186928

>  <Name>
1xpf_lig

>  <RI>
0

>  <Rbt.Current_Directory>
/home/afrankz/demos/rdock_decoys_rna/rnas/1xpf

>  <Rbt.Executable>
rbdock ($Id: //depot/dev/client3/rdock/2013.1/src/exe/rbdock.cxx#4 $)

>  <Rbt.Library>
libRbt.so (2013.1, Build901 2013/11/27)

>  <Rbt.Parameter_File>
/export/apps/rDock/src/rDock_2013.1_src/data/scripts/dock_solv.prm

>  <Rbt.Receptor>
prm/pocket_docking_7.prm

>  <SCORE>
-11.5778

>  <SCORE.INTER>
-2.89323

>  <SCORE.INTER.CONST>
1

>  <SCORE.INTER.POLAR>
0

>  <SCORE.INTER.ROT>
11

>  <SCORE.INTER.SOLV>
9.24306

>  <SCORE.INTER.VDW>
-15.9432

>  <SCORE.INTER.norm>
-0.206659

>  <SCORE.INTRA>
-8.68454

>  <SCORE.INTRA.DIHEDRAL>
-13.0954

>  <SCORE.INTRA.DIHEDRAL.0>
17.7811

>  <SCORE.INTRA.POLAR>
0

>  <SCORE.INTRA.POLAR.0>
0

>  <SCORE.INTRA.REPUL>
0

>  <SCORE.INTRA.REPUL.0>
0

>  <SCORE.INTRA.SOLV>
0.0415022

>  <SCORE.INTRA.SOLV.lig_0>
-47.9565

>  <SCORE.INTRA.VDW>
-2.15758

>  <SCORE.INTRA.VDW.0>
0.515983

>  <SCORE.INTRA.norm>
-0.620324

>  <SCORE.RESTR>
0

>  <SCORE.RESTR.CAVITY>
0

>  <SCORE.RESTR.norm>
0

>  <SCORE.SYSTEM>
0

>  <SCORE.SYSTEM.CONST>
0

>  <SCORE.SYSTEM.DIHEDRAL>
0

>  <SCORE.SYSTEM.SOLV>
0

>  <SCORE.SYSTEM.norm>
0

>  <SCORE.heavy>
14

>  <SCORE.norm>
-0.826984

>  <RMSD>
5.195

$$$$
1xpf_lig
 OpenBabel02141814123D
libRbt.so/2013.1/901 2013/11/27
 14 13  0  0  0  0  0  0  0  0999 V2000
   18.1190   -1.9203   60.4621 N   0  0  0  0  0  0  0  0  0  0  0  0
   19.3236   -1.2617   59.9915 C   0  0  0  0  0  0  0  0  0  0  0  0
   20.5236   -2.0846   60.2722 C   0  0  0  0  0  0  0  0  0  0  0  0
   21.7106   -1.2505   59.9026 C   0  0  0  0  0  0  0  0  0  0  0  0
   22.9102   -2.0212   60.3118 N   0  0  0  0  0  0  0  0  0  0  0  0
   23.7070   -1.2571   61.3199 C   0  0  0  0  0  0  0  0  0  0  0  0
   23.3749   -1.6354   62.7736 C   0  0  0  0  0  0  0  0  0  0  0  0
   21.9242   -1.3260   63.1839 C   0  0  0  0  0  0  0  0  0  0  0  0
   21.7091   -1.7641   64.6247 C   0  0  0  0  0  0  0  0  0  0  0  0
   20.2567   -1.6706   64.8326 N   0  0  0  0  0  0  0  0  0  0  0  0
   19.7526   -0.6521   65.7960 C   0  0  0  0  0  0  0  0  0  0  0  0
   18.3186   -1.1770   66.0247 C   0  0  0  0  0  0  0  0  0  0  0  0
   17.3754   -0.3640   66.8746 C   0  0  0  0  0  0  0  0  0  0  0  0
   17.8299   -0.1273   68.2339 N   0  0  0  0  0  0  0  0  0  0  0  0
  1  2  1  0  0  0  0
  2  3  1  0  0  0  0
  3  4  1  0  0  0  0
  4  5  1  0  0  0  0
  5  6  1  0  0  0  0
  6  7  1  0  0  0  0
  7  8  1  0  0  0  0
  8  9  1  0  0  0  0
  9 10  1  0  0  0  0
 10 11  1  0  0  0  0
 11 12  1  0  0  0  0
 12 13  1  0  0  0  0
 13 14  1  0  0  0  0
M  END
>  <CHROM.1>
-173.32738259,174.40902849,-119.43563177,94.97441052,-63.00768210,178.97255683
-169.45509854,-113.72498355,-163.54798885,-175.01932644,-59.04178375,20.48852478
-1.32223988,63.18589714,1.06657038,0.05726023,-1.69961759

>  <Name>
1xpf_lig

>  <RI>
0

>  <Rbt.Current_Directory>
/home/afrankz/demos/rdock_decoys_rna/rnas/1xpf

>  <Rbt.Executable>
rbdock ($Id: //depot/dev/client3/rdock/2013.1/src/exe/rbdock.cxx#4 $)

>  <Rbt.Library>
libRbt.so (2013.1, Build901 2013/11/27)

>  <Rbt.Parameter_File>
/export/apps/rDock/src/rDock_2013.1_src/data/scripts/dock_solv.prm

>  <Rbt.Receptor>
prm/pocket_docking_5.prm

>  <SCORE>
-15.3534

>  <SCORE.INTER>
-6.77672

>  <SCORE.INTER.CONST>
1

>  <SCORE.INTER.POLAR>
-1.52213

>  <SCORE.INTER.ROT>
11

>  <SCORE.INTER.SOLV>
11.9621

>  <SCORE.INTER.VDW>
-14.3648

>  <SCORE.INTER.norm>
-0.484052

>  <SCORE.INTRA>
-8.5767

>  <SCORE.INTRA.DIHEDRAL>
-13.6201

>  <SCORE.INTRA.DIHEDRAL.0>
17.7811

>  <SCORE.INTRA.POLAR>
0

>  <SCORE.INTRA.POLAR.0>
0

>  <SCORE.INTRA.REPUL>
0

>  <SCORE.INTRA.REPUL.0>
0

>  <SCORE.INTRA.SOLV>
0.0668857

>  <SCORE.INTRA.SOLV.lig_0>
-47.9565

>  <SCORE.INTRA.VDW>
-1.80011

>  <SCORE.INTRA.VDW.0>
0.515983

>  <SCORE.INTRA.norm>
-0.612622

>  <SCORE.RESTR>
0

>  <SCORE.RESTR.CAVITY>
0

>  <SCORE.RESTR.norm>
0

>  <SCORE.SYSTEM>
0

>  <SCORE.SYSTEM.CONST>
0

>  <SCORE.SYSTEM.DIHEDRAL>
0

>  <SCORE.SYSTEM.SOLV>
0

>  <SCORE.SYSTEM.norm>
0

>  <SCORE.heavy>
14

>  <SCORE.norm>
-1.09667

>  <RMSD>
5.211

$$$$
1xpf_lig
 OpenBabel02141814123D
libRbt.so/2013.1/901 2013/11/27
 14 13  0  0  0  0  0  0  0  0999 V2000
   24.4247    4.9199   59.3558 N   0  0  0  0  0  0  0  0  0  0  0  0
   23.6940    4.3190   58.2553 C   0  0  0  0  0  0  0  0  0  0  0  0
   23.3298    2.9158   58.5623 C   0  0  0  0  0  0  0  0  0  0  0  0
   22.2031    2.9717   59.5466 C   0  0  0  0  0  0  0  0  0  0  0  0
   21.7976    1.5677   59.8020 N   0  0  0  0  0  0  0  0  0  0  0  0
   20.3871    1.5094   60.2938 C   0  0  0  0  0  0  0  0  0  0  0  0
   20.1596    2.3065   61.5899 C   0  0  0  0  0  0  0  0  0  0  0  0
   20.9146    1.7464   62.8084 C   0  0  0  0  0  0  0  0  0  0  0  0
   20.0787    0.6508   63.4527 C   0  0  0  0  0  0  0  0  0  0  0  0
   20.8417    0.2471   64.6428 N   0  0  0  0  0  0  0  0  0  0  0  0
   20.0806   -0.2065   65.8405 C   0  0  0  0  0  0  0  0  0  0  0  0
   19.9297    1.1333   66.5930 C   0  0  0  0  0  0  0  0  0  0  0  0
   19.6622    1.1061   68.0765 C   0  0  0  0  0  0  0  0  0  0  0  0
   18.4808    0.3576   68.4692 N   0  0  0  0  0  0  0  0  0  0  0  0
  1  2  1  0  0  0  0
  2  3  1  0  0  0  0
  3  4  1  0  0  0  0
  4  5  1  0  0  0  0
  5  6  1  0  0  0  0
  6  7  1  0  0  0  0
  7  8  1  0  0  0  0
  8  9  1  0  0  0  0
  9 10  1  0  0  0  0
 10 11  1  0  0  0  0
 11 12  1  0  0  0  0
 12 13  1  0  0  0  0
 13 14  1  0  0  0  0
M  END
>  <CHROM.1>
74.59579189,177.34144067,-156.81183974,-58.88283888,-65.41006196,-85.47190085
-176.52148623,147.56948344,-91.46428011,-158.33679889,-56.62153467,21.14162538
1.82464750,62.66331389,-0.98024675,0.81498991,1.46566272

>  <Name>
1xpf_lig

>  <RI>
0

>  <Rbt.Current_Directory>
/home/afrankz/demos/rdock_decoys_rna/rnas/1xpf

>  <Rbt.Executable>
rbdock ($Id: //depot/dev/client3/rdock/2013.1/src/exe/rbdock.cxx#4 $)

>  <Rbt.Library>
libRbt.so (2013.1, Build901 2013/11/27)

>  <Rbt.Parameter_File>
/export/apps/rDock/src/rDock_2013.1_src/data/scripts/dock_solv.prm

>  <Rbt.Receptor>
prm/pocket_docking_5.prm

>  <SCORE>
-9.61183

>  <SCORE.INTER>
-4.41729

>  <SCORE.INTER.CONST>
1

>  <SCORE.INTER.POLAR>
-1.83924

>  <SCORE.INTER.ROT>
11

>  <SCORE.INTER.SOLV>
11.1571

>  <SCORE.INTER.VDW>
-11.4664

>  <SCORE.INTER.norm>
-0.315521

>  <SCORE.INTRA>
-5.19454

>  <SCORE.INTRA.DIHEDRAL>
-11.1401

>  <SCORE.INTRA.DIHEDRAL.0>
17.7811

>  <SCORE.INTRA.POLAR>
0

>  <SCORE.INTRA.POLAR.0>
0

>  <SCORE.INTRA.REPUL>
0

>  <SCORE.INTRA.REPUL.0>
0

>  <SCORE.INTRA.SOLV>
0.978771

>  <SCORE.INTRA.SOLV.lig_0>
-47.9565

>  <SCORE.INTRA.VDW>
-0.113879

>  <SCORE.INTRA.VDW.0>
0.515983

>  <SCORE.INTRA.norm>
-0.371039

>  <SCORE.RESTR>
0

>  <SCORE.RESTR.CAVITY>
0

>  <SCORE.RESTR.norm>
0

>  <SCORE.SYSTEM>
0

>  <SCORE.SYSTEM.CONST>
0

>  <SCORE.SYSTEM.DIHEDRAL>
0

>  <SCORE.SYSTEM.SOLV>
0

>  <SCORE.SYSTEM.norm>
0

>  <SCORE.heavy>
14

>  <SCORE.norm>
-0.68656

>  <RMSD>
5.211

$$$$
1xpf_lig
 OpenBabel02141814123D
libRbt.so/2013.1/901 2013/11/27
 14 13  0  0  0  0  0  0  0  0999 V2000
   14.5020   -1.9006   58.0323 N   0  0  0  0  0  0  0  0  0  0  0  0
   13.6997   -1.4134   59.1392 C   0  0  0  0  0  0  0  0  0  0  0  0
   14.3479   -0.2538   59.7956 C   0  0  0  0  0  0  0  0  0  0  0  0
   13.4760    0.1260   60.9518 C   0  0  0  0  0  0  0  0  0  0  0  0
   14.1275    1.2868   61.6066 N   0  0  0  0  0  0  0  0  0  0  0  0
   14.8305    0.8596   62.8549 C   0  0  0  0  0  0  0  0  0  0  0  0
   15.9972    1.7837   63.2445 C   0  0  0  0  0  0  0  0  0  0  0  0
   17.1298    1.8327   62.2038 C   0  0  0  0  0  0  0  0  0  0  0  0
   18.2029    2.8004   62.6795 C   0  0  0  0  0  0  0  0  0  0  0  0
   19.2591    2.7206   61.6599 N   0  0  0  0  0  0  0  0  0  0  0  0
   20.3667    3.7151   61.7216 C   0  0  0  0  0  0  0  0  0  0  0  0
   20.9374    3.5789   60.2933 C   0  0  0  0  0  0  0  0  0  0  0  0
   22.1299    4.4158   59.9056 C   0  0  0  0  0  0  0  0  0  0  0  0
   22.5326    4.2959   58.5151 N   0  0  0  0  0  0  0  0  0  0  0  0
  1  2  1  0  0  0  0
  2  3  1  0  0  0  0
  3  4  1  0  0  0  0
  4  5  1  0  0  0  0
  5  6  1  0  0  0  0
  6  7  1  0  0  0  0
  7  8  1  0  0  0  0
  8  9  1  0  0  0  0
  9 10  1  0  0  0  0
 10 11  1  0  0  0  0
 11 12  1  0  0  0  0
 12 13  1  0  0  0  0
 13 14  1  0  0  0  0
M  END
>  <CHROM.1>
-177.45439000,-179.99745198,-102.79469847,154.46325681,-62.40960453,178.54715790
177.14842390,170.51693453,-162.41903722,-179.00449567,-175.52684513,17.25265388
1.70345031,60.90065382,-2.93690895,0.49857463,1.15616788

>  <Name>
1xpf_lig

>  <RI>
0

>  <Rbt.Current_Directory>
/home/afrankz/demos/rdock_decoys_rna/rnas/1xpf

>  <Rbt.Executable>
rbdock ($Id: //depot/dev/client3/rdock/2013.1/src/exe/rbdock.cxx#4 $)

>  <Rbt.Library>
libRbt.so (2013.1, Build901 2013/11/27)

>  <Rbt.Parameter_File>
/export/apps/rDock/src/rDock_2013.1_src/data/scripts/dock_solv.prm

>  <Rbt.Receptor>
prm/pocket_docking_7.prm

>  <SCORE>
-14.62

>  <SCORE.INTER>
-4.52878

>  <SCORE.INTER.CONST>
1

>  <SCORE.INTER.POLAR>
-1.63804

>  <SCORE.INTER.ROT>
11

>  <SCORE.INTER.SOLV>
15.0725

>  <SCORE.INTER.VDW>
-13.5166

>  <SCORE.INTER.norm>
-0.323484

>  <SCORE.INTRA>
-10.0913

>  <SCORE.INTRA.DIHEDRAL>
-15.8732

>  <SCORE.INTRA.DIHEDRAL.0>
17.7811

>  <SCORE.INTRA.POLAR>
0

>  <SCORE.INTRA.POLAR.0>
0

>  <SCORE.INTRA.REPUL>
0

>  <SCORE.INTRA.REPUL.0>
0

>  <SCORE.INTRA.SOLV>
-0.628426

>  <SCORE.INTRA.SOLV.lig_0>
-47.9565

>  <SCORE.INTRA.VDW>
-1.84047

>  <SCORE.INTRA.VDW.0>
0.515983

>  <SCORE.INTRA.norm>
-0.720805

>  <SCORE.RESTR>
0

>  <SCORE.RESTR.CAVITY>
0

>  <SCORE.RESTR.norm>
0

>  <SCORE.SYSTEM>
0

>  <SCORE.SYSTEM.CONST>
0

>  <SCORE.SYSTEM.DIHEDRAL>
0

>  <SCORE.SYSTEM.SOLV>
0

>  <SCORE.SYSTEM.norm>
0

>  <SCORE.heavy>
14

>  <SCORE.norm>
-1.04429

>  <RMSD>
5.218

$$$$
1xpf_lig
 OpenBabel02141814123D
libRbt.so/2013.1/901 2013/11/27
 14 13  0  0  0  0  0  0  0  0999 V2000
   23.4317    5.2968   59.7096 N   0  0  0  0  0  0  0  0  0  0  0  0
   22.5196    6.0875   60.5151 C   0  0  0  0  0  0  0  0  0  0  0  0
   21.9391    5.2768   61.6113 C   0  0  0  0  0  0  0  0  0  0  0  0
   21.1108    6.2085   62.4403 C   0  0  0  0  0  0  0  0  0  0  0  0
   20.6052    5.4147   63.5870 N   0  0  0  0  0  0  0  0  0  0  0  0
   21.5154    5.5545   64.7647 C   0  0  0  0  0  0  0  0  0  0  0  0
   21.2604    4.5050   65.8605 C   0  0  0  0  0  0  0  0  0  0  0  0
   19.8545    4.5798   66.4820 C   0  0  0  0  0  0  0  0  0  0  0  0
   19.7274    3.5118   67.5579 C   0  0  0  0  0  0  0  0  0  0  0  0
   19.7772    2.2362   66.8285 N   0  0  0  0  0  0  0  0  0  0  0  0
   19.6844    0.9759   67.6174 C   0  0  0  0  0  0  0  0  0  0  0  0
   19.8994   -0.0651   66.4974 C   0  0  0  0  0  0  0  0  0  0  0  0
   18.8252   -0.2408   65.4542 C   0  0  0  0  0  0  0  0  0  0  0  0
   17.5531   -0.7222   65.9643 N   0  0  0  0  0  0  0  0  0  0  0  0
  1  2  1  0  0  0  0
  2  3  1  0  0  0  0
  3  4  1  0  0  0  0
  4  5  1  0  0  0  0
  5  6  1  0  0  0  0
  6  7  1  0  0  0  0
  7  8  1  0  0  0  0
  8  9  1  0  0  0  0
  9 10  1  0  0  0  0
 10 11  1  0  0  0  0
 11 12  1  0  0  0  0
 12 13  1  0  0  0  0
 13 14  1  0  0  0  0
M  END
>  <CHROM.1>
175.41054888,-176.29778546,93.69838546,-165.65108305,-61.96387173,-179.29038499
-66.98170888,179.60389399,-175.30136614,-69.01663339,-63.49586291,20.55032853
3.47298284,64.63526000,0.10913323,-1.16261256,-2.26219839

>  <Name>
1xpf_lig

>  <RI>
0

>  <Rbt.Current_Directory>
/home/afrankz/demos/rdock_decoys_rna/rnas/1xpf

>  <Rbt.Executable>
rbdock ($Id: //depot/dev/client3/rdock/2013.1/src/exe/rbdock.cxx#4 $)

>  <Rbt.Library>
libRbt.so (2013.1, Build901 2013/11/27)

>  <Rbt.Parameter_File>
/export/apps/rDock/src/rDock_2013.1_src/data/scripts/dock_solv.prm

>  <Rbt.Receptor>
prm/pocket_docking_4.prm

>  <SCORE>
-7.55234

>  <SCORE.INTER>
1.18901

>  <SCORE.INTER.CONST>
1

>  <SCORE.INTER.POLAR>
0

>  <SCORE.INTER.ROT>
11

>  <SCORE.INTER.SOLV>
7.26073

>  <SCORE.INTER.VDW>
-12.5609

>  <SCORE.INTER.norm>
0.0849294

>  <SCORE.INTRA>
-8.74135

>  <SCORE.INTRA.DIHEDRAL>
-16.2078

>  <SCORE.INTRA.DIHEDRAL.0>
17.7811

>  <SCORE.INTRA.POLAR>
0

>  <SCORE.INTRA.POLAR.0>
0

>  <SCORE.INTRA.REPUL>
0

>  <SCORE.INTRA.REPUL.0>
0

>  <SCORE.INTRA.SOLV>
1.34004

>  <SCORE.INTRA.SOLV.lig_0>
-47.9565

>  <SCORE.INTRA.VDW>
-1.30746

>  <SCORE.INTRA.VDW.0>
0.515983

>  <SCORE.INTRA.norm>
-0.624382

>  <SCORE.RESTR>
0

>  <SCORE.RESTR.CAVITY>
0

>  <SCORE.RESTR.norm>
0

>  <SCORE.SYSTEM>
0

>  <SCORE.SYSTEM.CONST>
0

>  <SCORE.SYSTEM.DIHEDRAL>
0

>  <SCORE.SYSTEM.SOLV>
0

>  <SCORE.SYSTEM.norm>
0

>  <SCORE.heavy>
14

>  <SCORE.norm>
-0.539453

>  <RMSD>
5.221

$$$$
1xpf_lig
 OpenBabel02141814123D
libRbt.so/2013.1/901 2013/11/27
 14 13  0  0  0  0  0  0  0  0999 V2000
   20.0272    3.1233   66.5780 N   0  0  0  0  0  0  0  0  0  0  0  0
   19.9233    2.6599   67.9493 C   0  0  0  0  0  0  0  0  0  0  0  0
   19.8368    1.1816   68.0058 C   0  0  0  0  0  0  0  0  0  0  0  0
   18.5018    0.8092   67.4395 C   0  0  0  0  0  0  0  0  0  0  0  0
   18.4013   -0.6677   67.5358 N   0  0  0  0  0  0  0  0  0  0  0  0
   17.0485   -1.1317   67.1003 C   0  0  0  0  0  0  0  0  0  0  0  0
   17.0956   -2.1672   65.9635 C   0  0  0  0  0  0  0  0  0  0  0  0
   17.7065   -1.6323   64.6562 C   0  0  0  0  0  0  0  0  0  0  0  0
   19.2128   -1.5036   64.8256 C   0  0  0  0  0  0  0  0  0  0  0  0
   19.7076   -1.1092   63.4985 N   0  0  0  0  0  0  0  0  0  0  0  0
   21.1547   -1.3070   63.2049 C   0  0  0  0  0  0  0  0  0  0  0  0
   21.2412   -0.6615   61.8049 C   0  0  0  0  0  0  0  0  0  0  0  0
   22.5488   -0.7232   61.0570 C   0  0  0  0  0  0  0  0  0  0  0  0
   22.5539   -0.0308   59.7800 N   0  0  0  0  0  0  0  0  0  0  0  0
  1  2  1  0  0  0  0
  2  3  1  0  0  0  0
  3  4  1  0  0  0  0
  4  5  1  0  0  0  0
  5  6  1  0  0  0  0
  6  7  1  0  0  0  0
  7  8  1  0  0  0  0
  8  9  1  0  0  0  0
  9 10  1  0  0  0  0
 10 11  1  0  0  0  0
 11 12  1  0  0  0  0
 12 13  1  0  0  0  0
 13 14  1  0  0  0  0
M  END
>  <CHROM.1>
-69.26640320,-178.30390604,175.16044974,124.01031193,-63.02382310,73.71788111
174.97147881,-161.30895010,-175.26404799,-175.68652125,-176.99698075,19.63976507
-0.22596921,64.95734199,-2.26107279,-0.75825323,-2.27285956

>  <Name>
1xpf_lig

>  <RI>
0

>  <Rbt.Current_Directory>
/home/afrankz/demos/rdock_decoys_rna/rnas/1xpf

>  <Rbt.Executable>
rbdock ($Id: //depot/dev/client3/rdock/2013.1/src/exe/rbdock.cxx#4 $)

>  <Rbt.Library>
libRbt.so (2013.1, Build901 2013/11/27)

>  <Rbt.Parameter_File>
/export/apps/rDock/src/rDock_2013.1_src/data/scripts/dock_solv.prm

>  <Rbt.Receptor>
prm/pocket_docking_8.prm

>  <SCORE>
-13.9201

>  <SCORE.INTER>
-5.54344

>  <SCORE.INTER.CONST>
1

>  <SCORE.INTER.POLAR>
-1.68311

>  <SCORE.INTER.ROT>
11

>  <SCORE.INTER.SOLV>
10.9126

>  <SCORE.INTER.VDW>
-12.6561

>  <SCORE.INTER.norm>
-0.39596

>  <SCORE.INTRA>
-8.37668

>  <SCORE.INTRA.DIHEDRAL>
-14.9724

>  <SCORE.INTRA.DIHEDRAL.0>
17.7811

>  <SCORE.INTRA.POLAR>
0

>  <SCORE.INTRA.POLAR.0>
0

>  <SCORE.INTRA.REPUL>
0

>  <SCORE.INTRA.REPUL.0>
0

>  <SCORE.INTRA.SOLV>
1.00325

>  <SCORE.INTRA.SOLV.lig_0>
-47.9565

>  <SCORE.INTRA.VDW>
-1.39208

>  <SCORE.INTRA.VDW.0>
0.515983

>  <SCORE.INTRA.norm>
-0.598334

>  <SCORE.RESTR>
0

>  <SCORE.RESTR.CAVITY>
0

>  <SCORE.RESTR.norm>
0

>  <SCORE.SYSTEM>
0

>  <SCORE.SYSTEM.CONST>
0

>  <SCORE.SYSTEM.DIHEDRAL>
0

>  <SCORE.SYSTEM.SOLV>
0

>  <SCORE.SYSTEM.norm>
0

>  <SCORE.heavy>
14

>  <SCORE.norm>
-0.994294

>  <RMSD>
5.224

$$$$
1xpf_lig
 OpenBabel02141814123D
libRbt.so/2013.1/901 2013/11/27
 14 13  0  0  0  0  0  0  0  0999 V2000
   18.5371   10.1753   65.3774 N   0  0  0  0  0  0  0  0  0  0  0  0
   19.4782    9.0816   65.2210 C   0  0  0  0  0  0  0  0  0  0  0  0
   19.2640    8.3758   63.9358 C   0  0  0  0  0  0  0  0  0  0  0  0
   20.1698    7.1838   63.9461 C   0  0  0  0  0  0  0  0  0  0  0  0
   19.5080    6.1598   64.7911 N   0  0  0  0  0  0  0  0  0  0  0  0
   20.0488    4.7994   64.4883 C   0  0  0  0  0  0  0  0  0  0  0  0
   19.7734    3.7722   65.6001 C   0  0  0  0  0  0  0  0  0  0  0  0
   20.3984    2.3897   65.3422 C   0  0  0  0  0  0  0  0  0  0  0  0
   20.1435    1.4947   66.5455 C   0  0  0  0  0  0  0  0  0  0  0  0
   18.8399    0.8694   66.2789 N   0  0  0  0  0  0  0  0  0  0  0  0
   18.0956    0.2867   67.4305 C   0  0  0  0  0  0  0  0  0  0  0  0
   17.4023   -0.9045   66.7343 C   0  0  0  0  0  0  0  0  0  0  0  0
   16.5114   -1.8046   67.5524 C   0  0  0  0  0  0  0  0  0  0  0  0
   17.1027   -2.2874   68.7883 N   0  0  0  0  0  0  0  0  0  0  0  0
  1  2  1  0  0  0  0
  2  3  1  0  0  0  0
  3  4  1  0  0  0  0
  4  5  1  0  0  0  0
  5  6  1  0  0  0  0
  6  7  1  0  0  0  0
  7  8  1  0  0  0  0
  8  9  1  0  0  0  0
  9 10  1  0  0  0  0
 10 11  1  0  0  0  0
 11 12  1  0  0  0  0
 12 13  1  0  0  0  0
 13 14  1  0  0  0  0
M  END
>  <CHROM.1>
-173.66603789,78.58717077,159.75982300,161.07273185,-176.45049855,176.07465920
88.03332015,-160.62016659,-146.50015547,-179.93322528,-49.96445603,18.94826817
3.54220642,65.85924306,1.35658063,0.56779205,-0.17627527

>  <Name>
1xpf_lig

>  <RI>
0

>  <Rbt.Current_Directory>
/home/afrankz/demos/rdock_decoys_rna/rnas/1xpf

>  <Rbt.Executable>
rbdock ($Id: //depot/dev/client3/rdock/2013.1/src/exe/rbdock.cxx#4 $)

>  <Rbt.Library>
libRbt.so (2013.1, Build901 2013/11/27)

>  <Rbt.Parameter_File>
/export/apps/rDock/src/rDock_2013.1_src/data/scripts/dock_solv.prm

>  <Rbt.Receptor>
prm/blind_docking_100.prm

>  <SCORE>
-9.47108

>  <SCORE.INTER>
-2.27488

>  <SCORE.INTER.CONST>
1

>  <SCORE.INTER.POLAR>
-0.621121

>  <SCORE.INTER.ROT>
11

>  <SCORE.INTER.SOLV>
10.7782

>  <SCORE.INTER.VDW>
-13.9722

>  <SCORE.INTER.norm>
-0.162491

>  <SCORE.INTRA>
-7.32568

>  <SCORE.INTRA.DIHEDRAL>
-11.8925

>  <SCORE.INTRA.DIHEDRAL.0>
17.7811

>  <SCORE.INTRA.POLAR>
0

>  <SCORE.INTRA.POLAR.0>
0

>  <SCORE.INTRA.REPUL>
0

>  <SCORE.INTRA.REPUL.0>
0

>  <SCORE.INTRA.SOLV>
0.558188

>  <SCORE.INTRA.SOLV.lig_0>
-47.9565

>  <SCORE.INTRA.VDW>
-1.65853

>  <SCORE.INTRA.VDW.0>
0.515983

>  <SCORE.INTRA.norm>
-0.523263

>  <SCORE.RESTR>
0.129481

>  <SCORE.RESTR.CAVITY>
0.129481

>  <SCORE.RESTR.norm>
0.00924861

>  <SCORE.SYSTEM>
0

>  <SCORE.SYSTEM.CONST>
0

>  <SCORE.SYSTEM.DIHEDRAL>
0

>  <SCORE.SYSTEM.SOLV>
0

>  <SCORE.SYSTEM.norm>
0

>  <SCORE.heavy>
14

>  <SCORE.norm>
-0.676506

>  <RMSD>
5.225

$$$$
1xpf_lig
 OpenBabel02141814123D
libRbt.so/2013.1/901 2013/11/27
 14 13  0  0  0  0  0  0  0  0999 V2000
   16.6551   -1.5408   65.6938 N   0  0  0  0  0  0  0  0  0  0  0  0
   17.3251   -0.3535   66.1913 C   0  0  0  0  0  0  0  0  0  0  0  0
   18.6547   -0.6893   66.7525 C   0  0  0  0  0  0  0  0  0  0  0  0
   19.3244    0.6106   67.0736 C   0  0  0  0  0  0  0  0  0  0  0  0
   18.5710    1.2036   68.2056 N   0  0  0  0  0  0  0  0  0  0  0  0
   19.4566    2.0935   69.0173 C   0  0  0  0  0  0  0  0  0  0  0  0
   19.3946    3.5700   68.5897 C   0  0  0  0  0  0  0  0  0  0  0  0
   19.8819    3.8251   67.1523 C   0  0  0  0  0  0  0  0  0  0  0  0
   19.7822    5.3123   66.8484 C   0  0  0  0  0  0  0  0  0  0  0  0
   20.3653    5.4613   65.5070 N   0  0  0  0  0  0  0  0  0  0  0  0
   21.6474    6.2096   65.3812 C   0  0  0  0  0  0  0  0  0  0  0  0
   21.7045    6.4004   63.8501 C   0  0  0  0  0  0  0  0  0  0  0  0
   22.8771    7.1369   63.2539 C   0  0  0  0  0  0  0  0  0  0  0  0
   22.9003    7.1726   61.8019 N   0  0  0  0  0  0  0  0  0  0  0  0
  1  2  1  0  0  0  0
  2  3  1  0  0  0  0
  3  4  1  0  0  0  0
  4  5  1  0  0  0  0
  5  6  1  0  0  0  0
  6  7  1  0  0  0  0
  7  8  1  0  0  0  0
  8  9  1  0  0  0  0
  9 10  1  0  0  0  0
 10 11  1  0  0  0  0
 11 12  1  0  0  0  0
 12 13  1  0  0  0  0
 13 14  1  0  0  0  0
M  END
>  <CHROM.1>
173.01712612,68.39722435,152.81063895,93.51416114,-62.92953410,-179.66283363
175.65330456,-112.85992580,-167.55148263,179.90956385,175.20943864,19.89584439
3.31526532,66.09451251,3.00760120,1.07145469,1.25969221

>  <Name>
1xpf_lig

>  <RI>
0

>  <Rbt.Current_Directory>
/home/afrankz/demos/rdock_decoys_rna/rnas/1xpf

>  <Rbt.Executable>
rbdock ($Id: //depot/dev/client3/rdock/2013.1/src/exe/rbdock.cxx#4 $)

>  <Rbt.Library>
libRbt.so (2013.1, Build901 2013/11/27)

>  <Rbt.Parameter_File>
/export/apps/rDock/src/rDock_2013.1_src/data/scripts/dock_solv.prm

>  <Rbt.Receptor>
prm/pocket_docking_5.prm

>  <SCORE>
-15.8212

>  <SCORE.INTER>
-7.29623

>  <SCORE.INTER.CONST>
1

>  <SCORE.INTER.POLAR>
-1.71652

>  <SCORE.INTER.ROT>
11

>  <SCORE.INTER.SOLV>
11.3635

>  <SCORE.INTER.VDW>
-13.8636

>  <SCORE.INTER.norm>
-0.52116

>  <SCORE.INTRA>
-8.52951

>  <SCORE.INTRA.DIHEDRAL>
-14.6423

>  <SCORE.INTRA.DIHEDRAL.0>
17.7811

>  <SCORE.INTRA.POLAR>
0

>  <SCORE.INTRA.POLAR.0>
0

>  <SCORE.INTRA.REPUL>
0

>  <SCORE.INTRA.REPUL.0>
0

>  <SCORE.INTRA.SOLV>
-0.0741891

>  <SCORE.INTRA.SOLV.lig_0>
-47.9565

>  <SCORE.INTRA.VDW>
-1.17125

>  <SCORE.INTRA.VDW.0>
0.515983

>  <SCORE.INTRA.norm>
-0.609251

>  <SCORE.RESTR>
0.00454897

>  <SCORE.RESTR.CAVITY>
0.00454897

>  <SCORE.RESTR.norm>
0.000324926

>  <SCORE.SYSTEM>
0

>  <SCORE.SYSTEM.CONST>
0

>  <SCORE.SYSTEM.DIHEDRAL>
0

>  <SCORE.SYSTEM.SOLV>
0

>  <SCORE.SYSTEM.norm>
0

>  <SCORE.heavy>
14

>  <SCORE.norm>
-1.13009

>  <RMSD>
5.227

$$$$
1xpf_lig
 OpenBabel02141814123D
libRbt.so/2013.1/901 2013/11/27
 14 13  0  0  0  0  0  0  0  0999 V2000
   19.2289   -1.7105   63.9458 N   0  0  0  0  0  0  0  0  0  0  0  0
   20.1919   -1.4939   65.0098 C   0  0  0  0  0  0  0  0  0  0  0  0
   21.4465   -0.9097   64.4803 C   0  0  0  0  0  0  0  0  0  0  0  0
   22.0843   -1.9642   63.6302 C   0  0  0  0  0  0  0  0  0  0  0  0
   23.3245   -1.3662   63.0781 N   0  0  0  0  0  0  0  0  0  0  0  0
   23.8671   -2.2110   61.9704 C   0  0  0  0  0  0  0  0  0  0  0  0
   22.9958   -2.1876   60.7026 C   0  0  0  0  0  0  0  0  0  0  0  0
   22.6906   -0.7724   60.1804 C   0  0  0  0  0  0  0  0  0  0  0  0
   23.9575   -0.1761   59.5859 C   0  0  0  0  0  0  0  0  0  0  0  0
   23.5669    1.1705   59.1436 N   0  0  0  0  0  0  0  0  0  0  0  0
   24.5968    2.0118   58.4720 C   0  0  0  0  0  0  0  0  0  0  0  0
   23.7919    3.3120   58.2580 C   0  0  0  0  0  0  0  0  0  0  0  0
   24.4393    4.4519   57.5135 C   0  0  0  0  0  0  0  0  0  0  0  0
   23.7151    5.7097   57.5750 N   0  0  0  0  0  0  0  0  0  0  0  0
  1  2  1  0  0  0  0
  2  3  1  0  0  0  0
  3  4  1  0  0  0  0
  4  5  1  0  0  0  0
  5  6  1  0  0  0  0
  6  7  1  0  0  0  0
  7  8  1  0  0  0  0
  8  9  1  0  0  0  0
  9 10  1  0  0  0  0
 10 11  1  0  0  0  0
 11 12  1  0  0  0  0
 12 13  1  0  0  0  0
 13 14  1  0  0  0  0
M  END
>  <CHROM.1>
-67.57493861,178.79359025,-166.68776696,69.57570636,53.32758605,71.30566720
-179.00438932,-178.34022461,-177.31155587,-176.45619587,-169.03132040,22.84994191
0.27575097,60.96755844,2.05698170,-0.79056007,2.68280429

>  <Name>
1xpf_lig

>  <RI>
0

>  <Rbt.Current_Directory>
/home/afrankz/demos/rdock_decoys_rna/rnas/1xpf

>  <Rbt.Executable>
rbdock ($Id: //depot/dev/client3/rdock/2013.1/src/exe/rbdock.cxx#4 $)

>  <Rbt.Library>
libRbt.so (2013.1, Build901 2013/11/27)

>  <Rbt.Parameter_File>
/export/apps/rDock/src/rDock_2013.1_src/data/scripts/dock_solv.prm

>  <Rbt.Receptor>
prm/pocket_docking_6.prm

>  <SCORE>
-16.9491

>  <SCORE.INTER>
-8.59767

>  <SCORE.INTER.CONST>
1

>  <SCORE.INTER.POLAR>
-1.78762

>  <SCORE.INTER.ROT>
11

>  <SCORE.INTER.SOLV>
7.54239

>  <SCORE.INTER.VDW>
-13.2205

>  <SCORE.INTER.norm>
-0.614119

>  <SCORE.INTRA>
-8.35147

>  <SCORE.INTRA.DIHEDRAL>
-16.158

>  <SCORE.INTRA.DIHEDRAL.0>
17.7811

>  <SCORE.INTRA.POLAR>
0

>  <SCORE.INTRA.POLAR.0>
0

>  <SCORE.INTRA.REPUL>
0

>  <SCORE.INTRA.REPUL.0>
0

>  <SCORE.INTRA.SOLV>
0.671595

>  <SCORE.INTRA.SOLV.lig_0>
-47.9565

>  <SCORE.INTRA.VDW>
-0.60828

>  <SCORE.INTRA.VDW.0>
0.515983

>  <SCORE.INTRA.norm>
-0.596534

>  <SCORE.RESTR>
0

>  <SCORE.RESTR.CAVITY>
0

>  <SCORE.RESTR.norm>
0

>  <SCORE.SYSTEM>
0

>  <SCORE.SYSTEM.CONST>
0

>  <SCORE.SYSTEM.DIHEDRAL>
0

>  <SCORE.SYSTEM.SOLV>
0

>  <SCORE.SYSTEM.norm>
0

>  <SCORE.heavy>
14

>  <SCORE.norm>
-1.21065

>  <RMSD>
5.244

$$$$
1xpf_lig
 OpenBabel02141814123D
libRbt.so/2013.1/901 2013/11/27
 14 13  0  0  0  0  0  0  0  0999 V2000
   24.9166    2.0643   58.8697 N   0  0  0  0  0  0  0  0  0  0  0  0
   24.8847    1.3822   60.1502 C   0  0  0  0  0  0  0  0  0  0  0  0
   24.4078   -0.0125   59.9978 C   0  0  0  0  0  0  0  0  0  0  0  0
   24.3697   -0.6044   61.3725 C   0  0  0  0  0  0  0  0  0  0  0  0
   23.9351   -2.0136   61.2118 N   0  0  0  0  0  0  0  0  0  0  0  0
   23.2255   -2.4878   62.4393 C   0  0  0  0  0  0  0  0  0  0  0  0
   21.6985   -2.3148   62.3661 C   0  0  0  0  0  0  0  0  0  0  0  0
   20.9969   -2.3743   63.7346 C   0  0  0  0  0  0  0  0  0  0  0  0
   21.3201   -1.1099   64.5162 C   0  0  0  0  0  0  0  0  0  0  0  0
   20.3378   -1.0831   65.6098 N   0  0  0  0  0  0  0  0  0  0  0  0
   20.1664    0.1900   66.3643 C   0  0  0  0  0  0  0  0  0  0  0  0
   18.6514    0.4197   66.1741 C   0  0  0  0  0  0  0  0  0  0  0  0
   17.6846   -0.4272   66.9623 C   0  0  0  0  0  0  0  0  0  0  0  0
   17.7900   -0.2903   68.4046 N   0  0  0  0  0  0  0  0  0  0  0  0
  1  2  1  0  0  0  0
  2  3  1  0  0  0  0
  3  4  1  0  0  0  0
  4  5  1  0  0  0  0
  5  6  1  0  0  0  0
  6  7  1  0  0  0  0
  7  8  1  0  0  0  0
  8  9  1  0  0  0  0
  9 10  1  0  0  0  0
 10 11  1  0  0  0  0
 11 12  1  0  0  0  0
 12 13  1  0  0  0  0
 13 14  1  0  0  0  0
M  END
>  <CHROM.1>
-178.13453348,-178.17268262,-151.86146150,93.31767525,-161.96250685,71.43009299
164.83069728,-165.39742687,123.78854401,74.75054197,61.35823998,21.74177705
-0.61880835,63.44092002,0.11371675,0.84909869,-0.06934873

>  <Name>
1xpf_lig

>  <RI>
0

>  <Rbt.Current_Directory>
/home/afrankz/demos/rdock_decoys_rna/rnas/1xpf

>  <Rbt.Executable>
rbdock ($Id: //depot/dev/client3/rdock/2013.1/src/exe/rbdock.cxx#4 $)

>  <Rbt.Library>
libRbt.so (2013.1, Build901 2013/11/27)

>  <Rbt.Parameter_File>
/export/apps/rDock/src/rDock_2013.1_src/data/scripts/dock_solv.prm

>  <Rbt.Receptor>
prm/pocket_docking_6.prm

>  <SCORE>
-12.728

>  <SCORE.INTER>
-5.72625

>  <SCORE.INTER.CONST>
1

>  <SCORE.INTER.POLAR>
-1.45422

>  <SCORE.INTER.ROT>
11

>  <SCORE.INTER.SOLV>
11.9992

>  <SCORE.INTER.VDW>
-13.9032

>  <SCORE.INTER.norm>
-0.409018

>  <SCORE.INTRA>
-7.01031

>  <SCORE.INTRA.DIHEDRAL>
-11.865

>  <SCORE.INTRA.DIHEDRAL.0>
17.7811

>  <SCORE.INTRA.POLAR>
0

>  <SCORE.INTRA.POLAR.0>
0

>  <SCORE.INTRA.REPUL>
0

>  <SCORE.INTRA.REPUL.0>
0

>  <SCORE.INTRA.SOLV>
0.686955

>  <SCORE.INTRA.SOLV.lig_0>
-47.9565

>  <SCORE.INTRA.VDW>
-1.42129

>  <SCORE.INTRA.VDW.0>
0.515983

>  <SCORE.INTRA.norm>
-0.500737

>  <SCORE.RESTR>
0.008583

>  <SCORE.RESTR.CAVITY>
0.008583

>  <SCORE.RESTR.norm>
0.000613071

>  <SCORE.SYSTEM>
0

>  <SCORE.SYSTEM.CONST>
0

>  <SCORE.SYSTEM.DIHEDRAL>
0

>  <SCORE.SYSTEM.SOLV>
0

>  <SCORE.SYSTEM.norm>
0

>  <SCORE.heavy>
14

>  <SCORE.norm>
-0.909142

>  <RMSD>
5.248

$$$$
1xpf_lig
 OpenBabel02141814123D
libRbt.so/2013.1/901 2013/11/27
 14 13  0  0  0  0  0  0  0  0999 V2000
   19.9474    3.1458   59.8038 N   0  0  0  0  0  0  0  0  0  0  0  0
   20.8270    2.0023   59.9613 C   0  0  0  0  0  0  0  0  0  0  0  0
   20.2070    0.9698   60.8248 C   0  0  0  0  0  0  0  0  0  0  0  0
   21.1510   -0.1919   60.8479 C   0  0  0  0  0  0  0  0  0  0  0  0
   20.5512   -1.2034   61.7522 N   0  0  0  0  0  0  0  0  0  0  0  0
   21.4907   -2.3481   61.9569 C   0  0  0  0  0  0  0  0  0  0  0  0
   21.2334   -3.1227   63.2610 C   0  0  0  0  0  0  0  0  0  0  0  0
   21.3944   -2.2734   64.5342 C   0  0  0  0  0  0  0  0  0  0  0  0
   20.1343   -1.4478   64.7457 C   0  0  0  0  0  0  0  0  0  0  0  0
   20.4114   -0.6394   65.9420 N   0  0  0  0  0  0  0  0  0  0  0  0
   19.2722    0.0776   66.5805 C   0  0  0  0  0  0  0  0  0  0  0  0
   20.0324    1.2080   67.3075 C   0  0  0  0  0  0  0  0  0  0  0  0
   19.2706    2.1060   68.2487 C   0  0  0  0  0  0  0  0  0  0  0  0
   18.6390    1.4237   69.3649 N   0  0  0  0  0  0  0  0  0  0  0  0
  1  2  1  0  0  0  0
  2  3  1  0  0  0  0
  3  4  1  0  0  0  0
  4  5  1  0  0  0  0
  5  6  1  0  0  0  0
  6  7  1  0  0  0  0
  7  8  1  0  0  0  0
  8  9  1  0  0  0  0
  9 10  1  0  0  0  0
 10 11  1  0  0  0  0
 11 12  1  0  0  0  0
 12 13  1  0  0  0  0
 13 14  1  0  0  0  0
M  END
>  <CHROM.1>
176.41950049,177.98268537,-174.03013900,156.52101261,-61.17551297,79.99808395
-177.68960191,-167.73672514,-156.19593458,-172.46010231,59.97664089,20.32603256
-0.02124894,63.93783691,0.95445057,1.24947805,-1.04348555

>  <Name>
1xpf_lig

>  <RI>
0

>  <Rbt.Current_Directory>
/home/afrankz/demos/rdock_decoys_rna/rnas/1xpf

>  <Rbt.Executable>
rbdock ($Id: //depot/dev/client3/rdock/2013.1/src/exe/rbdock.cxx#4 $)

>  <Rbt.Library>
libRbt.so (2013.1, Build901 2013/11/27)

>  <Rbt.Parameter_File>
/export/apps/rDock/src/rDock_2013.1_src/data/scripts/dock_solv.prm

>  <Rbt.Receptor>
prm/pocket_docking_8.prm

>  <SCORE>
-10.2595

>  <SCORE.INTER>
-1.40318

>  <SCORE.INTER.CONST>
1

>  <SCORE.INTER.POLAR>
-1.04486

>  <SCORE.INTER.ROT>
11

>  <SCORE.INTER.SOLV>
16.1017

>  <SCORE.INTER.VDW>
-13.7531

>  <SCORE.INTER.norm>
-0.100227

>  <SCORE.INTRA>
-8.85629

>  <SCORE.INTRA.DIHEDRAL>
-14.9935

>  <SCORE.INTRA.DIHEDRAL.0>
17.7811

>  <SCORE.INTRA.POLAR>
0

>  <SCORE.INTRA.POLAR.0>
0

>  <SCORE.INTRA.REPUL>
0

>  <SCORE.INTRA.REPUL.0>
0

>  <SCORE.INTRA.SOLV>
0.768788

>  <SCORE.INTRA.SOLV.lig_0>
-47.9565

>  <SCORE.INTRA.VDW>
-1.74394

>  <SCORE.INTRA.VDW.0>
0.515983

>  <SCORE.INTRA.norm>
-0.632592

>  <SCORE.RESTR>
0

>  <SCORE.RESTR.CAVITY>
0

>  <SCORE.RESTR.norm>
0

>  <SCORE.SYSTEM>
0

>  <SCORE.SYSTEM.CONST>
0

>  <SCORE.SYSTEM.DIHEDRAL>
0

>  <SCORE.SYSTEM.SOLV>
0

>  <SCORE.SYSTEM.norm>
0

>  <SCORE.heavy>
14

>  <SCORE.norm>
-0.732819

>  <RMSD>
5.252

$$$$
1xpf_lig
 OpenBabel02141814123D
libRbt.so/2013.1/901 2013/11/27
 14 13  0  0  0  0  0  0  0  0999 V2000
   16.5944   -2.6139   65.2891 N   0  0  0  0  0  0  0  0  0  0  0  0
   16.7609   -1.5065   66.2122 C   0  0  0  0  0  0  0  0  0  0  0  0
   18.1793   -1.0837   66.2849 C   0  0  0  0  0  0  0  0  0  0  0  0
   18.2350    0.0643   67.2443 C   0  0  0  0  0  0  0  0  0  0  0  0
   19.6499    0.5081   67.2874 N   0  0  0  0  0  0  0  0  0  0  0  0
   19.8441    1.5419   68.3497 C   0  0  0  0  0  0  0  0  0  0  0  0
   19.3386    2.9369   67.9430 C   0  0  0  0  0  0  0  0  0  0  0  0
   20.0598    3.5306   66.7199 C   0  0  0  0  0  0  0  0  0  0  0  0
   19.4724    4.8992   66.4103 C   0  0  0  0  0  0  0  0  0  0  0  0
   20.2749    5.4071   65.2880 N   0  0  0  0  0  0  0  0  0  0  0  0
   19.9006    6.7241   64.7006 C   0  0  0  0  0  0  0  0  0  0  0  0
   20.5944    7.6765   65.6984 C   0  0  0  0  0  0  0  0  0  0  0  0
   20.2879    9.1509   65.6268 C   0  0  0  0  0  0  0  0  0  0  0  0
   21.0581    9.9786   66.5389 N   0  0  0  0  0  0  0  0  0  0  0  0
  1  2  1  0  0  0  0
  2  3  1  0  0  0  0
  3  4  1  0  0  0  0
  4  5  1  0  0  0  0
  5  6  1  0  0  0  0
  6  7  1  0  0  0  0
  7  8  1  0  0  0  0
  8  9  1  0  0  0  0
  9 10  1  0  0  0  0
 10 11  1  0  0  0  0
 11 12  1  0  0  0  0
 12 13  1  0  0  0  0
 13 14  1  0  0  0  0
M  END
>  <CHROM.1>
179.35355890,-178.53593847,-172.83899948,-77.29042746,-61.68062807,179.68637455
176.81098679,177.15655046,82.17596702,-169.72874603,-175.76916365,19.30353540
3.37244679,66.39964638,2.12387260,1.00243717,2.59074524

>  <Name>
1xpf_lig

>  <RI>
0

>  <Rbt.Current_Directory>
/home/afrankz/demos/rdock_decoys_rna/rnas/1xpf

>  <Rbt.Executable>
rbdock ($Id: //depot/dev/client3/rdock/2013.1/src/exe/rbdock.cxx#4 $)

>  <Rbt.Library>
libRbt.so (2013.1, Build901 2013/11/27)

>  <Rbt.Parameter_File>
/export/apps/rDock/src/rDock_2013.1_src/data/scripts/dock_solv.prm

>  <Rbt.Receptor>
prm/pocket_docking_7.prm

>  <SCORE>
-10.2046

>  <SCORE.INTER>
-0.658763

>  <SCORE.INTER.CONST>
1

>  <SCORE.INTER.POLAR>
-0.337295

>  <SCORE.INTER.ROT>
11

>  <SCORE.INTER.SOLV>
11.6239

>  <SCORE.INTER.VDW>
-14.1228

>  <SCORE.INTER.norm>
-0.0470545

>  <SCORE.INTRA>
-9.54585

>  <SCORE.INTRA.DIHEDRAL>
-16.626

>  <SCORE.INTRA.DIHEDRAL.0>
17.7811

>  <SCORE.INTRA.POLAR>
0

>  <SCORE.INTRA.POLAR.0>
0

>  <SCORE.INTRA.REPUL>
0

>  <SCORE.INTRA.REPUL.0>
0

>  <SCORE.INTRA.SOLV>
-0.610599

>  <SCORE.INTRA.SOLV.lig_0>
-47.9565

>  <SCORE.INTRA.VDW>
-0.927562

>  <SCORE.INTRA.VDW.0>
0.515983

>  <SCORE.INTRA.norm>
-0.681846

>  <SCORE.RESTR>
0

>  <SCORE.RESTR.CAVITY>
0

>  <SCORE.RESTR.norm>
0

>  <SCORE.SYSTEM>
0

>  <SCORE.SYSTEM.CONST>
0

>  <SCORE.SYSTEM.DIHEDRAL>
0

>  <SCORE.SYSTEM.SOLV>
0

>  <SCORE.SYSTEM.norm>
0

>  <SCORE.heavy>
14

>  <SCORE.norm>
-0.728901

>  <RMSD>
5.270

$$$$
1xpf_lig
 OpenBabel02141814123D
libRbt.so/2013.1/901 2013/11/27
 14 13  0  0  0  0  0  0  0  0999 V2000
   20.8485   -0.1857   64.7272 N   0  0  0  0  0  0  0  0  0  0  0  0
   19.7391    0.5033   65.3604 C   0  0  0  0  0  0  0  0  0  0  0  0
   19.3918   -0.1267   66.6558 C   0  0  0  0  0  0  0  0  0  0  0  0
   18.0741    0.4492   67.0722 C   0  0  0  0  0  0  0  0  0  0  0  0
   17.6755   -0.2643   68.3102 N   0  0  0  0  0  0  0  0  0  0  0  0
   16.6760   -1.3326   68.0022 C   0  0  0  0  0  0  0  0  0  0  0  0
   17.1453   -2.3106   66.9113 C   0  0  0  0  0  0  0  0  0  0  0  0
   16.3649   -3.6368   66.8836 C   0  0  0  0  0  0  0  0  0  0  0  0
   16.7700   -4.4283   65.6492 C   0  0  0  0  0  0  0  0  0  0  0  0
   16.1552   -5.7511   65.8328 N   0  0  0  0  0  0  0  0  0  0  0  0
   16.4943   -6.8215   64.8537 C   0  0  0  0  0  0  0  0  0  0  0  0
   16.5772   -8.0405   65.7978 C   0  0  0  0  0  0  0  0  0  0  0  0
   16.9044   -9.3907   65.2123 C   0  0  0  0  0  0  0  0  0  0  0  0
   16.9510  -10.4775   66.1751 N   0  0  0  0  0  0  0  0  0  0  0  0
  1  2  1  0  0  0  0
  2  3  1  0  0  0  0
  3  4  1  0  0  0  0
  4  5  1  0  0  0  0
  5  6  1  0  0  0  0
  6  7  1  0  0  0  0
  7  8  1  0  0  0  0
  8  9  1  0  0  0  0
  9 10  1  0  0  0  0
 10 11  1  0  0  0  0
 11 12  1  0  0  0  0
 12 13  1  0  0  0  0
 13 14  1  0  0  0  0
M  END
>  <CHROM.1>
-167.76694760,175.42164663,-100.04494036,53.82605284,161.90982620,171.66287284
170.69920090,-173.24899186,141.57944197,179.79668324,-179.58314844,17.55465497
-3.70078355,66.24597733,-1.24428506,-0.69666716,-2.81782359

>  <Name>
1xpf_lig

>  <RI>
0

>  <Rbt.Current_Directory>
/home/afrankz/demos/rdock_decoys_rna/rnas/1xpf

>  <Rbt.Executable>
rbdock ($Id: //depot/dev/client3/rdock/2013.1/src/exe/rbdock.cxx#4 $)

>  <Rbt.Library>
libRbt.so (2013.1, Build901 2013/11/27)

>  <Rbt.Parameter_File>
/export/apps/rDock/src/rDock_2013.1_src/data/scripts/dock_solv.prm

>  <Rbt.Receptor>
prm/pocket_docking_7.prm

>  <SCORE>
-13.4664

>  <SCORE.INTER>
-6.3246

>  <SCORE.INTER.CONST>
1

>  <SCORE.INTER.POLAR>
-1.47287

>  <SCORE.INTER.ROT>
11

>  <SCORE.INTER.SOLV>
10.4064

>  <SCORE.INTER.VDW>
-13.709

>  <SCORE.INTER.norm>
-0.451757

>  <SCORE.INTRA>
-7.14177

>  <SCORE.INTRA.DIHEDRAL>
-13.5727

>  <SCORE.INTRA.DIHEDRAL.0>
17.7811

>  <SCORE.INTRA.POLAR>
0

>  <SCORE.INTRA.POLAR.0>
0

>  <SCORE.INTRA.REPUL>
0

>  <SCORE.INTRA.REPUL.0>
0

>  <SCORE.INTRA.SOLV>
-0.982783

>  <SCORE.INTRA.SOLV.lig_0>
-47.9565

>  <SCORE.INTRA.VDW>
0.135984

>  <SCORE.INTRA.VDW.0>
0.515983

>  <SCORE.INTRA.norm>
-0.510126

>  <SCORE.RESTR>
0

>  <SCORE.RESTR.CAVITY>
0

>  <SCORE.RESTR.norm>
0

>  <SCORE.SYSTEM>
0

>  <SCORE.SYSTEM.CONST>
0

>  <SCORE.SYSTEM.DIHEDRAL>
0

>  <SCORE.SYSTEM.SOLV>
0

>  <SCORE.SYSTEM.norm>
0

>  <SCORE.heavy>
14

>  <SCORE.norm>
-0.961883

>  <RMSD>
5.272

$$$$
1xpf_lig
 OpenBabel02141814123D
libRbt.so/2013.1/901 2013/11/27
 14 13  0  0  0  0  0  0  0  0999 V2000
   17.9328   -0.0850   68.3028 N   0  0  0  0  0  0  0  0  0  0  0  0
   18.3003    0.1628   66.9209 C   0  0  0  0  0  0  0  0  0  0  0  0
   19.7729    0.2105   66.7628 C   0  0  0  0  0  0  0  0  0  0  0  0
   20.0430    0.2932   65.2925 C   0  0  0  0  0  0  0  0  0  0  0  0
   19.6955    1.6746   64.8781 N   0  0  0  0  0  0  0  0  0  0  0  0
   20.7281    2.2181   63.9436 C   0  0  0  0  0  0  0  0  0  0  0  0
   20.2438    2.3103   62.4862 C   0  0  0  0  0  0  0  0  0  0  0  0
   21.3237    2.7848   61.4978 C   0  0  0  0  0  0  0  0  0  0  0  0
   20.6772    3.0658   60.1498 C   0  0  0  0  0  0  0  0  0  0  0  0
   21.7767    3.5429   59.2982 N   0  0  0  0  0  0  0  0  0  0  0  0
   22.3559    4.8840   59.5905 C   0  0  0  0  0  0  0  0  0  0  0  0
   23.5854    4.8611   58.6566 C   0  0  0  0  0  0  0  0  0  0  0  0
   24.4497    6.0930   58.5648 C   0  0  0  0  0  0  0  0  0  0  0  0
   25.1349    6.4499   59.7949 N   0  0  0  0  0  0  0  0  0  0  0  0
  1  2  1  0  0  0  0
  2  3  1  0  0  0  0
  3  4  1  0  0  0  0
  4  5  1  0  0  0  0
  5  6  1  0  0  0  0
  6  7  1  0  0  0  0
  7  8  1  0  0  0  0
  8  9  1  0  0  0  0
  9 10  1  0  0  0  0
 10 11  1  0  0  0  0
 11 12  1  0  0  0  0
 12 13  1  0  0  0  0
 13 14  1  0  0  0  0
M  END
>  <CHROM.1>
172.93201447,73.95395122,137.21728029,107.24885190,-176.37448174,-170.35647647
178.51197091,-69.95987614,170.69777813,176.45863714,64.53434151,21.14428326
2.74750300,62.58118854,-2.17149624,-0.63887581,-1.38486108

>  <Name>
1xpf_lig

>  <RI>
0

>  <Rbt.Current_Directory>
/home/afrankz/demos/rdock_decoys_rna/rnas/1xpf

>  <Rbt.Executable>
rbdock ($Id: //depot/dev/client3/rdock/2013.1/src/exe/rbdock.cxx#4 $)

>  <Rbt.Library>
libRbt.so (2013.1, Build901 2013/11/27)

>  <Rbt.Parameter_File>
/export/apps/rDock/src/rDock_2013.1_src/data/scripts/dock_solv.prm

>  <Rbt.Receptor>
prm/pocket_docking_6.prm

>  <SCORE>
-13.1243

>  <SCORE.INTER>
-5.38812

>  <SCORE.INTER.CONST>
1

>  <SCORE.INTER.POLAR>
-2.08315

>  <SCORE.INTER.ROT>
11

>  <SCORE.INTER.SOLV>
11.1104

>  <SCORE.INTER.VDW>
-11.285

>  <SCORE.INTER.norm>
-0.384866

>  <SCORE.INTRA>
-7.73619

>  <SCORE.INTRA.DIHEDRAL>
-14.1322

>  <SCORE.INTRA.DIHEDRAL.0>
17.7811

>  <SCORE.INTRA.POLAR>
0

>  <SCORE.INTRA.POLAR.0>
0

>  <SCORE.INTRA.REPUL>
0

>  <SCORE.INTRA.REPUL.0>
0

>  <SCORE.INTRA.SOLV>
0.100757

>  <SCORE.INTRA.SOLV.lig_0>
-47.9565

>  <SCORE.INTRA.VDW>
-0.720451

>  <SCORE.INTRA.VDW.0>
0.515983

>  <SCORE.INTRA.norm>
-0.552585

>  <SCORE.RESTR>
0

>  <SCORE.RESTR.CAVITY>
0

>  <SCORE.RESTR.norm>
0

>  <SCORE.SYSTEM>
0

>  <SCORE.SYSTEM.CONST>
0

>  <SCORE.SYSTEM.DIHEDRAL>
0

>  <SCORE.SYSTEM.SOLV>
0

>  <SCORE.SYSTEM.norm>
0

>  <SCORE.heavy>
14

>  <SCORE.norm>
-0.93745

>  <RMSD>
5.300

$$$$
1xpf_lig
 OpenBabel02141814123D
libRbt.so/2013.1/901 2013/11/27
 14 13  0  0  0  0  0  0  0  0999 V2000
   16.3113   -4.2214   69.5847 N   0  0  0  0  0  0  0  0  0  0  0  0
   16.7264   -3.4545   68.4247 C   0  0  0  0  0  0  0  0  0  0  0  0
   16.3162   -2.0362   68.5507 C   0  0  0  0  0  0  0  0  0  0  0  0
   16.7884   -1.3424   67.3109 C   0  0  0  0  0  0  0  0  0  0  0  0
   18.2673   -1.2745   67.4041 N   0  0  0  0  0  0  0  0  0  0  0  0
   18.7758   -0.0146   66.7805 C   0  0  0  0  0  0  0  0  0  0  0  0
   20.1623   -0.1712   66.1323 C   0  0  0  0  0  0  0  0  0  0  0  0
   20.1928   -1.1607   64.9540 C   0  0  0  0  0  0  0  0  0  0  0  0
   21.6074   -1.2319   64.3990 C   0  0  0  0  0  0  0  0  0  0  0  0
   21.4735   -1.9449   63.1202 N   0  0  0  0  0  0  0  0  0  0  0  0
   22.7121   -2.4688   62.4790 C   0  0  0  0  0  0  0  0  0  0  0  0
   22.7307   -1.6233   61.1871 C   0  0  0  0  0  0  0  0  0  0  0  0
   21.6454   -1.8391   60.1631 C   0  0  0  0  0  0  0  0  0  0  0  0
   20.3170   -1.4327   60.5879 N   0  0  0  0  0  0  0  0  0  0  0  0
  1  2  1  0  0  0  0
  2  3  1  0  0  0  0
  3  4  1  0  0  0  0
  4  5  1  0  0  0  0
  5  6  1  0  0  0  0
  6  7  1  0  0  0  0
  7  8  1  0  0  0  0
  8  9  1  0  0  0  0
  9 10  1  0  0  0  0
 10 11  1  0  0  0  0
 11 12  1  0  0  0  0
 12 13  1  0  0  0  0
 13 14  1  0  0  0  0
M  END
>  <CHROM.1>
-179.92391469,-70.42286181,-145.92146762,-147.88630770,63.32242213,-179.95757118
-167.63365480,-165.52318313,-115.76900271,-66.69722059,67.49810082,19.57352651
-1.72952795,65.07696561,2.63960000,0.84060845,0.74171203

>  <Name>
1xpf_lig

>  <RI>
0

>  <Rbt.Current_Directory>
/home/afrankz/demos/rdock_decoys_rna/rnas/1xpf

>  <Rbt.Executable>
rbdock ($Id: //depot/dev/client3/rdock/2013.1/src/exe/rbdock.cxx#4 $)

>  <Rbt.Library>
libRbt.so (2013.1, Build901 2013/11/27)

>  <Rbt.Parameter_File>
/export/apps/rDock/src/rDock_2013.1_src/data/scripts/dock_solv.prm

>  <Rbt.Receptor>
prm/pocket_docking_7.prm

>  <SCORE>
-15.6929

>  <SCORE.INTER>
-8.895

>  <SCORE.INTER.CONST>
1

>  <SCORE.INTER.POLAR>
-0.8

>  <SCORE.INTER.ROT>
11

>  <SCORE.INTER.SOLV>
9.41771

>  <SCORE.INTER.VDW>
-17.3359

>  <SCORE.INTER.norm>
-0.635357

>  <SCORE.INTRA>
-6.79792

>  <SCORE.INTRA.DIHEDRAL>
-13.6589

>  <SCORE.INTRA.DIHEDRAL.0>
17.7811

>  <SCORE.INTRA.POLAR>
0

>  <SCORE.INTRA.POLAR.0>
0

>  <SCORE.INTRA.REPUL>
0

>  <SCORE.INTRA.REPUL.0>
0

>  <SCORE.INTRA.SOLV>
3.12417

>  <SCORE.INTRA.SOLV.lig_0>
-47.9565

>  <SCORE.INTRA.VDW>
-1.53058

>  <SCORE.INTRA.VDW.0>
0.515983

>  <SCORE.INTRA.norm>
-0.485566

>  <SCORE.RESTR>
0

>  <SCORE.RESTR.CAVITY>
0

>  <SCORE.RESTR.norm>
0

>  <SCORE.SYSTEM>
0

>  <SCORE.SYSTEM.CONST>
0

>  <SCORE.SYSTEM.DIHEDRAL>
0

>  <SCORE.SYSTEM.SOLV>
0

>  <SCORE.SYSTEM.norm>
0

>  <SCORE.heavy>
14

>  <SCORE.norm>
-1.12092

>  <RMSD>
5.308

$$$$
1xpf_lig
 OpenBabel02141814123D
libRbt.so/2013.1/901 2013/11/27
 14 13  0  0  0  0  0  0  0  0999 V2000
   19.0808   -0.4195   65.8089 N   0  0  0  0  0  0  0  0  0  0  0  0
   20.4624   -0.7232   65.4848 C   0  0  0  0  0  0  0  0  0  0  0  0
   20.5598   -1.4403   64.1918 C   0  0  0  0  0  0  0  0  0  0  0  0
   22.0186   -1.6455   63.9250 C   0  0  0  0  0  0  0  0  0  0  0  0
   22.1193   -2.2330   62.5666 N   0  0  0  0  0  0  0  0  0  0  0  0
   23.5482   -2.4897   62.2098 C   0  0  0  0  0  0  0  0  0  0  0  0
   23.9015   -2.0752   60.7709 C   0  0  0  0  0  0  0  0  0  0  0  0
   23.6486   -0.5873   60.4696 C   0  0  0  0  0  0  0  0  0  0  0  0
   24.0186   -0.3017   59.0219 C   0  0  0  0  0  0  0  0  0  0  0  0
   23.8384    1.1492   58.8676 N   0  0  0  0  0  0  0  0  0  0  0  0
   25.0585    1.9997   58.7806 C   0  0  0  0  0  0  0  0  0  0  0  0
   24.4187    3.4038   58.8389 C   0  0  0  0  0  0  0  0  0  0  0  0
   23.7696    3.9575   57.5959 C   0  0  0  0  0  0  0  0  0  0  0  0
   23.4743    5.3790   57.6439 N   0  0  0  0  0  0  0  0  0  0  0  0
  1  2  1  0  0  0  0
  2  3  1  0  0  0  0
  3  4  1  0  0  0  0
  4  5  1  0  0  0  0
  5  6  1  0  0  0  0
  6  7  1  0  0  0  0
  7  8  1  0  0  0  0
  8  9  1  0  0  0  0
  9 10  1  0  0  0  0
 10 11  1  0  0  0  0
 11 12  1  0  0  0  0
 12 13  1  0  0  0  0
 13 14  1  0  0  0  0
M  END
>  <CHROM.1>
177.40919629,-174.14861772,-179.43930410,-136.73755046,58.58815532,-179.39806334
-175.90589241,106.47159394,-172.14335938,-77.93576355,-166.39858349,22.85154157
0.28356501,61.15540074,2.18345311,-0.85379295,2.70070376

>  <Name>
1xpf_lig

>  <RI>
0

>  <Rbt.Current_Directory>
/home/afrankz/demos/rdock_decoys_rna/rnas/1xpf

>  <Rbt.Executable>
rbdock ($Id: //depot/dev/client3/rdock/2013.1/src/exe/rbdock.cxx#4 $)

>  <Rbt.Library>
libRbt.so (2013.1, Build901 2013/11/27)

>  <Rbt.Parameter_File>
/export/apps/rDock/src/rDock_2013.1_src/data/scripts/dock_solv.prm

>  <Rbt.Receptor>
prm/pocket_docking_7.prm

>  <SCORE>
-15.606

>  <SCORE.INTER>
-6.77241

>  <SCORE.INTER.CONST>
1

>  <SCORE.INTER.POLAR>
-1.58129

>  <SCORE.INTER.ROT>
11

>  <SCORE.INTER.SOLV>
9.44448

>  <SCORE.INTER.VDW>
-13.3255

>  <SCORE.INTER.norm>
-0.483743

>  <SCORE.INTRA>
-8.83356

>  <SCORE.INTRA.DIHEDRAL>
-13.664

>  <SCORE.INTRA.DIHEDRAL.0>
17.7811

>  <SCORE.INTRA.POLAR>
0

>  <SCORE.INTRA.POLAR.0>
0

>  <SCORE.INTRA.REPUL>
0

>  <SCORE.INTRA.REPUL.0>
0

>  <SCORE.INTRA.SOLV>
-0.324876

>  <SCORE.INTRA.SOLV.lig_0>
-47.9565

>  <SCORE.INTRA.VDW>
-1.83913

>  <SCORE.INTRA.VDW.0>
0.515983

>  <SCORE.INTRA.norm>
-0.630969

>  <SCORE.RESTR>
0

>  <SCORE.RESTR.CAVITY>
0

>  <SCORE.RESTR.norm>
0

>  <SCORE.SYSTEM>
0

>  <SCORE.SYSTEM.CONST>
0

>  <SCORE.SYSTEM.DIHEDRAL>
0

>  <SCORE.SYSTEM.SOLV>
0

>  <SCORE.SYSTEM.norm>
0

>  <SCORE.heavy>
14

>  <SCORE.norm>
-1.11471

>  <RMSD>
5.312

$$$$
1xpf_lig
 OpenBabel02141814123D
libRbt.so/2013.1/901 2013/11/27
 14 13  0  0  0  0  0  0  0  0999 V2000
   22.2211    1.4943   59.8234 N   0  0  0  0  0  0  0  0  0  0  0  0
   22.2021    2.9004   60.1821 C   0  0  0  0  0  0  0  0  0  0  0  0
   20.8123    3.4050   60.2810 C   0  0  0  0  0  0  0  0  0  0  0  0
   20.1810    2.6961   61.4387 C   0  0  0  0  0  0  0  0  0  0  0  0
   18.8369    3.2975   61.6181 N   0  0  0  0  0  0  0  0  0  0  0  0
   17.9718    2.4107   62.4548 C   0  0  0  0  0  0  0  0  0  0  0  0
   16.5948    3.0211   62.7680 C   0  0  0  0  0  0  0  0  0  0  0  0
   15.6348    2.0594   63.4904 C   0  0  0  0  0  0  0  0  0  0  0  0
   15.2287    0.9482   62.5341 C   0  0  0  0  0  0  0  0  0  0  0  0
   14.2914    0.1157   63.3021 N   0  0  0  0  0  0  0  0  0  0  0  0
   13.6236   -1.0154   62.5991 C   0  0  0  0  0  0  0  0  0  0  0  0
   12.1823   -0.8553   63.1296 C   0  0  0  0  0  0  0  0  0  0  0  0
   11.1354   -1.8502   62.6970 C   0  0  0  0  0  0  0  0  0  0  0  0
   10.8971   -1.9004   61.2649 N   0  0  0  0  0  0  0  0  0  0  0  0
  1  2  1  0  0  0  0
  2  3  1  0  0  0  0
  3  4  1  0  0  0  0
  4  5  1  0  0  0  0
  5  6  1  0  0  0  0
  6  7  1  0  0  0  0
  7  8  1  0  0  0  0
  8  9  1  0  0  0  0
  9 10  1  0  0  0  0
 10 11  1  0  0  0  0
 11 12  1  0  0  0  0
 12 13  1  0  0  0  0
 13 14  1  0  0  0  0
M  END
>  <CHROM.1>
65.94316656,174.59785885,162.88580454,175.77348976,173.41097193,-68.81542479
-178.41964378,175.37508070,-136.70892462,-178.11296322,-60.55876663,16.55808237
1.19497704,61.97043312,-0.19273773,-0.41510195,-2.47228219

>  <Name>
1xpf_lig

>  <RI>
0

>  <Rbt.Current_Directory>
/home/afrankz/demos/rdock_decoys_rna/rnas/1xpf

>  <Rbt.Executable>
rbdock ($Id: //depot/dev/client3/rdock/2013.1/src/exe/rbdock.cxx#4 $)

>  <Rbt.Library>
libRbt.so (2013.1, Build901 2013/11/27)

>  <Rbt.Parameter_File>
/export/apps/rDock/src/rDock_2013.1_src/data/scripts/dock_solv.prm

>  <Rbt.Receptor>
prm/pocket_docking_8.prm

>  <SCORE>
-11.7185

>  <SCORE.INTER>
-3.22635

>  <SCORE.INTER.CONST>
1

>  <SCORE.INTER.POLAR>
-0.894338

>  <SCORE.INTER.ROT>
11

>  <SCORE.INTER.SOLV>
9.0642

>  <SCORE.INTER.VDW>
-13.1245

>  <SCORE.INTER.norm>
-0.230453

>  <SCORE.INTRA>
-8.49513

>  <SCORE.INTRA.DIHEDRAL>
-15.7899

>  <SCORE.INTRA.DIHEDRAL.0>
17.7811

>  <SCORE.INTRA.POLAR>
0

>  <SCORE.INTRA.POLAR.0>
0

>  <SCORE.INTRA.REPUL>
0

>  <SCORE.INTRA.REPUL.0>
0

>  <SCORE.INTRA.SOLV>
0.738777

>  <SCORE.INTRA.SOLV.lig_0>
-47.9565

>  <SCORE.INTRA.VDW>
-0.969564

>  <SCORE.INTRA.VDW.0>
0.515983

>  <SCORE.INTRA.norm>
-0.606795

>  <SCORE.RESTR>
0.00294503

>  <SCORE.RESTR.CAVITY>
0.00294503

>  <SCORE.RESTR.norm>
0.000210359

>  <SCORE.SYSTEM>
0

>  <SCORE.SYSTEM.CONST>
0

>  <SCORE.SYSTEM.DIHEDRAL>
0

>  <SCORE.SYSTEM.SOLV>
0

>  <SCORE.SYSTEM.norm>
0

>  <SCORE.heavy>
14

>  <SCORE.norm>
-0.837038

>  <RMSD>
5.312

$$$$
1xpf_lig
 OpenBabel02141814123D
libRbt.so/2013.1/901 2013/11/27
 14 13  0  0  0  0  0  0  0  0999 V2000
   19.9095    8.0361   64.3377 N   0  0  0  0  0  0  0  0  0  0  0  0
   21.1478    8.6925   63.9609 C   0  0  0  0  0  0  0  0  0  0  0  0
   21.9928    7.7991   63.1341 C   0  0  0  0  0  0  0  0  0  0  0  0
   22.5303    6.7469   64.0535 C   0  0  0  0  0  0  0  0  0  0  0  0
   21.4450    5.7517   64.2340 N   0  0  0  0  0  0  0  0  0  0  0  0
   21.9805    4.4946   64.8406 C   0  0  0  0  0  0  0  0  0  0  0  0
   20.8818    3.4963   65.2446 C   0  0  0  0  0  0  0  0  0  0  0  0
   19.9131    4.0323   66.3136 C   0  0  0  0  0  0  0  0  0  0  0  0
   19.8570    3.0497   67.4736 C   0  0  0  0  0  0  0  0  0  0  0  0
   19.2441    1.8380   66.9100 N   0  0  0  0  0  0  0  0  0  0  0  0
   18.7417    0.8036   67.8571 C   0  0  0  0  0  0  0  0  0  0  0  0
   17.9529   -0.0992   66.8840 C   0  0  0  0  0  0  0  0  0  0  0  0
   16.9920   -1.1127   67.4518 C   0  0  0  0  0  0  0  0  0  0  0  0
   17.5800   -2.0494   68.3936 N   0  0  0  0  0  0  0  0  0  0  0  0
  1  2  1  0  0  0  0
  2  3  1  0  0  0  0
  3  4  1  0  0  0  0
  4  5  1  0  0  0  0
  5  6  1  0  0  0  0
  6  7  1  0  0  0  0
  7  8  1  0  0  0  0
  8  9  1  0  0  0  0
  9 10  1  0  0  0  0
 10 11  1  0  0  0  0
 11 12  1  0  0  0  0
 12 13  1  0  0  0  0
 13 14  1  0  0  0  0
M  END
>  <CHROM.1>
-72.19099359,79.86554250,165.47883109,171.63520888,-61.72464863,-126.42165456
-65.78746932,-165.29606567,169.00425854,-165.63336439,-56.40117985,20.01221956
3.67723048,65.79200308,1.15602064,0.34105652,-0.29570571

>  <Name>
1xpf_lig

>  <RI>
0

>  <Rbt.Current_Directory>
/home/afrankz/demos/rdock_decoys_rna/rnas/1xpf

>  <Rbt.Executable>
rbdock ($Id: //depot/dev/client3/rdock/2013.1/src/exe/rbdock.cxx#4 $)

>  <Rbt.Library>
libRbt.so (2013.1, Build901 2013/11/27)

>  <Rbt.Parameter_File>
/export/apps/rDock/src/rDock_2013.1_src/data/scripts/dock_solv.prm

>  <Rbt.Receptor>
prm/blind_docking_100.prm

>  <SCORE>
-7.11109

>  <SCORE.INTER>
-3.4185

>  <SCORE.INTER.CONST>
1

>  <SCORE.INTER.POLAR>
-0.795569

>  <SCORE.INTER.ROT>
11

>  <SCORE.INTER.SOLV>
12.8306

>  <SCORE.INTER.VDW>
-14.8373

>  <SCORE.INTER.norm>
-0.244178

>  <SCORE.INTRA>
-3.7135

>  <SCORE.INTRA.DIHEDRAL>
-8.50736

>  <SCORE.INTRA.DIHEDRAL.0>
17.7811

>  <SCORE.INTRA.POLAR>
0

>  <SCORE.INTRA.POLAR.0>
0

>  <SCORE.INTRA.REPUL>
0

>  <SCORE.INTRA.REPUL.0>
0

>  <SCORE.INTRA.SOLV>
3.60087

>  <SCORE.INTRA.SOLV.lig_0>
-47.9565

>  <SCORE.INTRA.VDW>
-1.26025

>  <SCORE.INTRA.VDW.0>
0.515983

>  <SCORE.INTRA.norm>
-0.26525

>  <SCORE.RESTR>
0.0209134

>  <SCORE.RESTR.CAVITY>
0.0209134

>  <SCORE.RESTR.norm>
0.00149381

>  <SCORE.SYSTEM>
0

>  <SCORE.SYSTEM.CONST>
0

>  <SCORE.SYSTEM.DIHEDRAL>
0

>  <SCORE.SYSTEM.SOLV>
0

>  <SCORE.SYSTEM.norm>
0

>  <SCORE.heavy>
14

>  <SCORE.norm>
-0.507935

>  <RMSD>
5.315

$$$$
1xpf_lig
 OpenBabel02141814123D
libRbt.so/2013.1/901 2013/11/27
 14 13  0  0  0  0  0  0  0  0999 V2000
   19.9333   -4.3292   63.1586 N   0  0  0  0  0  0  0  0  0  0  0  0
   20.7154   -3.4847   64.0425 C   0  0  0  0  0  0  0  0  0  0  0  0
   20.8811   -2.1273   63.4716 C   0  0  0  0  0  0  0  0  0  0  0  0
   21.5454   -1.2978   64.5261 C   0  0  0  0  0  0  0  0  0  0  0  0
   20.5530   -1.1286   65.6156 N   0  0  0  0  0  0  0  0  0  0  0  0
   20.2175    0.3163   65.8011 C   0  0  0  0  0  0  0  0  0  0  0  0
   19.3625    0.5885   67.0508 C   0  0  0  0  0  0  0  0  0  0  0  0
   17.9433   -0.0021   66.9775 C   0  0  0  0  0  0  0  0  0  0  0  0
   18.0340   -1.5207   66.9836 C   0  0  0  0  0  0  0  0  0  0  0  0
   16.6528   -1.9785   67.1939 N   0  0  0  0  0  0  0  0  0  0  0  0
   16.4463   -3.3487   67.7411 C   0  0  0  0  0  0  0  0  0  0  0  0
   16.4624   -4.1711   66.4343 C   0  0  0  0  0  0  0  0  0  0  0  0
   16.4608   -5.6761   66.5241 C   0  0  0  0  0  0  0  0  0  0  0  0
   15.2861   -6.2475   67.1595 N   0  0  0  0  0  0  0  0  0  0  0  0
  1  2  1  0  0  0  0
  2  3  1  0  0  0  0
  3  4  1  0  0  0  0
  4  5  1  0  0  0  0
  5  6  1  0  0  0  0
  6  7  1  0  0  0  0
  7  8  1  0  0  0  0
  8  9  1  0  0  0  0
  9 10  1  0  0  0  0
 10 11  1  0  0  0  0
 11 12  1  0  0  0  0
 12 13  1  0  0  0  0
 13 14  1  0  0  0  0
M  END
>  <CHROM.1>
173.09280704,-68.65961593,-118.16086586,-171.14181238,-66.77741146,66.83991282
168.58138426,-157.96669814,-86.80972972,172.19011566,62.20764159,18.60691812
-2.45729260,65.90579931,-0.41270496,-0.65337649,-2.68508151

>  <Name>
1xpf_lig

>  <RI>
0

>  <Rbt.Current_Directory>
/home/afrankz/demos/rdock_decoys_rna/rnas/1xpf

>  <Rbt.Executable>
rbdock ($Id: //depot/dev/client3/rdock/2013.1/src/exe/rbdock.cxx#4 $)

>  <Rbt.Library>
libRbt.so (2013.1, Build901 2013/11/27)

>  <Rbt.Parameter_File>
/export/apps/rDock/src/rDock_2013.1_src/data/scripts/dock_solv.prm

>  <Rbt.Receptor>
prm/pocket_docking_6.prm

>  <SCORE>
-9.34104

>  <SCORE.INTER>
-2.42447

>  <SCORE.INTER.CONST>
1

>  <SCORE.INTER.POLAR>
0

>  <SCORE.INTER.ROT>
11

>  <SCORE.INTER.SOLV>
13.1601

>  <SCORE.INTER.VDW>
-16.9364

>  <SCORE.INTER.norm>
-0.173177

>  <SCORE.INTRA>
-6.91657

>  <SCORE.INTRA.DIHEDRAL>
-14.115

>  <SCORE.INTRA.DIHEDRAL.0>
17.7811

>  <SCORE.INTRA.POLAR>
0

>  <SCORE.INTRA.POLAR.0>
0

>  <SCORE.INTRA.REPUL>
0

>  <SCORE.INTRA.REPUL.0>
0

>  <SCORE.INTRA.SOLV>
1.36198

>  <SCORE.INTRA.SOLV.lig_0>
-47.9565

>  <SCORE.INTRA.VDW>
-0.540052

>  <SCORE.INTRA.VDW.0>
0.515983

>  <SCORE.INTRA.norm>
-0.494041

>  <SCORE.RESTR>
0

>  <SCORE.RESTR.CAVITY>
0

>  <SCORE.RESTR.norm>
0

>  <SCORE.SYSTEM>
0

>  <SCORE.SYSTEM.CONST>
0

>  <SCORE.SYSTEM.DIHEDRAL>
0

>  <SCORE.SYSTEM.SOLV>
0

>  <SCORE.SYSTEM.norm>
0

>  <SCORE.heavy>
14

>  <SCORE.norm>
-0.667217

>  <RMSD>
5.316

$$$$
1xpf_lig
 OpenBabel02141814123D
libRbt.so/2013.1/901 2013/11/27
 14 13  0  0  0  0  0  0  0  0999 V2000
   16.1504   -8.2695   66.7775 N   0  0  0  0  0  0  0  0  0  0  0  0
   16.6146   -7.0992   67.4992 C   0  0  0  0  0  0  0  0  0  0  0  0
   16.0857   -5.8555   66.8915 C   0  0  0  0  0  0  0  0  0  0  0  0
   16.5433   -4.7260   67.7612 C   0  0  0  0  0  0  0  0  0  0  0  0
   16.1241   -3.4756   67.0820 N   0  0  0  0  0  0  0  0  0  0  0  0
   16.8762   -2.3041   67.6270 C   0  0  0  0  0  0  0  0  0  0  0  0
   16.7225   -1.0314   66.7765 C   0  0  0  0  0  0  0  0  0  0  0  0
   17.0616   -1.2296   65.2885 C   0  0  0  0  0  0  0  0  0  0  0  0
   18.5698   -1.3545   65.1330 C   0  0  0  0  0  0  0  0  0  0  0  0
   19.0704    0.0259   65.2067 N   0  0  0  0  0  0  0  0  0  0  0  0
   20.1014    0.3416   66.2348 C   0  0  0  0  0  0  0  0  0  0  0  0
   19.2114    0.9592   67.3351 C   0  0  0  0  0  0  0  0  0  0  0  0
   19.8613    1.4481   68.6045 C   0  0  0  0  0  0  0  0  0  0  0  0
   18.9344    1.8620   69.6436 N   0  0  0  0  0  0  0  0  0  0  0  0
  1  2  1  0  0  0  0
  2  3  1  0  0  0  0
  3  4  1  0  0  0  0
  4  5  1  0  0  0  0
  5  6  1  0  0  0  0
  6  7  1  0  0  0  0
  7  8  1  0  0  0  0
  8  9  1  0  0  0  0
  9 10  1  0  0  0  0
 10 11  1  0  0  0  0
 11 12  1  0  0  0  0
 12 13  1  0  0  0  0
 13 14  1  0  0  0  0
M  END
>  <CHROM.1>
176.17911713,174.71255658,-162.67080124,167.57426341,-53.12183347,-73.61623731
-78.75593762,124.06871213,-98.71055421,-179.53936175,-172.87786628,17.70913293
-2.19335313,66.98999793,-2.90947919,1.17860186,1.36331919

>  <Name>
1xpf_lig

>  <RI>
0

>  <Rbt.Current_Directory>
/home/afrankz/demos/rdock_decoys_rna/rnas/1xpf

>  <Rbt.Executable>
rbdock ($Id: //depot/dev/client3/rdock/2013.1/src/exe/rbdock.cxx#4 $)

>  <Rbt.Library>
libRbt.so (2013.1, Build901 2013/11/27)

>  <Rbt.Parameter_File>
/export/apps/rDock/src/rDock_2013.1_src/data/scripts/dock_solv.prm

>  <Rbt.Receptor>
prm/pocket_docking_7.prm

>  <SCORE>
-12.4949

>  <SCORE.INTER>
-4.7225

>  <SCORE.INTER.CONST>
1

>  <SCORE.INTER.POLAR>
-0.580326

>  <SCORE.INTER.ROT>
11

>  <SCORE.INTER.SOLV>
9.75495

>  <SCORE.INTER.VDW>
-15.3989

>  <SCORE.INTER.norm>
-0.337322

>  <SCORE.INTRA>
-7.77237

>  <SCORE.INTRA.DIHEDRAL>
-12.877

>  <SCORE.INTRA.DIHEDRAL.0>
17.7811

>  <SCORE.INTRA.POLAR>
0

>  <SCORE.INTRA.POLAR.0>
0

>  <SCORE.INTRA.REPUL>
0

>  <SCORE.INTRA.REPUL.0>
0

>  <SCORE.INTRA.SOLV>
0.226472

>  <SCORE.INTRA.SOLV.lig_0>
-47.9565

>  <SCORE.INTRA.VDW>
-1.44713

>  <SCORE.INTRA.VDW.0>
0.515983

>  <SCORE.INTRA.norm>
-0.55517

>  <SCORE.RESTR>
0

>  <SCORE.RESTR.CAVITY>
0

>  <SCORE.RESTR.norm>
0

>  <SCORE.SYSTEM>
0

>  <SCORE.SYSTEM.CONST>
0

>  <SCORE.SYSTEM.DIHEDRAL>
0

>  <SCORE.SYSTEM.SOLV>
0

>  <SCORE.SYSTEM.norm>
0

>  <SCORE.heavy>
14

>  <SCORE.norm>
-0.892491

>  <RMSD>
5.357

$$$$
1xpf_lig
 OpenBabel02141814123D
libRbt.so/2013.1/901 2013/11/27
 14 13  0  0  0  0  0  0  0  0999 V2000
   23.6889    5.6450   57.6596 N   0  0  0  0  0  0  0  0  0  0  0  0
   23.8080    4.6878   58.7439 C   0  0  0  0  0  0  0  0  0  0  0  0
   23.6257    3.3019   58.2520 C   0  0  0  0  0  0  0  0  0  0  0  0
   23.6624    2.4124   59.4557 C   0  0  0  0  0  0  0  0  0  0  0  0
   23.5567    1.0205   58.9534 N   0  0  0  0  0  0  0  0  0  0  0  0
   23.5976    0.0480   60.0881 C   0  0  0  0  0  0  0  0  0  0  0  0
   22.2050   -0.3103   60.6348 C   0  0  0  0  0  0  0  0  0  0  0  0
   21.3538   -1.1554   59.6706 C   0  0  0  0  0  0  0  0  0  0  0  0
   19.9145   -1.1757   60.1628 C   0  0  0  0  0  0  0  0  0  0  0  0
   19.4449    0.2088   60.0070 N   0  0  0  0  0  0  0  0  0  0  0  0
   18.0668    0.5357   60.4690 C   0  0  0  0  0  0  0  0  0  0  0  0
   18.3828    1.5969   61.5452 C   0  0  0  0  0  0  0  0  0  0  0  0
   17.2410    2.2183   62.3088 C   0  0  0  0  0  0  0  0  0  0  0  0
   16.4354    1.2801   63.0711 N   0  0  0  0  0  0  0  0  0  0  0  0
  1  2  1  0  0  0  0
  2  3  1  0  0  0  0
  3  4  1  0  0  0  0
  4  5  1  0  0  0  0
  5  6  1  0  0  0  0
  6  7  1  0  0  0  0
  7  8  1  0  0  0  0
  8  9  1  0  0  0  0
  9 10  1  0  0  0  0
 10 11  1  0  0  0  0
 11 12  1  0  0  0  0
 12 13  1  0  0  0  0
 13 14  1  0  0  0  0
M  END
>  <CHROM.1>
-175.76542807,-176.87634467,179.45912001,91.55549356,69.46163216,-167.05646877
66.93763199,-177.19406278,119.24772925,-179.52090931,60.35656588,21.07037110
1.45075239,60.07306619,0.41361111,0.43789185,-0.10674410

>  <Name>
1xpf_lig

>  <RI>
0

>  <Rbt.Current_Directory>
/home/afrankz/demos/rdock_decoys_rna/rnas/1xpf

>  <Rbt.Executable>
rbdock ($Id: //depot/dev/client3/rdock/2013.1/src/exe/rbdock.cxx#4 $)

>  <Rbt.Library>
libRbt.so (2013.1, Build901 2013/11/27)

>  <Rbt.Parameter_File>
/export/apps/rDock/src/rDock_2013.1_src/data/scripts/dock_solv.prm

>  <Rbt.Receptor>
prm/pocket_docking_5.prm

>  <SCORE>
-12.2644

>  <SCORE.INTER>
-3.5847

>  <SCORE.INTER.CONST>
1

>  <SCORE.INTER.POLAR>
-1.75042

>  <SCORE.INTER.ROT>
11

>  <SCORE.INTER.SOLV>
9.1159

>  <SCORE.INTER.VDW>
-10.527

>  <SCORE.INTER.norm>
-0.25605

>  <SCORE.INTRA>
-8.67974

>  <SCORE.INTRA.DIHEDRAL>
-14.6321

>  <SCORE.INTRA.DIHEDRAL.0>
17.7811

>  <SCORE.INTRA.POLAR>
0

>  <SCORE.INTRA.POLAR.0>
0

>  <SCORE.INTRA.REPUL>
0

>  <SCORE.INTRA.REPUL.0>
0

>  <SCORE.INTRA.SOLV>
0.560241

>  <SCORE.INTRA.SOLV.lig_0>
-47.9565

>  <SCORE.INTRA.VDW>
-1.64381

>  <SCORE.INTRA.VDW.0>
0.515983

>  <SCORE.INTRA.norm>
-0.619982

>  <SCORE.RESTR>
0

>  <SCORE.RESTR.CAVITY>
0

>  <SCORE.RESTR.norm>
0

>  <SCORE.SYSTEM>
0

>  <SCORE.SYSTEM.CONST>
0

>  <SCORE.SYSTEM.DIHEDRAL>
0

>  <SCORE.SYSTEM.SOLV>
0

>  <SCORE.SYSTEM.norm>
0

>  <SCORE.heavy>
14

>  <SCORE.norm>
-0.876031

>  <RMSD>
5.359

$$$$
1xpf_lig
 OpenBabel02141814123D
libRbt.so/2013.1/901 2013/11/27
 14 13  0  0  0  0  0  0  0  0999 V2000
   19.5858    5.4119   69.0861 N   0  0  0  0  0  0  0  0  0  0  0  0
   20.3649    4.2963   69.5905 C   0  0  0  0  0  0  0  0  0  0  0  0
   19.5703    3.0455   69.5806 C   0  0  0  0  0  0  0  0  0  0  0  0
   19.3745    2.6742   68.1436 C   0  0  0  0  0  0  0  0  0  0  0  0
   18.5510    1.4403   68.1364 N   0  0  0  0  0  0  0  0  0  0  0  0
   19.2666    0.3352   67.4279 C   0  0  0  0  0  0  0  0  0  0  0  0
   18.7108    0.0517   66.0217 C   0  0  0  0  0  0  0  0  0  0  0  0
   19.4757   -1.0428   65.2566 C   0  0  0  0  0  0  0  0  0  0  0  0
   20.8695   -0.5347   64.9198 C   0  0  0  0  0  0  0  0  0  0  0  0
   21.3409   -1.4175   63.8428 N   0  0  0  0  0  0  0  0  0  0  0  0
   21.0465   -1.0232   62.4366 C   0  0  0  0  0  0  0  0  0  0  0  0
   22.2745   -1.6256   61.7201 C   0  0  0  0  0  0  0  0  0  0  0  0
   22.3830   -1.4835   60.2231 C   0  0  0  0  0  0  0  0  0  0  0  0
   22.4953   -0.1156   59.7472 N   0  0  0  0  0  0  0  0  0  0  0  0
  1  2  1  0  0  0  0
  2  3  1  0  0  0  0
  3  4  1  0  0  0  0
  4  5  1  0  0  0  0
  5  6  1  0  0  0  0
  6  7  1  0  0  0  0
  7  8  1  0  0  0  0
  8  9  1  0  0  0  0
  9 10  1  0  0  0  0
 10 11  1  0  0  0  0
 11 12  1  0  0  0  0
 12 13  1  0  0  0  0
 13 14  1  0  0  0  0
M  END
>  <CHROM.1>
69.33455973,-178.65845987,-122.01395257,-104.75514428,177.53358189,-68.01102553
-161.63073561,89.76017024,149.12123048,178.82416034,63.44294377,20.37919106
0.71490677,65.43815763,-2.05616769,-0.96042536,-2.51697251

>  <Name>
1xpf_lig

>  <RI>
0

>  <Rbt.Current_Directory>
/home/afrankz/demos/rdock_decoys_rna/rnas/1xpf

>  <Rbt.Executable>
rbdock ($Id: //depot/dev/client3/rdock/2013.1/src/exe/rbdock.cxx#4 $)

>  <Rbt.Library>
libRbt.so (2013.1, Build901 2013/11/27)

>  <Rbt.Parameter_File>
/export/apps/rDock/src/rDock_2013.1_src/data/scripts/dock_solv.prm

>  <Rbt.Receptor>
prm/pocket_docking_6.prm

>  <SCORE>
-13.0557

>  <SCORE.INTER>
-6.45647

>  <SCORE.INTER.CONST>
1

>  <SCORE.INTER.POLAR>
-1.69443

>  <SCORE.INTER.ROT>
11

>  <SCORE.INTER.SOLV>
8.95034

>  <SCORE.INTER.VDW>
-12.573

>  <SCORE.INTER.norm>
-0.461176

>  <SCORE.INTRA>
-6.59922

>  <SCORE.INTRA.DIHEDRAL>
-12.4962

>  <SCORE.INTRA.DIHEDRAL.0>
17.7811

>  <SCORE.INTRA.POLAR>
0

>  <SCORE.INTRA.POLAR.0>
0

>  <SCORE.INTRA.REPUL>
0

>  <SCORE.INTRA.REPUL.0>
0

>  <SCORE.INTRA.SOLV>
0.688619

>  <SCORE.INTRA.SOLV.lig_0>
-47.9565

>  <SCORE.INTRA.VDW>
-0.695428

>  <SCORE.INTRA.VDW.0>
0.515983

>  <SCORE.INTRA.norm>
-0.471373

>  <SCORE.RESTR>
0

>  <SCORE.RESTR.CAVITY>
0

>  <SCORE.RESTR.norm>
0

>  <SCORE.SYSTEM>
0

>  <SCORE.SYSTEM.CONST>
0

>  <SCORE.SYSTEM.DIHEDRAL>
0

>  <SCORE.SYSTEM.SOLV>
0

>  <SCORE.SYSTEM.norm>
0

>  <SCORE.heavy>
14

>  <SCORE.norm>
-0.932549

>  <RMSD>
5.398

$$$$
1xpf_lig
 OpenBabel02141814123D
libRbt.so/2013.1/901 2013/11/27
 14 13  0  0  0  0  0  0  0  0999 V2000
   20.2607    4.2061   68.5453 N   0  0  0  0  0  0  0  0  0  0  0  0
   19.9086    3.0764   67.7051 C   0  0  0  0  0  0  0  0  0  0  0  0
   19.2251    2.0222   68.4908 C   0  0  0  0  0  0  0  0  0  0  0  0
   18.9335    0.9020   67.5413 C   0  0  0  0  0  0  0  0  0  0  0  0
   17.9907   -0.0062   68.2390 N   0  0  0  0  0  0  0  0  0  0  0  0
   17.4563   -1.0348   67.2950 C   0  0  0  0  0  0  0  0  0  0  0  0
   16.6816   -0.4317   66.1105 C   0  0  0  0  0  0  0  0  0  0  0  0
   16.2766   -1.4607   65.0401 C   0  0  0  0  0  0  0  0  0  0  0  0
   17.5316   -2.0418   64.4066 C   0  0  0  0  0  0  0  0  0  0  0  0
   18.2029   -0.8931   63.7811 N   0  0  0  0  0  0  0  0  0  0  0  0
   19.4979   -1.1342   63.0851 C   0  0  0  0  0  0  0  0  0  0  0  0
   20.1393    0.2651   63.2069 C   0  0  0  0  0  0  0  0  0  0  0  0
   19.4943    1.4238   62.4895 C   0  0  0  0  0  0  0  0  0  0  0  0
   20.2404    2.6688   62.5485 N   0  0  0  0  0  0  0  0  0  0  0  0
  1  2  1  0  0  0  0
  2  3  1  0  0  0  0
  3  4  1  0  0  0  0
  4  5  1  0  0  0  0
  5  6  1  0  0  0  0
  6  7  1  0  0  0  0
  7  8  1  0  0  0  0
  8  9  1  0  0  0  0
  9 10  1  0  0  0  0
 10 11  1  0  0  0  0
 11 12  1  0  0  0  0
 12 13  1  0  0  0  0
 13 14  1  0  0  0  0
M  END
>  <CHROM.1>
-178.89694218,-167.46231203,170.43445182,-60.63809755,172.79265557,-64.06133077
-61.88574944,178.96286857,-153.96728731,-65.37732818,-173.98325340,18.70262736
0.53975535,65.60599420,-1.30575004,-0.92007501,-1.93944075

>  <Name>
1xpf_lig

>  <RI>
0

>  <Rbt.Current_Directory>
/home/afrankz/demos/rdock_decoys_rna/rnas/1xpf

>  <Rbt.Executable>
rbdock ($Id: //depot/dev/client3/rdock/2013.1/src/exe/rbdock.cxx#4 $)

>  <Rbt.Library>
libRbt.so (2013.1, Build901 2013/11/27)

>  <Rbt.Parameter_File>
/export/apps/rDock/src/rDock_2013.1_src/data/scripts/dock_solv.prm

>  <Rbt.Receptor>
prm/pocket_docking_5.prm

>  <SCORE>
-11.6811

>  <SCORE.INTER>
-3.79487

>  <SCORE.INTER.CONST>
1

>  <SCORE.INTER.POLAR>
-1.33752

>  <SCORE.INTER.ROT>
11

>  <SCORE.INTER.SOLV>
6.86502

>  <SCORE.INTER.VDW>
-11.2932

>  <SCORE.INTER.norm>
-0.271062

>  <SCORE.INTRA>
-7.88624

>  <SCORE.INTRA.DIHEDRAL>
-16.1305

>  <SCORE.INTRA.DIHEDRAL.0>
17.7811

>  <SCORE.INTRA.POLAR>
0

>  <SCORE.INTRA.POLAR.0>
0

>  <SCORE.INTRA.REPUL>
0

>  <SCORE.INTRA.REPUL.0>
0

>  <SCORE.INTRA.SOLV>
0.413931

>  <SCORE.INTRA.SOLV.lig_0>
-47.9565

>  <SCORE.INTRA.VDW>
-0.0279341

>  <SCORE.INTRA.VDW.0>
0.515983

>  <SCORE.INTRA.norm>
-0.563303

>  <SCORE.RESTR>
0

>  <SCORE.RESTR.CAVITY>
0

>  <SCORE.RESTR.norm>
0

>  <SCORE.SYSTEM>
0

>  <SCORE.SYSTEM.CONST>
0

>  <SCORE.SYSTEM.DIHEDRAL>
0

>  <SCORE.SYSTEM.SOLV>
0

>  <SCORE.SYSTEM.norm>
0

>  <SCORE.heavy>
14

>  <SCORE.norm>
-0.834365

>  <RMSD>
5.415

$$$$
1xpf_lig
 OpenBabel02141814123D
libRbt.so/2013.1/901 2013/11/27
 14 13  0  0  0  0  0  0  0  0999 V2000
   19.6814    1.9797   65.0240 N   0  0  0  0  0  0  0  0  0  0  0  0
   20.0335    1.8886   66.4289 C   0  0  0  0  0  0  0  0  0  0  0  0
   19.8497    0.5079   66.9346 C   0  0  0  0  0  0  0  0  0  0  0  0
   18.3731    0.2718   67.0071 C   0  0  0  0  0  0  0  0  0  0  0  0
   18.1925   -1.1063   67.5258 N   0  0  0  0  0  0  0  0  0  0  0  0
   16.7604   -1.3517   67.8777 C   0  0  0  0  0  0  0  0  0  0  0  0
   16.4652   -2.8159   68.2463 C   0  0  0  0  0  0  0  0  0  0  0  0
   16.5959   -3.7956   67.0666 C   0  0  0  0  0  0  0  0  0  0  0  0
   16.4306   -5.2183   67.5791 C   0  0  0  0  0  0  0  0  0  0  0  0
   16.5640   -6.0655   66.3849 N   0  0  0  0  0  0  0  0  0  0  0  0
   16.9698   -7.4860   66.5774 C   0  0  0  0  0  0  0  0  0  0  0  0
   15.9211   -8.1931   65.6917 C   0  0  0  0  0  0  0  0  0  0  0  0
   15.9626   -7.9717   64.2010 C   0  0  0  0  0  0  0  0  0  0  0  0
   14.8734   -8.5872   63.4628 N   0  0  0  0  0  0  0  0  0  0  0  0
  1  2  1  0  0  0  0
  2  3  1  0  0  0  0
  3  4  1  0  0  0  0
  4  5  1  0  0  0  0
  5  6  1  0  0  0  0
  6  7  1  0  0  0  0
  7  8  1  0  0  0  0
  8  9  1  0  0  0  0
  9 10  1  0  0  0  0
 10 11  1  0  0  0  0
 11 12  1  0  0  0  0
 12 13  1  0  0  0  0
 13 14  1  0  0  0  0
M  END
>  <CHROM.1>
-71.41981372,-179.47319296,169.39610148,172.37663765,-67.70852193,173.94594139
179.70443991,156.98149958,132.29670235,66.37213171,-175.15627316,17.33379305
-3.42451067,66.42946664,-0.67860678,-1.10021878,-2.14784301

>  <Name>
1xpf_lig

>  <RI>
0

>  <Rbt.Current_Directory>
/home/afrankz/demos/rdock_decoys_rna/rnas/1xpf

>  <Rbt.Executable>
rbdock ($Id: //depot/dev/client3/rdock/2013.1/src/exe/rbdock.cxx#4 $)

>  <Rbt.Library>
libRbt.so (2013.1, Build901 2013/11/27)

>  <Rbt.Parameter_File>
/export/apps/rDock/src/rDock_2013.1_src/data/scripts/dock_solv.prm

>  <Rbt.Receptor>
prm/pocket_docking_6.prm

>  <SCORE>
-14.3365

>  <SCORE.INTER>
-5.64228

>  <SCORE.INTER.CONST>
1

>  <SCORE.INTER.POLAR>
-0.8

>  <SCORE.INTER.ROT>
11

>  <SCORE.INTER.SOLV>
9.5415

>  <SCORE.INTER.VDW>
-15.2087

>  <SCORE.INTER.norm>
-0.40302

>  <SCORE.INTRA>
-8.69423

>  <SCORE.INTRA.DIHEDRAL>
-15.0834

>  <SCORE.INTRA.DIHEDRAL.0>
17.7811

>  <SCORE.INTRA.POLAR>
0

>  <SCORE.INTRA.POLAR.0>
0

>  <SCORE.INTRA.REPUL>
0

>  <SCORE.INTRA.REPUL.0>
0

>  <SCORE.INTRA.SOLV>
0.689838

>  <SCORE.INTRA.SOLV.lig_0>
-47.9565

>  <SCORE.INTRA.VDW>
-1.49744

>  <SCORE.INTRA.VDW.0>
0.515983

>  <SCORE.INTRA.norm>
-0.621017

>  <SCORE.RESTR>
0

>  <SCORE.RESTR.CAVITY>
0

>  <SCORE.RESTR.norm>
0

>  <SCORE.SYSTEM>
0

>  <SCORE.SYSTEM.CONST>
0

>  <SCORE.SYSTEM.DIHEDRAL>
0

>  <SCORE.SYSTEM.SOLV>
0

>  <SCORE.SYSTEM.norm>
0

>  <SCORE.heavy>
14

>  <SCORE.norm>
-1.02404

>  <RMSD>
5.415

$$$$
1xpf_lig
 OpenBabel02141814123D
libRbt.so/2013.1/901 2013/11/27
 14 13  0  0  0  0  0  0  0  0999 V2000
   18.5708   -2.2776   60.3543 N   0  0  0  0  0  0  0  0  0  0  0  0
   18.9233   -0.8727   60.4449 C   0  0  0  0  0  0  0  0  0  0  0  0
   20.3379   -0.6539   60.0615 C   0  0  0  0  0  0  0  0  0  0  0  0
   20.6078    0.8081   60.2379 C   0  0  0  0  0  0  0  0  0  0  0  0
   22.0378    1.0154   59.9019 N   0  0  0  0  0  0  0  0  0  0  0  0
   22.6139    2.1264   60.7196 C   0  0  0  0  0  0  0  0  0  0  0  0
   22.2254    3.5246   60.2087 C   0  0  0  0  0  0  0  0  0  0  0  0
   22.6050    4.6676   61.1668 C   0  0  0  0  0  0  0  0  0  0  0  0
   22.1891    5.9945   60.5500 C   0  0  0  0  0  0  0  0  0  0  0  0
   22.3177    6.9722   61.6404 N   0  0  0  0  0  0  0  0  0  0  0  0
   21.2668    6.9840   62.6963 C   0  0  0  0  0  0  0  0  0  0  0  0
   21.6486    8.2771   63.4488 C   0  0  0  0  0  0  0  0  0  0  0  0
   20.7599    8.7537   64.5695 C   0  0  0  0  0  0  0  0  0  0  0  0
   20.6217    7.8226   65.6759 N   0  0  0  0  0  0  0  0  0  0  0  0
  1  2  1  0  0  0  0
  2  3  1  0  0  0  0
  3  4  1  0  0  0  0
  4  5  1  0  0  0  0
  5  6  1  0  0  0  0
  6  7  1  0  0  0  0
  7  8  1  0  0  0  0
  8  9  1  0  0  0  0
  9 10  1  0  0  0  0
 10 11  1  0  0  0  0
 11 12  1  0  0  0  0
 12 13  1  0  0  0  0
 13 14  1  0  0  0  0
M  END
>  <CHROM.1>
-177.95595944,177.94365785,-147.83610172,-77.87516812,170.12595591,179.30516747
168.01798581,-75.94055362,-170.32722309,175.27313423,60.56450701,21.19481609
3.79601600,61.54818999,1.76831523,-0.71762009,-2.62575597

>  <Name>
1xpf_lig

>  <RI>
0

>  <Rbt.Current_Directory>
/home/afrankz/demos/rdock_decoys_rna/rnas/1xpf

>  <Rbt.Executable>
rbdock ($Id: //depot/dev/client3/rdock/2013.1/src/exe/rbdock.cxx#4 $)

>  <Rbt.Library>
libRbt.so (2013.1, Build901 2013/11/27)

>  <Rbt.Parameter_File>
/export/apps/rDock/src/rDock_2013.1_src/data/scripts/dock_solv.prm

>  <Rbt.Receptor>
prm/pocket_docking_8.prm

>  <SCORE>
-12.1413

>  <SCORE.INTER>
-3.26282

>  <SCORE.INTER.CONST>
1

>  <SCORE.INTER.POLAR>
-1.59759

>  <SCORE.INTER.ROT>
11

>  <SCORE.INTER.SOLV>
8.24567

>  <SCORE.INTER.VDW>
-10.5318

>  <SCORE.INTER.norm>
-0.233058

>  <SCORE.INTRA>
-8.8785

>  <SCORE.INTRA.DIHEDRAL>
-15.5912

>  <SCORE.INTRA.DIHEDRAL.0>
17.7811

>  <SCORE.INTRA.POLAR>
0

>  <SCORE.INTRA.POLAR.0>
0

>  <SCORE.INTRA.REPUL>
0

>  <SCORE.INTRA.REPUL.0>
0

>  <SCORE.INTRA.SOLV>
-0.35031

>  <SCORE.INTRA.SOLV.lig_0>
-47.9565

>  <SCORE.INTRA.VDW>
-0.907746

>  <SCORE.INTRA.VDW.0>
0.515983

>  <SCORE.INTRA.norm>
-0.634179

>  <SCORE.RESTR>
0

>  <SCORE.RESTR.CAVITY>
0

>  <SCORE.RESTR.norm>
0

>  <SCORE.SYSTEM>
0

>  <SCORE.SYSTEM.CONST>
0

>  <SCORE.SYSTEM.DIHEDRAL>
0

>  <SCORE.SYSTEM.SOLV>
0

>  <SCORE.SYSTEM.norm>
0

>  <SCORE.heavy>
14

>  <SCORE.norm>
-0.867237

>  <RMSD>
5.419

$$$$
1xpf_lig
 OpenBabel02141814123D
libRbt.so/2013.1/901 2013/11/27
 14 13  0  0  0  0  0  0  0  0999 V2000
   22.4486    7.5265   62.3983 N   0  0  0  0  0  0  0  0  0  0  0  0
   21.7329    7.6057   63.6582 C   0  0  0  0  0  0  0  0  0  0  0  0
   20.2931    7.3093   63.4712 C   0  0  0  0  0  0  0  0  0  0  0  0
   19.6521    7.4328   64.8185 C   0  0  0  0  0  0  0  0  0  0  0  0
   20.1162    6.2694   65.6134 N   0  0  0  0  0  0  0  0  0  0  0  0
   19.7288    6.4258   67.0488 C   0  0  0  0  0  0  0  0  0  0  0  0
   20.3078    5.3294   67.9597 C   0  0  0  0  0  0  0  0  0  0  0  0
   19.6832    3.9402   67.7397 C   0  0  0  0  0  0  0  0  0  0  0  0
   20.2574    3.3306   66.4697 C   0  0  0  0  0  0  0  0  0  0  0  0
   19.5921    2.0254   66.3457 N   0  0  0  0  0  0  0  0  0  0  0  0
   20.0014    0.9404   67.2810 C   0  0  0  0  0  0  0  0  0  0  0  0
   19.3865   -0.2831   66.5676 C   0  0  0  0  0  0  0  0  0  0  0  0
   17.8853   -0.4072   66.5042 C   0  0  0  0  0  0  0  0  0  0  0  0
   17.4001   -1.6006   65.8329 N   0  0  0  0  0  0  0  0  0  0  0  0
  1  2  1  0  0  0  0
  2  3  1  0  0  0  0
  3  4  1  0  0  0  0
  4  5  1  0  0  0  0
  5  6  1  0  0  0  0
  6  7  1  0  0  0  0
  7  8  1  0  0  0  0
  8  9  1  0  0  0  0
  9 10  1  0  0  0  0
 10 11  1  0  0  0  0
 11 12  1  0  0  0  0
 12 13  1  0  0  0  0
 13 14  1  0  0  0  0
M  END
>  <CHROM.1>
-179.38010233,-71.22252628,169.94885808,-173.82865134,-69.96774999,76.62220134
-179.44334818,-73.08344191,-164.97711325,-67.83228794,-179.05451775,19.89182060
3.98906271,65.83667132,-0.24779842,-1.27060159,-2.14108491

>  <Name>
1xpf_lig

>  <RI>
0

>  <Rbt.Current_Directory>
/home/afrankz/demos/rdock_decoys_rna/rnas/1xpf

>  <Rbt.Executable>
rbdock ($Id: //depot/dev/client3/rdock/2013.1/src/exe/rbdock.cxx#4 $)

>  <Rbt.Library>
libRbt.so (2013.1, Build901 2013/11/27)

>  <Rbt.Parameter_File>
/export/apps/rDock/src/rDock_2013.1_src/data/scripts/dock_solv.prm

>  <Rbt.Receptor>
prm/pocket_docking_7.prm

>  <SCORE>
-11.5554

>  <SCORE.INTER>
-3.89772

>  <SCORE.INTER.CONST>
1

>  <SCORE.INTER.POLAR>
-0.906895

>  <SCORE.INTER.ROT>
11

>  <SCORE.INTER.SOLV>
8.92375

>  <SCORE.INTER.VDW>
-13.4834

>  <SCORE.INTER.norm>
-0.278409

>  <SCORE.INTRA>
-7.65765

>  <SCORE.INTRA.DIHEDRAL>
-15.2044

>  <SCORE.INTRA.DIHEDRAL.0>
17.7811

>  <SCORE.INTRA.POLAR>
0

>  <SCORE.INTRA.POLAR.0>
0

>  <SCORE.INTRA.REPUL>
0

>  <SCORE.INTRA.REPUL.0>
0

>  <SCORE.INTRA.SOLV>
0.96113

>  <SCORE.INTRA.SOLV.lig_0>
-47.9565

>  <SCORE.INTRA.VDW>
-0.536035

>  <SCORE.INTRA.VDW.0>
0.515983

>  <SCORE.INTRA.norm>
-0.546975

>  <SCORE.RESTR>
0

>  <SCORE.RESTR.CAVITY>
0

>  <SCORE.RESTR.norm>
0

>  <SCORE.SYSTEM>
0

>  <SCORE.SYSTEM.CONST>
0

>  <SCORE.SYSTEM.DIHEDRAL>
0

>  <SCORE.SYSTEM.SOLV>
0

>  <SCORE.SYSTEM.norm>
0

>  <SCORE.heavy>
14

>  <SCORE.norm>
-0.825384

>  <RMSD>
5.423

$$$$
1xpf_lig
 OpenBabel02141814123D
libRbt.so/2013.1/901 2013/11/27
 14 13  0  0  0  0  0  0  0  0999 V2000
   16.4104   -5.4999   61.2521 N   0  0  0  0  0  0  0  0  0  0  0  0
   16.8460   -6.1817   62.4569 C   0  0  0  0  0  0  0  0  0  0  0  0
   17.5774   -5.2579   63.3555 C   0  0  0  0  0  0  0  0  0  0  0  0
   16.5419   -4.4423   64.0655 C   0  0  0  0  0  0  0  0  0  0  0  0
   15.9376   -5.3290   65.0898 N   0  0  0  0  0  0  0  0  0  0  0  0
   16.5662   -5.0934   66.4256 C   0  0  0  0  0  0  0  0  0  0  0  0
   16.2957   -3.6869   66.9873 C   0  0  0  0  0  0  0  0  0  0  0  0
   16.6726   -3.5235   68.4705 C   0  0  0  0  0  0  0  0  0  0  0  0
   16.3205   -2.1142   68.9223 C   0  0  0  0  0  0  0  0  0  0  0  0
   17.3742   -1.2626   68.3515 N   0  0  0  0  0  0  0  0  0  0  0  0
   17.1181   -0.6247   67.0297 C   0  0  0  0  0  0  0  0  0  0  0  0
   18.4931    0.0274   66.7689 C   0  0  0  0  0  0  0  0  0  0  0  0
   18.9511    1.1419   67.6750 C   0  0  0  0  0  0  0  0  0  0  0  0
   20.1758    1.8025   67.2577 N   0  0  0  0  0  0  0  0  0  0  0  0
  1  2  1  0  0  0  0
  2  3  1  0  0  0  0
  3  4  1  0  0  0  0
  4  5  1  0  0  0  0
  5  6  1  0  0  0  0
  6  7  1  0  0  0  0
  7  8  1  0  0  0  0
  8  9  1  0  0  0  0
  9 10  1  0  0  0  0
 10 11  1  0  0  0  0
 11 12  1  0  0  0  0
 12 13  1  0  0  0  0
 13 14  1  0  0  0  0
M  END
>  <CHROM.1>
78.88805252,75.11776991,97.62446128,65.08982924,167.73905723,-178.19525472
-76.01027780,93.56686626,-174.61634767,-65.74349545,-172.80445269,17.23422588
-2.86042546,66.00793965,-2.03170211,1.00255357,1.06963072

>  <Name>
1xpf_lig

>  <RI>
0

>  <Rbt.Current_Directory>
/home/afrankz/demos/rdock_decoys_rna/rnas/1xpf

>  <Rbt.Executable>
rbdock ($Id: //depot/dev/client3/rdock/2013.1/src/exe/rbdock.cxx#4 $)

>  <Rbt.Library>
libRbt.so (2013.1, Build901 2013/11/27)

>  <Rbt.Parameter_File>
/export/apps/rDock/src/rDock_2013.1_src/data/scripts/dock_solv.prm

>  <Rbt.Receptor>
prm/blind_docking_100.prm

>  <SCORE>
-10.5951

>  <SCORE.INTER>
-5.22124

>  <SCORE.INTER.CONST>
1

>  <SCORE.INTER.POLAR>
-0.8

>  <SCORE.INTER.ROT>
11

>  <SCORE.INTER.SOLV>
12.3688

>  <SCORE.INTER.VDW>
-15.8704

>  <SCORE.INTER.norm>
-0.372946

>  <SCORE.INTRA>
-5.37388

>  <SCORE.INTRA.DIHEDRAL>
-12.333

>  <SCORE.INTRA.DIHEDRAL.0>
17.7811

>  <SCORE.INTRA.POLAR>
0

>  <SCORE.INTRA.POLAR.0>
0

>  <SCORE.INTRA.REPUL>
0

>  <SCORE.INTRA.REPUL.0>
0

>  <SCORE.INTRA.SOLV>
1.25829

>  <SCORE.INTRA.SOLV.lig_0>
-47.9565

>  <SCORE.INTRA.VDW>
0.163473

>  <SCORE.INTRA.VDW.0>
0.515983

>  <SCORE.INTRA.norm>
-0.383848

>  <SCORE.RESTR>
0

>  <SCORE.RESTR.CAVITY>
0

>  <SCORE.RESTR.norm>
0

>  <SCORE.SYSTEM>
0

>  <SCORE.SYSTEM.CONST>
0

>  <SCORE.SYSTEM.DIHEDRAL>
0

>  <SCORE.SYSTEM.SOLV>
0

>  <SCORE.SYSTEM.norm>
0

>  <SCORE.heavy>
14

>  <SCORE.norm>
-0.756794

>  <RMSD>
5.456

$$$$
1xpf_lig
 OpenBabel02141814123D
libRbt.so/2013.1/901 2013/11/27
 14 13  0  0  0  0  0  0  0  0999 V2000
   13.9813   -0.5407   60.3763 N   0  0  0  0  0  0  0  0  0  0  0  0
   15.2776    0.1063   60.2921 C   0  0  0  0  0  0  0  0  0  0  0  0
   15.7186    0.5880   61.6223 C   0  0  0  0  0  0  0  0  0  0  0  0
   17.0649    1.2130   61.4264 C   0  0  0  0  0  0  0  0  0  0  0  0
   17.4871    1.7270   62.7524 N   0  0  0  0  0  0  0  0  0  0  0  0
   18.2935    2.9764   62.5991 C   0  0  0  0  0  0  0  0  0  0  0  0
   18.9773    3.4247   63.9023 C   0  0  0  0  0  0  0  0  0  0  0  0
   20.0758    2.4652   64.3935 C   0  0  0  0  0  0  0  0  0  0  0  0
   20.5699    2.9281   65.7557 C   0  0  0  0  0  0  0  0  0  0  0  0
   19.4936    2.5648   66.6889 N   0  0  0  0  0  0  0  0  0  0  0  0
   19.8070    1.5922   67.7730 C   0  0  0  0  0  0  0  0  0  0  0  0
   18.7048    0.5398   67.5244 C   0  0  0  0  0  0  0  0  0  0  0  0
   18.7982   -0.3329   66.2986 C   0  0  0  0  0  0  0  0  0  0  0  0
   17.6941   -1.2609   66.1255 N   0  0  0  0  0  0  0  0  0  0  0  0
  1  2  1  0  0  0  0
  2  3  1  0  0  0  0
  3  4  1  0  0  0  0
  4  5  1  0  0  0  0
  5  6  1  0  0  0  0
  6  7  1  0  0  0  0
  7  8  1  0  0  0  0
  8  9  1  0  0  0  0
  9 10  1  0  0  0  0
 10 11  1  0  0  0  0
 11 12  1  0  0  0  0
 12 13  1  0  0  0  0
 13 14  1  0  0  0  0
M  END
>  <CHROM.1>
179.08410262,178.49547877,-146.39357412,-169.56788814,66.86370489,-173.89641293
74.13623014,118.04813493,-125.56940480,70.62517396,-178.02413792,17.99632745
1.28534699,64.10938805,2.57200322,-0.81968083,-0.93748278

>  <Name>
1xpf_lig

>  <RI>
0

>  <Rbt.Current_Directory>
/home/afrankz/demos/rdock_decoys_rna/rnas/1xpf

>  <Rbt.Executable>
rbdock ($Id: //depot/dev/client3/rdock/2013.1/src/exe/rbdock.cxx#4 $)

>  <Rbt.Library>
libRbt.so (2013.1, Build901 2013/11/27)

>  <Rbt.Parameter_File>
/export/apps/rDock/src/rDock_2013.1_src/data/scripts/dock_solv.prm

>  <Rbt.Receptor>
prm/pocket_docking_6.prm

>  <SCORE>
-8.94069

>  <SCORE.INTER>
-0.433907

>  <SCORE.INTER.CONST>
1

>  <SCORE.INTER.POLAR>
0

>  <SCORE.INTER.ROT>
11

>  <SCORE.INTER.SOLV>
5.77995

>  <SCORE.INTER.VDW>
-13.1493

>  <SCORE.INTER.norm>
-0.0309933

>  <SCORE.INTRA>
-8.50678

>  <SCORE.INTRA.DIHEDRAL>
-13.1135

>  <SCORE.INTRA.DIHEDRAL.0>
17.7811

>  <SCORE.INTRA.POLAR>
0

>  <SCORE.INTRA.POLAR.0>
0

>  <SCORE.INTRA.REPUL>
0

>  <SCORE.INTRA.REPUL.0>
0

>  <SCORE.INTRA.SOLV>
0.360928

>  <SCORE.INTRA.SOLV.lig_0>
-47.9565

>  <SCORE.INTRA.VDW>
-2.1305

>  <SCORE.INTRA.VDW.0>
0.515983

>  <SCORE.INTRA.norm>
-0.607627

>  <SCORE.RESTR>
0

>  <SCORE.RESTR.CAVITY>
0

>  <SCORE.RESTR.norm>
0

>  <SCORE.SYSTEM>
0

>  <SCORE.SYSTEM.CONST>
0

>  <SCORE.SYSTEM.DIHEDRAL>
0

>  <SCORE.SYSTEM.SOLV>
0

>  <SCORE.SYSTEM.norm>
0

>  <SCORE.heavy>
14

>  <SCORE.norm>
-0.638621

>  <RMSD>
5.463

$$$$
1xpf_lig
 OpenBabel02141814123D
libRbt.so/2013.1/901 2013/11/27
 14 13  0  0  0  0  0  0  0  0999 V2000
   17.9311   -0.9078   67.7453 N   0  0  0  0  0  0  0  0  0  0  0  0
   18.3425    0.2700   67.0040 C   0  0  0  0  0  0  0  0  0  0  0  0
   19.7457    0.6307   67.3152 C   0  0  0  0  0  0  0  0  0  0  0  0
   20.0506    1.8734   66.5381 C   0  0  0  0  0  0  0  0  0  0  0  0
   19.3040    2.9742   67.1950 N   0  0  0  0  0  0  0  0  0  0  0  0
   20.1745    4.1795   67.3511 C   0  0  0  0  0  0  0  0  0  0  0  0
   19.8050    5.3267   66.3948 C   0  0  0  0  0  0  0  0  0  0  0  0
   20.2324    5.0861   64.9361 C   0  0  0  0  0  0  0  0  0  0  0  0
   19.3093    4.0517   64.3100 C   0  0  0  0  0  0  0  0  0  0  0  0
   19.7964    3.8992   62.9313 N   0  0  0  0  0  0  0  0  0  0  0  0
   18.9345    3.1656   61.9625 C   0  0  0  0  0  0  0  0  0  0  0  0
   19.8377    3.2008   60.7106 C   0  0  0  0  0  0  0  0  0  0  0  0
   21.0735    2.3376   60.6831 C   0  0  0  0  0  0  0  0  0  0  0  0
   22.1219    2.7446   61.6026 N   0  0  0  0  0  0  0  0  0  0  0  0
  1  2  1  0  0  0  0
  2  3  1  0  0  0  0
  3  4  1  0  0  0  0
  4  5  1  0  0  0  0
  5  6  1  0  0  0  0
  6  7  1  0  0  0  0
  7  8  1  0  0  0  0
  8  9  1  0  0  0  0
  9 10  1  0  0  0  0
 10 11  1  0  0  0  0
 11 12  1  0  0  0  0
 12 13  1  0  0  0  0
 13 14  1  0  0  0  0
M  END
>  <CHROM.1>
-178.22045695,71.99348556,134.92545353,107.58026102,-74.49712929,73.95475469
179.85862707,-167.52930481,-177.85913877,72.04648976,-68.88924315,19.76135721
2.77397780,64.76277603,2.61641211,1.30490583,0.86986431

>  <Name>
1xpf_lig

>  <RI>
0

>  <Rbt.Current_Directory>
/home/afrankz/demos/rdock_decoys_rna/rnas/1xpf

>  <Rbt.Executable>
rbdock ($Id: //depot/dev/client3/rdock/2013.1/src/exe/rbdock.cxx#4 $)

>  <Rbt.Library>
libRbt.so (2013.1, Build901 2013/11/27)

>  <Rbt.Parameter_File>
/export/apps/rDock/src/rDock_2013.1_src/data/scripts/dock_solv.prm

>  <Rbt.Receptor>
prm/pocket_docking_6.prm

>  <SCORE>
-7.98963

>  <SCORE.INTER>
-2.18557

>  <SCORE.INTER.CONST>
1

>  <SCORE.INTER.POLAR>
-0.799482

>  <SCORE.INTER.ROT>
11

>  <SCORE.INTER.SOLV>
10.3917

>  <SCORE.INTER.VDW>
-13.1893

>  <SCORE.INTER.norm>
-0.156112

>  <SCORE.INTRA>
-5.80405

>  <SCORE.INTRA.DIHEDRAL>
-12.6483

>  <SCORE.INTRA.DIHEDRAL.0>
17.7811

>  <SCORE.INTRA.POLAR>
0

>  <SCORE.INTRA.POLAR.0>
0

>  <SCORE.INTRA.REPUL>
0

>  <SCORE.INTRA.REPUL.0>
0

>  <SCORE.INTRA.SOLV>
3.59358

>  <SCORE.INTRA.SOLV.lig_0>
-47.9565

>  <SCORE.INTRA.VDW>
-1.27668

>  <SCORE.INTRA.VDW.0>
0.515983

>  <SCORE.INTRA.norm>
-0.414575

>  <SCORE.RESTR>
0

>  <SCORE.RESTR.CAVITY>
0

>  <SCORE.RESTR.norm>
0

>  <SCORE.SYSTEM>
0

>  <SCORE.SYSTEM.CONST>
0

>  <SCORE.SYSTEM.DIHEDRAL>
0

>  <SCORE.SYSTEM.SOLV>
0

>  <SCORE.SYSTEM.norm>
0

>  <SCORE.heavy>
14

>  <SCORE.norm>
-0.570688

>  <RMSD>
5.474

$$$$
1xpf_lig
 OpenBabel02141814123D
libRbt.so/2013.1/901 2013/11/27
 14 13  0  0  0  0  0  0  0  0999 V2000
   16.5628   -1.2066   59.2151 N   0  0  0  0  0  0  0  0  0  0  0  0
   16.9446   -0.0862   60.0549 C   0  0  0  0  0  0  0  0  0  0  0  0
   18.4046    0.1571   59.9851 C   0  0  0  0  0  0  0  0  0  0  0  0
   18.6882    1.3197   60.8846 C   0  0  0  0  0  0  0  0  0  0  0  0
   20.0954    1.7146   60.6308 N   0  0  0  0  0  0  0  0  0  0  0  0
   20.2565    3.1955   60.7569 C   0  0  0  0  0  0  0  0  0  0  0  0
   20.6866    3.6446   62.1641 C   0  0  0  0  0  0  0  0  0  0  0  0
   20.8204    5.1699   62.3194 C   0  0  0  0  0  0  0  0  0  0  0  0
   22.0704    5.6378   61.5895 C   0  0  0  0  0  0  0  0  0  0  0  0
   22.1629    7.0747   61.8865 N   0  0  0  0  0  0  0  0  0  0  0  0
   22.7811    7.4829   63.1791 C   0  0  0  0  0  0  0  0  0  0  0  0
   21.5387    8.0259   63.9178 C   0  0  0  0  0  0  0  0  0  0  0  0
   21.6720    8.4240   65.3658 C   0  0  0  0  0  0  0  0  0  0  0  0
   22.0457    7.3444   66.2629 N   0  0  0  0  0  0  0  0  0  0  0  0
  1  2  1  0  0  0  0
  2  3  1  0  0  0  0
  3  4  1  0  0  0  0
  4  5  1  0  0  0  0
  5  6  1  0  0  0  0
  6  7  1  0  0  0  0
  7  8  1  0  0  0  0
  8  9  1  0  0  0  0
  9 10  1  0  0  0  0
 10 11  1  0  0  0  0
 11 12  1  0  0  0  0
 12 13  1  0  0  0  0
 13 14  1  0  0  0  0
M  END
>  <CHROM.1>
-179.77234787,-170.14260740,145.59628073,93.13451239,-178.47170439,-72.99228402
-175.65624742,82.53271413,-110.64450843,173.36245633,-61.89320384,20.33790267
4.13575396,62.01519248,2.24795837,-0.79202735,-2.10964586

>  <Name>
1xpf_lig

>  <RI>
0

>  <Rbt.Current_Directory>
/home/afrankz/demos/rdock_decoys_rna/rnas/1xpf

>  <Rbt.Executable>
rbdock ($Id: //depot/dev/client3/rdock/2013.1/src/exe/rbdock.cxx#4 $)

>  <Rbt.Library>
libRbt.so (2013.1, Build901 2013/11/27)

>  <Rbt.Parameter_File>
/export/apps/rDock/src/rDock_2013.1_src/data/scripts/dock_solv.prm

>  <Rbt.Receptor>
prm/pocket_docking_6.prm

>  <SCORE>
-9.98568

>  <SCORE.INTER>
-2.23989

>  <SCORE.INTER.CONST>
1

>  <SCORE.INTER.POLAR>
-1.40686

>  <SCORE.INTER.ROT>
11

>  <SCORE.INTER.SOLV>
9.64756

>  <SCORE.INTER.VDW>
-10.9529

>  <SCORE.INTER.norm>
-0.159992

>  <SCORE.INTRA>
-7.74579

>  <SCORE.INTRA.DIHEDRAL>
-13.5458

>  <SCORE.INTRA.DIHEDRAL.0>
17.7811

>  <SCORE.INTRA.POLAR>
0

>  <SCORE.INTRA.POLAR.0>
0

>  <SCORE.INTRA.REPUL>
0

>  <SCORE.INTRA.REPUL.0>
0

>  <SCORE.INTRA.SOLV>
-0.162184

>  <SCORE.INTRA.SOLV.lig_0>
-47.9565

>  <SCORE.INTRA.VDW>
-0.891808

>  <SCORE.INTRA.VDW.0>
0.515983

>  <SCORE.INTRA.norm>
-0.553271

>  <SCORE.RESTR>
0

>  <SCORE.RESTR.CAVITY>
0

>  <SCORE.RESTR.norm>
0

>  <SCORE.SYSTEM>
0

>  <SCORE.SYSTEM.CONST>
0

>  <SCORE.SYSTEM.DIHEDRAL>
0

>  <SCORE.SYSTEM.SOLV>
0

>  <SCORE.SYSTEM.norm>
0

>  <SCORE.heavy>
14

>  <SCORE.norm>
-0.713263

>  <RMSD>
5.479

$$$$
1xpf_lig
 OpenBabel02141814123D
libRbt.so/2013.1/901 2013/11/27
 14 13  0  0  0  0  0  0  0  0999 V2000
   18.4110   -0.4836   67.6300 N   0  0  0  0  0  0  0  0  0  0  0  0
   18.8626    0.8718   67.3752 C   0  0  0  0  0  0  0  0  0  0  0  0
   19.4283    0.9960   66.0112 C   0  0  0  0  0  0  0  0  0  0  0  0
   19.8273    2.4290   65.8422 C   0  0  0  0  0  0  0  0  0  0  0  0
   20.2634    2.5809   64.4324 N   0  0  0  0  0  0  0  0  0  0  0  0
   19.2276    3.3093   63.6377 C   0  0  0  0  0  0  0  0  0  0  0  0
   19.7833    3.9518   62.3550 C   0  0  0  0  0  0  0  0  0  0  0  0
   20.3379    2.9383   61.3383 C   0  0  0  0  0  0  0  0  0  0  0  0
   21.0137    3.6907   60.2019 C   0  0  0  0  0  0  0  0  0  0  0  0
   22.2019    4.3048   60.8125 N   0  0  0  0  0  0  0  0  0  0  0  0
   22.1882    5.7768   61.0418 C   0  0  0  0  0  0  0  0  0  0  0  0
   23.0959    6.2432   59.8830 C   0  0  0  0  0  0  0  0  0  0  0  0
   24.5396    5.8089   59.8723 C   0  0  0  0  0  0  0  0  0  0  0  0
   25.3109    6.2282   61.0297 N   0  0  0  0  0  0  0  0  0  0  0  0
  1  2  1  0  0  0  0
  2  3  1  0  0  0  0
  3  4  1  0  0  0  0
  4  5  1  0  0  0  0
  5  6  1  0  0  0  0
  6  7  1  0  0  0  0
  7  8  1  0  0  0  0
  8  9  1  0  0  0  0
  9 10  1  0  0  0  0
 10 11  1  0  0  0  0
 11 12  1  0  0  0  0
 12 13  1  0  0  0  0
 13 14  1  0  0  0  0
M  END
>  <CHROM.1>
178.58417137,-174.34686547,105.63801242,158.90720186,63.05097912,-172.88380378
68.01447542,-107.01035526,-103.73327186,-63.86352981,-59.78355221,21.03490251
3.47484009,62.96144413,-2.15070915,-0.44378742,-1.20044317

>  <Name>
1xpf_lig

>  <RI>
0

>  <Rbt.Current_Directory>
/home/afrankz/demos/rdock_decoys_rna/rnas/1xpf

>  <Rbt.Executable>
rbdock ($Id: //depot/dev/client3/rdock/2013.1/src/exe/rbdock.cxx#4 $)

>  <Rbt.Library>
libRbt.so (2013.1, Build901 2013/11/27)

>  <Rbt.Parameter_File>
/export/apps/rDock/src/rDock_2013.1_src/data/scripts/dock_solv.prm

>  <Rbt.Receptor>
prm/pocket_docking_6.prm

>  <SCORE>
-7.1667

>  <SCORE.INTER>
-0.0482967

>  <SCORE.INTER.CONST>
1

>  <SCORE.INTER.POLAR>
-0.793447

>  <SCORE.INTER.ROT>
11

>  <SCORE.INTER.SOLV>
9.11419

>  <SCORE.INTER.VDW>
-11.3588

>  <SCORE.INTER.norm>
-0.00344976

>  <SCORE.INTRA>
-7.11841

>  <SCORE.INTRA.DIHEDRAL>
-13.6823

>  <SCORE.INTRA.DIHEDRAL.0>
17.7811

>  <SCORE.INTRA.POLAR>
0

>  <SCORE.INTRA.POLAR.0>
0

>  <SCORE.INTRA.REPUL>
0

>  <SCORE.INTRA.REPUL.0>
0

>  <SCORE.INTRA.SOLV>
1.56524

>  <SCORE.INTRA.SOLV.lig_0>
-47.9565

>  <SCORE.INTRA.VDW>
-1.05987

>  <SCORE.INTRA.VDW.0>
0.515983

>  <SCORE.INTRA.norm>
-0.508458

>  <SCORE.RESTR>
0

>  <SCORE.RESTR.CAVITY>
0

>  <SCORE.RESTR.norm>
0

>  <SCORE.SYSTEM>
0

>  <SCORE.SYSTEM.CONST>
0

>  <SCORE.SYSTEM.DIHEDRAL>
0

>  <SCORE.SYSTEM.SOLV>
0

>  <SCORE.SYSTEM.norm>
0

>  <SCORE.heavy>
14

>  <SCORE.norm>
-0.511907

>  <RMSD>
5.497

$$$$
1xpf_lig
 OpenBabel02141814123D
libRbt.so/2013.1/901 2013/11/27
 14 13  0  0  0  0  0  0  0  0999 V2000
   18.8270    2.1427   69.1236 N   0  0  0  0  0  0  0  0  0  0  0  0
   20.0483    2.1774   68.3403 C   0  0  0  0  0  0  0  0  0  0  0  0
   19.7734    1.8845   66.9140 C   0  0  0  0  0  0  0  0  0  0  0  0
   19.3024    0.4647   66.8517 C   0  0  0  0  0  0  0  0  0  0  0  0
   18.9970    0.1849   65.4272 N   0  0  0  0  0  0  0  0  0  0  0  0
   19.4867   -1.1741   65.0421 C   0  0  0  0  0  0  0  0  0  0  0  0
   21.0123   -1.2427   64.8562 C   0  0  0  0  0  0  0  0  0  0  0  0
   21.5332   -2.6403   64.4771 C   0  0  0  0  0  0  0  0  0  0  0  0
   21.0942   -2.9683   63.0580 C   0  0  0  0  0  0  0  0  0  0  0  0
   21.8157   -2.0080   62.2103 N   0  0  0  0  0  0  0  0  0  0  0  0
   23.1595   -2.3986   61.6993 C   0  0  0  0  0  0  0  0  0  0  0  0
   23.2787   -1.4491   60.4875 C   0  0  0  0  0  0  0  0  0  0  0  0
   23.2380    0.0392   60.7252 C   0  0  0  0  0  0  0  0  0  0  0  0
   23.3165    0.8508   59.5230 N   0  0  0  0  0  0  0  0  0  0  0  0
  1  2  1  0  0  0  0
  2  3  1  0  0  0  0
  3  4  1  0  0  0  0
  4  5  1  0  0  0  0
  5  6  1  0  0  0  0
  6  7  1  0  0  0  0
  7  8  1  0  0  0  0
  8  9  1  0  0  0  0
  9 10  1  0  0  0  0
 10 11  1  0  0  0  0
 11 12  1  0  0  0  0
 12 13  1  0  0  0  0
 13 14  1  0  0  0  0
M  END
>  <CHROM.1>
-65.74067517,178.66862216,138.27491824,-75.23697391,179.25604140,69.87897993
66.18607965,89.75144183,158.53025309,60.66159675,-178.21990077,21.06320962
-0.43864784,64.19543406,-2.64449911,-1.04371768,-2.95145056

>  <Name>
1xpf_lig

>  <RI>
0

>  <Rbt.Current_Directory>
/home/afrankz/demos/rdock_decoys_rna/rnas/1xpf

>  <Rbt.Executable>
rbdock ($Id: //depot/dev/client3/rdock/2013.1/src/exe/rbdock.cxx#4 $)

>  <Rbt.Library>
libRbt.so (2013.1, Build901 2013/11/27)

>  <Rbt.Parameter_File>
/export/apps/rDock/src/rDock_2013.1_src/data/scripts/dock_solv.prm

>  <Rbt.Receptor>
prm/pocket_docking_5.prm

>  <SCORE>
-15.16

>  <SCORE.INTER>
-8.31698

>  <SCORE.INTER.CONST>
1

>  <SCORE.INTER.POLAR>
-1.51095

>  <SCORE.INTER.ROT>
11

>  <SCORE.INTER.SOLV>
10.1214

>  <SCORE.INTER.VDW>
-14.8153

>  <SCORE.INTER.norm>
-0.59407

>  <SCORE.INTRA>
-6.84352

>  <SCORE.INTRA.DIHEDRAL>
-15.0313

>  <SCORE.INTRA.DIHEDRAL.0>
17.7811

>  <SCORE.INTRA.POLAR>
0

>  <SCORE.INTRA.POLAR.0>
0

>  <SCORE.INTRA.REPUL>
0

>  <SCORE.INTRA.REPUL.0>
0

>  <SCORE.INTRA.SOLV>
1.18303

>  <SCORE.INTRA.SOLV.lig_0>
-47.9565

>  <SCORE.INTRA.VDW>
0.0806422

>  <SCORE.INTRA.VDW.0>
0.515983

>  <SCORE.INTRA.norm>
-0.488823

>  <SCORE.RESTR>
0.000511255

>  <SCORE.RESTR.CAVITY>
0.000511255

>  <SCORE.RESTR.norm>
3.65182e-05

>  <SCORE.SYSTEM>
0

>  <SCORE.SYSTEM.CONST>
0

>  <SCORE.SYSTEM.DIHEDRAL>
0

>  <SCORE.SYSTEM.SOLV>
0

>  <SCORE.SYSTEM.norm>
0

>  <SCORE.heavy>
14

>  <SCORE.norm>
-1.08286

>  <RMSD>
5.499

$$$$
1xpf_lig
 OpenBabel02141814123D
libRbt.so/2013.1/901 2013/11/27
 14 13  0  0  0  0  0  0  0  0999 V2000
   22.2520    3.2043   58.9396 N   0  0  0  0  0  0  0  0  0  0  0  0
   23.4363    2.5073   59.4063 C   0  0  0  0  0  0  0  0  0  0  0  0
   23.3801    2.2853   60.8703 C   0  0  0  0  0  0  0  0  0  0  0  0
   22.4540    1.1303   61.0927 C   0  0  0  0  0  0  0  0  0  0  0  0
   22.6432    0.7044   62.5011 N   0  0  0  0  0  0  0  0  0  0  0  0
   21.6635   -0.3653   62.8627 C   0  0  0  0  0  0  0  0  0  0  0  0
   22.0258   -1.1115   64.1584 C   0  0  0  0  0  0  0  0  0  0  0  0
   20.8997   -2.0120   64.6965 C   0  0  0  0  0  0  0  0  0  0  0  0
   19.7517   -1.1393   65.1809 C   0  0  0  0  0  0  0  0  0  0  0  0
   20.2949   -0.4121   66.3374 N   0  0  0  0  0  0  0  0  0  0  0  0
   19.3752    0.4811   67.0963 C   0  0  0  0  0  0  0  0  0  0  0  0
   20.0608    1.8445   66.8608 C   0  0  0  0  0  0  0  0  0  0  0  0
   19.5627    3.0479   67.6202 C   0  0  0  0  0  0  0  0  0  0  0  0
   20.2678    4.2849   67.3327 N   0  0  0  0  0  0  0  0  0  0  0  0
  1  2  1  0  0  0  0
  2  3  1  0  0  0  0
  3  4  1  0  0  0  0
  4  5  1  0  0  0  0
  5  6  1  0  0  0  0
  6  7  1  0  0  0  0
  7  8  1  0  0  0  0
  8  9  1  0  0  0  0
  9 10  1  0  0  0  0
 10 11  1  0  0  0  0
 11 12  1  0  0  0  0
 12 13  1  0  0  0  0
 13 14  1  0  0  0  0
M  END
>  <CHROM.1>
77.79473916,166.91579306,174.56670471,164.82174709,168.38762384,-68.18146806
-66.20576240,-176.44030582,-117.22107197,-171.70995848,-179.96457874,21.29052851
1.03175298,63.92547531,0.09074364,1.15338541,0.02295211

>  <Name>
1xpf_lig

>  <RI>
0

>  <Rbt.Current_Directory>
/home/afrankz/demos/rdock_decoys_rna/rnas/1xpf

>  <Rbt.Executable>
rbdock ($Id: //depot/dev/client3/rdock/2013.1/src/exe/rbdock.cxx#4 $)

>  <Rbt.Library>
libRbt.so (2013.1, Build901 2013/11/27)

>  <Rbt.Parameter_File>
/export/apps/rDock/src/rDock_2013.1_src/data/scripts/dock_solv.prm

>  <Rbt.Receptor>
prm/pocket_docking_4.prm

>  <SCORE>
-8.36939

>  <SCORE.INTER>
-0.888994

>  <SCORE.INTER.CONST>
1

>  <SCORE.INTER.POLAR>
-0.879954

>  <SCORE.INTER.ROT>
11

>  <SCORE.INTER.SOLV>
10.9021

>  <SCORE.INTER.VDW>
-12.2269

>  <SCORE.INTER.norm>
-0.0634996

>  <SCORE.INTRA>
-7.4804

>  <SCORE.INTRA.DIHEDRAL>
-13.4651

>  <SCORE.INTRA.DIHEDRAL.0>
17.7811

>  <SCORE.INTRA.POLAR>
0

>  <SCORE.INTRA.POLAR.0>
0

>  <SCORE.INTRA.REPUL>
0

>  <SCORE.INTRA.REPUL.0>
0

>  <SCORE.INTRA.SOLV>
0.427601

>  <SCORE.INTRA.SOLV.lig_0>
-47.9565

>  <SCORE.INTRA.VDW>
-0.961652

>  <SCORE.INTRA.VDW.0>
0.515983

>  <SCORE.INTRA.norm>
-0.534314

>  <SCORE.RESTR>
0

>  <SCORE.RESTR.CAVITY>
0

>  <SCORE.RESTR.norm>
0

>  <SCORE.SYSTEM>
0

>  <SCORE.SYSTEM.CONST>
0

>  <SCORE.SYSTEM.DIHEDRAL>
0

>  <SCORE.SYSTEM.SOLV>
0

>  <SCORE.SYSTEM.norm>
0

>  <SCORE.heavy>
14

>  <SCORE.norm>
-0.597814

>  <RMSD>
5.514

$$$$
1xpf_lig
 OpenBabel02141814123D
libRbt.so/2013.1/901 2013/11/27
 14 13  0  0  0  0  0  0  0  0999 V2000
   20.1229    3.4667   69.6080 N   0  0  0  0  0  0  0  0  0  0  0  0
   19.1911    2.6152   68.8919 C   0  0  0  0  0  0  0  0  0  0  0  0
   19.8793    1.4299   68.3287 C   0  0  0  0  0  0  0  0  0  0  0  0
   18.9136    0.7821   67.3858 C   0  0  0  0  0  0  0  0  0  0  0  0
   17.9820   -0.0159   68.2202 N   0  0  0  0  0  0  0  0  0  0  0  0
   17.0878   -0.8490   67.3592 C   0  0  0  0  0  0  0  0  0  0  0  0
   16.9631   -2.3054   67.8389 C   0  0  0  0  0  0  0  0  0  0  0  0
   16.4590   -3.2781   66.7581 C   0  0  0  0  0  0  0  0  0  0  0  0
   16.4355   -4.6884   67.3281 C   0  0  0  0  0  0  0  0  0  0  0  0
   16.0856   -5.5483   66.1881 N   0  0  0  0  0  0  0  0  0  0  0  0
   14.6444   -5.6968   65.8410 C   0  0  0  0  0  0  0  0  0  0  0  0
   14.7592   -6.5180   64.5385 C   0  0  0  0  0  0  0  0  0  0  0  0
   15.4820   -5.9140   63.3613 C   0  0  0  0  0  0  0  0  0  0  0  0
   16.9037   -5.6962   63.5654 N   0  0  0  0  0  0  0  0  0  0  0  0
  1  2  1  0  0  0  0
  2  3  1  0  0  0  0
  3  4  1  0  0  0  0
  4  5  1  0  0  0  0
  5  6  1  0  0  0  0
  6  7  1  0  0  0  0
  7  8  1  0  0  0  0
  8  9  1  0  0  0  0
  9 10  1  0  0  0  0
 10 11  1  0  0  0  0
 11 12  1  0  0  0  0
 12 13  1  0  0  0  0
 13 14  1  0  0  0  0
M  END
>  <CHROM.1>
-168.41564344,-80.21475890,-172.46317000,133.92381841,-160.66155048,177.52968107
-174.05102520,-83.29030365,173.90757502,-61.82711075,65.70438900,17.20756358
-2.30130385,66.80091521,-0.85806743,-0.91815497,-2.08312286

>  <Name>
1xpf_lig

>  <RI>
0

>  <Rbt.Current_Directory>
/home/afrankz/demos/rdock_decoys_rna/rnas/1xpf

>  <Rbt.Executable>
rbdock ($Id: //depot/dev/client3/rdock/2013.1/src/exe/rbdock.cxx#4 $)

>  <Rbt.Library>
libRbt.so (2013.1, Build901 2013/11/27)

>  <Rbt.Parameter_File>
/export/apps/rDock/src/rDock_2013.1_src/data/scripts/dock_solv.prm

>  <Rbt.Receptor>
prm/pocket_docking_8.prm

>  <SCORE>
-14.4248

>  <SCORE.INTER>
-8.24002

>  <SCORE.INTER.CONST>
1

>  <SCORE.INTER.POLAR>
-1.48978

>  <SCORE.INTER.ROT>
11

>  <SCORE.INTER.SOLV>
10.3732

>  <SCORE.INTER.VDW>
-14.9185

>  <SCORE.INTER.norm>
-0.588573

>  <SCORE.INTRA>
-6.18477

>  <SCORE.INTRA.DIHEDRAL>
-12.7731

>  <SCORE.INTRA.DIHEDRAL.0>
17.7811

>  <SCORE.INTRA.POLAR>
0

>  <SCORE.INTRA.POLAR.0>
0

>  <SCORE.INTRA.REPUL>
0

>  <SCORE.INTRA.REPUL.0>
0

>  <SCORE.INTRA.SOLV>
2.9955

>  <SCORE.INTRA.SOLV.lig_0>
-47.9565

>  <SCORE.INTRA.VDW>
-1.29595

>  <SCORE.INTRA.VDW.0>
0.515983

>  <SCORE.INTRA.norm>
-0.441769

>  <SCORE.RESTR>
0

>  <SCORE.RESTR.CAVITY>
0

>  <SCORE.RESTR.norm>
0

>  <SCORE.SYSTEM>
0

>  <SCORE.SYSTEM.CONST>
0

>  <SCORE.SYSTEM.DIHEDRAL>
0

>  <SCORE.SYSTEM.SOLV>
0

>  <SCORE.SYSTEM.norm>
0

>  <SCORE.heavy>
14

>  <SCORE.norm>
-1.03034

>  <RMSD>
5.527

$$$$
1xpf_lig
 OpenBabel02141814123D
libRbt.so/2013.1/901 2013/11/27
 14 13  0  0  0  0  0  0  0  0999 V2000
   20.1534    2.0930   67.2260 N   0  0  0  0  0  0  0  0  0  0  0  0
   19.0683    1.2448   67.6833 C   0  0  0  0  0  0  0  0  0  0  0  0
   18.9081    0.0649   66.8012 C   0  0  0  0  0  0  0  0  0  0  0  0
   17.6637   -0.6375   67.2478 C   0  0  0  0  0  0  0  0  0  0  0  0
   17.5859   -1.8946   66.4641 N   0  0  0  0  0  0  0  0  0  0  0  0
   16.5264   -2.7933   67.0163 C   0  0  0  0  0  0  0  0  0  0  0  0
   16.5091   -4.1873   66.3657 C   0  0  0  0  0  0  0  0  0  0  0  0
   16.3785   -4.1596   64.8325 C   0  0  0  0  0  0  0  0  0  0  0  0
   16.4576   -5.5822   64.2994 C   0  0  0  0  0  0  0  0  0  0  0  0
   16.4185   -5.4378   62.8369 N   0  0  0  0  0  0  0  0  0  0  0  0
   15.8286   -6.5500   62.0402 C   0  0  0  0  0  0  0  0  0  0  0  0
   15.8631   -5.9246   60.6288 C   0  0  0  0  0  0  0  0  0  0  0  0
   15.2895   -6.7066   59.4745 C   0  0  0  0  0  0  0  0  0  0  0  0
   15.3726   -6.0409   58.1861 N   0  0  0  0  0  0  0  0  0  0  0  0
  1  2  1  0  0  0  0
  2  3  1  0  0  0  0
  3  4  1  0  0  0  0
  4  5  1  0  0  0  0
  5  6  1  0  0  0  0
  6  7  1  0  0  0  0
  7  8  1  0  0  0  0
  8  9  1  0  0  0  0
  9 10  1  0  0  0  0
 10 11  1  0  0  0  0
 11 12  1  0  0  0  0
 12 13  1  0  0  0  0
 13 14  1  0  0  0  0
M  END
>  <CHROM.1>
-172.66039000,-173.96026689,169.10272003,-172.70745821,-55.14140086,176.59478006
-176.16572405,-150.76421655,174.57002903,-177.47058844,-179.71066674,17.00151181
-3.32246991,64.36476533,-0.83197053,-1.09395098,-1.65217271

>  <Name>
1xpf_lig

>  <RI>
0

>  <Rbt.Current_Directory>
/home/afrankz/demos/rdock_decoys_rna/rnas/1xpf

>  <Rbt.Executable>
rbdock ($Id: //depot/dev/client3/rdock/2013.1/src/exe/rbdock.cxx#4 $)

>  <Rbt.Library>
libRbt.so (2013.1, Build901 2013/11/27)

>  <Rbt.Parameter_File>
/export/apps/rDock/src/rDock_2013.1_src/data/scripts/dock_solv.prm

>  <Rbt.Receptor>
prm/pocket_docking_8.prm

>  <SCORE>
-13.838

>  <SCORE.INTER>
-3.49674

>  <SCORE.INTER.CONST>
1

>  <SCORE.INTER.POLAR>
-0.971961

>  <SCORE.INTER.ROT>
11

>  <SCORE.INTER.SOLV>
12.4869

>  <SCORE.INTER.VDW>
-14.1869

>  <SCORE.INTER.norm>
-0.249767

>  <SCORE.INTRA>
-10.3413

>  <SCORE.INTRA.DIHEDRAL>
-16.4873

>  <SCORE.INTRA.DIHEDRAL.0>
17.7811

>  <SCORE.INTRA.POLAR>
0

>  <SCORE.INTRA.POLAR.0>
0

>  <SCORE.INTRA.REPUL>
0

>  <SCORE.INTRA.REPUL.0>
0

>  <SCORE.INTRA.SOLV>
-0.576624

>  <SCORE.INTRA.SOLV.lig_0>
-47.9565

>  <SCORE.INTRA.VDW>
-1.80932

>  <SCORE.INTRA.VDW.0>
0.515983

>  <SCORE.INTRA.norm>
-0.738662

>  <SCORE.RESTR>
0

>  <SCORE.RESTR.CAVITY>
0

>  <SCORE.RESTR.norm>
0

>  <SCORE.SYSTEM>
0

>  <SCORE.SYSTEM.CONST>
0

>  <SCORE.SYSTEM.DIHEDRAL>
0

>  <SCORE.SYSTEM.SOLV>
0

>  <SCORE.SYSTEM.norm>
0

>  <SCORE.heavy>
14

>  <SCORE.norm>
-0.988429

>  <RMSD>
5.562

$$$$
1xpf_lig
 OpenBabel02141814123D
libRbt.so/2013.1/901 2013/11/27
 14 13  0  0  0  0  0  0  0  0999 V2000
   19.6591    5.0668   69.0355 N   0  0  0  0  0  0  0  0  0  0  0  0
   19.5357    3.7564   68.4241 C   0  0  0  0  0  0  0  0  0  0  0  0
   20.1468    2.7115   69.2787 C   0  0  0  0  0  0  0  0  0  0  0  0
   20.0984    1.4362   68.4961 C   0  0  0  0  0  0  0  0  0  0  0  0
   18.6844    0.9878   68.5093 N   0  0  0  0  0  0  0  0  0  0  0  0
   18.3487    0.2706   67.2413 C   0  0  0  0  0  0  0  0  0  0  0  0
   17.1983   -0.7389   67.3978 C   0  0  0  0  0  0  0  0  0  0  0  0
   16.7150   -1.3461   66.0688 C   0  0  0  0  0  0  0  0  0  0  0  0
   16.0326   -0.2645   65.2451 C   0  0  0  0  0  0  0  0  0  0  0  0
   15.8581   -0.8611   63.9128 N   0  0  0  0  0  0  0  0  0  0  0  0
   15.1051   -0.0812   62.8909 C   0  0  0  0  0  0  0  0  0  0  0  0
   15.8167   -0.5551   61.6051 C   0  0  0  0  0  0  0  0  0  0  0  0
   15.2945   -0.0846   60.2714 C   0  0  0  0  0  0  0  0  0  0  0  0
   13.9428   -0.5158   59.9595 N   0  0  0  0  0  0  0  0  0  0  0  0
  1  2  1  0  0  0  0
  2  3  1  0  0  0  0
  3  4  1  0  0  0  0
  4  5  1  0  0  0  0
  5  6  1  0  0  0  0
  6  7  1  0  0  0  0
  7  8  1  0  0  0  0
  8  9  1  0  0  0  0
  9 10  1  0  0  0  0
 10 11  1  0  0  0  0
 11 12  1  0  0  0  0
 12 13  1  0  0  0  0
 13 14  1  0  0  0  0
M  END
>  <CHROM.1>
-174.01227582,-73.83224578,147.80136604,154.01575342,172.23044645,-68.29249818
168.86866079,174.97187594,148.51746571,175.33938761,-63.02974590,17.31698088
0.69852886,65.59554143,-0.19555476,-1.04316993,-0.64223494

>  <Name>
1xpf_lig

>  <RI>
0

>  <Rbt.Current_Directory>
/home/afrankz/demos/rdock_decoys_rna/rnas/1xpf

>  <Rbt.Executable>
rbdock ($Id: //depot/dev/client3/rdock/2013.1/src/exe/rbdock.cxx#4 $)

>  <Rbt.Library>
libRbt.so (2013.1, Build901 2013/11/27)

>  <Rbt.Parameter_File>
/export/apps/rDock/src/rDock_2013.1_src/data/scripts/dock_solv.prm

>  <Rbt.Receptor>
prm/pocket_docking_6.prm

>  <SCORE>
-13.6286

>  <SCORE.INTER>
-5.67552

>  <SCORE.INTER.CONST>
1

>  <SCORE.INTER.POLAR>
-0.8

>  <SCORE.INTER.ROT>
11

>  <SCORE.INTER.SOLV>
8.15312

>  <SCORE.INTER.VDW>
-14.768

>  <SCORE.INTER.norm>
-0.405394

>  <SCORE.INTRA>
-7.95308

>  <SCORE.INTRA.DIHEDRAL>
-14.0616

>  <SCORE.INTRA.DIHEDRAL.0>
17.7811

>  <SCORE.INTRA.POLAR>
0

>  <SCORE.INTRA.POLAR.0>
0

>  <SCORE.INTRA.REPUL>
0

>  <SCORE.INTRA.REPUL.0>
0

>  <SCORE.INTRA.SOLV>
0.38471

>  <SCORE.INTRA.SOLV.lig_0>
-47.9565

>  <SCORE.INTRA.VDW>
-1.11464

>  <SCORE.INTRA.VDW.0>
0.515983

>  <SCORE.INTRA.norm>
-0.568077

>  <SCORE.RESTR>
0

>  <SCORE.RESTR.CAVITY>
0

>  <SCORE.RESTR.norm>
0

>  <SCORE.SYSTEM>
0

>  <SCORE.SYSTEM.CONST>
0

>  <SCORE.SYSTEM.DIHEDRAL>
0

>  <SCORE.SYSTEM.SOLV>
0

>  <SCORE.SYSTEM.norm>
0

>  <SCORE.heavy>
14

>  <SCORE.norm>
-0.973471

>  <RMSD>
5.566

$$$$
1xpf_lig
 OpenBabel02141814123D
libRbt.so/2013.1/901 2013/11/27
 14 13  0  0  0  0  0  0  0  0999 V2000
   25.8323   -0.5783   63.1992 N   0  0  0  0  0  0  0  0  0  0  0  0
   24.4131   -0.8767   63.1449 C   0  0  0  0  0  0  0  0  0  0  0  0
   24.1526   -2.0701   62.3059 C   0  0  0  0  0  0  0  0  0  0  0  0
   22.6653   -2.1944   62.1887 C   0  0  0  0  0  0  0  0  0  0  0  0
   22.1601   -2.4999   63.5496 N   0  0  0  0  0  0  0  0  0  0  0  0
   20.6655   -2.4786   63.5723 C   0  0  0  0  0  0  0  0  0  0  0  0
   20.0756   -1.0577   63.5693 C   0  0  0  0  0  0  0  0  0  0  0  0
   20.4961   -0.2042   64.7789 C   0  0  0  0  0  0  0  0  0  0  0  0
   19.7262   -0.6660   66.0070 C   0  0  0  0  0  0  0  0  0  0  0  0
   20.2182    0.1848   67.1004 N   0  0  0  0  0  0  0  0  0  0  0  0
   19.3606    1.3197   67.5431 C   0  0  0  0  0  0  0  0  0  0  0  0
   20.0715    1.7036   68.8590 C   0  0  0  0  0  0  0  0  0  0  0  0
   19.5086    2.8322   69.6852 C   0  0  0  0  0  0  0  0  0  0  0  0
   19.5245    4.1308   69.0344 N   0  0  0  0  0  0  0  0  0  0  0  0
  1  2  1  0  0  0  0
  2  3  1  0  0  0  0
  3  4  1  0  0  0  0
  4  5  1  0  0  0  0
  5  6  1  0  0  0  0
  6  7  1  0  0  0  0
  7  8  1  0  0  0  0
  8  9  1  0  0  0  0
  9 10  1  0  0  0  0
 10 11  1  0  0  0  0
 11 12  1  0  0  0  0
 12 13  1  0  0  0  0
 13 14  1  0  0  0  0
M  END
>  <CHROM.1>
-173.63775551,-65.93102269,173.07035369,-76.49199182,-60.41108687,-75.16982526
178.81487553,102.18130483,167.48669903,-178.95162931,-63.39094791,21.34763825
-0.17553389,65.32397280,-1.05592807,0.27996570,0.80243656

>  <Name>
1xpf_lig

>  <RI>
0

>  <Rbt.Current_Directory>
/home/afrankz/demos/rdock_decoys_rna/rnas/1xpf

>  <Rbt.Executable>
rbdock ($Id: //depot/dev/client3/rdock/2013.1/src/exe/rbdock.cxx#4 $)

>  <Rbt.Library>
libRbt.so (2013.1, Build901 2013/11/27)

>  <Rbt.Parameter_File>
/export/apps/rDock/src/rDock_2013.1_src/data/scripts/dock_solv.prm

>  <Rbt.Receptor>
prm/pocket_docking_6.prm

>  <SCORE>
-9.83119

>  <SCORE.INTER>
-1.9443

>  <SCORE.INTER.CONST>
1

>  <SCORE.INTER.POLAR>
0

>  <SCORE.INTER.ROT>
11

>  <SCORE.INTER.SOLV>
9.57974

>  <SCORE.INTER.VDW>
-15.4228

>  <SCORE.INTER.norm>
-0.138879

>  <SCORE.INTRA>
-7.88689

>  <SCORE.INTRA.DIHEDRAL>
-15.1975

>  <SCORE.INTRA.DIHEDRAL.0>
17.7811

>  <SCORE.INTRA.POLAR>
0

>  <SCORE.INTRA.POLAR.0>
0

>  <SCORE.INTRA.REPUL>
0

>  <SCORE.INTRA.REPUL.0>
0

>  <SCORE.INTRA.SOLV>
0.87818

>  <SCORE.INTRA.SOLV.lig_0>
-47.9565

>  <SCORE.INTRA.VDW>
-0.727213

>  <SCORE.INTRA.VDW.0>
0.515983

>  <SCORE.INTRA.norm>
-0.563349

>  <SCORE.RESTR>
0

>  <SCORE.RESTR.CAVITY>
0

>  <SCORE.RESTR.norm>
0

>  <SCORE.SYSTEM>
0

>  <SCORE.SYSTEM.CONST>
0

>  <SCORE.SYSTEM.DIHEDRAL>
0

>  <SCORE.SYSTEM.SOLV>
0

>  <SCORE.SYSTEM.norm>
0

>  <SCORE.heavy>
14

>  <SCORE.norm>
-0.702228

>  <RMSD>
5.575

$$$$
1xpf_lig
 OpenBabel02141814123D
libRbt.so/2013.1/901 2013/11/27
 14 13  0  0  0  0  0  0  0  0999 V2000
   16.1252   -4.5077   70.1699 N   0  0  0  0  0  0  0  0  0  0  0  0
   16.3011   -3.6675   68.9997 C   0  0  0  0  0  0  0  0  0  0  0  0
   16.3370   -2.2344   69.3750 C   0  0  0  0  0  0  0  0  0  0  0  0
   16.5431   -1.4651   68.1073 C   0  0  0  0  0  0  0  0  0  0  0  0
   17.5438   -0.4131   68.4115 N   0  0  0  0  0  0  0  0  0  0  0  0
   18.0841    0.1788   67.1495 C   0  0  0  0  0  0  0  0  0  0  0  0
   19.5814    0.5233   67.2296 C   0  0  0  0  0  0  0  0  0  0  0  0
   20.3132    0.4468   65.8779 C   0  0  0  0  0  0  0  0  0  0  0  0
   20.3642   -1.0029   65.4197 C   0  0  0  0  0  0  0  0  0  0  0  0
   21.2006   -0.9853   64.2107 N   0  0  0  0  0  0  0  0  0  0  0  0
   21.5494   -2.2906   63.5830 C   0  0  0  0  0  0  0  0  0  0  0  0
   22.6365   -1.8337   62.5861 C   0  0  0  0  0  0  0  0  0  0  0  0
   23.9186   -1.2534   63.1266 C   0  0  0  0  0  0  0  0  0  0  0  0
   24.8904   -0.8749   62.1153 N   0  0  0  0  0  0  0  0  0  0  0  0
  1  2  1  0  0  0  0
  2  3  1  0  0  0  0
  3  4  1  0  0  0  0
  4  5  1  0  0  0  0
  5  6  1  0  0  0  0
  6  7  1  0  0  0  0
  7  8  1  0  0  0  0
  8  9  1  0  0  0  0
  9 10  1  0  0  0  0
 10 11  1  0  0  0  0
 11 12  1  0  0  0  0
 12 13  1  0  0  0  0
 13 14  1  0  0  0  0
M  END
>  <CHROM.1>
179.08456098,-137.09032277,165.28803857,-143.02404217,150.84038052,-67.56111508
-174.03086325,174.50782743,-168.50061740,64.25701556,178.92448993,19.67051303
-1.38414218,66.16866532,-3.05046505,0.74622481,0.07086901

>  <Name>
1xpf_lig

>  <RI>
0

>  <Rbt.Current_Directory>
/home/afrankz/demos/rdock_decoys_rna/rnas/1xpf

>  <Rbt.Executable>
rbdock ($Id: //depot/dev/client3/rdock/2013.1/src/exe/rbdock.cxx#4 $)

>  <Rbt.Library>
libRbt.so (2013.1, Build901 2013/11/27)

>  <Rbt.Parameter_File>
/export/apps/rDock/src/rDock_2013.1_src/data/scripts/dock_solv.prm

>  <Rbt.Receptor>
prm/pocket_docking_8.prm

>  <SCORE>
-16.6812

>  <SCORE.INTER>
-10.8026

>  <SCORE.INTER.CONST>
1

>  <SCORE.INTER.POLAR>
-1.36198

>  <SCORE.INTER.ROT>
11

>  <SCORE.INTER.SOLV>
11.1542

>  <SCORE.INTER.VDW>
-17.3132

>  <SCORE.INTER.norm>
-0.771614

>  <SCORE.INTRA>
-5.8786

>  <SCORE.INTRA.DIHEDRAL>
-9.09564

>  <SCORE.INTRA.DIHEDRAL.0>
17.7811

>  <SCORE.INTRA.POLAR>
0

>  <SCORE.INTRA.POLAR.0>
0

>  <SCORE.INTRA.REPUL>
0

>  <SCORE.INTRA.REPUL.0>
0

>  <SCORE.INTRA.SOLV>
-0.132688

>  <SCORE.INTRA.SOLV.lig_0>
-47.9565

>  <SCORE.INTRA.VDW>
-1.26443

>  <SCORE.INTRA.VDW.0>
0.515983

>  <SCORE.INTRA.norm>
-0.4199

>  <SCORE.RESTR>
0

>  <SCORE.RESTR.CAVITY>
0

>  <SCORE.RESTR.norm>
0

>  <SCORE.SYSTEM>
0

>  <SCORE.SYSTEM.CONST>
0

>  <SCORE.SYSTEM.DIHEDRAL>
0

>  <SCORE.SYSTEM.SOLV>
0

>  <SCORE.SYSTEM.norm>
0

>  <SCORE.heavy>
14

>  <SCORE.norm>
-1.19151

>  <RMSD>
5.578

$$$$
1xpf_lig
 OpenBabel02141814123D
libRbt.so/2013.1/901 2013/11/27
 14 13  0  0  0  0  0  0  0  0999 V2000
   15.2290   -5.4083   61.5104 N   0  0  0  0  0  0  0  0  0  0  0  0
   15.9726   -5.4435   60.2647 C   0  0  0  0  0  0  0  0  0  0  0  0
   16.6318   -4.1426   60.0021 C   0  0  0  0  0  0  0  0  0  0  0  0
   15.5372   -3.1424   59.7949 C   0  0  0  0  0  0  0  0  0  0  0  0
   16.1972   -1.8690   59.4161 N   0  0  0  0  0  0  0  0  0  0  0  0
   15.3289   -0.7031   59.7651 C   0  0  0  0  0  0  0  0  0  0  0  0
   15.7341   -0.0125   61.0788 C   0  0  0  0  0  0  0  0  0  0  0  0
   15.5050   -0.8736   62.3337 C   0  0  0  0  0  0  0  0  0  0  0  0
   15.7691   -0.0306   63.5721 C   0  0  0  0  0  0  0  0  0  0  0  0
   15.5391   -0.9418   64.7027 N   0  0  0  0  0  0  0  0  0  0  0  0
   16.7176   -1.3673   65.5086 C   0  0  0  0  0  0  0  0  0  0  0  0
   17.1910    0.0009   66.0456 C   0  0  0  0  0  0  0  0  0  0  0  0
   18.3297    0.0382   67.0330 C   0  0  0  0  0  0  0  0  0  0  0  0
   17.9441   -0.1791   68.4166 N   0  0  0  0  0  0  0  0  0  0  0  0
  1  2  1  0  0  0  0
  2  3  1  0  0  0  0
  3  4  1  0  0  0  0
  4  5  1  0  0  0  0
  5  6  1  0  0  0  0
  6  7  1  0  0  0  0
  7  8  1  0  0  0  0
  8  9  1  0  0  0  0
  9 10  1  0  0  0  0
 10 11  1  0  0  0  0
 11 12  1  0  0  0  0
 12 13  1  0  0  0  0
 13 14  1  0  0  0  0
M  END
>  <CHROM.1>
-65.24340625,-175.18565304,-154.99659671,99.71918502,-67.54870596,-172.78002956
-179.39822177,110.54541361,61.62304269,174.90086486,-83.89661081,16.25903749
-1.71946491,62.81716563,-2.47630636,-1.29977786,0.23165500

>  <Name>
1xpf_lig

>  <RI>
0

>  <Rbt.Current_Directory>
/home/afrankz/demos/rdock_decoys_rna/rnas/1xpf

>  <Rbt.Executable>
rbdock ($Id: //depot/dev/client3/rdock/2013.1/src/exe/rbdock.cxx#4 $)

>  <Rbt.Library>
libRbt.so (2013.1, Build901 2013/11/27)

>  <Rbt.Parameter_File>
/export/apps/rDock/src/rDock_2013.1_src/data/scripts/dock_solv.prm

>  <Rbt.Receptor>
prm/pocket_docking_5.prm

>  <SCORE>
-10.9985

>  <SCORE.INTER>
-5.82876

>  <SCORE.INTER.CONST>
1

>  <SCORE.INTER.POLAR>
-2.26865

>  <SCORE.INTER.ROT>
11

>  <SCORE.INTER.SOLV>
11.2825

>  <SCORE.INTER.VDW>
-11.0178

>  <SCORE.INTER.norm>
-0.41634

>  <SCORE.INTRA>
-5.42865

>  <SCORE.INTRA.DIHEDRAL>
-12.7023

>  <SCORE.INTRA.DIHEDRAL.0>
17.7811

>  <SCORE.INTRA.POLAR>
0

>  <SCORE.INTRA.POLAR.0>
0

>  <SCORE.INTRA.REPUL>
0

>  <SCORE.INTRA.REPUL.0>
0

>  <SCORE.INTRA.SOLV>
0.75195

>  <SCORE.INTRA.SOLV.lig_0>
-47.9565

>  <SCORE.INTRA.VDW>
0.546517

>  <SCORE.INTRA.VDW.0>
0.515983

>  <SCORE.INTRA.norm>
-0.38776

>  <SCORE.RESTR>
0.258897

>  <SCORE.RESTR.CAVITY>
0.258897

>  <SCORE.RESTR.norm>
0.0184926

>  <SCORE.SYSTEM>
0

>  <SCORE.SYSTEM.CONST>
0

>  <SCORE.SYSTEM.DIHEDRAL>
0

>  <SCORE.SYSTEM.SOLV>
0

>  <SCORE.SYSTEM.norm>
0

>  <SCORE.heavy>
14

>  <SCORE.norm>
-0.785608

>  <RMSD>
5.590

$$$$
1xpf_lig
 OpenBabel02141814123D
libRbt.so/2013.1/901 2013/11/27
 14 13  0  0  0  0  0  0  0  0999 V2000
   23.7805    5.8089   57.8211 N   0  0  0  0  0  0  0  0  0  0  0  0
   24.0328    5.1447   59.0866 C   0  0  0  0  0  0  0  0  0  0  0  0
   23.0881    4.0222   59.2953 C   0  0  0  0  0  0  0  0  0  0  0  0
   23.5984    2.8759   58.4787 C   0  0  0  0  0  0  0  0  0  0  0  0
   24.7653    2.3248   59.2104 N   0  0  0  0  0  0  0  0  0  0  0  0
   25.2435    1.0646   58.5637 C   0  0  0  0  0  0  0  0  0  0  0  0
   25.0454   -0.1840   59.4405 C   0  0  0  0  0  0  0  0  0  0  0  0
   23.5703   -0.5498   59.6825 C   0  0  0  0  0  0  0  0  0  0  0  0
   23.4958   -1.6666   60.7128 C   0  0  0  0  0  0  0  0  0  0  0  0
   23.7839   -1.0121   61.9974 N   0  0  0  0  0  0  0  0  0  0  0  0
   23.3024   -1.6737   63.2424 C   0  0  0  0  0  0  0  0  0  0  0  0
   21.9759   -0.9143   63.4610 C   0  0  0  0  0  0  0  0  0  0  0  0
   21.1447   -1.2406   64.6757 C   0  0  0  0  0  0  0  0  0  0  0  0
   19.9114   -0.4820   64.7922 N   0  0  0  0  0  0  0  0  0  0  0  0
  1  2  1  0  0  0  0
  2  3  1  0  0  0  0
  3  4  1  0  0  0  0
  4  5  1  0  0  0  0
  5  6  1  0  0  0  0
  6  7  1  0  0  0  0
  7  8  1  0  0  0  0
  8  9  1  0  0  0  0
  9 10  1  0  0  0  0
 10 11  1  0  0  0  0
 11 12  1  0  0  0  0
 12 13  1  0  0  0  0
 13 14  1  0  0  0  0
M  END
>  <CHROM.1>
79.14807090,75.39682698,172.83211804,-113.44432807,66.45232661,-171.98713824
74.76843767,157.34647696,-96.00637247,-178.09424280,-179.63648843,23.33857711
0.96527799,60.74709331,1.12005083,0.83997224,-0.42778393

>  <Name>
1xpf_lig

>  <RI>
0

>  <Rbt.Current_Directory>
/home/afrankz/demos/rdock_decoys_rna/rnas/1xpf

>  <Rbt.Executable>
rbdock ($Id: //depot/dev/client3/rdock/2013.1/src/exe/rbdock.cxx#4 $)

>  <Rbt.Library>
libRbt.so (2013.1, Build901 2013/11/27)

>  <Rbt.Parameter_File>
/export/apps/rDock/src/rDock_2013.1_src/data/scripts/dock_solv.prm

>  <Rbt.Receptor>
prm/pocket_docking_7.prm

>  <SCORE>
-9.2277

>  <SCORE.INTER>
-2.47216

>  <SCORE.INTER.CONST>
1

>  <SCORE.INTER.POLAR>
-0.894427

>  <SCORE.INTER.ROT>
11

>  <SCORE.INTER.SOLV>
5.50181

>  <SCORE.INTER.VDW>
-11.434

>  <SCORE.INTER.norm>
-0.176583

>  <SCORE.INTRA>
-6.75553

>  <SCORE.INTRA.DIHEDRAL>
-12.0692

>  <SCORE.INTRA.DIHEDRAL.0>
17.7811

>  <SCORE.INTRA.POLAR>
0

>  <SCORE.INTRA.POLAR.0>
0

>  <SCORE.INTRA.REPUL>
0

>  <SCORE.INTRA.REPUL.0>
0

>  <SCORE.INTRA.SOLV>
1.20611

>  <SCORE.INTRA.SOLV.lig_0>
-47.9565

>  <SCORE.INTRA.VDW>
-1.32398

>  <SCORE.INTRA.VDW.0>
0.515983

>  <SCORE.INTRA.norm>
-0.482538

>  <SCORE.RESTR>
0

>  <SCORE.RESTR.CAVITY>
0

>  <SCORE.RESTR.norm>
0

>  <SCORE.SYSTEM>
0

>  <SCORE.SYSTEM.CONST>
0

>  <SCORE.SYSTEM.DIHEDRAL>
0

>  <SCORE.SYSTEM.SOLV>
0

>  <SCORE.SYSTEM.norm>
0

>  <SCORE.heavy>
14

>  <SCORE.norm>
-0.659121

>  <RMSD>
5.591

$$$$
1xpf_lig
 OpenBabel02141814123D
libRbt.so/2013.1/901 2013/11/27
 14 13  0  0  0  0  0  0  0  0999 V2000
   23.7860   -1.1699   61.7820 N   0  0  0  0  0  0  0  0  0  0  0  0
   23.8729   -1.0704   63.2273 C   0  0  0  0  0  0  0  0  0  0  0  0
   22.6117   -1.5124   63.8673 C   0  0  0  0  0  0  0  0  0  0  0  0
   21.5711   -0.4976   63.5083 C   0  0  0  0  0  0  0  0  0  0  0  0
   20.3690   -0.8247   64.3137 N   0  0  0  0  0  0  0  0  0  0  0  0
   19.9486    0.3534   65.1324 C   0  0  0  0  0  0  0  0  0  0  0  0
   18.5584    0.1880   65.7702 C   0  0  0  0  0  0  0  0  0  0  0  0
   18.4831   -0.9325   66.8225 C   0  0  0  0  0  0  0  0  0  0  0  0
   17.0780   -0.9775   67.4037 C   0  0  0  0  0  0  0  0  0  0  0  0
   17.1385   -2.0054   68.4530 N   0  0  0  0  0  0  0  0  0  0  0  0
   16.0235   -2.0638   69.4394 C   0  0  0  0  0  0  0  0  0  0  0  0
   16.4395   -3.3104   70.2500 C   0  0  0  0  0  0  0  0  0  0  0  0
   16.1698   -4.6759   69.6705 C   0  0  0  0  0  0  0  0  0  0  0  0
   14.7635   -5.0155   69.5394 N   0  0  0  0  0  0  0  0  0  0  0  0
  1  2  1  0  0  0  0
  2  3  1  0  0  0  0
  3  4  1  0  0  0  0
  4  5  1  0  0  0  0
  5  6  1  0  0  0  0
  6  7  1  0  0  0  0
  7  8  1  0  0  0  0
  8  9  1  0  0  0  0
  9 10  1  0  0  0  0
 10 11  1  0  0  0  0
 11 12  1  0  0  0  0
 12 13  1  0  0  0  0
 13 14  1  0  0  0  0
M  END
>  <CHROM.1>
-67.90234496,-171.53168522,123.74183300,168.32294712,65.60299050,178.62304466
-176.16538495,165.21652664,176.00551926,-78.59081641,-66.18473494,19.05812951
-1.67938545,66.37011956,-0.48215563,-0.65713495,2.82565346

>  <Name>
1xpf_lig

>  <RI>
0

>  <Rbt.Current_Directory>
/home/afrankz/demos/rdock_decoys_rna/rnas/1xpf

>  <Rbt.Executable>
rbdock ($Id: //depot/dev/client3/rdock/2013.1/src/exe/rbdock.cxx#4 $)

>  <Rbt.Library>
libRbt.so (2013.1, Build901 2013/11/27)

>  <Rbt.Parameter_File>
/export/apps/rDock/src/rDock_2013.1_src/data/scripts/dock_solv.prm

>  <Rbt.Receptor>
prm/pocket_docking_8.prm

>  <SCORE>
-14.0053

>  <SCORE.INTER>
-6.04408

>  <SCORE.INTER.CONST>
1

>  <SCORE.INTER.POLAR>
-1.21476

>  <SCORE.INTER.ROT>
11

>  <SCORE.INTER.SOLV>
10.3473

>  <SCORE.INTER.VDW>
-14.3626

>  <SCORE.INTER.norm>
-0.43172

>  <SCORE.INTRA>
-7.9612

>  <SCORE.INTRA.DIHEDRAL>
-14.2677

>  <SCORE.INTRA.DIHEDRAL.0>
17.7811

>  <SCORE.INTRA.POLAR>
0

>  <SCORE.INTRA.POLAR.0>
0

>  <SCORE.INTRA.REPUL>
0

>  <SCORE.INTRA.REPUL.0>
0

>  <SCORE.INTRA.SOLV>
1.46945

>  <SCORE.INTRA.SOLV.lig_0>
-47.9565

>  <SCORE.INTRA.VDW>
-1.56207

>  <SCORE.INTRA.VDW.0>
0.515983

>  <SCORE.INTRA.norm>
-0.568657

>  <SCORE.RESTR>
0

>  <SCORE.RESTR.CAVITY>
0

>  <SCORE.RESTR.norm>
0

>  <SCORE.SYSTEM>
0

>  <SCORE.SYSTEM.CONST>
0

>  <SCORE.SYSTEM.DIHEDRAL>
0

>  <SCORE.SYSTEM.SOLV>
0

>  <SCORE.SYSTEM.norm>
0

>  <SCORE.heavy>
14

>  <SCORE.norm>
-1.00038

>  <RMSD>
5.602

$$$$
1xpf_lig
 OpenBabel02141814123D
libRbt.so/2013.1/901 2013/11/27
 14 13  0  0  0  0  0  0  0  0999 V2000
   18.0378   -0.0366   68.3224 N   0  0  0  0  0  0  0  0  0  0  0  0
   18.3643    0.2076   66.9296 C   0  0  0  0  0  0  0  0  0  0  0  0
   19.4036    1.2563   66.8032 C   0  0  0  0  0  0  0  0  0  0  0  0
   19.6454    1.4447   65.3378 C   0  0  0  0  0  0  0  0  0  0  0  0
   20.5675    2.5996   65.2087 N   0  0  0  0  0  0  0  0  0  0  0  0
   21.1876    2.6274   63.8487 C   0  0  0  0  0  0  0  0  0  0  0  0
   22.0932    3.8491   63.6161 C   0  0  0  0  0  0  0  0  0  0  0  0
   21.3292    5.1800   63.5002 C   0  0  0  0  0  0  0  0  0  0  0  0
   22.3114    6.2913   63.1620 C   0  0  0  0  0  0  0  0  0  0  0  0
   22.8683    5.9152   61.8543 N   0  0  0  0  0  0  0  0  0  0  0  0
   22.0744    6.2414   60.6366 C   0  0  0  0  0  0  0  0  0  0  0  0
   22.6559    5.2098   59.6457 C   0  0  0  0  0  0  0  0  0  0  0  0
   24.0444    5.4298   59.1010 C   0  0  0  0  0  0  0  0  0  0  0  0
   24.5413    4.3628   58.2496 N   0  0  0  0  0  0  0  0  0  0  0  0
  1  2  1  0  0  0  0
  2  3  1  0  0  0  0
  3  4  1  0  0  0  0
  4  5  1  0  0  0  0
  5  6  1  0  0  0  0
  6  7  1  0  0  0  0
  7  8  1  0  0  0  0
  8  9  1  0  0  0  0
  9 10  1  0  0  0  0
 10 11  1  0  0  0  0
 11 12  1  0  0  0  0
 12 13  1  0  0  0  0
 13 14  1  0  0  0  0
M  END
>  <CHROM.1>
-179.02343564,173.62171290,163.34740057,176.56143396,-70.34202238,-175.49811589
62.20031964,81.76583651,-157.17623339,-73.22681411,175.96793970,21.36595852
3.61291297,63.30110224,-2.92774121,1.07363369,0.34742266

>  <Name>
1xpf_lig

>  <RI>
0

>  <Rbt.Current_Directory>
/home/afrankz/demos/rdock_decoys_rna/rnas/1xpf

>  <Rbt.Executable>
rbdock ($Id: //depot/dev/client3/rdock/2013.1/src/exe/rbdock.cxx#4 $)

>  <Rbt.Library>
libRbt.so (2013.1, Build901 2013/11/27)

>  <Rbt.Parameter_File>
/export/apps/rDock/src/rDock_2013.1_src/data/scripts/dock_solv.prm

>  <Rbt.Receptor>
prm/pocket_docking_5.prm

>  <SCORE>
-9.95333

>  <SCORE.INTER>
-1.16503

>  <SCORE.INTER.CONST>
1

>  <SCORE.INTER.POLAR>
-1.48757

>  <SCORE.INTER.ROT>
11

>  <SCORE.INTER.SOLV>
10.0999

>  <SCORE.INTER.VDW>
-10.1181

>  <SCORE.INTER.norm>
-0.0832161

>  <SCORE.INTRA>
-8.78831

>  <SCORE.INTRA.DIHEDRAL>
-15.4773

>  <SCORE.INTRA.DIHEDRAL.0>
17.7811

>  <SCORE.INTRA.POLAR>
0

>  <SCORE.INTRA.POLAR.0>
0

>  <SCORE.INTRA.REPUL>
0

>  <SCORE.INTRA.REPUL.0>
0

>  <SCORE.INTRA.SOLV>
0.226856

>  <SCORE.INTRA.SOLV.lig_0>
-47.9565

>  <SCORE.INTRA.VDW>
-1.16309

>  <SCORE.INTRA.VDW.0>
0.515983

>  <SCORE.INTRA.norm>
-0.627736

>  <SCORE.RESTR>
0

>  <SCORE.RESTR.CAVITY>
0

>  <SCORE.RESTR.norm>
0

>  <SCORE.SYSTEM>
0

>  <SCORE.SYSTEM.CONST>
0

>  <SCORE.SYSTEM.DIHEDRAL>
0

>  <SCORE.SYSTEM.SOLV>
0

>  <SCORE.SYSTEM.norm>
0

>  <SCORE.heavy>
14

>  <SCORE.norm>
-0.710952

>  <RMSD>
5.606

$$$$
1xpf_lig
 OpenBabel02141814123D
libRbt.so/2013.1/901 2013/11/27
 14 13  0  0  0  0  0  0  0  0999 V2000
   15.3234   -9.0662   62.6240 N   0  0  0  0  0  0  0  0  0  0  0  0
   15.9296   -7.7510   62.5290 C   0  0  0  0  0  0  0  0  0  0  0  0
   15.5130   -6.8906   63.6612 C   0  0  0  0  0  0  0  0  0  0  0  0
   16.2467   -7.3867   64.8682 C   0  0  0  0  0  0  0  0  0  0  0  0
   15.6516   -6.6931   66.0368 N   0  0  0  0  0  0  0  0  0  0  0  0
   16.5666   -5.6198   66.5326 C   0  0  0  0  0  0  0  0  0  0  0  0
   16.0524   -4.9181   67.8015 C   0  0  0  0  0  0  0  0  0  0  0  0
   16.9103   -3.7194   68.2436 C   0  0  0  0  0  0  0  0  0  0  0  0
   16.7265   -2.5813   67.2511 C   0  0  0  0  0  0  0  0  0  0  0  0
   17.6731   -1.5449   67.6886 N   0  0  0  0  0  0  0  0  0  0  0  0
   17.7660   -0.2969   66.8803 C   0  0  0  0  0  0  0  0  0  0  0  0
   19.2218    0.1187   67.1838 C   0  0  0  0  0  0  0  0  0  0  0  0
   19.7583    1.3855   66.5671 C   0  0  0  0  0  0  0  0  0  0  0  0
   19.6976    1.4304   65.1164 N   0  0  0  0  0  0  0  0  0  0  0  0
  1  2  1  0  0  0  0
  2  3  1  0  0  0  0
  3  4  1  0  0  0  0
  4  5  1  0  0  0  0
  5  6  1  0  0  0  0
  6  7  1  0  0  0  0
  7  8  1  0  0  0  0
  8  9  1  0  0  0  0
  9 10  1  0  0  0  0
 10 11  1  0  0  0  0
 11 12  1  0  0  0  0
 12 13  1  0  0  0  0
 13 14  1  0  0  0  0
M  END
>  <CHROM.1>
73.70663214,-170.03380239,-104.82605568,-176.27693818,-174.21504372,70.39709029
-174.87761921,178.10131716,-152.65059622,-179.11246161,-57.34937879,17.07404870
-3.82375393,65.92766909,-2.45011161,1.09509516,1.15404460

>  <Name>
1xpf_lig

>  <RI>
0

>  <Rbt.Current_Directory>
/home/afrankz/demos/rdock_decoys_rna/rnas/1xpf

>  <Rbt.Executable>
rbdock ($Id: //depot/dev/client3/rdock/2013.1/src/exe/rbdock.cxx#4 $)

>  <Rbt.Library>
libRbt.so (2013.1, Build901 2013/11/27)

>  <Rbt.Parameter_File>
/export/apps/rDock/src/rDock_2013.1_src/data/scripts/dock_solv.prm

>  <Rbt.Receptor>
prm/pocket_docking_8.prm

>  <SCORE>
-15.8785

>  <SCORE.INTER>
-7.98651

>  <SCORE.INTER.CONST>
1

>  <SCORE.INTER.POLAR>
-1.68918

>  <SCORE.INTER.ROT>
11

>  <SCORE.INTER.SOLV>
11.1957

>  <SCORE.INTER.VDW>
-14.359

>  <SCORE.INTER.norm>
-0.570465

>  <SCORE.INTRA>
-7.89199

>  <SCORE.INTRA.DIHEDRAL>
-14.4851

>  <SCORE.INTRA.DIHEDRAL.0>
17.7811

>  <SCORE.INTRA.POLAR>
0

>  <SCORE.INTRA.POLAR.0>
0

>  <SCORE.INTRA.REPUL>
0

>  <SCORE.INTRA.REPUL.0>
0

>  <SCORE.INTRA.SOLV>
0.765651

>  <SCORE.INTRA.SOLV.lig_0>
-47.9565

>  <SCORE.INTRA.VDW>
-1.03229

>  <SCORE.INTRA.VDW.0>
0.515983

>  <SCORE.INTRA.norm>
-0.563714

>  <SCORE.RESTR>
0

>  <SCORE.RESTR.CAVITY>
0

>  <SCORE.RESTR.norm>
0

>  <SCORE.SYSTEM>
0

>  <SCORE.SYSTEM.CONST>
0

>  <SCORE.SYSTEM.DIHEDRAL>
0

>  <SCORE.SYSTEM.SOLV>
0

>  <SCORE.SYSTEM.norm>
0

>  <SCORE.heavy>
14

>  <SCORE.norm>
-1.13418

>  <RMSD>
5.611

$$$$
1xpf_lig
 OpenBabel02141814123D
libRbt.so/2013.1/901 2013/11/27
 14 13  0  0  0  0  0  0  0  0999 V2000
   20.3611    3.1039   69.5793 N   0  0  0  0  0  0  0  0  0  0  0  0
   19.6470    2.5941   68.4234 C   0  0  0  0  0  0  0  0  0  0  0  0
   19.5070    1.1205   68.4925 C   0  0  0  0  0  0  0  0  0  0  0  0
   18.6832    0.7130   67.3107 C   0  0  0  0  0  0  0  0  0  0  0  0
   18.3875   -0.7306   67.4817 N   0  0  0  0  0  0  0  0  0  0  0  0
   16.9126   -0.9723   67.4481 C   0  0  0  0  0  0  0  0  0  0  0  0
   16.5217   -2.4119   67.8244 C   0  0  0  0  0  0  0  0  0  0  0  0
   16.6529   -3.4177   66.6670 C   0  0  0  0  0  0  0  0  0  0  0  0
   16.3943   -4.8211   67.1939 C   0  0  0  0  0  0  0  0  0  0  0  0
   16.3295   -5.6671   65.9932 N   0  0  0  0  0  0  0  0  0  0  0  0
   15.0881   -5.6196   65.1709 C   0  0  0  0  0  0  0  0  0  0  0  0
   15.2089   -6.9604   64.4145 C   0  0  0  0  0  0  0  0  0  0  0  0
   15.0621   -8.2458   65.1886 C   0  0  0  0  0  0  0  0  0  0  0  0
   15.1592   -9.4539   64.3879 N   0  0  0  0  0  0  0  0  0  0  0  0
  1  2  1  0  0  0  0
  2  3  1  0  0  0  0
  3  4  1  0  0  0  0
  4  5  1  0  0  0  0
  5  6  1  0  0  0  0
  6  7  1  0  0  0  0
  7  8  1  0  0  0  0
  8  9  1  0  0  0  0
  9 10  1  0  0  0  0
 10 11  1  0  0  0  0
 11 12  1  0  0  0  0
 12 13  1  0  0  0  0
 13 14  1  0  0  0  0
M  END
>  <CHROM.1>
176.27920666,-172.39399634,124.22401307,-171.52740343,-81.60762424,173.65768449
171.25299731,-76.53646825,-159.28665395,68.59192278,178.60781976,17.13661910
-2.91195921,66.82684793,-0.68690545,1.05339729,2.68557623

>  <Name>
1xpf_lig

>  <RI>
0

>  <Rbt.Current_Directory>
/home/afrankz/demos/rdock_decoys_rna/rnas/1xpf

>  <Rbt.Executable>
rbdock ($Id: //depot/dev/client3/rdock/2013.1/src/exe/rbdock.cxx#4 $)

>  <Rbt.Library>
libRbt.so (2013.1, Build901 2013/11/27)

>  <Rbt.Parameter_File>
/export/apps/rDock/src/rDock_2013.1_src/data/scripts/dock_solv.prm

>  <Rbt.Receptor>
prm/blind_docking_80.prm

>  <SCORE>
-12.2347

>  <SCORE.INTER>
-4.1678

>  <SCORE.INTER.CONST>
1

>  <SCORE.INTER.POLAR>
-0.8

>  <SCORE.INTER.ROT>
11

>  <SCORE.INTER.SOLV>
11.4887

>  <SCORE.INTER.VDW>
-14.8748

>  <SCORE.INTER.norm>
-0.2977

>  <SCORE.INTRA>
-8.06687

>  <SCORE.INTRA.DIHEDRAL>
-13.4192

>  <SCORE.INTRA.DIHEDRAL.0>
17.7811

>  <SCORE.INTRA.POLAR>
0

>  <SCORE.INTRA.POLAR.0>
0

>  <SCORE.INTRA.REPUL>
0

>  <SCORE.INTRA.REPUL.0>
0

>  <SCORE.INTRA.SOLV>
-0.275911

>  <SCORE.INTRA.SOLV.lig_0>
-47.9565

>  <SCORE.INTRA.VDW>
-1.21932

>  <SCORE.INTRA.VDW.0>
0.515983

>  <SCORE.INTRA.norm>
-0.576205

>  <SCORE.RESTR>
0

>  <SCORE.RESTR.CAVITY>
0

>  <SCORE.RESTR.norm>
0

>  <SCORE.SYSTEM>
0

>  <SCORE.SYSTEM.CONST>
0

>  <SCORE.SYSTEM.DIHEDRAL>
0

>  <SCORE.SYSTEM.SOLV>
0

>  <SCORE.SYSTEM.norm>
0

>  <SCORE.heavy>
14

>  <SCORE.norm>
-0.873904

>  <RMSD>
5.639

$$$$
1xpf_lig
 OpenBabel02141814123D
libRbt.so/2013.1/901 2013/11/27
 14 13  0  0  0  0  0  0  0  0999 V2000
   22.2475    0.1129   59.8820 N   0  0  0  0  0  0  0  0  0  0  0  0
   22.7850   -0.5101   61.0774 C   0  0  0  0  0  0  0  0  0  0  0  0
   22.0643   -1.7661   61.3922 C   0  0  0  0  0  0  0  0  0  0  0  0
   22.5934   -2.2448   62.7084 C   0  0  0  0  0  0  0  0  0  0  0  0
   22.1288   -1.2720   63.7274 N   0  0  0  0  0  0  0  0  0  0  0  0
   20.9761   -1.8295   64.4990 C   0  0  0  0  0  0  0  0  0  0  0  0
   20.2042   -0.7646   65.2971 C   0  0  0  0  0  0  0  0  0  0  0  0
   18.9001   -1.2816   65.9299 C   0  0  0  0  0  0  0  0  0  0  0  0
   18.2098   -0.1368   66.6559 C   0  0  0  0  0  0  0  0  0  0  0  0
   18.9837    0.0444   67.8927 N   0  0  0  0  0  0  0  0  0  0  0  0
   19.7498    1.3114   68.0586 C   0  0  0  0  0  0  0  0  0  0  0  0
   19.5287    1.5703   69.5647 C   0  0  0  0  0  0  0  0  0  0  0  0
   20.1147    2.8154   70.1805 C   0  0  0  0  0  0  0  0  0  0  0  0
   19.6510    4.0613   69.5949 N   0  0  0  0  0  0  0  0  0  0  0  0
  1  2  1  0  0  0  0
  2  3  1  0  0  0  0
  3  4  1  0  0  0  0
  4  5  1  0  0  0  0
  5  6  1  0  0  0  0
  6  7  1  0  0  0  0
  7  8  1  0  0  0  0
  8  9  1  0  0  0  0
  9 10  1  0  0  0  0
 10 11  1  0  0  0  0
 11 12  1  0  0  0  0
 12 13  1  0  0  0  0
 13 14  1  0  0  0  0
M  END
>  <CHROM.1>
-174.11045004,68.37870474,102.92262395,-164.46549150,171.57590973,-178.44234451
-75.71519026,113.46621196,141.75179373,-178.18815674,59.35415946,20.58115818
0.00757272,65.46155258,-1.00244898,0.93019478,0.69198389

>  <Name>
1xpf_lig

>  <RI>
0

>  <Rbt.Current_Directory>
/home/afrankz/demos/rdock_decoys_rna/rnas/1xpf

>  <Rbt.Executable>
rbdock ($Id: //depot/dev/client3/rdock/2013.1/src/exe/rbdock.cxx#4 $)

>  <Rbt.Library>
libRbt.so (2013.1, Build901 2013/11/27)

>  <Rbt.Parameter_File>
/export/apps/rDock/src/rDock_2013.1_src/data/scripts/dock_solv.prm

>  <Rbt.Receptor>
prm/pocket_docking_8.prm

>  <SCORE>
-14.5619

>  <SCORE.INTER>
-7.21637

>  <SCORE.INTER.CONST>
1

>  <SCORE.INTER.POLAR>
-1.34995

>  <SCORE.INTER.ROT>
11

>  <SCORE.INTER.SOLV>
8.93372

>  <SCORE.INTER.VDW>
-14.2223

>  <SCORE.INTER.norm>
-0.515455

>  <SCORE.INTRA>
-7.34555

>  <SCORE.INTRA.DIHEDRAL>
-13.0385

>  <SCORE.INTRA.DIHEDRAL.0>
17.7811

>  <SCORE.INTRA.POLAR>
0

>  <SCORE.INTRA.POLAR.0>
0

>  <SCORE.INTRA.REPUL>
0

>  <SCORE.INTRA.REPUL.0>
0

>  <SCORE.INTRA.SOLV>
0.720892

>  <SCORE.INTRA.SOLV.lig_0>
-47.9565

>  <SCORE.INTRA.VDW>
-1.18673

>  <SCORE.INTRA.VDW.0>
0.515983

>  <SCORE.INTRA.norm>
-0.524682

>  <SCORE.RESTR>
0

>  <SCORE.RESTR.CAVITY>
0

>  <SCORE.RESTR.norm>
0

>  <SCORE.SYSTEM>
0

>  <SCORE.SYSTEM.CONST>
0

>  <SCORE.SYSTEM.DIHEDRAL>
0

>  <SCORE.SYSTEM.SOLV>
0

>  <SCORE.SYSTEM.norm>
0

>  <SCORE.heavy>
14

>  <SCORE.norm>
-1.04014

>  <RMSD>
5.643

$$$$
1xpf_lig
 OpenBabel02141814123D
libRbt.so/2013.1/901 2013/11/27
 14 13  0  0  0  0  0  0  0  0999 V2000
   12.6260    0.0002   60.2044 N   0  0  0  0  0  0  0  0  0  0  0  0
   13.9291    0.5111   59.8208 C   0  0  0  0  0  0  0  0  0  0  0  0
   14.8840   -0.5959   59.5793 C   0  0  0  0  0  0  0  0  0  0  0  0
   16.2178    0.0364   59.3290 C   0  0  0  0  0  0  0  0  0  0  0  0
   17.1582   -1.0705   59.0272 N   0  0  0  0  0  0  0  0  0  0  0  0
   17.8130   -1.5597   60.2789 C   0  0  0  0  0  0  0  0  0  0  0  0
   19.2722   -2.0007   60.0717 C   0  0  0  0  0  0  0  0  0  0  0  0
   20.2577   -0.8329   59.8887 C   0  0  0  0  0  0  0  0  0  0  0  0
   21.6731   -1.3837   59.8009 C   0  0  0  0  0  0  0  0  0  0  0  0
   22.5300   -0.1969   59.6636 N   0  0  0  0  0  0  0  0  0  0  0  0
   24.0017   -0.4052   59.5633 C   0  0  0  0  0  0  0  0  0  0  0  0
   24.5016    1.0272   59.8506 C   0  0  0  0  0  0  0  0  0  0  0  0
   24.2413    2.1050   58.8291 C   0  0  0  0  0  0  0  0  0  0  0  0
   24.8041    3.4036   59.1562 N   0  0  0  0  0  0  0  0  0  0  0  0
  1  2  1  0  0  0  0
  2  3  1  0  0  0  0
  3  4  1  0  0  0  0
  4  5  1  0  0  0  0
  5  6  1  0  0  0  0
  6  7  1  0  0  0  0
  7  8  1  0  0  0  0
  8  9  1  0  0  0  0
  9 10  1  0  0  0  0
 10 11  1  0  0  0  0
 11 12  1  0  0  0  0
 12 13  1  0  0  0  0
 13 14  1  0  0  0  0
M  END
>  <CHROM.1>
-174.40957419,-177.50304568,-90.78996710,-144.90245642,74.20942392,175.67544951
-178.58944360,179.51656796,-164.34102032,-68.91007090,-177.15238610,19.56510714
-0.06896776,59.64744671,2.98038118,-0.01439329,2.98581664

>  <Name>
1xpf_lig

>  <RI>
0

>  <Rbt.Current_Directory>
/home/afrankz/demos/rdock_decoys_rna/rnas/1xpf

>  <Rbt.Executable>
rbdock ($Id: //depot/dev/client3/rdock/2013.1/src/exe/rbdock.cxx#4 $)

>  <Rbt.Library>
libRbt.so (2013.1, Build901 2013/11/27)

>  <Rbt.Parameter_File>
/export/apps/rDock/src/rDock_2013.1_src/data/scripts/dock_solv.prm

>  <Rbt.Receptor>
prm/pocket_docking_8.prm

>  <SCORE>
-13.7589

>  <SCORE.INTER>
-4.69239

>  <SCORE.INTER.CONST>
1

>  <SCORE.INTER.POLAR>
-1.20558

>  <SCORE.INTER.ROT>
11

>  <SCORE.INTER.SOLV>
8.93071

>  <SCORE.INTER.VDW>
-13.0199

>  <SCORE.INTER.norm>
-0.335171

>  <SCORE.INTRA>
-9.06654

>  <SCORE.INTRA.DIHEDRAL>
-14.9257

>  <SCORE.INTRA.DIHEDRAL.0>
17.7811

>  <SCORE.INTRA.POLAR>
0

>  <SCORE.INTRA.POLAR.0>
0

>  <SCORE.INTRA.REPUL>
0

>  <SCORE.INTRA.REPUL.0>
0

>  <SCORE.INTRA.SOLV>
-0.276965

>  <SCORE.INTRA.SOLV.lig_0>
-47.9565

>  <SCORE.INTRA.VDW>
-1.46519

>  <SCORE.INTRA.VDW.0>
0.515983

>  <SCORE.INTRA.norm>
-0.64761

>  <SCORE.RESTR>
0

>  <SCORE.RESTR.CAVITY>
0

>  <SCORE.RESTR.norm>
0

>  <SCORE.SYSTEM>
0

>  <SCORE.SYSTEM.CONST>
0

>  <SCORE.SYSTEM.DIHEDRAL>
0

>  <SCORE.SYSTEM.SOLV>
0

>  <SCORE.SYSTEM.norm>
0

>  <SCORE.heavy>
14

>  <SCORE.norm>
-0.982781

>  <RMSD>
5.671

$$$$
1xpf_lig
 OpenBabel02141814123D
libRbt.so/2013.1/901 2013/11/27
 14 13  0  0  0  0  0  0  0  0999 V2000
   24.5217   -1.2243   61.2314 N   0  0  0  0  0  0  0  0  0  0  0  0
   24.0050   -1.5758   62.5412 C   0  0  0  0  0  0  0  0  0  0  0  0
   22.5477   -1.3202   62.6238 C   0  0  0  0  0  0  0  0  0  0  0  0
   22.1359   -1.6406   64.0271 C   0  0  0  0  0  0  0  0  0  0  0  0
   20.6750   -1.3944   64.1034 N   0  0  0  0  0  0  0  0  0  0  0  0
   20.2637   -1.1061   65.5115 C   0  0  0  0  0  0  0  0  0  0  0  0
   18.8836   -0.4346   65.6184 C   0  0  0  0  0  0  0  0  0  0  0  0
   18.4664   -0.0903   67.0592 C   0  0  0  0  0  0  0  0  0  0  0  0
   19.4438    0.9248   67.6324 C   0  0  0  0  0  0  0  0  0  0  0  0
   18.8960    1.2695   68.9525 N   0  0  0  0  0  0  0  0  0  0  0  0
   19.6882    2.1850   69.8207 C   0  0  0  0  0  0  0  0  0  0  0  0
   19.3096    3.5473   69.2003 C   0  0  0  0  0  0  0  0  0  0  0  0
   20.0040    4.7894   69.6983 C   0  0  0  0  0  0  0  0  0  0  0  0
   21.4311    4.8386   69.4313 N   0  0  0  0  0  0  0  0  0  0  0  0
  1  2  1  0  0  0  0
  2  3  1  0  0  0  0
  3  4  1  0  0  0  0
  4  5  1  0  0  0  0
  5  6  1  0  0  0  0
  6  7  1  0  0  0  0
  7  8  1  0  0  0  0
  8  9  1  0  0  0  0
  9 10  1  0  0  0  0
 10 11  1  0  0  0  0
 11 12  1  0  0  0  0
 12 13  1  0  0  0  0
 13 14  1  0  0  0  0
M  END
>  <CHROM.1>
-176.88604464,-179.54650972,-155.59821808,162.57967264,-178.12318443,62.99994572
175.30151580,175.73046062,80.33634709,-174.18129956,64.77592569,20.73342777
0.62620842,66.24666358,-1.13383411,0.52801384,0.71928289

>  <Name>
1xpf_lig

>  <RI>
0

>  <Rbt.Current_Directory>
/home/afrankz/demos/rdock_decoys_rna/rnas/1xpf

>  <Rbt.Executable>
rbdock ($Id: //depot/dev/client3/rdock/2013.1/src/exe/rbdock.cxx#4 $)

>  <Rbt.Library>
libRbt.so (2013.1, Build901 2013/11/27)

>  <Rbt.Parameter_File>
/export/apps/rDock/src/rDock_2013.1_src/data/scripts/dock_solv.prm

>  <Rbt.Receptor>
prm/pocket_docking_6.prm

>  <SCORE>
-14.259

>  <SCORE.INTER>
-5.50524

>  <SCORE.INTER.CONST>
1

>  <SCORE.INTER.POLAR>
-0.8

>  <SCORE.INTER.ROT>
11

>  <SCORE.INTER.SOLV>
7.246

>  <SCORE.INTER.VDW>
-14.3522

>  <SCORE.INTER.norm>
-0.393231

>  <SCORE.INTRA>
-8.76851

>  <SCORE.INTRA.DIHEDRAL>
-16.4131

>  <SCORE.INTRA.DIHEDRAL.0>
17.7811

>  <SCORE.INTRA.POLAR>
0

>  <SCORE.INTRA.POLAR.0>
0

>  <SCORE.INTRA.REPUL>
0

>  <SCORE.INTRA.REPUL.0>
0

>  <SCORE.INTRA.SOLV>
-0.160004

>  <SCORE.INTRA.SOLV.lig_0>
-47.9565

>  <SCORE.INTRA.VDW>
-0.481946

>  <SCORE.INTRA.VDW.0>
0.515983

>  <SCORE.INTRA.norm>
-0.626322

>  <SCORE.RESTR>
0.0147662

>  <SCORE.RESTR.CAVITY>
0.0147662

>  <SCORE.RESTR.norm>
0.00105473

>  <SCORE.SYSTEM>
0

>  <SCORE.SYSTEM.CONST>
0

>  <SCORE.SYSTEM.DIHEDRAL>
0

>  <SCORE.SYSTEM.SOLV>
0

>  <SCORE.SYSTEM.norm>
0

>  <SCORE.heavy>
14

>  <SCORE.norm>
-1.0185

>  <RMSD>
5.716

$$$$
1xpf_lig
 OpenBabel02141814123D
libRbt.so/2013.1/901 2013/11/27
 14 13  0  0  0  0  0  0  0  0999 V2000
   19.8846    2.9502   70.2654 N   0  0  0  0  0  0  0  0  0  0  0  0
   19.6432    2.8032   68.8419 C   0  0  0  0  0  0  0  0  0  0  0  0
   19.9163    1.4163   68.3970 C   0  0  0  0  0  0  0  0  0  0  0  0
   19.6923    1.3898   66.9169 C   0  0  0  0  0  0  0  0  0  0  0  0
   20.0104    0.0122   66.4679 N   0  0  0  0  0  0  0  0  0  0  0  0
   19.9888   -0.0721   64.9755 C   0  0  0  0  0  0  0  0  0  0  0  0
   20.1437   -1.5073   64.4433 C   0  0  0  0  0  0  0  0  0  0  0  0
   21.4911   -2.1621   64.7956 C   0  0  0  0  0  0  0  0  0  0  0  0
   22.6046   -1.4468   64.0454 C   0  0  0  0  0  0  0  0  0  0  0  0
   22.5033   -1.9396   62.6639 N   0  0  0  0  0  0  0  0  0  0  0  0
   23.7273   -2.5087   62.0333 C   0  0  0  0  0  0  0  0  0  0  0  0
   23.5821   -1.9513   60.6007 C   0  0  0  0  0  0  0  0  0  0  0  0
   23.6230   -0.4582   60.3955 C   0  0  0  0  0  0  0  0  0  0  0  0
   23.4103   -0.0252   59.0253 N   0  0  0  0  0  0  0  0  0  0  0  0
  1  2  1  0  0  0  0
  2  3  1  0  0  0  0
  3  4  1  0  0  0  0
  4  5  1  0  0  0  0
  5  6  1  0  0  0  0
  6  7  1  0  0  0  0
  7  8  1  0  0  0  0
  8  9  1  0  0  0  0
  9 10  1  0  0  0  0
 10 11  1  0  0  0  0
 11 12  1  0  0  0  0
 12 13  1  0  0  0  0
 13 14  1  0  0  0  0
M  END
>  <CHROM.1>
-177.72692869,178.14618261,-172.65551613,-173.09604978,-63.21684628,-67.71180169
-76.29085337,-126.72961656,-140.85178259,63.58003089,-177.00480832,21.44433643
-0.25016303,64.56194918,-2.76173841,-1.13209734,-3.13525697

>  <Name>
1xpf_lig

>  <RI>
0

>  <Rbt.Current_Directory>
/home/afrankz/demos/rdock_decoys_rna/rnas/1xpf

>  <Rbt.Executable>
rbdock ($Id: //depot/dev/client3/rdock/2013.1/src/exe/rbdock.cxx#4 $)

>  <Rbt.Library>
libRbt.so (2013.1, Build901 2013/11/27)

>  <Rbt.Parameter_File>
/export/apps/rDock/src/rDock_2013.1_src/data/scripts/dock_solv.prm

>  <Rbt.Receptor>
prm/pocket_docking_7.prm

>  <SCORE>
-14.8232

>  <SCORE.INTER>
-6.85996

>  <SCORE.INTER.CONST>
1

>  <SCORE.INTER.POLAR>
-0.879149

>  <SCORE.INTER.ROT>
11

>  <SCORE.INTER.SOLV>
12.627

>  <SCORE.INTER.VDW>
-16.7851

>  <SCORE.INTER.norm>
-0.489997

>  <SCORE.INTRA>
-7.96326

>  <SCORE.INTRA.DIHEDRAL>
-14.3143

>  <SCORE.INTRA.DIHEDRAL.0>
17.7811

>  <SCORE.INTRA.POLAR>
0

>  <SCORE.INTRA.POLAR.0>
0

>  <SCORE.INTRA.REPUL>
0

>  <SCORE.INTRA.REPUL.0>
0

>  <SCORE.INTRA.SOLV>
0.666132

>  <SCORE.INTRA.SOLV.lig_0>
-47.9565

>  <SCORE.INTRA.VDW>
-1.13919

>  <SCORE.INTRA.VDW.0>
0.515983

>  <SCORE.INTRA.norm>
-0.568804

>  <SCORE.RESTR>
0

>  <SCORE.RESTR.CAVITY>
0

>  <SCORE.RESTR.norm>
0

>  <SCORE.SYSTEM>
0

>  <SCORE.SYSTEM.CONST>
0

>  <SCORE.SYSTEM.DIHEDRAL>
0

>  <SCORE.SYSTEM.SOLV>
0

>  <SCORE.SYSTEM.norm>
0

>  <SCORE.heavy>
14

>  <SCORE.norm>
-1.0588

>  <RMSD>
5.723

$$$$
1xpf_lig
 OpenBabel02141814123D
libRbt.so/2013.1/901 2013/11/27
 14 13  0  0  0  0  0  0  0  0999 V2000
   19.2829    2.6035   68.0272 N   0  0  0  0  0  0  0  0  0  0  0  0
   19.9392    1.3117   68.1087 C   0  0  0  0  0  0  0  0  0  0  0  0
   19.8884    0.6065   66.8064 C   0  0  0  0  0  0  0  0  0  0  0  0
   18.4710    0.1645   66.6141 C   0  0  0  0  0  0  0  0  0  0  0  0
   18.2879   -1.0410   67.4590 N   0  0  0  0  0  0  0  0  0  0  0  0
   16.8446   -1.2295   67.7998 C   0  0  0  0  0  0  0  0  0  0  0  0
   16.4900   -2.6797   68.1714 C   0  0  0  0  0  0  0  0  0  0  0  0
   16.5617   -3.6628   66.9895 C   0  0  0  0  0  0  0  0  0  0  0  0
   16.1667   -5.0508   67.4706 C   0  0  0  0  0  0  0  0  0  0  0  0
   16.3105   -5.9130   66.2884 N   0  0  0  0  0  0  0  0  0  0  0  0
   16.0429   -7.3698   66.4489 C   0  0  0  0  0  0  0  0  0  0  0  0
   16.4614   -7.8809   65.0533 C   0  0  0  0  0  0  0  0  0  0  0  0
   16.3615   -9.3565   64.7610 C   0  0  0  0  0  0  0  0  0  0  0  0
   17.1465  -10.2064   65.6395 N   0  0  0  0  0  0  0  0  0  0  0  0
  1  2  1  0  0  0  0
  2  3  1  0  0  0  0
  3  4  1  0  0  0  0
  4  5  1  0  0  0  0
  5  6  1  0  0  0  0
  6  7  1  0  0  0  0
  7  8  1  0  0  0  0
  8  9  1  0  0  0  0
  9 10  1  0  0  0  0
 10 11  1  0  0  0  0
 11 12  1  0  0  0  0
 12 13  1  0  0  0  0
 13 14  1  0  0  0  0
M  END
>  <CHROM.1>
-72.08981094,-78.02046833,156.34387808,157.25661545,-69.01560241,-178.91417973
-178.17914089,177.65892205,-173.86346676,179.56961352,-59.11538186,17.44666372
-3.55026204,66.83126520,-1.26497700,-0.52895510,-2.77625795

>  <Name>
1xpf_lig

>  <RI>
0

>  <Rbt.Current_Directory>
/home/afrankz/demos/rdock_decoys_rna/rnas/1xpf

>  <Rbt.Executable>
rbdock ($Id: //depot/dev/client3/rdock/2013.1/src/exe/rbdock.cxx#4 $)

>  <Rbt.Library>
libRbt.so (2013.1, Build901 2013/11/27)

>  <Rbt.Parameter_File>
/export/apps/rDock/src/rDock_2013.1_src/data/scripts/dock_solv.prm

>  <Rbt.Receptor>
prm/blind_docking_80.prm

>  <SCORE>
-14.4406

>  <SCORE.INTER>
-6.21467

>  <SCORE.INTER.CONST>
1

>  <SCORE.INTER.POLAR>
-0.8

>  <SCORE.INTER.ROT>
11

>  <SCORE.INTER.SOLV>
11.6909

>  <SCORE.INTER.VDW>
-16.3068

>  <SCORE.INTER.norm>
-0.443905

>  <SCORE.INTRA>
-8.22714

>  <SCORE.INTRA.DIHEDRAL>
-14.9662

>  <SCORE.INTRA.DIHEDRAL.0>
17.7811

>  <SCORE.INTRA.POLAR>
0

>  <SCORE.INTRA.POLAR.0>
0

>  <SCORE.INTRA.REPUL>
0

>  <SCORE.INTRA.REPUL.0>
0

>  <SCORE.INTRA.SOLV>
1.61277

>  <SCORE.INTRA.SOLV.lig_0>
-47.9565

>  <SCORE.INTRA.VDW>
-1.55043

>  <SCORE.INTRA.VDW.0>
0.515983

>  <SCORE.INTRA.norm>
-0.587653

>  <SCORE.RESTR>
0.00118613

>  <SCORE.RESTR.CAVITY>
0.00118613

>  <SCORE.RESTR.norm>
8.47237e-05

>  <SCORE.SYSTEM>
0

>  <SCORE.SYSTEM.CONST>
0

>  <SCORE.SYSTEM.DIHEDRAL>
0

>  <SCORE.SYSTEM.SOLV>
0

>  <SCORE.SYSTEM.norm>
0

>  <SCORE.heavy>
14

>  <SCORE.norm>
-1.03147

>  <RMSD>
5.751

$$$$
1xpf_lig
 OpenBabel02141814123D
libRbt.so/2013.1/901 2013/11/27
 14 13  0  0  0  0  0  0  0  0999 V2000
   20.6391   -0.9413   60.9889 N   0  0  0  0  0  0  0  0  0  0  0  0
   20.1733   -0.6085   59.6554 C   0  0  0  0  0  0  0  0  0  0  0  0
   19.5048    0.7139   59.6404 C   0  0  0  0  0  0  0  0  0  0  0  0
   20.5772    1.7378   59.8478 C   0  0  0  0  0  0  0  0  0  0  0  0
   19.8994    3.0571   59.8758 N   0  0  0  0  0  0  0  0  0  0  0  0
   19.7614    3.5472   61.2814 C   0  0  0  0  0  0  0  0  0  0  0  0
   18.6057    2.8818   62.0485 C   0  0  0  0  0  0  0  0  0  0  0  0
   18.4390    3.3905   63.4914 C   0  0  0  0  0  0  0  0  0  0  0  0
   19.6808    3.0315   64.2935 C   0  0  0  0  0  0  0  0  0  0  0  0
   19.3897    3.4875   65.6605 N   0  0  0  0  0  0  0  0  0  0  0  0
   20.3170    3.0695   66.7491 C   0  0  0  0  0  0  0  0  0  0  0  0
   19.3313    2.3311   67.6804 C   0  0  0  0  0  0  0  0  0  0  0  0
   19.8615    1.6956   68.9406 C   0  0  0  0  0  0  0  0  0  0  0  0
   18.8641    1.0099   69.7438 N   0  0  0  0  0  0  0  0  0  0  0  0
  1  2  1  0  0  0  0
  2  3  1  0  0  0  0
  3  4  1  0  0  0  0
  4  5  1  0  0  0  0
  5  6  1  0  0  0  0
  6  7  1  0  0  0  0
  7  8  1  0  0  0  0
  8  9  1  0  0  0  0
  9 10  1  0  0  0  0
 10 11  1  0  0  0  0
 11 12  1  0  0  0  0
 12 13  1  0  0  0  0
 13 14  1  0  0  0  0
M  END
>  <CHROM.1>
70.20497845,-178.23222575,102.12905530,-78.50106890,-179.20498402,-63.78865070
-176.83965208,169.55958601,-121.61466673,178.68772091,-179.25938908,19.64600683
2.02897669,63.56389856,-1.23646790,-1.37104943,1.78768006

>  <Name>
1xpf_lig

>  <RI>
0

>  <Rbt.Current_Directory>
/home/afrankz/demos/rdock_decoys_rna/rnas/1xpf

>  <Rbt.Executable>
rbdock ($Id: //depot/dev/client3/rdock/2013.1/src/exe/rbdock.cxx#4 $)

>  <Rbt.Library>
libRbt.so (2013.1, Build901 2013/11/27)

>  <Rbt.Parameter_File>
/export/apps/rDock/src/rDock_2013.1_src/data/scripts/dock_solv.prm

>  <Rbt.Receptor>
prm/pocket_docking_7.prm

>  <SCORE>
-9.16789

>  <SCORE.INTER>
-1.51164

>  <SCORE.INTER.CONST>
1

>  <SCORE.INTER.POLAR>
-0.967891

>  <SCORE.INTER.ROT>
11

>  <SCORE.INTER.SOLV>
13.6603

>  <SCORE.INTER.VDW>
-13.2682

>  <SCORE.INTER.norm>
-0.107974

>  <SCORE.INTRA>
-7.65626

>  <SCORE.INTRA.DIHEDRAL>
-14.7744

>  <SCORE.INTRA.DIHEDRAL.0>
17.7811

>  <SCORE.INTRA.POLAR>
0

>  <SCORE.INTRA.POLAR.0>
0

>  <SCORE.INTRA.REPUL>
0

>  <SCORE.INTRA.REPUL.0>
0

>  <SCORE.INTRA.SOLV>
0.340304

>  <SCORE.INTRA.SOLV.lig_0>
-47.9565

>  <SCORE.INTRA.VDW>
-0.439196

>  <SCORE.INTRA.VDW.0>
0.515983

>  <SCORE.INTRA.norm>
-0.546875

>  <SCORE.RESTR>
0

>  <SCORE.RESTR.CAVITY>
0

>  <SCORE.RESTR.norm>
0

>  <SCORE.SYSTEM>
0

>  <SCORE.SYSTEM.CONST>
0

>  <SCORE.SYSTEM.DIHEDRAL>
0

>  <SCORE.SYSTEM.SOLV>
0

>  <SCORE.SYSTEM.norm>
0

>  <SCORE.heavy>
14

>  <SCORE.norm>
-0.654849

>  <RMSD>
5.769

$$$$
1xpf_lig
 OpenBabel02141814123D
libRbt.so/2013.1/901 2013/11/27
 14 13  0  0  0  0  0  0  0  0999 V2000
   19.9952    4.5335   71.5450 N   0  0  0  0  0  0  0  0  0  0  0  0
   20.1211    4.0845   70.1707 C   0  0  0  0  0  0  0  0  0  0  0  0
   19.3192    2.8607   69.9358 C   0  0  0  0  0  0  0  0  0  0  0  0
   19.4452    2.5396   68.4790 C   0  0  0  0  0  0  0  0  0  0  0  0
   18.6295    1.3230   68.2443 N   0  0  0  0  0  0  0  0  0  0  0  0
   19.1367    0.5716   67.0554 C   0  0  0  0  0  0  0  0  0  0  0  0
   18.0614   -0.2947   66.3772 C   0  0  0  0  0  0  0  0  0  0  0  0
   17.4886   -1.4007   67.2811 C   0  0  0  0  0  0  0  0  0  0  0  0
   16.5934   -2.3090   66.4517 C   0  0  0  0  0  0  0  0  0  0  0  0
   16.2508   -3.4210   67.3505 N   0  0  0  0  0  0  0  0  0  0  0  0
   16.2251   -4.7975   66.7812 C   0  0  0  0  0  0  0  0  0  0  0  0
   15.9787   -5.6203   68.0643 C   0  0  0  0  0  0  0  0  0  0  0  0
   15.8764   -7.1206   67.9556 C   0  0  0  0  0  0  0  0  0  0  0  0
   14.7879   -7.5984   67.1208 N   0  0  0  0  0  0  0  0  0  0  0  0
  1  2  1  0  0  0  0
  2  3  1  0  0  0  0
  3  4  1  0  0  0  0
  4  5  1  0  0  0  0
  5  6  1  0  0  0  0
  6  7  1  0  0  0  0
  7  8  1  0  0  0  0
  8  9  1  0  0  0  0
  9 10  1  0  0  0  0
 10 11  1  0  0  0  0
 11 12  1  0  0  0  0
 12 13  1  0  0  0  0
 13 14  1  0  0  0  0
M  END
>  <CHROM.1>
176.27290903,-179.39288961,-154.52463261,-154.62691095,-62.06415034,-171.90043495
172.50354982,-139.61285994,174.39468310,179.93774883,-61.09438585,17.70792971
-1.18919653,68.05783062,0.14857245,1.17610507,1.66423433

>  <Name>
1xpf_lig

>  <RI>
0

>  <Rbt.Current_Directory>
/home/afrankz/demos/rdock_decoys_rna/rnas/1xpf

>  <Rbt.Executable>
rbdock ($Id: //depot/dev/client3/rdock/2013.1/src/exe/rbdock.cxx#4 $)

>  <Rbt.Library>
libRbt.so (2013.1, Build901 2013/11/27)

>  <Rbt.Parameter_File>
/export/apps/rDock/src/rDock_2013.1_src/data/scripts/dock_solv.prm

>  <Rbt.Receptor>
prm/pocket_docking_7.prm

>  <SCORE>
-14.3911

>  <SCORE.INTER>
-4.85051

>  <SCORE.INTER.CONST>
1

>  <SCORE.INTER.POLAR>
-0.797507

>  <SCORE.INTER.ROT>
11

>  <SCORE.INTER.SOLV>
7.58436

>  <SCORE.INTER.VDW>
-14.0368

>  <SCORE.INTER.norm>
-0.346465

>  <SCORE.INTRA>
-9.54055

>  <SCORE.INTRA.DIHEDRAL>
-15.3743

>  <SCORE.INTRA.DIHEDRAL.0>
17.7811

>  <SCORE.INTRA.POLAR>
0

>  <SCORE.INTRA.POLAR.0>
0

>  <SCORE.INTRA.REPUL>
0

>  <SCORE.INTRA.REPUL.0>
0

>  <SCORE.INTRA.SOLV>
-0.00443248

>  <SCORE.INTRA.SOLV.lig_0>
-47.9565

>  <SCORE.INTRA.VDW>
-1.85118

>  <SCORE.INTRA.VDW.0>
0.515983

>  <SCORE.INTRA.norm>
-0.681468

>  <SCORE.RESTR>
0

>  <SCORE.RESTR.CAVITY>
0

>  <SCORE.RESTR.norm>
0

>  <SCORE.SYSTEM>
0

>  <SCORE.SYSTEM.CONST>
0

>  <SCORE.SYSTEM.DIHEDRAL>
0

>  <SCORE.SYSTEM.SOLV>
0

>  <SCORE.SYSTEM.norm>
0

>  <SCORE.heavy>
14

>  <SCORE.norm>
-1.02793

>  <RMSD>
5.779

$$$$
1xpf_lig
 OpenBabel02141814123D
libRbt.so/2013.1/901 2013/11/27
 14 13  0  0  0  0  0  0  0  0999 V2000
   21.1147    4.4353   69.3740 N   0  0  0  0  0  0  0  0  0  0  0  0
   20.6147    3.4651   70.3305 C   0  0  0  0  0  0  0  0  0  0  0  0
   19.3851    2.8083   69.8281 C   0  0  0  0  0  0  0  0  0  0  0  0
   19.8191    1.8338   68.7777 C   0  0  0  0  0  0  0  0  0  0  0  0
   18.5796    1.2849   68.1752 N   0  0  0  0  0  0  0  0  0  0  0  0
   18.9003    0.1524   67.2535 C   0  0  0  0  0  0  0  0  0  0  0  0
   19.0730    0.5885   65.7883 C   0  0  0  0  0  0  0  0  0  0  0  0
   20.2286    1.5798   65.5636 C   0  0  0  0  0  0  0  0  0  0  0  0
   20.3536    1.8713   64.0758 C   0  0  0  0  0  0  0  0  0  0  0  0
   20.7839    0.5987   63.4787 N   0  0  0  0  0  0  0  0  0  0  0  0
   21.9168    0.6280   62.5117 C   0  0  0  0  0  0  0  0  0  0  0  0
   21.6514   -0.6819   61.7385 C   0  0  0  0  0  0  0  0  0  0  0  0
   22.6095   -1.0873   60.6473 C   0  0  0  0  0  0  0  0  0  0  0  0
   22.8126   -0.0884   59.6124 N   0  0  0  0  0  0  0  0  0  0  0  0
  1  2  1  0  0  0  0
  2  3  1  0  0  0  0
  3  4  1  0  0  0  0
  4  5  1  0  0  0  0
  5  6  1  0  0  0  0
  6  7  1  0  0  0  0
  7  8  1  0  0  0  0
  8  9  1  0  0  0  0
  9 10  1  0  0  0  0
 10 11  1  0  0  0  0
 11 12  1  0  0  0  0
 12 13  1  0  0  0  0
 13 14  1  0  0  0  0
M  END
>  <CHROM.1>
75.11989608,-174.05179808,-171.61956383,-93.25535836,61.69695856,176.64162910
-66.63477972,-132.90266723,-157.70855517,-178.39638628,-55.33605214,20.56010435
1.24190944,65.51123248,-1.90265956,-0.69102299,-2.13564577

>  <Name>
1xpf_lig

>  <RI>
0

>  <Rbt.Current_Directory>
/home/afrankz/demos/rdock_decoys_rna/rnas/1xpf

>  <Rbt.Executable>
rbdock ($Id: //depot/dev/client3/rdock/2013.1/src/exe/rbdock.cxx#4 $)

>  <Rbt.Library>
libRbt.so (2013.1, Build901 2013/11/27)

>  <Rbt.Parameter_File>
/export/apps/rDock/src/rDock_2013.1_src/data/scripts/dock_solv.prm

>  <Rbt.Receptor>
prm/pocket_docking_6.prm

>  <SCORE>
-12.7202

>  <SCORE.INTER>
-5.05845

>  <SCORE.INTER.CONST>
1

>  <SCORE.INTER.POLAR>
-1.69292

>  <SCORE.INTER.ROT>
11

>  <SCORE.INTER.SOLV>
9.43234

>  <SCORE.INTER.VDW>
-11.8067

>  <SCORE.INTER.norm>
-0.361318

>  <SCORE.INTRA>
-7.66177

>  <SCORE.INTRA.DIHEDRAL>
-14.3219

>  <SCORE.INTRA.DIHEDRAL.0>
17.7811

>  <SCORE.INTRA.POLAR>
0

>  <SCORE.INTRA.POLAR.0>
0

>  <SCORE.INTRA.REPUL>
0

>  <SCORE.INTRA.REPUL.0>
0

>  <SCORE.INTRA.SOLV>
1.33948

>  <SCORE.INTRA.SOLV.lig_0>
-47.9565

>  <SCORE.INTRA.VDW>
-1.17057

>  <SCORE.INTRA.VDW.0>
0.515983

>  <SCORE.INTRA.norm>
-0.54727

>  <SCORE.RESTR>
0

>  <SCORE.RESTR.CAVITY>
0

>  <SCORE.RESTR.norm>
0

>  <SCORE.SYSTEM>
0

>  <SCORE.SYSTEM.CONST>
0

>  <SCORE.SYSTEM.DIHEDRAL>
0

>  <SCORE.SYSTEM.SOLV>
0

>  <SCORE.SYSTEM.norm>
0

>  <SCORE.heavy>
14

>  <SCORE.norm>
-0.908587

>  <RMSD>
5.825

$$$$
1xpf_lig
 OpenBabel02141814123D
libRbt.so/2013.1/901 2013/11/27
 14 13  0  0  0  0  0  0  0  0999 V2000
   17.9350   -0.1286   68.3357 N   0  0  0  0  0  0  0  0  0  0  0  0
   17.9775   -0.1259   66.8851 C   0  0  0  0  0  0  0  0  0  0  0  0
   16.6781   -0.5523   66.3145 C   0  0  0  0  0  0  0  0  0  0  0  0
   16.8147   -0.4643   64.8262 C   0  0  0  0  0  0  0  0  0  0  0  0
   15.4501   -0.6281   64.2680 N   0  0  0  0  0  0  0  0  0  0  0  0
   15.0243    0.6114   63.5488 C   0  0  0  0  0  0  0  0  0  0  0  0
   15.6307    0.7383   62.1407 C   0  0  0  0  0  0  0  0  0  0  0  0
   15.3887   -0.4883   61.2433 C   0  0  0  0  0  0  0  0  0  0  0  0
   16.2346   -0.3609   59.9854 C   0  0  0  0  0  0  0  0  0  0  0  0
   16.0911   -1.6555   59.3037 N   0  0  0  0  0  0  0  0  0  0  0  0
   16.8438   -2.8199   59.8488 C   0  0  0  0  0  0  0  0  0  0  0  0
   15.9730   -3.9807   59.3212 C   0  0  0  0  0  0  0  0  0  0  0  0
   14.5369   -4.0728   59.7709 C   0  0  0  0  0  0  0  0  0  0  0  0
   13.8153   -5.2311   59.2730 N   0  0  0  0  0  0  0  0  0  0  0  0
  1  2  1  0  0  0  0
  2  3  1  0  0  0  0
  3  4  1  0  0  0  0
  4  5  1  0  0  0  0
  5  6  1  0  0  0  0
  6  7  1  0  0  0  0
  7  8  1  0  0  0  0
  8  9  1  0  0  0  0
  9 10  1  0  0  0  0
 10 11  1  0  0  0  0
 11 12  1  0  0  0  0
 12 13  1  0  0  0  0
 13 14  1  0  0  0  0
M  END
>  <CHROM.1>
177.90887480,-169.06578441,116.55247626,78.81753763,53.71727791,-169.85745436
171.72375425,-75.97656872,155.72204981,-61.63280448,-177.24952454,16.02819997
-1.36825660,62.50454599,-0.16720549,1.33320439,2.87998643

>  <Name>
1xpf_lig

>  <RI>
0

>  <Rbt.Current_Directory>
/home/afrankz/demos/rdock_decoys_rna/rnas/1xpf

>  <Rbt.Executable>
rbdock ($Id: //depot/dev/client3/rdock/2013.1/src/exe/rbdock.cxx#4 $)

>  <Rbt.Library>
libRbt.so (2013.1, Build901 2013/11/27)

>  <Rbt.Parameter_File>
/export/apps/rDock/src/rDock_2013.1_src/data/scripts/dock_solv.prm

>  <Rbt.Receptor>
prm/pocket_docking_6.prm

>  <SCORE>
-15.6871

>  <SCORE.INTER>
-7.6258

>  <SCORE.INTER.CONST>
1

>  <SCORE.INTER.POLAR>
-2.44676

>  <SCORE.INTER.ROT>
11

>  <SCORE.INTER.SOLV>
11.0385

>  <SCORE.INTER.VDW>
-11.5409

>  <SCORE.INTER.norm>
-0.5447

>  <SCORE.INTRA>
-8.06127

>  <SCORE.INTRA.DIHEDRAL>
-14.3817

>  <SCORE.INTRA.DIHEDRAL.0>
17.7811

>  <SCORE.INTRA.POLAR>
0

>  <SCORE.INTRA.POLAR.0>
0

>  <SCORE.INTRA.REPUL>
0

>  <SCORE.INTRA.REPUL.0>
0

>  <SCORE.INTRA.SOLV>
-0.0260004

>  <SCORE.INTRA.SOLV.lig_0>
-47.9565

>  <SCORE.INTRA.VDW>
-0.857437

>  <SCORE.INTRA.VDW.0>
0.515983

>  <SCORE.INTRA.norm>
-0.575805

>  <SCORE.RESTR>
0

>  <SCORE.RESTR.CAVITY>
0

>  <SCORE.RESTR.norm>
0

>  <SCORE.SYSTEM>
0

>  <SCORE.SYSTEM.CONST>
0

>  <SCORE.SYSTEM.DIHEDRAL>
0

>  <SCORE.SYSTEM.SOLV>
0

>  <SCORE.SYSTEM.norm>
0

>  <SCORE.heavy>
14

>  <SCORE.norm>
-1.1205

>  <RMSD>
5.831

$$$$
1xpf_lig
 OpenBabel02141814123D
libRbt.so/2013.1/901 2013/11/27
 14 13  0  0  0  0  0  0  0  0999 V2000
   17.6392   -5.2295   63.4839 N   0  0  0  0  0  0  0  0  0  0  0  0
   17.2959   -5.3957   64.8841 C   0  0  0  0  0  0  0  0  0  0  0  0
   16.2139   -4.4639   65.2802 C   0  0  0  0  0  0  0  0  0  0  0  0
   15.8954   -4.7620   66.7124 C   0  0  0  0  0  0  0  0  0  0  0  0
   16.9778   -4.1490   67.5205 N   0  0  0  0  0  0  0  0  0  0  0  0
   16.7301   -4.3632   68.9792 C   0  0  0  0  0  0  0  0  0  0  0  0
   15.8589   -3.2674   69.6173 C   0  0  0  0  0  0  0  0  0  0  0  0
   16.5236   -1.8797   69.6480 C   0  0  0  0  0  0  0  0  0  0  0  0
   16.6667   -1.3636   68.2241 C   0  0  0  0  0  0  0  0  0  0  0  0
   17.6599   -0.2833   68.3144 N   0  0  0  0  0  0  0  0  0  0  0  0
   18.1270    0.3445   67.0466 C   0  0  0  0  0  0  0  0  0  0  0  0
   19.5785    0.6998   67.4351 C   0  0  0  0  0  0  0  0  0  0  0  0
   19.8101    1.6795   68.5573 C   0  0  0  0  0  0  0  0  0  0  0  0
   19.3075    3.0198   68.3098 N   0  0  0  0  0  0  0  0  0  0  0  0
  1  2  1  0  0  0  0
  2  3  1  0  0  0  0
  3  4  1  0  0  0  0
  4  5  1  0  0  0  0
  5  6  1  0  0  0  0
  6  7  1  0  0  0  0
  7  8  1  0  0  0  0
  8  9  1  0  0  0  0
  9 10  1  0  0  0  0
 10 11  1  0  0  0  0
 11 12  1  0  0  0  0
 12 13  1  0  0  0  0
 13 14  1  0  0  0  0
M  END
>  <CHROM.1>
177.37294710,76.89767779,178.54131003,-87.85147151,-65.92738368,67.31884965
-162.64095834,173.98484559,-147.90827871,-62.60853036,-63.28327549,17.44870993
-2.10115243,67.42970606,-2.18237014,0.98956164,0.89289998

>  <Name>
1xpf_lig

>  <RI>
0

>  <Rbt.Current_Directory>
/home/afrankz/demos/rdock_decoys_rna/rnas/1xpf

>  <Rbt.Executable>
rbdock ($Id: //depot/dev/client3/rdock/2013.1/src/exe/rbdock.cxx#4 $)

>  <Rbt.Library>
libRbt.so (2013.1, Build901 2013/11/27)

>  <Rbt.Parameter_File>
/export/apps/rDock/src/rDock_2013.1_src/data/scripts/dock_solv.prm

>  <Rbt.Receptor>
prm/blind_docking_100.prm

>  <SCORE>
-15.6352

>  <SCORE.INTER>
-9.0396

>  <SCORE.INTER.CONST>
1

>  <SCORE.INTER.POLAR>
-1.46518

>  <SCORE.INTER.ROT>
11

>  <SCORE.INTER.SOLV>
14.8465

>  <SCORE.INTER.VDW>
-17.0246

>  <SCORE.INTER.norm>
-0.645686

>  <SCORE.INTRA>
-6.63843

>  <SCORE.INTRA.DIHEDRAL>
-14.03

>  <SCORE.INTRA.DIHEDRAL.0>
17.7811

>  <SCORE.INTRA.POLAR>
0

>  <SCORE.INTRA.POLAR.0>
0

>  <SCORE.INTRA.REPUL>
0

>  <SCORE.INTRA.REPUL.0>
0

>  <SCORE.INTRA.SOLV>
2.44834

>  <SCORE.INTRA.SOLV.lig_0>
-47.9565

>  <SCORE.INTRA.VDW>
-0.847591

>  <SCORE.INTRA.VDW.0>
0.515983

>  <SCORE.INTRA.norm>
-0.474173

>  <SCORE.RESTR>
0.0428446

>  <SCORE.RESTR.CAVITY>
0.0428446

>  <SCORE.RESTR.norm>
0.00306033

>  <SCORE.SYSTEM>
0

>  <SCORE.SYSTEM.CONST>
0

>  <SCORE.SYSTEM.DIHEDRAL>
0

>  <SCORE.SYSTEM.SOLV>
0

>  <SCORE.SYSTEM.norm>
0

>  <SCORE.heavy>
14

>  <SCORE.norm>
-1.1168

>  <RMSD>
5.842

$$$$
1xpf_lig
 OpenBabel02141814123D
libRbt.so/2013.1/901 2013/11/27
 14 13  0  0  0  0  0  0  0  0999 V2000
   20.4046    3.1473   69.8006 N   0  0  0  0  0  0  0  0  0  0  0  0
   20.2125    1.9410   69.0170 C   0  0  0  0  0  0  0  0  0  0  0  0
   19.1799    2.1436   67.9737 C   0  0  0  0  0  0  0  0  0  0  0  0
   18.9575    0.8117   67.3273 C   0  0  0  0  0  0  0  0  0  0  0  0
   20.1074    0.5884   66.4172 N   0  0  0  0  0  0  0  0  0  0  0  0
   20.1858   -0.8485   66.0123 C   0  0  0  0  0  0  0  0  0  0  0  0
   20.8596   -1.0613   64.6457 C   0  0  0  0  0  0  0  0  0  0  0  0
   21.0746   -2.5403   64.2787 C   0  0  0  0  0  0  0  0  0  0  0  0
   21.4130   -2.6430   62.7992 C   0  0  0  0  0  0  0  0  0  0  0  0
   22.7920   -2.1442   62.6938 N   0  0  0  0  0  0  0  0  0  0  0  0
   23.4458   -2.1740   61.3555 C   0  0  0  0  0  0  0  0  0  0  0  0
   24.1513   -0.8005   61.3644 C   0  0  0  0  0  0  0  0  0  0  0  0
   24.6668   -0.2413   60.0626 C   0  0  0  0  0  0  0  0  0  0  0  0
   23.6364    0.1378   59.1115 N   0  0  0  0  0  0  0  0  0  0  0  0
  1  2  1  0  0  0  0
  2  3  1  0  0  0  0
  3  4  1  0  0  0  0
  4  5  1  0  0  0  0
  5  6  1  0  0  0  0
  6  7  1  0  0  0  0
  7  8  1  0  0  0  0
  8  9  1  0  0  0  0
  9 10  1  0  0  0  0
 10 11  1  0  0  0  0
 11 12  1  0  0  0  0
 12 13  1  0  0  0  0
 13 14  1  0  0  0  0
M  END
>  <CHROM.1>
-174.10680232,-76.79618644,164.38344738,153.02449853,174.20811807,165.96666297
73.35177141,177.30312942,138.07842470,-164.88352272,68.03153224,21.50614017
-0.26337919,64.48996769,-2.34889331,-0.91760147,-2.60606824

>  <Name>
1xpf_lig

>  <RI>
0

>  <Rbt.Current_Directory>
/home/afrankz/demos/rdock_decoys_rna/rnas/1xpf

>  <Rbt.Executable>
rbdock ($Id: //depot/dev/client3/rdock/2013.1/src/exe/rbdock.cxx#4 $)

>  <Rbt.Library>
libRbt.so (2013.1, Build901 2013/11/27)

>  <Rbt.Parameter_File>
/export/apps/rDock/src/rDock_2013.1_src/data/scripts/dock_solv.prm

>  <Rbt.Receptor>
prm/pocket_docking_8.prm

>  <SCORE>
-13.5246

>  <SCORE.INTER>
-5.99606

>  <SCORE.INTER.CONST>
1

>  <SCORE.INTER.POLAR>
-0.894427

>  <SCORE.INTER.ROT>
11

>  <SCORE.INTER.SOLV>
12.5436

>  <SCORE.INTER.VDW>
-16.1305

>  <SCORE.INTER.norm>
-0.42829

>  <SCORE.INTRA>
-7.52853

>  <SCORE.INTRA.DIHEDRAL>
-12.375

>  <SCORE.INTRA.DIHEDRAL.0>
17.7811

>  <SCORE.INTRA.POLAR>
0

>  <SCORE.INTRA.POLAR.0>
0

>  <SCORE.INTRA.REPUL>
0

>  <SCORE.INTRA.REPUL.0>
0

>  <SCORE.INTRA.SOLV>
0.509457

>  <SCORE.INTRA.SOLV.lig_0>
-47.9565

>  <SCORE.INTRA.VDW>
-1.59574

>  <SCORE.INTRA.VDW.0>
0.515983

>  <SCORE.INTRA.norm>
-0.537752

>  <SCORE.RESTR>
0

>  <SCORE.RESTR.CAVITY>
0

>  <SCORE.RESTR.norm>
0

>  <SCORE.SYSTEM>
0

>  <SCORE.SYSTEM.CONST>
0

>  <SCORE.SYSTEM.DIHEDRAL>
0

>  <SCORE.SYSTEM.SOLV>
0

>  <SCORE.SYSTEM.norm>
0

>  <SCORE.heavy>
14

>  <SCORE.norm>
-0.966042

>  <RMSD>
5.859

$$$$
1xpf_lig
 OpenBabel02141814123D
libRbt.so/2013.1/901 2013/11/27
 14 13  0  0  0  0  0  0  0  0999 V2000
   22.5908    5.5423   64.8603 N   0  0  0  0  0  0  0  0  0  0  0  0
   22.3229    6.8934   64.4030 C   0  0  0  0  0  0  0  0  0  0  0  0
   23.5662    7.5547   63.9417 C   0  0  0  0  0  0  0  0  0  0  0  0
   23.9628    6.8782   62.6664 C   0  0  0  0  0  0  0  0  0  0  0  0
   22.9423    7.2520   61.6568 N   0  0  0  0  0  0  0  0  0  0  0  0
   22.9456    6.2796   60.5213 C   0  0  0  0  0  0  0  0  0  0  0  0
   22.1500    4.9960   60.8153 C   0  0  0  0  0  0  0  0  0  0  0  0
   22.1825    3.9654   59.6728 C   0  0  0  0  0  0  0  0  0  0  0  0
   21.4067    2.7271   60.0958 C   0  0  0  0  0  0  0  0  0  0  0  0
   22.2250    2.1139   61.1521 N   0  0  0  0  0  0  0  0  0  0  0  0
   21.7129    0.8754   61.8027 C   0  0  0  0  0  0  0  0  0  0  0  0
   22.9719    0.4331   62.5796 C   0  0  0  0  0  0  0  0  0  0  0  0
   22.9222   -0.8482   63.3726 C   0  0  0  0  0  0  0  0  0  0  0  0
   22.6474   -2.0399   62.5886 N   0  0  0  0  0  0  0  0  0  0  0  0
  1  2  1  0  0  0  0
  2  3  1  0  0  0  0
  3  4  1  0  0  0  0
  4  5  1  0  0  0  0
  5  6  1  0  0  0  0
  6  7  1  0  0  0  0
  7  8  1  0  0  0  0
  8  9  1  0  0  0  0
  9 10  1  0  0  0  0
 10 11  1  0  0  0  0
 11 12  1  0  0  0  0
 12 13  1  0  0  0  0
 13 14  1  0  0  0  0
M  END
>  <CHROM.1>
70.15346613,68.69437829,-159.66603029,81.71114282,-178.11390775,178.06165900
-69.08405058,178.74620625,168.45806078,-177.89318477,60.42469224,22.61065566
3.75900935,62.15190920,-1.17482872,1.36471025,2.83075006

>  <Name>
1xpf_lig

>  <RI>
0

>  <Rbt.Current_Directory>
/home/afrankz/demos/rdock_decoys_rna/rnas/1xpf

>  <Rbt.Executable>
rbdock ($Id: //depot/dev/client3/rdock/2013.1/src/exe/rbdock.cxx#4 $)

>  <Rbt.Library>
libRbt.so (2013.1, Build901 2013/11/27)

>  <Rbt.Parameter_File>
/export/apps/rDock/src/rDock_2013.1_src/data/scripts/dock_solv.prm

>  <Rbt.Receptor>
prm/pocket_docking_7.prm

>  <SCORE>
-7.33506

>  <SCORE.INTER>
0.333889

>  <SCORE.INTER.CONST>
1

>  <SCORE.INTER.POLAR>
-0.911957

>  <SCORE.INTER.ROT>
11

>  <SCORE.INTER.SOLV>
5.96205

>  <SCORE.INTER.VDW>
-9.65823

>  <SCORE.INTER.norm>
0.0238492

>  <SCORE.INTRA>
-7.66895

>  <SCORE.INTRA.DIHEDRAL>
-16.0016

>  <SCORE.INTRA.DIHEDRAL.0>
17.7811

>  <SCORE.INTRA.POLAR>
0

>  <SCORE.INTRA.POLAR.0>
0

>  <SCORE.INTRA.REPUL>
0

>  <SCORE.INTRA.REPUL.0>
0

>  <SCORE.INTRA.SOLV>
2.49552

>  <SCORE.INTRA.SOLV.lig_0>
-47.9565

>  <SCORE.INTRA.VDW>
-0.91588

>  <SCORE.INTRA.VDW.0>
0.515983

>  <SCORE.INTRA.norm>
-0.547782

>  <SCORE.RESTR>
0

>  <SCORE.RESTR.CAVITY>
0

>  <SCORE.RESTR.norm>
0

>  <SCORE.SYSTEM>
0

>  <SCORE.SYSTEM.CONST>
0

>  <SCORE.SYSTEM.DIHEDRAL>
0

>  <SCORE.SYSTEM.SOLV>
0

>  <SCORE.SYSTEM.norm>
0

>  <SCORE.heavy>
14

>  <SCORE.norm>
-0.523933

>  <RMSD>
5.884

$$$$
1xpf_lig
 OpenBabel02141814123D
libRbt.so/2013.1/901 2013/11/27
 14 13  0  0  0  0  0  0  0  0999 V2000
   19.7711   -1.5325   64.0808 N   0  0  0  0  0  0  0  0  0  0  0  0
   20.9292   -1.9536   64.8474 C   0  0  0  0  0  0  0  0  0  0  0  0
   22.1796   -1.4200   64.2578 C   0  0  0  0  0  0  0  0  0  0  0  0
   22.3428   -2.0850   62.9265 C   0  0  0  0  0  0  0  0  0  0  0  0
   23.6420   -1.6211   62.3810 N   0  0  0  0  0  0  0  0  0  0  0  0
   23.5529   -1.4322   60.9007 C   0  0  0  0  0  0  0  0  0  0  0  0
   24.5916   -0.4406   60.3487 C   0  0  0  0  0  0  0  0  0  0  0  0
   24.4735   -0.1904   58.8347 C   0  0  0  0  0  0  0  0  0  0  0  0
   25.5146    0.8367   58.4162 C   0  0  0  0  0  0  0  0  0  0  0  0
   25.0572    2.0998   59.0133 N   0  0  0  0  0  0  0  0  0  0  0  0
   24.0407    2.8965   58.2705 C   0  0  0  0  0  0  0  0  0  0  0  0
   24.9548    3.6575   57.2859 C   0  0  0  0  0  0  0  0  0  0  0  0
   24.3571    4.7532   56.4402 C   0  0  0  0  0  0  0  0  0  0  0  0
   23.8028    5.8676   57.1891 N   0  0  0  0  0  0  0  0  0  0  0  0
  1  2  1  0  0  0  0
  2  3  1  0  0  0  0
  3  4  1  0  0  0  0
  4  5  1  0  0  0  0
  5  6  1  0  0  0  0
  6  7  1  0  0  0  0
  7  8  1  0  0  0  0
  8  9  1  0  0  0  0
  9 10  1  0  0  0  0
 10 11  1  0  0  0  0
 11 12  1  0  0  0  0
 12 13  1  0  0  0  0
 13 14  1  0  0  0  0
M  END
>  <CHROM.1>
-66.52256219,-176.14309661,-143.13503803,156.04598886,-177.54340740,178.06354652
-69.50898548,-84.04405461,-83.18896989,-171.54940563,61.59305381,23.51518147
0.67376441,60.37079322,1.99395144,-0.67593207,2.57627017

>  <Name>
1xpf_lig

>  <RI>
0

>  <Rbt.Current_Directory>
/home/afrankz/demos/rdock_decoys_rna/rnas/1xpf

>  <Rbt.Executable>
rbdock ($Id: //depot/dev/client3/rdock/2013.1/src/exe/rbdock.cxx#4 $)

>  <Rbt.Library>
libRbt.so (2013.1, Build901 2013/11/27)

>  <Rbt.Parameter_File>
/export/apps/rDock/src/rDock_2013.1_src/data/scripts/dock_solv.prm

>  <Rbt.Receptor>
prm/pocket_docking_7.prm

>  <SCORE>
-11.9202

>  <SCORE.INTER>
-4.61708

>  <SCORE.INTER.CONST>
1

>  <SCORE.INTER.POLAR>
-0.894427

>  <SCORE.INTER.ROT>
11

>  <SCORE.INTER.SOLV>
6.43079

>  <SCORE.INTER.VDW>
-13.1736

>  <SCORE.INTER.norm>
-0.329792

>  <SCORE.INTRA>
-7.30309

>  <SCORE.INTRA.DIHEDRAL>
-14.8859

>  <SCORE.INTRA.DIHEDRAL.0>
17.7811

>  <SCORE.INTRA.POLAR>
0

>  <SCORE.INTRA.POLAR.0>
0

>  <SCORE.INTRA.REPUL>
0

>  <SCORE.INTRA.REPUL.0>
0

>  <SCORE.INTRA.SOLV>
1.00913

>  <SCORE.INTRA.SOLV.lig_0>
-47.9565

>  <SCORE.INTRA.VDW>
-0.364714

>  <SCORE.INTRA.VDW.0>
0.515983

>  <SCORE.INTRA.norm>
-0.521649

>  <SCORE.RESTR>
0

>  <SCORE.RESTR.CAVITY>
0

>  <SCORE.RESTR.norm>
0

>  <SCORE.SYSTEM>
0

>  <SCORE.SYSTEM.CONST>
0

>  <SCORE.SYSTEM.DIHEDRAL>
0

>  <SCORE.SYSTEM.SOLV>
0

>  <SCORE.SYSTEM.norm>
0

>  <SCORE.heavy>
14

>  <SCORE.norm>
-0.851441

>  <RMSD>
5.912

$$$$
1xpf_lig
 OpenBabel02141814123D
libRbt.so/2013.1/901 2013/11/27
 14 13  0  0  0  0  0  0  0  0999 V2000
   26.8171    0.2655   59.0554 N   0  0  0  0  0  0  0  0  0  0  0  0
   25.5956   -0.4917   59.2572 C   0  0  0  0  0  0  0  0  0  0  0  0
   24.4142    0.4023   59.2829 C   0  0  0  0  0  0  0  0  0  0  0  0
   23.2752   -0.4088   59.8179 C   0  0  0  0  0  0  0  0  0  0  0  0
   22.0583    0.4268   59.6713 N   0  0  0  0  0  0  0  0  0  0  0  0
   20.8551   -0.3044   60.1740 C   0  0  0  0  0  0  0  0  0  0  0  0
   19.5362    0.1973   59.5611 C   0  0  0  0  0  0  0  0  0  0  0  0
   18.2767   -0.3847   60.2270 C   0  0  0  0  0  0  0  0  0  0  0  0
   17.0429    0.1759   59.5360 C   0  0  0  0  0  0  0  0  0  0  0  0
   15.9087   -0.3374   60.3180 N   0  0  0  0  0  0  0  0  0  0  0  0
   14.5334   -0.0823   59.8051 C   0  0  0  0  0  0  0  0  0  0  0  0
   13.8896    0.5586   61.0537 C   0  0  0  0  0  0  0  0  0  0  0  0
   13.6884   -0.2906   62.2831 C   0  0  0  0  0  0  0  0  0  0  0  0
   12.8523   -1.4618   62.0847 N   0  0  0  0  0  0  0  0  0  0  0  0
  1  2  1  0  0  0  0
  2  3  1  0  0  0  0
  3  4  1  0  0  0  0
  4  5  1  0  0  0  0
  5  6  1  0  0  0  0
  6  7  1  0  0  0  0
  7  8  1  0  0  0  0
  8  9  1  0  0  0  0
  9 10  1  0  0  0  0
 10 11  1  0  0  0  0
 11 12  1  0  0  0  0
 12 13  1  0  0  0  0
 13 14  1  0  0  0  0
M  END
>  <CHROM.1>
-166.60323293,-172.52226331,179.65054143,-156.29848444,-170.77755897,-179.74185456
-174.93067249,-173.54143142,-127.04273497,-66.82552817,-59.23546716,19.19589783
-0.12389508,60.15190262,-0.15870577,-0.06081824,2.13317195

>  <Name>
1xpf_lig

>  <RI>
0

>  <Rbt.Current_Directory>
/home/afrankz/demos/rdock_decoys_rna/rnas/1xpf

>  <Rbt.Executable>
rbdock ($Id: //depot/dev/client3/rdock/2013.1/src/exe/rbdock.cxx#4 $)

>  <Rbt.Library>
libRbt.so (2013.1, Build901 2013/11/27)

>  <Rbt.Parameter_File>
/export/apps/rDock/src/rDock_2013.1_src/data/scripts/dock_solv.prm

>  <Rbt.Receptor>
prm/pocket_docking_8.prm

>  <SCORE>
-11.7776

>  <SCORE.INTER>
-3.03085

>  <SCORE.INTER.CONST>
1

>  <SCORE.INTER.POLAR>
-0.893997

>  <SCORE.INTER.ROT>
11

>  <SCORE.INTER.SOLV>
9.30742

>  <SCORE.INTER.VDW>
-13.0764

>  <SCORE.INTER.norm>
-0.21649

>  <SCORE.INTRA>
-8.74672

>  <SCORE.INTRA.DIHEDRAL>
-14.732

>  <SCORE.INTRA.DIHEDRAL.0>
17.7811

>  <SCORE.INTRA.POLAR>
0

>  <SCORE.INTRA.POLAR.0>
0

>  <SCORE.INTRA.REPUL>
0

>  <SCORE.INTRA.REPUL.0>
0

>  <SCORE.INTRA.SOLV>
0.678475

>  <SCORE.INTRA.SOLV.lig_0>
-47.9565

>  <SCORE.INTRA.VDW>
-1.71994

>  <SCORE.INTRA.VDW.0>
0.515983

>  <SCORE.INTRA.norm>
-0.624765

>  <SCORE.RESTR>
0

>  <SCORE.RESTR.CAVITY>
0

>  <SCORE.RESTR.norm>
0

>  <SCORE.SYSTEM>
0

>  <SCORE.SYSTEM.CONST>
0

>  <SCORE.SYSTEM.DIHEDRAL>
0

>  <SCORE.SYSTEM.SOLV>
0

>  <SCORE.SYSTEM.norm>
0

>  <SCORE.heavy>
14

>  <SCORE.norm>
-0.841255

>  <RMSD>
5.920

$$$$
1xpf_lig
 OpenBabel02141814123D
libRbt.so/2013.1/901 2013/11/27
 14 13  0  0  0  0  0  0  0  0999 V2000
   16.4069   -5.7366   69.8272 N   0  0  0  0  0  0  0  0  0  0  0  0
   16.2171   -4.7315   68.7977 C   0  0  0  0  0  0  0  0  0  0  0  0
   17.0323   -3.5256   69.0754 C   0  0  0  0  0  0  0  0  0  0  0  0
   16.7365   -2.5478   67.9810 C   0  0  0  0  0  0  0  0  0  0  0  0
   17.6753   -1.4140   68.1648 N   0  0  0  0  0  0  0  0  0  0  0  0
   17.4891   -0.3972   67.0848 C   0  0  0  0  0  0  0  0  0  0  0  0
   18.8115    0.0709   66.4532 C   0  0  0  0  0  0  0  0  0  0  0  0
   19.7959    0.6972   67.4569 C   0  0  0  0  0  0  0  0  0  0  0  0
   19.2443    2.0341   67.9285 C   0  0  0  0  0  0  0  0  0  0  0  0
   20.2324    2.5265   68.8995 N   0  0  0  0  0  0  0  0  0  0  0  0
   19.9456    3.8104   69.5987 C   0  0  0  0  0  0  0  0  0  0  0  0
   21.0029    3.7526   70.7226 C   0  0  0  0  0  0  0  0  0  0  0  0
   22.4490    3.9943   70.3715 C   0  0  0  0  0  0  0  0  0  0  0  0
   22.7414    5.3287   69.8773 N   0  0  0  0  0  0  0  0  0  0  0  0
  1  2  1  0  0  0  0
  2  3  1  0  0  0  0
  3  4  1  0  0  0  0
  4  5  1  0  0  0  0
  5  6  1  0  0  0  0
  6  7  1  0  0  0  0
  7  8  1  0  0  0  0
  8  9  1  0  0  0  0
  9 10  1  0  0  0  0
 10 11  1  0  0  0  0
 11 12  1  0  0  0  0
 12 13  1  0  0  0  0
 13 14  1  0  0  0  0
M  END
>  <CHROM.1>
-178.57434509,-173.09904963,178.08458826,-133.01446264,-58.77045238,-69.34059090
178.57666146,-177.31389345,166.49441190,73.76117095,64.21939942,18.98418700
0.27588948,68.73117064,-2.77138709,-0.98840445,-1.00371593

>  <Name>
1xpf_lig

>  <RI>
0

>  <Rbt.Current_Directory>
/home/afrankz/demos/rdock_decoys_rna/rnas/1xpf

>  <Rbt.Executable>
rbdock ($Id: //depot/dev/client3/rdock/2013.1/src/exe/rbdock.cxx#4 $)

>  <Rbt.Library>
libRbt.so (2013.1, Build901 2013/11/27)

>  <Rbt.Parameter_File>
/export/apps/rDock/src/rDock_2013.1_src/data/scripts/dock_solv.prm

>  <Rbt.Receptor>
prm/pocket_docking_8.prm

>  <SCORE>
-15.7714

>  <SCORE.INTER>
-7.35163

>  <SCORE.INTER.CONST>
1

>  <SCORE.INTER.POLAR>
-0.8

>  <SCORE.INTER.ROT>
11

>  <SCORE.INTER.SOLV>
8.97152

>  <SCORE.INTER.VDW>
-16.1583

>  <SCORE.INTER.norm>
-0.525116

>  <SCORE.INTRA>
-8.41978

>  <SCORE.INTRA.DIHEDRAL>
-15.2512

>  <SCORE.INTRA.DIHEDRAL.0>
17.7811

>  <SCORE.INTRA.POLAR>
0

>  <SCORE.INTRA.POLAR.0>
0

>  <SCORE.INTRA.REPUL>
0

>  <SCORE.INTRA.REPUL.0>
0

>  <SCORE.INTRA.SOLV>
1.14967

>  <SCORE.INTRA.SOLV.lig_0>
-47.9565

>  <SCORE.INTRA.VDW>
-1.36903

>  <SCORE.INTRA.VDW.0>
0.515983

>  <SCORE.INTRA.norm>
-0.601413

>  <SCORE.RESTR>
0

>  <SCORE.RESTR.CAVITY>
0

>  <SCORE.RESTR.norm>
0

>  <SCORE.SYSTEM>
0

>  <SCORE.SYSTEM.CONST>
0

>  <SCORE.SYSTEM.DIHEDRAL>
0

>  <SCORE.SYSTEM.SOLV>
0

>  <SCORE.SYSTEM.norm>
0

>  <SCORE.heavy>
14

>  <SCORE.norm>
-1.12653

>  <RMSD>
5.939

$$$$
1xpf_lig
 OpenBabel02141814123D
libRbt.so/2013.1/901 2013/11/27
 14 13  0  0  0  0  0  0  0  0999 V2000
   23.9470    6.6819   62.5361 N   0  0  0  0  0  0  0  0  0  0  0  0
   23.0641    6.2176   61.4820 C   0  0  0  0  0  0  0  0  0  0  0  0
   21.8082    5.6678   62.0444 C   0  0  0  0  0  0  0  0  0  0  0  0
   20.9213    6.8382   62.3359 C   0  0  0  0  0  0  0  0  0  0  0  0
   21.4947    7.5146   63.5252 N   0  0  0  0  0  0  0  0  0  0  0  0
   20.4131    7.9012   64.4820 C   0  0  0  0  0  0  0  0  0  0  0  0
   20.2653    6.9255   65.6623 C   0  0  0  0  0  0  0  0  0  0  0  0
   19.8814    5.4946   65.2455 C   0  0  0  0  0  0  0  0  0  0  0  0
   19.9414    4.5869   66.4648 C   0  0  0  0  0  0  0  0  0  0  0  0
   19.6485    3.2425   65.9469 N   0  0  0  0  0  0  0  0  0  0  0  0
   19.7755    2.0900   66.8823 C   0  0  0  0  0  0  0  0  0  0  0  0
   19.4439    0.9233   65.9267 C   0  0  0  0  0  0  0  0  0  0  0  0
   19.4623   -0.4842   66.4665 C   0  0  0  0  0  0  0  0  0  0  0  0
   18.4595   -0.7615   67.4802 N   0  0  0  0  0  0  0  0  0  0  0  0
  1  2  1  0  0  0  0
  2  3  1  0  0  0  0
  3  4  1  0  0  0  0
  4  5  1  0  0  0  0
  5  6  1  0  0  0  0
  6  7  1  0  0  0  0
  7  8  1  0  0  0  0
  8  9  1  0  0  0  0
  9 10  1  0  0  0  0
 10 11  1  0  0  0  0
 11 12  1  0  0  0  0
 12 13  1  0  0  0  0
 13 14  1  0  0  0  0
M  END
>  <CHROM.1>
81.40731809,-72.68338568,-136.91952456,100.01041605,-61.97377175,172.72034252
-176.37380389,173.55212483,-177.78216416,179.61724921,64.59805321,20.60890613
4.48857779,64.74857879,-0.95110167,-0.92424472,3.10678711

>  <Name>
1xpf_lig

>  <RI>
0

>  <Rbt.Current_Directory>
/home/afrankz/demos/rdock_decoys_rna/rnas/1xpf

>  <Rbt.Executable>
rbdock ($Id: //depot/dev/client3/rdock/2013.1/src/exe/rbdock.cxx#4 $)

>  <Rbt.Library>
libRbt.so (2013.1, Build901 2013/11/27)

>  <Rbt.Parameter_File>
/export/apps/rDock/src/rDock_2013.1_src/data/scripts/dock_solv.prm

>  <Rbt.Receptor>
prm/pocket_docking_7.prm

>  <SCORE>
-7.74216

>  <SCORE.INTER>
-0.846145

>  <SCORE.INTER.CONST>
1

>  <SCORE.INTER.POLAR>
-0.8

>  <SCORE.INTER.ROT>
11

>  <SCORE.INTER.SOLV>
10.7857

>  <SCORE.INTER.VDW>
-12.426

>  <SCORE.INTER.norm>
-0.0604389

>  <SCORE.INTRA>
-6.89602

>  <SCORE.INTRA.DIHEDRAL>
-13.3529

>  <SCORE.INTRA.DIHEDRAL.0>
17.7811

>  <SCORE.INTRA.POLAR>
0

>  <SCORE.INTRA.POLAR.0>
0

>  <SCORE.INTRA.REPUL>
0

>  <SCORE.INTRA.REPUL.0>
0

>  <SCORE.INTRA.SOLV>
2.81634

>  <SCORE.INTRA.SOLV.lig_0>
-47.9565

>  <SCORE.INTRA.VDW>
-1.62772

>  <SCORE.INTRA.VDW.0>
0.515983

>  <SCORE.INTRA.norm>
-0.492573

>  <SCORE.RESTR>
0

>  <SCORE.RESTR.CAVITY>
0

>  <SCORE.RESTR.norm>
0

>  <SCORE.SYSTEM>
0

>  <SCORE.SYSTEM.CONST>
0

>  <SCORE.SYSTEM.DIHEDRAL>
0

>  <SCORE.SYSTEM.SOLV>
0

>  <SCORE.SYSTEM.norm>
0

>  <SCORE.heavy>
14

>  <SCORE.norm>
-0.553012

>  <RMSD>
5.941

$$$$
1xpf_lig
 OpenBabel02141814123D
libRbt.so/2013.1/901 2013/11/27
 14 13  0  0  0  0  0  0  0  0999 V2000
   19.6252    1.1828   66.3351 N   0  0  0  0  0  0  0  0  0  0  0  0
   18.9922    0.3002   67.2976 C   0  0  0  0  0  0  0  0  0  0  0  0
   17.6040   -0.0213   66.8913 C   0  0  0  0  0  0  0  0  0  0  0  0
   17.0043   -0.8169   68.0088 C   0  0  0  0  0  0  0  0  0  0  0  0
   17.5762   -2.1819   67.9075 N   0  0  0  0  0  0  0  0  0  0  0  0
   16.8584   -2.9762   66.8641 C   0  0  0  0  0  0  0  0  0  0  0  0
   16.3799   -4.3499   67.3651 C   0  0  0  0  0  0  0  0  0  0  0  0
   16.0011   -5.3283   66.2392 C   0  0  0  0  0  0  0  0  0  0  0  0
   17.2692   -5.8182   65.5565 C   0  0  0  0  0  0  0  0  0  0  0  0
   16.8669   -7.0447   64.8526 N   0  0  0  0  0  0  0  0  0  0  0  0
   16.2672   -6.9072   63.4958 C   0  0  0  0  0  0  0  0  0  0  0  0
   14.8919   -7.5670   63.7357 C   0  0  0  0  0  0  0  0  0  0  0  0
   14.3640   -8.5376   62.7099 C   0  0  0  0  0  0  0  0  0  0  0  0
   15.1595   -9.7417   62.5439 N   0  0  0  0  0  0  0  0  0  0  0  0
  1  2  1  0  0  0  0
  2  3  1  0  0  0  0
  3  4  1  0  0  0  0
  4  5  1  0  0  0  0
  5  6  1  0  0  0  0
  6  7  1  0  0  0  0
  7  8  1  0  0  0  0
  8  9  1  0  0  0  0
  9 10  1  0  0  0  0
 10 11  1  0  0  0  0
 11 12  1  0  0  0  0
 12 13  1  0  0  0  0
 13 14  1  0  0  0  0
M  END
>  <CHROM.1>
-174.52736180,-75.89869564,-80.64392079,-128.93210884,-163.79025894,73.10155848
161.11301736,84.86864058,-120.60780641,-135.54630560,63.64452355,16.77549941
-4.27192770,65.70034492,-0.95390865,-1.00244721,-2.15564129

>  <Name>
1xpf_lig

>  <RI>
0

>  <Rbt.Current_Directory>
/home/afrankz/demos/rdock_decoys_rna/rnas/1xpf

>  <Rbt.Executable>
rbdock ($Id: //depot/dev/client3/rdock/2013.1/src/exe/rbdock.cxx#4 $)

>  <Rbt.Library>
libRbt.so (2013.1, Build901 2013/11/27)

>  <Rbt.Parameter_File>
/export/apps/rDock/src/rDock_2013.1_src/data/scripts/dock_solv.prm

>  <Rbt.Receptor>
prm/blind_docking_100.prm

>  <SCORE>
-7.26658

>  <SCORE.INTER>
-4.46363

>  <SCORE.INTER.CONST>
1

>  <SCORE.INTER.POLAR>
-1.69443

>  <SCORE.INTER.ROT>
11

>  <SCORE.INTER.SOLV>
15.9974

>  <SCORE.INTER.VDW>
-13.5935

>  <SCORE.INTER.norm>
-0.318831

>  <SCORE.INTRA>
-2.88614

>  <SCORE.INTRA.DIHEDRAL>
-6.09625

>  <SCORE.INTRA.DIHEDRAL.0>
17.7811

>  <SCORE.INTRA.POLAR>
0

>  <SCORE.INTRA.POLAR.0>
0

>  <SCORE.INTRA.REPUL>
0

>  <SCORE.INTRA.REPUL.0>
0

>  <SCORE.INTRA.SOLV>
0.819622

>  <SCORE.INTRA.SOLV.lig_0>
-47.9565

>  <SCORE.INTRA.VDW>
-0.247831

>  <SCORE.INTRA.VDW.0>
0.515983

>  <SCORE.INTRA.norm>
-0.206153

>  <SCORE.RESTR>
0.0831887

>  <SCORE.RESTR.CAVITY>
0.0831887

>  <SCORE.RESTR.norm>
0.00594205

>  <SCORE.SYSTEM>
0

>  <SCORE.SYSTEM.CONST>
0

>  <SCORE.SYSTEM.DIHEDRAL>
0

>  <SCORE.SYSTEM.SOLV>
0

>  <SCORE.SYSTEM.norm>
0

>  <SCORE.heavy>
14

>  <SCORE.norm>
-0.519042

>  <RMSD>
5.943

$$$$
1xpf_lig
 OpenBabel02141814123D
libRbt.so/2013.1/901 2013/11/27
 14 13  0  0  0  0  0  0  0  0999 V2000
   18.6967    1.0148   69.7573 N   0  0  0  0  0  0  0  0  0  0  0  0
   19.6799    1.7164   68.9528 C   0  0  0  0  0  0  0  0  0  0  0  0
   19.6216    1.2764   67.5390 C   0  0  0  0  0  0  0  0  0  0  0  0
   20.2429    2.3685   66.7249 C   0  0  0  0  0  0  0  0  0  0  0  0
   20.2013    1.9161   65.3127 N   0  0  0  0  0  0  0  0  0  0  0  0
   20.6547    3.0080   64.3977 C   0  0  0  0  0  0  0  0  0  0  0  0
   19.4953    3.8255   63.8023 C   0  0  0  0  0  0  0  0  0  0  0  0
   18.8024    4.7553   64.8142 C   0  0  0  0  0  0  0  0  0  0  0  0
   19.7370    5.9060   65.1555 C   0  0  0  0  0  0  0  0  0  0  0  0
   19.7435    6.7535   63.9542 N   0  0  0  0  0  0  0  0  0  0  0  0
   20.9123    6.6552   63.0357 C   0  0  0  0  0  0  0  0  0  0  0  0
   21.8562    7.6931   63.6809 C   0  0  0  0  0  0  0  0  0  0  0  0
   23.3162    7.6780   63.3056 C   0  0  0  0  0  0  0  0  0  0  0  0
   23.5983    8.0791   61.9382 N   0  0  0  0  0  0  0  0  0  0  0  0
  1  2  1  0  0  0  0
  2  3  1  0  0  0  0
  3  4  1  0  0  0  0
  4  5  1  0  0  0  0
  5  6  1  0  0  0  0
  6  7  1  0  0  0  0
  7  8  1  0  0  0  0
  8  9  1  0  0  0  0
  9 10  1  0  0  0  0
 10 11  1  0  0  0  0
 11 12  1  0  0  0  0
 12 13  1  0  0  0  0
 13 14  1  0  0  0  0
M  END
>  <CHROM.1>
158.58036617,179.17221811,173.36257120,-95.88431430,72.04869197,71.00654685
72.50109130,-101.75541373,-87.71886082,163.82222505,68.54500850,20.46840876
4.47472983,65.16932635,-1.92910864,-0.35373276,-0.83392447

>  <Name>
1xpf_lig

>  <RI>
0

>  <Rbt.Current_Directory>
/home/afrankz/demos/rdock_decoys_rna/rnas/1xpf

>  <Rbt.Executable>
rbdock ($Id: //depot/dev/client3/rdock/2013.1/src/exe/rbdock.cxx#4 $)

>  <Rbt.Library>
libRbt.so (2013.1, Build901 2013/11/27)

>  <Rbt.Parameter_File>
/export/apps/rDock/src/rDock_2013.1_src/data/scripts/dock_solv.prm

>  <Rbt.Receptor>
prm/blind_docking_100.prm

>  <SCORE>
-8.67615

>  <SCORE.INTER>
-2.88339

>  <SCORE.INTER.CONST>
1

>  <SCORE.INTER.POLAR>
-1.60936

>  <SCORE.INTER.ROT>
11

>  <SCORE.INTER.SOLV>
19.009

>  <SCORE.INTER.VDW>
-13.8274

>  <SCORE.INTER.norm>
-0.205956

>  <SCORE.INTRA>
-6.04213

>  <SCORE.INTRA.DIHEDRAL>
-11.1244

>  <SCORE.INTRA.DIHEDRAL.0>
17.7811

>  <SCORE.INTRA.POLAR>
0

>  <SCORE.INTRA.POLAR.0>
0

>  <SCORE.INTRA.REPUL>
0

>  <SCORE.INTRA.REPUL.0>
0

>  <SCORE.INTRA.SOLV>
0.742625

>  <SCORE.INTRA.SOLV.lig_0>
-47.9565

>  <SCORE.INTRA.VDW>
-0.851231

>  <SCORE.INTRA.VDW.0>
0.515983

>  <SCORE.INTRA.norm>
-0.431581

>  <SCORE.RESTR>
0.249367

>  <SCORE.RESTR.CAVITY>
0.249367

>  <SCORE.RESTR.norm>
0.0178119

>  <SCORE.SYSTEM>
0

>  <SCORE.SYSTEM.CONST>
0

>  <SCORE.SYSTEM.DIHEDRAL>
0

>  <SCORE.SYSTEM.SOLV>
0

>  <SCORE.SYSTEM.norm>
0

>  <SCORE.heavy>
14

>  <SCORE.norm>
-0.619725

>  <RMSD>
5.948

$$$$
1xpf_lig
 OpenBabel02141814123D
libRbt.so/2013.1/901 2013/11/27
 14 13  0  0  0  0  0  0  0  0999 V2000
   15.4707  -10.1245   64.6743 N   0  0  0  0  0  0  0  0  0  0  0  0
   16.4774   -9.0822   64.7534 C   0  0  0  0  0  0  0  0  0  0  0  0
   15.8554   -7.7600   65.0001 C   0  0  0  0  0  0  0  0  0  0  0  0
   16.9779   -6.7864   65.1830 C   0  0  0  0  0  0  0  0  0  0  0  0
   16.3521   -5.4685   65.4514 N   0  0  0  0  0  0  0  0  0  0  0  0
   16.5025   -5.0990   66.8921 C   0  0  0  0  0  0  0  0  0  0  0  0
   16.3961   -3.5857   67.1481 C   0  0  0  0  0  0  0  0  0  0  0  0
   16.4841   -3.1958   68.6342 C   0  0  0  0  0  0  0  0  0  0  0  0
   16.3116   -1.6901   68.7659 C   0  0  0  0  0  0  0  0  0  0  0  0
   17.5797   -1.1233   68.2840 N   0  0  0  0  0  0  0  0  0  0  0  0
   17.6046   -0.5262   66.9193 C   0  0  0  0  0  0  0  0  0  0  0  0
   19.0424    0.0363   66.8923 C   0  0  0  0  0  0  0  0  0  0  0  0
   19.3283    1.3315   67.6090 C   0  0  0  0  0  0  0  0  0  0  0  0
   18.9021    1.3670   68.9973 N   0  0  0  0  0  0  0  0  0  0  0  0
  1  2  1  0  0  0  0
  2  3  1  0  0  0  0
  3  4  1  0  0  0  0
  4  5  1  0  0  0  0
  5  6  1  0  0  0  0
  6  7  1  0  0  0  0
  7  8  1  0  0  0  0
  8  9  1  0  0  0  0
  9 10  1  0  0  0  0
 10 11  1  0  0  0  0
 11 12  1  0  0  0  0
 12 13  1  0  0  0  0
 13 14  1  0  0  0  0
M  END
>  <CHROM.1>
175.14775999,-179.11215732,106.45057393,157.45806805,177.32851072,-177.75484097
-73.90085815,103.24985576,175.15706991,-78.40694381,52.63305061,17.09178962
-3.69329734,66.80029347,1.94279590,-0.83788728,-2.52251685

>  <Name>
1xpf_lig

>  <RI>
0

>  <Rbt.Current_Directory>
/home/afrankz/demos/rdock_decoys_rna/rnas/1xpf

>  <Rbt.Executable>
rbdock ($Id: //depot/dev/client3/rdock/2013.1/src/exe/rbdock.cxx#4 $)

>  <Rbt.Library>
libRbt.so (2013.1, Build901 2013/11/27)

>  <Rbt.Parameter_File>
/export/apps/rDock/src/rDock_2013.1_src/data/scripts/dock_solv.prm

>  <Rbt.Receptor>
prm/blind_docking_80.prm

>  <SCORE>
-15.2692

>  <SCORE.INTER>
-8.4171

>  <SCORE.INTER.CONST>
1

>  <SCORE.INTER.POLAR>
-1.59049

>  <SCORE.INTER.ROT>
11

>  <SCORE.INTER.SOLV>
15.0602

>  <SCORE.INTER.VDW>
-16.2631

>  <SCORE.INTER.norm>
-0.601221

>  <SCORE.INTRA>
-6.85206

>  <SCORE.INTRA.DIHEDRAL>
-13.1239

>  <SCORE.INTRA.DIHEDRAL.0>
17.7811

>  <SCORE.INTRA.POLAR>
0

>  <SCORE.INTRA.POLAR.0>
0

>  <SCORE.INTRA.REPUL>
0

>  <SCORE.INTRA.REPUL.0>
0

>  <SCORE.INTRA.SOLV>
2.33088

>  <SCORE.INTRA.SOLV.lig_0>
-47.9565

>  <SCORE.INTRA.VDW>
-1.45554

>  <SCORE.INTRA.VDW.0>
0.515983

>  <SCORE.INTRA.norm>
-0.489433

>  <SCORE.RESTR>
0

>  <SCORE.RESTR.CAVITY>
0

>  <SCORE.RESTR.norm>
0

>  <SCORE.SYSTEM>
0

>  <SCORE.SYSTEM.CONST>
0

>  <SCORE.SYSTEM.DIHEDRAL>
0

>  <SCORE.SYSTEM.SOLV>
0

>  <SCORE.SYSTEM.norm>
0

>  <SCORE.heavy>
14

>  <SCORE.norm>
-1.09065

>  <RMSD>
5.951

$$$$
1xpf_lig
 OpenBabel02141814123D
libRbt.so/2013.1/901 2013/11/27
 14 13  0  0  0  0  0  0  0  0999 V2000
   18.0314   -0.0235   68.3062 N   0  0  0  0  0  0  0  0  0  0  0  0
   18.6438    0.4091   67.0636 C   0  0  0  0  0  0  0  0  0  0  0  0
   19.5195    1.5842   67.2835 C   0  0  0  0  0  0  0  0  0  0  0  0
   19.9163    2.0817   65.9284 C   0  0  0  0  0  0  0  0  0  0  0  0
   20.5449    3.4094   66.1351 N   0  0  0  0  0  0  0  0  0  0  0  0
   19.6997    4.4893   65.5398 C   0  0  0  0  0  0  0  0  0  0  0  0
   20.3877    5.2343   64.3828 C   0  0  0  0  0  0  0  0  0  0  0  0
   20.7297    4.3388   63.1789 C   0  0  0  0  0  0  0  0  0  0  0  0
   21.3599    5.1901   62.0870 C   0  0  0  0  0  0  0  0  0  0  0  0
   21.7261    4.2354   61.0307 N   0  0  0  0  0  0  0  0  0  0  0  0
   22.1741    4.7818   59.7192 C   0  0  0  0  0  0  0  0  0  0  0  0
   23.5957    4.1836   59.6440 C   0  0  0  0  0  0  0  0  0  0  0  0
   23.8156    2.9363   58.8263 C   0  0  0  0  0  0  0  0  0  0  0  0
   22.9856    1.8055   59.2040 N   0  0  0  0  0  0  0  0  0  0  0  0
  1  2  1  0  0  0  0
  2  3  1  0  0  0  0
  3  4  1  0  0  0  0
  4  5  1  0  0  0  0
  5  6  1  0  0  0  0
  6  7  1  0  0  0  0
  7  8  1  0  0  0  0
  8  9  1  0  0  0  0
  9 10  1  0  0  0  0
 10 11  1  0  0  0  0
 11 12  1  0  0  0  0
 12 13  1  0  0  0  0
 13 14  1  0  0  0  0
M  END
>  <CHROM.1>
-170.95025006,168.26090211,-113.01310493,-116.14595306,61.88346814,178.13960832
176.39894570,170.42206424,119.84821726,98.83120278,-56.51274217,20.93791711
3.19004819,63.45201778,-2.83949810,1.08966150,-0.04249785

>  <Name>
1xpf_lig

>  <RI>
0

>  <Rbt.Current_Directory>
/home/afrankz/demos/rdock_decoys_rna/rnas/1xpf

>  <Rbt.Executable>
rbdock ($Id: //depot/dev/client3/rdock/2013.1/src/exe/rbdock.cxx#4 $)

>  <Rbt.Library>
libRbt.so (2013.1, Build901 2013/11/27)

>  <Rbt.Parameter_File>
/export/apps/rDock/src/rDock_2013.1_src/data/scripts/dock_solv.prm

>  <Rbt.Receptor>
prm/pocket_docking_5.prm

>  <SCORE>
-12.3139

>  <SCORE.INTER>
-6.47912

>  <SCORE.INTER.CONST>
1

>  <SCORE.INTER.POLAR>
-2.32928

>  <SCORE.INTER.ROT>
11

>  <SCORE.INTER.SOLV>
13.5839

>  <SCORE.INTER.VDW>
-12.0165

>  <SCORE.INTER.norm>
-0.462795

>  <SCORE.INTRA>
-5.8348

>  <SCORE.INTRA.DIHEDRAL>
-9.23589

>  <SCORE.INTRA.DIHEDRAL.0>
17.7811

>  <SCORE.INTRA.POLAR>
0

>  <SCORE.INTRA.POLAR.0>
0

>  <SCORE.INTRA.REPUL>
0

>  <SCORE.INTRA.REPUL.0>
0

>  <SCORE.INTRA.SOLV>
1.36097

>  <SCORE.INTRA.SOLV.lig_0>
-47.9565

>  <SCORE.INTRA.VDW>
-1.89734

>  <SCORE.INTRA.VDW.0>
0.515983

>  <SCORE.INTRA.norm>
-0.416772

>  <SCORE.RESTR>
0

>  <SCORE.RESTR.CAVITY>
0

>  <SCORE.RESTR.norm>
0

>  <SCORE.SYSTEM>
0

>  <SCORE.SYSTEM.CONST>
0

>  <SCORE.SYSTEM.DIHEDRAL>
0

>  <SCORE.SYSTEM.SOLV>
0

>  <SCORE.SYSTEM.norm>
0

>  <SCORE.heavy>
14

>  <SCORE.norm>
-0.879566

>  <RMSD>
5.957

$$$$
1xpf_lig
 OpenBabel02141814123D
libRbt.so/2013.1/901 2013/11/27
 14 13  0  0  0  0  0  0  0  0999 V2000
   19.6326    3.4220   71.2085 N   0  0  0  0  0  0  0  0  0  0  0  0
   19.0695    2.8111   70.0186 C   0  0  0  0  0  0  0  0  0  0  0  0
   20.0393    1.8861   69.3864 C   0  0  0  0  0  0  0  0  0  0  0  0
   19.4296    1.4462   68.0917 C   0  0  0  0  0  0  0  0  0  0  0  0
   18.4518    0.3823   68.4272 N   0  0  0  0  0  0  0  0  0  0  0  0
   17.8765   -0.2139   67.1828 C   0  0  0  0  0  0  0  0  0  0  0  0
   18.8295   -1.1962   66.4800 C   0  0  0  0  0  0  0  0  0  0  0  0
   19.9514   -0.5126   65.6784 C   0  0  0  0  0  0  0  0  0  0  0  0
   20.8017   -1.5777   65.0026 C   0  0  0  0  0  0  0  0  0  0  0  0
   21.6113   -0.8436   64.0191 N   0  0  0  0  0  0  0  0  0  0  0  0
   22.7401   -1.5637   63.3658 C   0  0  0  0  0  0  0  0  0  0  0  0
   22.3961   -1.3224   61.8800 C   0  0  0  0  0  0  0  0  0  0  0  0
   22.5589    0.0653   61.3137 C   0  0  0  0  0  0  0  0  0  0  0  0
   22.2093    0.1955   59.9098 N   0  0  0  0  0  0  0  0  0  0  0  0
  1  2  1  0  0  0  0
  2  3  1  0  0  0  0
  3  4  1  0  0  0  0
  4  5  1  0  0  0  0
  5  6  1  0  0  0  0
  6  7  1  0  0  0  0
  7  8  1  0  0  0  0
  8  9  1  0  0  0  0
  9 10  1  0  0  0  0
 10 11  1  0  0  0  0
 11 12  1  0  0  0  0
 12 13  1  0  0  0  0
 13 14  1  0  0  0  0
M  END
>  <CHROM.1>
-173.18522826,-79.89519889,-174.77723097,77.02078251,-77.26064000,-178.50599334
166.42513331,168.57879258,126.40075369,70.79110601,-179.90391916,20.39980333
0.21250702,65.85459847,-2.11834281,-0.82448537,-2.32608096

>  <Name>
1xpf_lig

>  <RI>
0

>  <Rbt.Current_Directory>
/home/afrankz/demos/rdock_decoys_rna/rnas/1xpf

>  <Rbt.Executable>
rbdock ($Id: //depot/dev/client3/rdock/2013.1/src/exe/rbdock.cxx#4 $)

>  <Rbt.Library>
libRbt.so (2013.1, Build901 2013/11/27)

>  <Rbt.Parameter_File>
/export/apps/rDock/src/rDock_2013.1_src/data/scripts/dock_solv.prm

>  <Rbt.Receptor>
prm/pocket_docking_8.prm

>  <SCORE>
-17.4358

>  <SCORE.INTER>
-10.1921

>  <SCORE.INTER.CONST>
1

>  <SCORE.INTER.POLAR>
-2.09591

>  <SCORE.INTER.ROT>
11

>  <SCORE.INTER.SOLV>
10.4889

>  <SCORE.INTER.VDW>
-14.238

>  <SCORE.INTER.norm>
-0.728008

>  <SCORE.INTRA>
-7.24363

>  <SCORE.INTRA.DIHEDRAL>
-12.5652

>  <SCORE.INTRA.DIHEDRAL.0>
17.7811

>  <SCORE.INTRA.POLAR>
0

>  <SCORE.INTRA.POLAR.0>
0

>  <SCORE.INTRA.REPUL>
0

>  <SCORE.INTRA.REPUL.0>
0

>  <SCORE.INTRA.SOLV>
0.110948

>  <SCORE.INTRA.SOLV.lig_0>
-47.9565

>  <SCORE.INTRA.VDW>
-1.01652

>  <SCORE.INTRA.VDW.0>
0.515983

>  <SCORE.INTRA.norm>
-0.517402

>  <SCORE.RESTR>
0

>  <SCORE.RESTR.CAVITY>
0

>  <SCORE.RESTR.norm>
0

>  <SCORE.SYSTEM>
0

>  <SCORE.SYSTEM.CONST>
0

>  <SCORE.SYSTEM.DIHEDRAL>
0

>  <SCORE.SYSTEM.SOLV>
0

>  <SCORE.SYSTEM.norm>
0

>  <SCORE.heavy>
14

>  <SCORE.norm>
-1.24541

>  <RMSD>
5.961

$$$$
1xpf_lig
 OpenBabel02141814123D
libRbt.so/2013.1/901 2013/11/27
 14 13  0  0  0  0  0  0  0  0999 V2000
   20.1125    4.5551   68.1099 N   0  0  0  0  0  0  0  0  0  0  0  0
   20.1001    3.2179   67.5461 C   0  0  0  0  0  0  0  0  0  0  0  0
   18.9455    2.4386   68.0515 C   0  0  0  0  0  0  0  0  0  0  0  0
   18.9884    1.1120   67.3588 C   0  0  0  0  0  0  0  0  0  0  0  0
   17.7197    0.4207   67.6951 N   0  0  0  0  0  0  0  0  0  0  0  0
   17.7678   -1.0079   67.2571 C   0  0  0  0  0  0  0  0  0  0  0  0
   16.4300   -1.5188   66.6947 C   0  0  0  0  0  0  0  0  0  0  0  0
   16.2286   -1.2246   65.1976 C   0  0  0  0  0  0  0  0  0  0  0  0
   16.0154    0.2696   65.0072 C   0  0  0  0  0  0  0  0  0  0  0  0
   16.0507    0.4714   63.5513 N   0  0  0  0  0  0  0  0  0  0  0  0
   16.3101    1.8473   63.0425 C   0  0  0  0  0  0  0  0  0  0  0  0
   17.8535    1.8681   63.0826 C   0  0  0  0  0  0  0  0  0  0  0  0
   18.5717    3.1419   62.7158 C   0  0  0  0  0  0  0  0  0  0  0  0
   20.0214    3.0528   62.7396 N   0  0  0  0  0  0  0  0  0  0  0  0
  1  2  1  0  0  0  0
  2  3  1  0  0  0  0
  3  4  1  0  0  0  0
  4  5  1  0  0  0  0
  5  6  1  0  0  0  0
  6  7  1  0  0  0  0
  7  8  1  0  0  0  0
  8  9  1  0  0  0  0
  9 10  1  0  0  0  0
 10 11  1  0  0  0  0
 11 12  1  0  0  0  0
 12 13  1  0  0  0  0
 13 14  1  0  0  0  0
M  END
>  <CHROM.1>
177.14911879,-171.03311824,-169.77052977,-141.88653625,85.70342310,-70.25850011
171.20838292,-160.66486362,84.50658135,-176.36557938,-178.04741511,17.93658806
1.33138968,65.57500843,-0.35616683,-0.88454551,-1.19077103

>  <Name>
1xpf_lig

>  <RI>
0

>  <Rbt.Current_Directory>
/home/afrankz/demos/rdock_decoys_rna/rnas/1xpf

>  <Rbt.Executable>
rbdock ($Id: //depot/dev/client3/rdock/2013.1/src/exe/rbdock.cxx#4 $)

>  <Rbt.Library>
libRbt.so (2013.1, Build901 2013/11/27)

>  <Rbt.Parameter_File>
/export/apps/rDock/src/rDock_2013.1_src/data/scripts/dock_solv.prm

>  <Rbt.Receptor>
prm/pocket_docking_6.prm

>  <SCORE>
-12.8542

>  <SCORE.INTER>
-4.74196

>  <SCORE.INTER.CONST>
1

>  <SCORE.INTER.POLAR>
-0.71781

>  <SCORE.INTER.ROT>
11

>  <SCORE.INTER.SOLV>
8.89881

>  <SCORE.INTER.VDW>
-14.6682

>  <SCORE.INTER.norm>
-0.338712

>  <SCORE.INTRA>
-8.11219

>  <SCORE.INTRA.DIHEDRAL>
-12.8818

>  <SCORE.INTRA.DIHEDRAL.0>
17.7811

>  <SCORE.INTRA.POLAR>
0

>  <SCORE.INTRA.POLAR.0>
0

>  <SCORE.INTRA.REPUL>
0

>  <SCORE.INTRA.REPUL.0>
0

>  <SCORE.INTRA.SOLV>
-0.0890729

>  <SCORE.INTRA.SOLV.lig_0>
-47.9565

>  <SCORE.INTRA.VDW>
-1.62677

>  <SCORE.INTRA.VDW.0>
0.515983

>  <SCORE.INTRA.norm>
-0.579442

>  <SCORE.RESTR>
0

>  <SCORE.RESTR.CAVITY>
0

>  <SCORE.RESTR.norm>
0

>  <SCORE.SYSTEM>
0

>  <SCORE.SYSTEM.CONST>
0

>  <SCORE.SYSTEM.DIHEDRAL>
0

>  <SCORE.SYSTEM.SOLV>
0

>  <SCORE.SYSTEM.norm>
0

>  <SCORE.heavy>
14

>  <SCORE.norm>
-0.918154

>  <RMSD>
5.963

$$$$
1xpf_lig
 OpenBabel02141814123D
libRbt.so/2013.1/901 2013/11/27
 14 13  0  0  0  0  0  0  0  0999 V2000
   18.9534    3.9112   70.9530 N   0  0  0  0  0  0  0  0  0  0  0  0
   19.3178    2.6262   70.3855 C   0  0  0  0  0  0  0  0  0  0  0  0
   19.2317    2.6547   68.9064 C   0  0  0  0  0  0  0  0  0  0  0  0
   19.6948    1.3149   68.4249 C   0  0  0  0  0  0  0  0  0  0  0  0
   18.5251    0.4072   68.5176 N   0  0  0  0  0  0  0  0  0  0  0  0
   18.1207   -0.0690   67.1594 C   0  0  0  0  0  0  0  0  0  0  0  0
   16.9369   -1.0513   67.1850 C   0  0  0  0  0  0  0  0  0  0  0  0
   16.5124   -1.5544   65.7939 C   0  0  0  0  0  0  0  0  0  0  0  0
   16.0904   -0.3672   64.9415 C   0  0  0  0  0  0  0  0  0  0  0  0
   15.8800   -0.9256   63.5978 N   0  0  0  0  0  0  0  0  0  0  0  0
   15.3283   -0.0266   62.5458 C   0  0  0  0  0  0  0  0  0  0  0  0
   15.5149   -0.9174   61.2984 C   0  0  0  0  0  0  0  0  0  0  0  0
   15.2113   -0.3370   59.9405 C   0  0  0  0  0  0  0  0  0  0  0  0
   15.2931   -1.2831   58.8411 N   0  0  0  0  0  0  0  0  0  0  0  0
  1  2  1  0  0  0  0
  2  3  1  0  0  0  0
  3  4  1  0  0  0  0
  4  5  1  0  0  0  0
  5  6  1  0  0  0  0
  6  7  1  0  0  0  0
  7  8  1  0  0  0  0
  8  9  1  0  0  0  0
  9 10  1  0  0  0  0
 10 11  1  0  0  0  0
 11 12  1  0  0  0  0
 12 13  1  0  0  0  0
 13 14  1  0  0  0  0
M  END
>  <CHROM.1>
177.04923137,83.16508259,116.02520103,178.23270824,-179.78547473,-60.34015960
172.70899507,174.28090162,170.36348854,-173.70623043,-174.42224405,17.18648072
0.31295171,65.60653989,-0.39141410,-1.15945326,-0.75978134

>  <Name>
1xpf_lig

>  <RI>
0

>  <Rbt.Current_Directory>
/home/afrankz/demos/rdock_decoys_rna/rnas/1xpf

>  <Rbt.Executable>
rbdock ($Id: //depot/dev/client3/rdock/2013.1/src/exe/rbdock.cxx#4 $)

>  <Rbt.Library>
libRbt.so (2013.1, Build901 2013/11/27)

>  <Rbt.Parameter_File>
/export/apps/rDock/src/rDock_2013.1_src/data/scripts/dock_solv.prm

>  <Rbt.Receptor>
prm/pocket_docking_7.prm

>  <SCORE>
-18.8619

>  <SCORE.INTER>
-10.7394

>  <SCORE.INTER.CONST>
1

>  <SCORE.INTER.POLAR>
-2.09959

>  <SCORE.INTER.ROT>
11

>  <SCORE.INTER.SOLV>
11.3265

>  <SCORE.INTER.VDW>
-14.8698

>  <SCORE.INTER.norm>
-0.7671

>  <SCORE.INTRA>
-8.12251

>  <SCORE.INTRA.DIHEDRAL>
-14.1992

>  <SCORE.INTRA.DIHEDRAL.0>
17.7811

>  <SCORE.INTRA.POLAR>
0

>  <SCORE.INTRA.POLAR.0>
0

>  <SCORE.INTRA.REPUL>
0

>  <SCORE.INTRA.REPUL.0>
0

>  <SCORE.INTRA.SOLV>
-0.353137

>  <SCORE.INTRA.SOLV.lig_0>
-47.9565

>  <SCORE.INTRA.VDW>
-0.846364

>  <SCORE.INTRA.VDW.0>
0.515983

>  <SCORE.INTRA.norm>
-0.58018

>  <SCORE.RESTR>
0

>  <SCORE.RESTR.CAVITY>
0

>  <SCORE.RESTR.norm>
0

>  <SCORE.SYSTEM>
0

>  <SCORE.SYSTEM.CONST>
0

>  <SCORE.SYSTEM.DIHEDRAL>
0

>  <SCORE.SYSTEM.SOLV>
0

>  <SCORE.SYSTEM.norm>
0

>  <SCORE.heavy>
14

>  <SCORE.norm>
-1.34728

>  <RMSD>
5.969

$$$$
1xpf_lig
 OpenBabel02141814123D
libRbt.so/2013.1/901 2013/11/27
 14 13  0  0  0  0  0  0  0  0999 V2000
   23.9784    6.3575   57.1707 N   0  0  0  0  0  0  0  0  0  0  0  0
   24.6754    5.1353   56.8146 C   0  0  0  0  0  0  0  0  0  0  0  0
   23.7834    3.9587   56.9408 C   0  0  0  0  0  0  0  0  0  0  0  0
   23.4258    3.8463   58.3902 C   0  0  0  0  0  0  0  0  0  0  0  0
   22.4377    2.7449   58.4956 N   0  0  0  0  0  0  0  0  0  0  0  0
   22.1532    2.4296   59.9290 C   0  0  0  0  0  0  0  0  0  0  0  0
   20.8852    3.1166   60.4646 C   0  0  0  0  0  0  0  0  0  0  0  0
   20.6673    2.9341   61.9771 C   0  0  0  0  0  0  0  0  0  0  0  0
   19.4090    3.6809   62.3935 C   0  0  0  0  0  0  0  0  0  0  0  0
   18.3064    2.7567   62.0907 N   0  0  0  0  0  0  0  0  0  0  0  0
   17.0333    2.9155   62.8481 C   0  0  0  0  0  0  0  0  0  0  0  0
   16.5529    1.4486   62.8874 C   0  0  0  0  0  0  0  0  0  0  0  0
   15.3032    1.1150   63.6620 C   0  0  0  0  0  0  0  0  0  0  0  0
   14.9208   -0.2860   63.6281 N   0  0  0  0  0  0  0  0  0  0  0  0
  1  2  1  0  0  0  0
  2  3  1  0  0  0  0
  3  4  1  0  0  0  0
  4  5  1  0  0  0  0
  5  6  1  0  0  0  0
  6  7  1  0  0  0  0
  7  8  1  0  0  0  0
  8  9  1  0  0  0  0
  9 10  1  0  0  0  0
 10 11  1  0  0  0  0
 11 12  1  0  0  0  0
 12 13  1  0  0  0  0
 13 14  1  0  0  0  0
M  END
>  <CHROM.1>
-64.04030534,175.00796458,172.39742099,96.87316774,-173.32421382,178.65059280
83.37158094,155.74456096,-148.62320354,175.89351231,179.28151485,20.25243120
3.01102656,60.54953080,0.13244619,0.70047179,0.30910844

>  <Name>
1xpf_lig

>  <RI>
0

>  <Rbt.Current_Directory>
/home/afrankz/demos/rdock_decoys_rna/rnas/1xpf

>  <Rbt.Executable>
rbdock ($Id: //depot/dev/client3/rdock/2013.1/src/exe/rbdock.cxx#4 $)

>  <Rbt.Library>
libRbt.so (2013.1, Build901 2013/11/27)

>  <Rbt.Parameter_File>
/export/apps/rDock/src/rDock_2013.1_src/data/scripts/dock_solv.prm

>  <Rbt.Receptor>
prm/pocket_docking_7.prm

>  <SCORE>
-16.2061

>  <SCORE.INTER>
-8.20607

>  <SCORE.INTER.CONST>
1

>  <SCORE.INTER.POLAR>
-2.15476

>  <SCORE.INTER.ROT>
11

>  <SCORE.INTER.SOLV>
12.1914

>  <SCORE.INTER.VDW>
-13.2853

>  <SCORE.INTER.norm>
-0.586148

>  <SCORE.INTRA>
-8.00004

>  <SCORE.INTRA.DIHEDRAL>
-13.6409

>  <SCORE.INTRA.DIHEDRAL.0>
17.7811

>  <SCORE.INTRA.POLAR>
0

>  <SCORE.INTRA.POLAR.0>
0

>  <SCORE.INTRA.REPUL>
0

>  <SCORE.INTRA.REPUL.0>
0

>  <SCORE.INTRA.SOLV>
0.334001

>  <SCORE.INTRA.SOLV.lig_0>
-47.9565

>  <SCORE.INTRA.VDW>
-1.3466

>  <SCORE.INTRA.VDW.0>
0.515983

>  <SCORE.INTRA.norm>
-0.571431

>  <SCORE.RESTR>
0

>  <SCORE.RESTR.CAVITY>
0

>  <SCORE.RESTR.norm>
0

>  <SCORE.SYSTEM>
0

>  <SCORE.SYSTEM.CONST>
0

>  <SCORE.SYSTEM.DIHEDRAL>
0

>  <SCORE.SYSTEM.SOLV>
0

>  <SCORE.SYSTEM.norm>
0

>  <SCORE.heavy>
14

>  <SCORE.norm>
-1.15758

>  <RMSD>
5.992

$$$$
1xpf_lig
 OpenBabel02141814123D
libRbt.so/2013.1/901 2013/11/27
 14 13  0  0  0  0  0  0  0  0999 V2000
   21.1463    4.4866   63.7554 N   0  0  0  0  0  0  0  0  0  0  0  0
   20.4765    4.9531   64.9553 C   0  0  0  0  0  0  0  0  0  0  0  0
   20.7217    4.0346   66.0921 C   0  0  0  0  0  0  0  0  0  0  0  0
   19.9828    2.7689   65.7866 C   0  0  0  0  0  0  0  0  0  0  0  0
   20.1393    1.8933   66.9739 N   0  0  0  0  0  0  0  0  0  0  0  0
   19.6911    0.5014   66.6630 C   0  0  0  0  0  0  0  0  0  0  0  0
   18.3043    0.1646   67.2377 C   0  0  0  0  0  0  0  0  0  0  0  0
   17.8080   -1.2486   66.8841 C   0  0  0  0  0  0  0  0  0  0  0  0
   16.5276   -1.5348   67.6540 C   0  0  0  0  0  0  0  0  0  0  0  0
   16.9354   -1.5557   69.0663 N   0  0  0  0  0  0  0  0  0  0  0  0
   16.1503   -2.4019   70.0082 C   0  0  0  0  0  0  0  0  0  0  0  0
   16.0255   -1.4357   71.2061 C   0  0  0  0  0  0  0  0  0  0  0  0
   17.2818   -0.9771   71.9021 C   0  0  0  0  0  0  0  0  0  0  0  0
   17.0611   -0.1465   73.0733 N   0  0  0  0  0  0  0  0  0  0  0  0
  1  2  1  0  0  0  0
  2  3  1  0  0  0  0
  3  4  1  0  0  0  0
  4  5  1  0  0  0  0
  5  6  1  0  0  0  0
  6  7  1  0  0  0  0
  7  8  1  0  0  0  0
  8  9  1  0  0  0  0
  9 10  1  0  0  0  0
 10 11  1  0  0  0  0
 11 12  1  0  0  0  0
 12 13  1  0  0  0  0
 13 14  1  0  0  0  0
M  END
>  <CHROM.1>
-69.36901746,-175.53903765,-167.92034779,-103.02501523,177.97263550,172.42659670
-65.35328791,-151.52919879,-136.52353347,-61.96331008,-175.87147670,18.44640192
0.67852805,67.94689366,0.46922068,-1.03122972,-1.86303429

>  <Name>
1xpf_lig

>  <RI>
0

>  <Rbt.Current_Directory>
/home/afrankz/demos/rdock_decoys_rna/rnas/1xpf

>  <Rbt.Executable>
rbdock ($Id: //depot/dev/client3/rdock/2013.1/src/exe/rbdock.cxx#4 $)

>  <Rbt.Library>
libRbt.so (2013.1, Build901 2013/11/27)

>  <Rbt.Parameter_File>
/export/apps/rDock/src/rDock_2013.1_src/data/scripts/dock_solv.prm

>  <Rbt.Receptor>
prm/blind_docking_80.prm

>  <SCORE>
-15.4585

>  <SCORE.INTER>
-7.66983

>  <SCORE.INTER.CONST>
1

>  <SCORE.INTER.POLAR>
-0.662314

>  <SCORE.INTER.ROT>
11

>  <SCORE.INTER.SOLV>
9.29589

>  <SCORE.INTER.VDW>
-16.9375

>  <SCORE.INTER.norm>
-0.547845

>  <SCORE.INTRA>
-7.78869

>  <SCORE.INTRA.DIHEDRAL>
-14.3057

>  <SCORE.INTRA.DIHEDRAL.0>
17.7811

>  <SCORE.INTRA.POLAR>
0

>  <SCORE.INTRA.POLAR.0>
0

>  <SCORE.INTRA.REPUL>
0

>  <SCORE.INTRA.REPUL.0>
0

>  <SCORE.INTRA.SOLV>
0.797075

>  <SCORE.INTRA.SOLV.lig_0>
-47.9565

>  <SCORE.INTRA.VDW>
-1.03435

>  <SCORE.INTRA.VDW.0>
0.515983

>  <SCORE.INTRA.norm>
-0.556335

>  <SCORE.RESTR>
0

>  <SCORE.RESTR.CAVITY>
0

>  <SCORE.RESTR.norm>
0

>  <SCORE.SYSTEM>
0

>  <SCORE.SYSTEM.CONST>
0

>  <SCORE.SYSTEM.DIHEDRAL>
0

>  <SCORE.SYSTEM.SOLV>
0

>  <SCORE.SYSTEM.norm>
0

>  <SCORE.heavy>
14

>  <SCORE.norm>
-1.10418

>  <RMSD>
6.013

$$$$
1xpf_lig
 OpenBabel02141814123D
libRbt.so/2013.1/901 2013/11/27
 14 13  0  0  0  0  0  0  0  0999 V2000
   15.7833   -1.0866   59.0244 N   0  0  0  0  0  0  0  0  0  0  0  0
   16.2884   -0.6571   60.3154 C   0  0  0  0  0  0  0  0  0  0  0  0
   15.2627    0.1122   61.0583 C   0  0  0  0  0  0  0  0  0  0  0  0
   15.8570    0.4403   62.3927 C   0  0  0  0  0  0  0  0  0  0  0  0
   15.8455   -0.8175   63.1790 N   0  0  0  0  0  0  0  0  0  0  0  0
   15.8874   -0.5218   64.6439 C   0  0  0  0  0  0  0  0  0  0  0  0
   17.3161   -0.3799   65.1968 C   0  0  0  0  0  0  0  0  0  0  0  0
   17.3767   -0.1277   66.7137 C   0  0  0  0  0  0  0  0  0  0  0  0
   18.8008    0.2402   67.1017 C   0  0  0  0  0  0  0  0  0  0  0  0
   18.6640    1.0086   68.3477 N   0  0  0  0  0  0  0  0  0  0  0  0
   19.8951    1.5991   68.9436 C   0  0  0  0  0  0  0  0  0  0  0  0
   19.2666    2.6306   69.9055 C   0  0  0  0  0  0  0  0  0  0  0  0
   20.1747    3.4366   70.7992 C   0  0  0  0  0  0  0  0  0  0  0  0
   19.4897    4.3173   71.7293 N   0  0  0  0  0  0  0  0  0  0  0  0
  1  2  1  0  0  0  0
  2  3  1  0  0  0  0
  3  4  1  0  0  0  0
  4  5  1  0  0  0  0
  5  6  1  0  0  0  0
  6  7  1  0  0  0  0
  7  8  1  0  0  0  0
  8  9  1  0  0  0  0
  9 10  1  0  0  0  0
 10 11  1  0  0  0  0
 11 12  1  0  0  0  0
 12 13  1  0  0  0  0
 13 14  1  0  0  0  0
M  END
>  <CHROM.1>
177.04872168,-74.20555459,-157.28608515,-87.71697313,-177.82680718,-169.99003353
155.87308378,-175.97096906,163.11884223,176.77969453,-176.18999811,17.56490982
0.72812789,65.66797968,3.11593408,1.20305312,2.82003576

>  <Name>
1xpf_lig

>  <RI>
0

>  <Rbt.Current_Directory>
/home/afrankz/demos/rdock_decoys_rna/rnas/1xpf

>  <Rbt.Executable>
rbdock ($Id: //depot/dev/client3/rdock/2013.1/src/exe/rbdock.cxx#4 $)

>  <Rbt.Library>
libRbt.so (2013.1, Build901 2013/11/27)

>  <Rbt.Parameter_File>
/export/apps/rDock/src/rDock_2013.1_src/data/scripts/dock_solv.prm

>  <Rbt.Receptor>
prm/pocket_docking_8.prm

>  <SCORE>
-15.5461

>  <SCORE.INTER>
-7.19041

>  <SCORE.INTER.CONST>
1

>  <SCORE.INTER.POLAR>
-1.70439

>  <SCORE.INTER.ROT>
11

>  <SCORE.INTER.SOLV>
9.71305

>  <SCORE.INTER.VDW>
-13.2833

>  <SCORE.INTER.norm>
-0.513601

>  <SCORE.INTRA>
-8.35572

>  <SCORE.INTRA.DIHEDRAL>
-13.4343

>  <SCORE.INTRA.DIHEDRAL.0>
17.7811

>  <SCORE.INTRA.POLAR>
0

>  <SCORE.INTRA.POLAR.0>
0

>  <SCORE.INTRA.REPUL>
0

>  <SCORE.INTRA.REPUL.0>
0

>  <SCORE.INTRA.SOLV>
-0.424031

>  <SCORE.INTRA.SOLV.lig_0>
-47.9565

>  <SCORE.INTRA.VDW>
-1.42653

>  <SCORE.INTRA.VDW.0>
0.515983

>  <SCORE.INTRA.norm>
-0.596837

>  <SCORE.RESTR>
0

>  <SCORE.RESTR.CAVITY>
0

>  <SCORE.RESTR.norm>
0

>  <SCORE.SYSTEM>
0

>  <SCORE.SYSTEM.CONST>
0

>  <SCORE.SYSTEM.DIHEDRAL>
0

>  <SCORE.SYSTEM.SOLV>
0

>  <SCORE.SYSTEM.norm>
0

>  <SCORE.heavy>
14

>  <SCORE.norm>
-1.11044

>  <RMSD>
6.014

$$$$
1xpf_lig
 OpenBabel02141814123D
libRbt.so/2013.1/901 2013/11/27
 14 13  0  0  0  0  0  0  0  0999 V2000
   16.5799   -0.6533   73.3683 N   0  0  0  0  0  0  0  0  0  0  0  0
   15.9521   -1.2709   72.2148 C   0  0  0  0  0  0  0  0  0  0  0  0
   16.8500   -1.2320   71.0366 C   0  0  0  0  0  0  0  0  0  0  0  0
   16.1328   -1.9385   69.9285 C   0  0  0  0  0  0  0  0  0  0  0  0
   17.0932   -2.0387   68.8023 N   0  0  0  0  0  0  0  0  0  0  0  0
   16.6707   -1.1567   67.6715 C   0  0  0  0  0  0  0  0  0  0  0  0
   17.8532   -0.5489   66.8975 C   0  0  0  0  0  0  0  0  0  0  0  0
   18.6765    0.4658   67.7104 C   0  0  0  0  0  0  0  0  0  0  0  0
   19.9028    0.8714   66.9066 C   0  0  0  0  0  0  0  0  0  0  0  0
   19.3849    1.7547   65.8516 N   0  0  0  0  0  0  0  0  0  0  0  0
   20.2030    1.9247   64.6182 C   0  0  0  0  0  0  0  0  0  0  0  0
   19.5274    3.1732   64.0109 C   0  0  0  0  0  0  0  0  0  0  0  0
   19.6130    4.4801   64.7577 C   0  0  0  0  0  0  0  0  0  0  0  0
   20.9603    4.9928   64.9366 N   0  0  0  0  0  0  0  0  0  0  0  0
  1  2  1  0  0  0  0
  2  3  1  0  0  0  0
  3  4  1  0  0  0  0
  4  5  1  0  0  0  0
  5  6  1  0  0  0  0
  6  7  1  0  0  0  0
  7  8  1  0  0  0  0
  8  9  1  0  0  0  0
  9 10  1  0  0  0  0
 10 11  1  0  0  0  0
 11 12  1  0  0  0  0
 12 13  1  0  0  0  0
 13 14  1  0  0  0  0
M  END
>  <CHROM.1>
177.75825940,-173.50494184,-110.68799544,146.12087320,-67.37854465,173.37819592
73.78067614,-157.82989853,-164.85685682,64.93483949,62.22209764,18.24272824
0.63009443,67.76492083,-2.71792132,-1.10285784,-2.03209011

>  <Name>
1xpf_lig

>  <RI>
0

>  <Rbt.Current_Directory>
/home/afrankz/demos/rdock_decoys_rna/rnas/1xpf

>  <Rbt.Executable>
rbdock ($Id: //depot/dev/client3/rdock/2013.1/src/exe/rbdock.cxx#4 $)

>  <Rbt.Library>
libRbt.so (2013.1, Build901 2013/11/27)

>  <Rbt.Parameter_File>
/export/apps/rDock/src/rDock_2013.1_src/data/scripts/dock_solv.prm

>  <Rbt.Receptor>
prm/blind_docking_80.prm

>  <SCORE>
-15.1885

>  <SCORE.INTER>
-7.05389

>  <SCORE.INTER.CONST>
1

>  <SCORE.INTER.POLAR>
-0.689638

>  <SCORE.INTER.ROT>
11

>  <SCORE.INTER.SOLV>
8.73375

>  <SCORE.INTER.VDW>
-16.2484

>  <SCORE.INTER.norm>
-0.503849

>  <SCORE.INTRA>
-8.13456

>  <SCORE.INTRA.DIHEDRAL>
-14.0295

>  <SCORE.INTRA.DIHEDRAL.0>
17.7811

>  <SCORE.INTRA.POLAR>
0

>  <SCORE.INTRA.POLAR.0>
0

>  <SCORE.INTRA.REPUL>
0

>  <SCORE.INTRA.REPUL.0>
0

>  <SCORE.INTRA.SOLV>
1.382

>  <SCORE.INTRA.SOLV.lig_0>
-47.9565

>  <SCORE.INTRA.VDW>
-1.81083

>  <SCORE.INTRA.VDW.0>
0.515983

>  <SCORE.INTRA.norm>
-0.58104

>  <SCORE.RESTR>
0

>  <SCORE.RESTR.CAVITY>
0

>  <SCORE.RESTR.norm>
0

>  <SCORE.SYSTEM>
0

>  <SCORE.SYSTEM.CONST>
0

>  <SCORE.SYSTEM.DIHEDRAL>
0

>  <SCORE.SYSTEM.SOLV>
0

>  <SCORE.SYSTEM.norm>
0

>  <SCORE.heavy>
14

>  <SCORE.norm>
-1.08489

>  <RMSD>
6.019

$$$$
1xpf_lig
 OpenBabel02141814123D
libRbt.so/2013.1/901 2013/11/27
 14 13  0  0  0  0  0  0  0  0999 V2000
   26.3578    1.4458   58.7960 N   0  0  0  0  0  0  0  0  0  0  0  0
   25.2076    2.2932   59.0511 C   0  0  0  0  0  0  0  0  0  0  0  0
   24.6791    2.8657   57.7907 C   0  0  0  0  0  0  0  0  0  0  0  0
   23.5005    3.7095   58.1650 C   0  0  0  0  0  0  0  0  0  0  0  0
   22.3968    2.7718   58.4861 N   0  0  0  0  0  0  0  0  0  0  0  0
   22.2240    2.6509   59.9661 C   0  0  0  0  0  0  0  0  0  0  0  0
   20.8559    3.1490   60.4632 C   0  0  0  0  0  0  0  0  0  0  0  0
   20.6882    3.0923   61.9920 C   0  0  0  0  0  0  0  0  0  0  0  0
   19.3686    3.7458   62.3736 C   0  0  0  0  0  0  0  0  0  0  0  0
   18.3549    2.7052   62.1476 N   0  0  0  0  0  0  0  0  0  0  0  0
   17.0346    2.8576   62.8206 C   0  0  0  0  0  0  0  0  0  0  0  0
   16.5179    1.4046   62.7431 C   0  0  0  0  0  0  0  0  0  0  0  0
   15.1797    1.0768   63.3551 C   0  0  0  0  0  0  0  0  0  0  0  0
   14.7917   -0.3199   63.2603 N   0  0  0  0  0  0  0  0  0  0  0  0
  1  2  1  0  0  0  0
  2  3  1  0  0  0  0
  3  4  1  0  0  0  0
  4  5  1  0  0  0  0
  5  6  1  0  0  0  0
  6  7  1  0  0  0  0
  7  8  1  0  0  0  0
  8  9  1  0  0  0  0
  9 10  1  0  0  0  0
 10 11  1  0  0  0  0
 11 12  1  0  0  0  0
 12 13  1  0  0  0  0
 13 14  1  0  0  0  0
M  END
>  <CHROM.1>
179.70329413,-74.59318074,102.42976448,116.80376251,-177.28151843,173.87295827
81.48587728,160.78643010,-160.88821536,178.52244879,-178.65503951,20.51124375
2.38946007,60.81509215,-0.06346921,-0.49264331,-3.01848221

>  <Name>
1xpf_lig

>  <RI>
0

>  <Rbt.Current_Directory>
/home/afrankz/demos/rdock_decoys_rna/rnas/1xpf

>  <Rbt.Executable>
rbdock ($Id: //depot/dev/client3/rdock/2013.1/src/exe/rbdock.cxx#4 $)

>  <Rbt.Library>
libRbt.so (2013.1, Build901 2013/11/27)

>  <Rbt.Parameter_File>
/export/apps/rDock/src/rDock_2013.1_src/data/scripts/dock_solv.prm

>  <Rbt.Receptor>
prm/pocket_docking_8.prm

>  <SCORE>
-10.1403

>  <SCORE.INTER>
-2.91765

>  <SCORE.INTER.CONST>
1

>  <SCORE.INTER.POLAR>
-1.23319

>  <SCORE.INTER.ROT>
11

>  <SCORE.INTER.SOLV>
9.26997

>  <SCORE.INTER.VDW>
-11.8578

>  <SCORE.INTER.norm>
-0.208404

>  <SCORE.INTRA>
-7.22267

>  <SCORE.INTRA.DIHEDRAL>
-12.5343

>  <SCORE.INTRA.DIHEDRAL.0>
17.7811

>  <SCORE.INTRA.POLAR>
0

>  <SCORE.INTRA.POLAR.0>
0

>  <SCORE.INTRA.REPUL>
0

>  <SCORE.INTRA.REPUL.0>
0

>  <SCORE.INTRA.SOLV>
0.0785675

>  <SCORE.INTRA.SOLV.lig_0>
-47.9565

>  <SCORE.INTRA.VDW>
-0.994827

>  <SCORE.INTRA.VDW.0>
0.515983

>  <SCORE.INTRA.norm>
-0.515905

>  <SCORE.RESTR>
0

>  <SCORE.RESTR.CAVITY>
0

>  <SCORE.RESTR.norm>
0

>  <SCORE.SYSTEM>
0

>  <SCORE.SYSTEM.CONST>
0

>  <SCORE.SYSTEM.DIHEDRAL>
0

>  <SCORE.SYSTEM.SOLV>
0

>  <SCORE.SYSTEM.norm>
0

>  <SCORE.heavy>
14

>  <SCORE.norm>
-0.724309

>  <RMSD>
6.033

$$$$
1xpf_lig
 OpenBabel02141814123D
libRbt.so/2013.1/901 2013/11/27
 14 13  0  0  0  0  0  0  0  0999 V2000
   12.9898   -0.4398   61.0845 N   0  0  0  0  0  0  0  0  0  0  0  0
   14.1064    0.4784   60.9565 C   0  0  0  0  0  0  0  0  0  0  0  0
   14.6684    0.8202   62.2843 C   0  0  0  0  0  0  0  0  0  0  0  0
   15.2709   -0.4369   62.8304 C   0  0  0  0  0  0  0  0  0  0  0  0
   15.8246   -0.0935   64.1632 N   0  0  0  0  0  0  0  0  0  0  0  0
   16.4922   -1.2821   64.7768 C   0  0  0  0  0  0  0  0  0  0  0  0
   17.8083   -0.9388   65.4958 C   0  0  0  0  0  0  0  0  0  0  0  0
   17.6229   -0.0931   66.7681 C   0  0  0  0  0  0  0  0  0  0  0  0
   18.9839    0.3825   67.2536 C   0  0  0  0  0  0  0  0  0  0  0  0
   18.6931    1.2149   68.4301 N   0  0  0  0  0  0  0  0  0  0  0  0
   19.5855    2.3763   68.7025 C   0  0  0  0  0  0  0  0  0  0  0  0
   19.4180    2.4979   70.2326 C   0  0  0  0  0  0  0  0  0  0  0  0
   19.9955    3.7020   70.9323 C   0  0  0  0  0  0  0  0  0  0  0  0
   21.4283    3.8746   70.7660 N   0  0  0  0  0  0  0  0  0  0  0  0
  1  2  1  0  0  0  0
  2  3  1  0  0  0  0
  3  4  1  0  0  0  0
  4  5  1  0  0  0  0
  5  6  1  0  0  0  0
  6  7  1  0  0  0  0
  7  8  1  0  0  0  0
  8  9  1  0  0  0  0
  9 10  1  0  0  0  0
 10 11  1  0  0  0  0
 11 12  1  0  0  0  0
 12 13  1  0  0  0  0
 13 14  1  0  0  0  0
M  END
>  <CHROM.1>
66.52137839,-179.63577778,-178.17800862,139.28344013,68.15111025,-170.34618682
177.90133085,-147.25831704,-153.19368683,-170.76946837,-58.73160629,17.34917438
0.86150297,66.04831698,2.66727997,0.90118256,-2.92147652

>  <Name>
1xpf_lig

>  <RI>
0

>  <Rbt.Current_Directory>
/home/afrankz/demos/rdock_decoys_rna/rnas/1xpf

>  <Rbt.Executable>
rbdock ($Id: //depot/dev/client3/rdock/2013.1/src/exe/rbdock.cxx#4 $)

>  <Rbt.Library>
libRbt.so (2013.1, Build901 2013/11/27)

>  <Rbt.Parameter_File>
/export/apps/rDock/src/rDock_2013.1_src/data/scripts/dock_solv.prm

>  <Rbt.Receptor>
prm/pocket_docking_7.prm

>  <SCORE>
-12.5805

>  <SCORE.INTER>
-4.25552

>  <SCORE.INTER.CONST>
1

>  <SCORE.INTER.POLAR>
-0.8

>  <SCORE.INTER.ROT>
11

>  <SCORE.INTER.SOLV>
8.76545

>  <SCORE.INTER.VDW>
-14.0255

>  <SCORE.INTER.norm>
-0.303966

>  <SCORE.INTRA>
-8.32499

>  <SCORE.INTRA.DIHEDRAL>
-14.5442

>  <SCORE.INTRA.DIHEDRAL.0>
17.7811

>  <SCORE.INTRA.POLAR>
0

>  <SCORE.INTRA.POLAR.0>
0

>  <SCORE.INTRA.REPUL>
0

>  <SCORE.INTRA.REPUL.0>
0

>  <SCORE.INTRA.SOLV>
0.931855

>  <SCORE.INTRA.SOLV.lig_0>
-47.9565

>  <SCORE.INTRA.VDW>
-1.51884

>  <SCORE.INTRA.VDW.0>
0.515983

>  <SCORE.INTRA.norm>
-0.594642

>  <SCORE.RESTR>
0

>  <SCORE.RESTR.CAVITY>
0

>  <SCORE.RESTR.norm>
0

>  <SCORE.SYSTEM>
0

>  <SCORE.SYSTEM.CONST>
0

>  <SCORE.SYSTEM.DIHEDRAL>
0

>  <SCORE.SYSTEM.SOLV>
0

>  <SCORE.SYSTEM.norm>
0

>  <SCORE.heavy>
14

>  <SCORE.norm>
-0.898608

>  <RMSD>
6.036

$$$$
1xpf_lig
 OpenBabel02141814123D
libRbt.so/2013.1/901 2013/11/27
 14 13  0  0  0  0  0  0  0  0999 V2000
   20.2248    2.9886   68.7981 N   0  0  0  0  0  0  0  0  0  0  0  0
   19.4213    1.7831   68.7126 C   0  0  0  0  0  0  0  0  0  0  0  0
   19.2952    1.3269   67.3084 C   0  0  0  0  0  0  0  0  0  0  0  0
   18.3204    0.1907   67.3135 C   0  0  0  0  0  0  0  0  0  0  0  0
   18.2255   -0.2885   65.9127 N   0  0  0  0  0  0  0  0  0  0  0  0
   16.8152   -0.2064   65.4237 C   0  0  0  0  0  0  0  0  0  0  0  0
   16.6931    0.3911   64.0113 C   0  0  0  0  0  0  0  0  0  0  0  0
   15.2528    0.4265   63.4703 C   0  0  0  0  0  0  0  0  0  0  0  0
   15.2641    0.9921   62.0582 C   0  0  0  0  0  0  0  0  0  0  0  0
   13.9025    0.7656   61.5520 N   0  0  0  0  0  0  0  0  0  0  0  0
   13.7141    0.6540   60.0784 C   0  0  0  0  0  0  0  0  0  0  0  0
   13.5945   -0.8786   59.9325 C   0  0  0  0  0  0  0  0  0  0  0  0
   13.4736   -1.4686   58.5504 C   0  0  0  0  0  0  0  0  0  0  0  0
   13.2612   -2.9052   58.5174 N   0  0  0  0  0  0  0  0  0  0  0  0
  1  2  1  0  0  0  0
  2  3  1  0  0  0  0
  3  4  1  0  0  0  0
  4  5  1  0  0  0  0
  5  6  1  0  0  0  0
  6  7  1  0  0  0  0
  7  8  1  0  0  0  0
  8  9  1  0  0  0  0
  9 10  1  0  0  0  0
 10 11  1  0  0  0  0
 11 12  1  0  0  0  0
 12 13  1  0  0  0  0
 13 14  1  0  0  0  0
M  END
>  <CHROM.1>
-173.19334641,-178.44061243,-121.71002326,134.94520959,177.52663590,-178.17631493
170.36856136,-154.33355619,101.53865412,-176.21987976,-175.40326184,16.24695678
0.26942395,63.68854083,0.40948443,-0.93433601,0.20872162

>  <Name>
1xpf_lig

>  <RI>
0

>  <Rbt.Current_Directory>
/home/afrankz/demos/rdock_decoys_rna/rnas/1xpf

>  <Rbt.Executable>
rbdock ($Id: //depot/dev/client3/rdock/2013.1/src/exe/rbdock.cxx#4 $)

>  <Rbt.Library>
libRbt.so (2013.1, Build901 2013/11/27)

>  <Rbt.Parameter_File>
/export/apps/rDock/src/rDock_2013.1_src/data/scripts/dock_solv.prm

>  <Rbt.Receptor>
prm/pocket_docking_7.prm

>  <SCORE>
-11.996

>  <SCORE.INTER>
-3.00771

>  <SCORE.INTER.CONST>
1

>  <SCORE.INTER.POLAR>
0

>  <SCORE.INTER.ROT>
11

>  <SCORE.INTER.SOLV>
7.3692

>  <SCORE.INTER.VDW>
-15.3949

>  <SCORE.INTER.norm>
-0.214836

>  <SCORE.INTRA>
-8.98829

>  <SCORE.INTRA.DIHEDRAL>
-13.4554

>  <SCORE.INTRA.DIHEDRAL.0>
17.7811

>  <SCORE.INTRA.POLAR>
0

>  <SCORE.INTRA.POLAR.0>
0

>  <SCORE.INTRA.REPUL>
0

>  <SCORE.INTRA.REPUL.0>
0

>  <SCORE.INTRA.SOLV>
-0.993799

>  <SCORE.INTRA.SOLV.lig_0>
-47.9565

>  <SCORE.INTRA.VDW>
-1.76368

>  <SCORE.INTRA.VDW.0>
0.515983

>  <SCORE.INTRA.norm>
-0.642021

>  <SCORE.RESTR>
0

>  <SCORE.RESTR.CAVITY>
0

>  <SCORE.RESTR.norm>
0

>  <SCORE.SYSTEM>
0

>  <SCORE.SYSTEM.CONST>
0

>  <SCORE.SYSTEM.DIHEDRAL>
0

>  <SCORE.SYSTEM.SOLV>
0

>  <SCORE.SYSTEM.norm>
0

>  <SCORE.heavy>
14

>  <SCORE.norm>
-0.856857

>  <RMSD>
6.052

$$$$
1xpf_lig
 OpenBabel02141814123D
libRbt.so/2013.1/901 2013/11/27
 14 13  0  0  0  0  0  0  0  0999 V2000
   19.7230    2.0169   67.4344 N   0  0  0  0  0  0  0  0  0  0  0  0
   19.5732    0.5740   67.4752 C   0  0  0  0  0  0  0  0  0  0  0  0
   18.5287    0.1210   66.5268 C   0  0  0  0  0  0  0  0  0  0  0  0
   18.4263   -1.3647   66.6805 C   0  0  0  0  0  0  0  0  0  0  0  0
   17.6655   -1.6069   67.9307 N   0  0  0  0  0  0  0  0  0  0  0  0
   17.1574   -3.0122   67.9728 C   0  0  0  0  0  0  0  0  0  0  0  0
   16.3575   -3.4093   66.7200 C   0  0  0  0  0  0  0  0  0  0  0  0
   15.8062   -4.8456   66.7600 C   0  0  0  0  0  0  0  0  0  0  0  0
   16.9569   -5.8264   66.5918 C   0  0  0  0  0  0  0  0  0  0  0  0
   16.3512   -7.1523   66.7833 N   0  0  0  0  0  0  0  0  0  0  0  0
   16.9799   -8.3141   66.0945 C   0  0  0  0  0  0  0  0  0  0  0  0
   16.0419   -8.4506   64.8756 C   0  0  0  0  0  0  0  0  0  0  0  0
   16.2292   -9.6207   63.9435 C   0  0  0  0  0  0  0  0  0  0  0  0
   15.3600   -9.6181   62.7796 N   0  0  0  0  0  0  0  0  0  0  0  0
  1  2  1  0  0  0  0
  2  3  1  0  0  0  0
  3  4  1  0  0  0  0
  4  5  1  0  0  0  0
  5  6  1  0  0  0  0
  6  7  1  0  0  0  0
  7  8  1  0  0  0  0
  8  9  1  0  0  0  0
  9 10  1  0  0  0  0
 10 11  1  0  0  0  0
 11 12  1  0  0  0  0
 12 13  1  0  0  0  0
 13 14  1  0  0  0  0
M  END
>  <CHROM.1>
-178.23129808,76.84882056,163.17278390,-53.03533268,-178.95554339,-71.78576762
174.30811512,151.91614856,-99.52624779,-174.06532046,-176.14411739,17.22545290
-4.32217863,66.32637917,-0.85086685,-1.12381945,-2.18125258

>  <Name>
1xpf_lig

>  <RI>
0

>  <Rbt.Current_Directory>
/home/afrankz/demos/rdock_decoys_rna/rnas/1xpf

>  <Rbt.Executable>
rbdock ($Id: //depot/dev/client3/rdock/2013.1/src/exe/rbdock.cxx#4 $)

>  <Rbt.Library>
libRbt.so (2013.1, Build901 2013/11/27)

>  <Rbt.Parameter_File>
/export/apps/rDock/src/rDock_2013.1_src/data/scripts/dock_solv.prm

>  <Rbt.Receptor>
prm/blind_docking_80.prm

>  <SCORE>
-12.0241

>  <SCORE.INTER>
-5.23656

>  <SCORE.INTER.CONST>
1

>  <SCORE.INTER.POLAR>
-1.61878

>  <SCORE.INTER.ROT>
11

>  <SCORE.INTER.SOLV>
15.5535

>  <SCORE.INTER.VDW>
-14.2129

>  <SCORE.INTER.norm>
-0.37404

>  <SCORE.INTRA>
-6.80834

>  <SCORE.INTRA.DIHEDRAL>
-14.2001

>  <SCORE.INTRA.DIHEDRAL.0>
17.7811

>  <SCORE.INTRA.POLAR>
0

>  <SCORE.INTRA.POLAR.0>
0

>  <SCORE.INTRA.REPUL>
0

>  <SCORE.INTRA.REPUL.0>
0

>  <SCORE.INTRA.SOLV>
-0.286733

>  <SCORE.INTRA.SOLV.lig_0>
-47.9565

>  <SCORE.INTRA.VDW>
0.435076

>  <SCORE.INTRA.VDW.0>
0.515983

>  <SCORE.INTRA.norm>
-0.48631

>  <SCORE.RESTR>
0.0207986

>  <SCORE.RESTR.CAVITY>
0.0207986

>  <SCORE.RESTR.norm>
0.00148561

>  <SCORE.SYSTEM>
0

>  <SCORE.SYSTEM.CONST>
0

>  <SCORE.SYSTEM.DIHEDRAL>
0

>  <SCORE.SYSTEM.SOLV>
0

>  <SCORE.SYSTEM.norm>
0

>  <SCORE.heavy>
14

>  <SCORE.norm>
-0.858864

>  <RMSD>
6.060

$$$$
1xpf_lig
 OpenBabel02141814123D
libRbt.so/2013.1/901 2013/11/27
 14 13  0  0  0  0  0  0  0  0999 V2000
   19.7853    3.8130   69.3558 N   0  0  0  0  0  0  0  0  0  0  0  0
   19.5220    2.4303   69.7094 C   0  0  0  0  0  0  0  0  0  0  0  0
   20.1444    1.5045   68.7341 C   0  0  0  0  0  0  0  0  0  0  0  0
   19.3558    1.6241   67.4671 C   0  0  0  0  0  0  0  0  0  0  0  0
   18.0535    0.9595   67.7179 N   0  0  0  0  0  0  0  0  0  0  0  0
   18.0719   -0.4439   67.2029 C   0  0  0  0  0  0  0  0  0  0  0  0
   16.8153   -0.8141   66.3963 C   0  0  0  0  0  0  0  0  0  0  0  0
   16.6931   -0.0712   65.0541 C   0  0  0  0  0  0  0  0  0  0  0  0
   15.4093   -0.5017   64.3607 C   0  0  0  0  0  0  0  0  0  0  0  0
   15.4019    0.2391   63.0908 N   0  0  0  0  0  0  0  0  0  0  0  0
   14.2859   -0.0184   62.1379 C   0  0  0  0  0  0  0  0  0  0  0  0
   14.9461    0.4283   60.8155 C   0  0  0  0  0  0  0  0  0  0  0  0
   14.1548    0.3198   59.5368 C   0  0  0  0  0  0  0  0  0  0  0  0
   12.9394    1.1146   59.5027 N   0  0  0  0  0  0  0  0  0  0  0  0
  1  2  1  0  0  0  0
  2  3  1  0  0  0  0
  3  4  1  0  0  0  0
  4  5  1  0  0  0  0
  5  6  1  0  0  0  0
  6  7  1  0  0  0  0
  7  8  1  0  0  0  0
  8  9  1  0  0  0  0
  9 10  1  0  0  0  0
 10 11  1  0  0  0  0
 11 12  1  0  0  0  0
 12 13  1  0  0  0  0
 13 14  1  0  0  0  0
M  END
>  <CHROM.1>
-71.13703210,-72.18017240,-97.06369085,-133.98806258,67.97512691,-179.17121761
-178.97532537,177.08906276,-157.01589462,179.19001110,61.36650381,16.82715896
0.75568048,65.07736072,-0.24951220,-0.97784209,-0.48827113

>  <Name>
1xpf_lig

>  <RI>
0

>  <Rbt.Current_Directory>
/home/afrankz/demos/rdock_decoys_rna/rnas/1xpf

>  <Rbt.Executable>
rbdock ($Id: //depot/dev/client3/rdock/2013.1/src/exe/rbdock.cxx#4 $)

>  <Rbt.Library>
libRbt.so (2013.1, Build901 2013/11/27)

>  <Rbt.Parameter_File>
/export/apps/rDock/src/rDock_2013.1_src/data/scripts/dock_solv.prm

>  <Rbt.Receptor>
prm/pocket_docking_8.prm

>  <SCORE>
-13.812

>  <SCORE.INTER>
-6.33945

>  <SCORE.INTER.CONST>
1

>  <SCORE.INTER.POLAR>
-0.8

>  <SCORE.INTER.ROT>
11

>  <SCORE.INTER.SOLV>
14.8574

>  <SCORE.INTER.VDW>
-17.4454

>  <SCORE.INTER.norm>
-0.452818

>  <SCORE.INTRA>
-7.47257

>  <SCORE.INTRA.DIHEDRAL>
-14.2744

>  <SCORE.INTRA.DIHEDRAL.0>
17.7811

>  <SCORE.INTRA.POLAR>
0

>  <SCORE.INTRA.POLAR.0>
0

>  <SCORE.INTRA.REPUL>
0

>  <SCORE.INTRA.REPUL.0>
0

>  <SCORE.INTRA.SOLV>
1.63188

>  <SCORE.INTRA.SOLV.lig_0>
-47.9565

>  <SCORE.INTRA.VDW>
-1.15131

>  <SCORE.INTRA.VDW.0>
0.515983

>  <SCORE.INTRA.norm>
-0.533755

>  <SCORE.RESTR>
0

>  <SCORE.RESTR.CAVITY>
0

>  <SCORE.RESTR.norm>
0

>  <SCORE.SYSTEM>
0

>  <SCORE.SYSTEM.CONST>
0

>  <SCORE.SYSTEM.DIHEDRAL>
0

>  <SCORE.SYSTEM.SOLV>
0

>  <SCORE.SYSTEM.norm>
0

>  <SCORE.heavy>
14

>  <SCORE.norm>
-0.986572

>  <RMSD>
6.116

$$$$
1xpf_lig
 OpenBabel02141814123D
libRbt.so/2013.1/901 2013/11/27
 14 13  0  0  0  0  0  0  0  0999 V2000
   19.6026    1.6457   64.9100 N   0  0  0  0  0  0  0  0  0  0  0  0
   20.0043    1.6266   66.3044 C   0  0  0  0  0  0  0  0  0  0  0  0
   19.7543    0.2982   66.9115 C   0  0  0  0  0  0  0  0  0  0  0  0
   18.2691    0.1575   67.0367 C   0  0  0  0  0  0  0  0  0  0  0  0
   18.0223   -1.1731   67.6444 N   0  0  0  0  0  0  0  0  0  0  0  0
   16.5551   -1.4200   67.7905 C   0  0  0  0  0  0  0  0  0  0  0  0
   16.2204   -2.5191   68.8136 C   0  0  0  0  0  0  0  0  0  0  0  0
   16.7056   -3.9214   68.4052 C   0  0  0  0  0  0  0  0  0  0  0  0
   16.1715   -4.9428   69.3980 C   0  0  0  0  0  0  0  0  0  0  0  0
   16.6595   -6.2383   68.9030 N   0  0  0  0  0  0  0  0  0  0  0  0
   15.8952   -6.9017   67.8096 C   0  0  0  0  0  0  0  0  0  0  0  0
   16.5973   -8.2766   67.7794 C   0  0  0  0  0  0  0  0  0  0  0  0
   18.0211   -8.3536   67.2898 C   0  0  0  0  0  0  0  0  0  0  0  0
   18.5772   -9.6947   67.2408 N   0  0  0  0  0  0  0  0  0  0  0  0
  1  2  1  0  0  0  0
  2  3  1  0  0  0  0
  3  4  1  0  0  0  0
  4  5  1  0  0  0  0
  5  6  1  0  0  0  0
  6  7  1  0  0  0  0
  7  8  1  0  0  0  0
  8  9  1  0  0  0  0
  9 10  1  0  0  0  0
 10 11  1  0  0  0  0
 11 12  1  0  0  0  0
 12 13  1  0  0  0  0
 13 14  1  0  0  0  0
M  END
>  <CHROM.1>
-70.70506668,179.99605121,-179.02538972,-160.48579014,-65.66279670,-173.01786455
178.63830299,-81.93924328,-171.19139275,-69.01775140,-177.36590765,17.64657800
-3.55080987,67.58850367,-1.29324316,-0.66255397,-3.13104912

>  <Name>
1xpf_lig

>  <RI>
0

>  <Rbt.Current_Directory>
/home/afrankz/demos/rdock_decoys_rna/rnas/1xpf

>  <Rbt.Executable>
rbdock ($Id: //depot/dev/client3/rdock/2013.1/src/exe/rbdock.cxx#4 $)

>  <Rbt.Library>
libRbt.so (2013.1, Build901 2013/11/27)

>  <Rbt.Parameter_File>
/export/apps/rDock/src/rDock_2013.1_src/data/scripts/dock_solv.prm

>  <Rbt.Receptor>
prm/pocket_docking_7.prm

>  <SCORE>
-14.6033

>  <SCORE.INTER>
-5.78291

>  <SCORE.INTER.CONST>
1

>  <SCORE.INTER.POLAR>
-0.8

>  <SCORE.INTER.ROT>
11

>  <SCORE.INTER.SOLV>
9.3525

>  <SCORE.INTER.VDW>
-15.2394

>  <SCORE.INTER.norm>
-0.413065

>  <SCORE.INTRA>
-8.82042

>  <SCORE.INTRA.DIHEDRAL>
-15.9963

>  <SCORE.INTRA.DIHEDRAL.0>
17.7811

>  <SCORE.INTRA.POLAR>
0

>  <SCORE.INTRA.POLAR.0>
0

>  <SCORE.INTRA.REPUL>
0

>  <SCORE.INTRA.REPUL.0>
0

>  <SCORE.INTRA.SOLV>
0.600437

>  <SCORE.INTRA.SOLV.lig_0>
-47.9565

>  <SCORE.INTRA.VDW>
-1.12248

>  <SCORE.INTRA.VDW.0>
0.515983

>  <SCORE.INTRA.norm>
-0.63003

>  <SCORE.RESTR>
0

>  <SCORE.RESTR.CAVITY>
0

>  <SCORE.RESTR.norm>
0

>  <SCORE.SYSTEM>
0

>  <SCORE.SYSTEM.CONST>
0

>  <SCORE.SYSTEM.DIHEDRAL>
0

>  <SCORE.SYSTEM.SOLV>
0

>  <SCORE.SYSTEM.norm>
0

>  <SCORE.heavy>
14

>  <SCORE.norm>
-1.04309

>  <RMSD>
6.188

$$$$
1xpf_lig
 OpenBabel02141814123D
libRbt.so/2013.1/901 2013/11/27
 14 13  0  0  0  0  0  0  0  0999 V2000
   16.7277   -5.0800   65.1996 N   0  0  0  0  0  0  0  0  0  0  0  0
   17.1885   -6.1030   66.1201 C   0  0  0  0  0  0  0  0  0  0  0  0
   16.0457   -6.8152   66.7387 C   0  0  0  0  0  0  0  0  0  0  0  0
   15.3706   -5.8343   67.6461 C   0  0  0  0  0  0  0  0  0  0  0  0
   16.2395   -5.6996   68.8409 N   0  0  0  0  0  0  0  0  0  0  0  0
   16.8229   -4.3251   68.9140 C   0  0  0  0  0  0  0  0  0  0  0  0
   15.8540   -3.2814   69.4959 C   0  0  0  0  0  0  0  0  0  0  0  0
   16.4420   -1.8616   69.5802 C   0  0  0  0  0  0  0  0  0  0  0  0
   16.7042   -1.3460   68.1732 C   0  0  0  0  0  0  0  0  0  0  0  0
   17.7083   -0.2856   68.3429 N   0  0  0  0  0  0  0  0  0  0  0  0
   18.2725    0.3455   67.1170 C   0  0  0  0  0  0  0  0  0  0  0  0
   19.4717    1.1040   67.7262 C   0  0  0  0  0  0  0  0  0  0  0  0
   19.2026    2.2757   68.6359 C   0  0  0  0  0  0  0  0  0  0  0  0
   20.3759    3.0568   68.9871 N   0  0  0  0  0  0  0  0  0  0  0  0
  1  2  1  0  0  0  0
  2  3  1  0  0  0  0
  3  4  1  0  0  0  0
  4  5  1  0  0  0  0
  5  6  1  0  0  0  0
  6  7  1  0  0  0  0
  7  8  1  0  0  0  0
  8  9  1  0  0  0  0
  9 10  1  0  0  0  0
 10 11  1  0  0  0  0
 11 12  1  0  0  0  0
 12 13  1  0  0  0  0
 13 14  1  0  0  0  0
M  END
>  <CHROM.1>
-68.82271595,-74.84917312,113.38741013,80.49533367,179.87559748,65.24299602
-158.34147639,174.65017730,-167.03632404,-68.20106207,-170.52776349,17.31597587
-2.41802328,67.96560522,-2.29077246,0.98572610,0.78453947

>  <Name>
1xpf_lig

>  <RI>
0

>  <Rbt.Current_Directory>
/home/afrankz/demos/rdock_decoys_rna/rnas/1xpf

>  <Rbt.Executable>
rbdock ($Id: //depot/dev/client3/rdock/2013.1/src/exe/rbdock.cxx#4 $)

>  <Rbt.Library>
libRbt.so (2013.1, Build901 2013/11/27)

>  <Rbt.Parameter_File>
/export/apps/rDock/src/rDock_2013.1_src/data/scripts/dock_solv.prm

>  <Rbt.Receptor>
prm/blind_docking_80.prm

>  <SCORE>
-14.3637

>  <SCORE.INTER>
-8.66822

>  <SCORE.INTER.CONST>
1

>  <SCORE.INTER.POLAR>
-1.44888

>  <SCORE.INTER.ROT>
11

>  <SCORE.INTER.SOLV>
11.8305

>  <SCORE.INTER.VDW>
-15.826

>  <SCORE.INTER.norm>
-0.619158

>  <SCORE.INTRA>
-5.69547

>  <SCORE.INTRA.DIHEDRAL>
-12.7741

>  <SCORE.INTRA.DIHEDRAL.0>
17.7811

>  <SCORE.INTRA.POLAR>
0

>  <SCORE.INTRA.POLAR.0>
0

>  <SCORE.INTRA.REPUL>
0

>  <SCORE.INTRA.REPUL.0>
0

>  <SCORE.INTRA.SOLV>
2.04135

>  <SCORE.INTRA.SOLV.lig_0>
-47.9565

>  <SCORE.INTRA.VDW>
-0.329091

>  <SCORE.INTRA.VDW.0>
0.515983

>  <SCORE.INTRA.norm>
-0.406819

>  <SCORE.RESTR>
0

>  <SCORE.RESTR.CAVITY>
0

>  <SCORE.RESTR.norm>
0

>  <SCORE.SYSTEM>
0

>  <SCORE.SYSTEM.CONST>
0

>  <SCORE.SYSTEM.DIHEDRAL>
0

>  <SCORE.SYSTEM.SOLV>
0

>  <SCORE.SYSTEM.norm>
0

>  <SCORE.heavy>
14

>  <SCORE.norm>
-1.02598

>  <RMSD>
6.214

$$$$
1xpf_lig
 OpenBabel02141814123D
libRbt.so/2013.1/901 2013/11/27
 14 13  0  0  0  0  0  0  0  0999 V2000
   19.9516    2.6524   71.4926 N   0  0  0  0  0  0  0  0  0  0  0  0
   19.3960    3.0121   70.2010 C   0  0  0  0  0  0  0  0  0  0  0  0
   20.0822    2.2861   69.1064 C   0  0  0  0  0  0  0  0  0  0  0  0
   19.4952    2.7903   67.8248 C   0  0  0  0  0  0  0  0  0  0  0  0
   20.1721    2.0497   66.7321 N   0  0  0  0  0  0  0  0  0  0  0  0
   19.2817    0.9755   66.1952 C   0  0  0  0  0  0  0  0  0  0  0  0
   19.4183   -0.3611   66.9447 C   0  0  0  0  0  0  0  0  0  0  0  0
   18.4018   -1.4301   66.5058 C   0  0  0  0  0  0  0  0  0  0  0  0
   17.0467   -1.1117   67.1195 C   0  0  0  0  0  0  0  0  0  0  0  0
   17.1383   -1.5969   68.5042 N   0  0  0  0  0  0  0  0  0  0  0  0
   15.8748   -1.9740   69.1978 C   0  0  0  0  0  0  0  0  0  0  0  0
   16.4473   -2.6290   70.4735 C   0  0  0  0  0  0  0  0  0  0  0  0
   17.3402   -3.8354   70.3316 C   0  0  0  0  0  0  0  0  0  0  0  0
   16.6952   -5.0081   69.7670 N   0  0  0  0  0  0  0  0  0  0  0  0
  1  2  1  0  0  0  0
  2  3  1  0  0  0  0
  3  4  1  0  0  0  0
  4  5  1  0  0  0  0
  5  6  1  0  0  0  0
  6  7  1  0  0  0  0
  7  8  1  0  0  0  0
  8  9  1  0  0  0  0
  9 10  1  0  0  0  0
 10 11  1  0  0  0  0
 11 12  1  0  0  0  0
 12 13  1  0  0  0  0
 13 14  1  0  0  0  0
M  END
>  <CHROM.1>
-176.56368467,-179.31670228,102.82531308,-88.40592516,173.69890543,-76.77544650
-79.64168974,-154.46630906,170.84504773,-60.17389177,-64.28661217,18.33861602
-0.29850724,68.59950947,0.05756476,1.08251436,1.34713718

>  <Name>
1xpf_lig

>  <RI>
0

>  <Rbt.Current_Directory>
/home/afrankz/demos/rdock_decoys_rna/rnas/1xpf

>  <Rbt.Executable>
rbdock ($Id: //depot/dev/client3/rdock/2013.1/src/exe/rbdock.cxx#4 $)

>  <Rbt.Library>
libRbt.so (2013.1, Build901 2013/11/27)

>  <Rbt.Parameter_File>
/export/apps/rDock/src/rDock_2013.1_src/data/scripts/dock_solv.prm

>  <Rbt.Receptor>
prm/blind_docking_80.prm

>  <SCORE>
-14.1876

>  <SCORE.INTER>
-7.08048

>  <SCORE.INTER.CONST>
1

>  <SCORE.INTER.POLAR>
-0.8

>  <SCORE.INTER.ROT>
11

>  <SCORE.INTER.SOLV>
12.6404

>  <SCORE.INTER.VDW>
-17.2005

>  <SCORE.INTER.norm>
-0.505748

>  <SCORE.INTRA>
-7.15968

>  <SCORE.INTRA.DIHEDRAL>
-13.0228

>  <SCORE.INTRA.DIHEDRAL.0>
17.7811

>  <SCORE.INTRA.POLAR>
0

>  <SCORE.INTRA.POLAR.0>
0

>  <SCORE.INTRA.REPUL>
0

>  <SCORE.INTRA.REPUL.0>
0

>  <SCORE.INTRA.SOLV>
1.24099

>  <SCORE.INTRA.SOLV.lig_0>
-47.9565

>  <SCORE.INTRA.VDW>
-1.26876

>  <SCORE.INTRA.VDW.0>
0.515983

>  <SCORE.INTRA.norm>
-0.511406

>  <SCORE.RESTR>
0.0525854

>  <SCORE.RESTR.CAVITY>
0.0525854

>  <SCORE.RESTR.norm>
0.0037561

>  <SCORE.SYSTEM>
0

>  <SCORE.SYSTEM.CONST>
0

>  <SCORE.SYSTEM.DIHEDRAL>
0

>  <SCORE.SYSTEM.SOLV>
0

>  <SCORE.SYSTEM.norm>
0

>  <SCORE.heavy>
14

>  <SCORE.norm>
-1.0134

>  <RMSD>
6.214

$$$$
1xpf_lig
 OpenBabel02141814123D
libRbt.so/2013.1/901 2013/11/27
 14 13  0  0  0  0  0  0  0  0999 V2000
   24.8572    6.2823   60.9683 N   0  0  0  0  0  0  0  0  0  0  0  0
   24.4263    7.3887   61.8028 C   0  0  0  0  0  0  0  0  0  0  0  0
   24.5406    7.0464   63.2400 C   0  0  0  0  0  0  0  0  0  0  0  0
   23.5819    5.9241   63.4902 C   0  0  0  0  0  0  0  0  0  0  0  0
   22.2309    6.5327   63.5609 N   0  0  0  0  0  0  0  0  0  0  0  0
   21.2020    5.5922   63.0206 C   0  0  0  0  0  0  0  0  0  0  0  0
   20.1666    5.1524   64.0700 C   0  0  0  0  0  0  0  0  0  0  0  0
   20.7754    4.4234   65.2810 C   0  0  0  0  0  0  0  0  0  0  0  0
   19.6730    4.1128   66.2822 C   0  0  0  0  0  0  0  0  0  0  0  0
   20.3266    3.3038   67.3213 N   0  0  0  0  0  0  0  0  0  0  0  0
   19.5511    2.9906   68.5542 C   0  0  0  0  0  0  0  0  0  0  0  0
   19.5091    1.4495   68.4676 C   0  0  0  0  0  0  0  0  0  0  0  0
   18.6686    0.8058   67.3943 C   0  0  0  0  0  0  0  0  0  0  0  0
   18.4789   -0.6265   67.5457 N   0  0  0  0  0  0  0  0  0  0  0  0
  1  2  1  0  0  0  0
  2  3  1  0  0  0  0
  3  4  1  0  0  0  0
  4  5  1  0  0  0  0
  5  6  1  0  0  0  0
  6  7  1  0  0  0  0
  7  8  1  0  0  0  0
  8  9  1  0  0  0  0
  9 10  1  0  0  0  0
 10 11  1  0  0  0  0
 11 12  1  0  0  0  0
 12 13  1  0  0  0  0
 13 14  1  0  0  0  0
M  END
>  <CHROM.1>
-64.30877157,-77.43611023,146.91800271,116.89412624,-59.99561220,176.69074729
174.33975832,171.75095657,118.45932745,-70.03072143,-168.53188407,21.28479172
4.31292011,65.07145627,-0.02838621,-1.00752861,-2.40506519

>  <Name>
1xpf_lig

>  <RI>
0

>  <Rbt.Current_Directory>
/home/afrankz/demos/rdock_decoys_rna/rnas/1xpf

>  <Rbt.Executable>
rbdock ($Id: //depot/dev/client3/rdock/2013.1/src/exe/rbdock.cxx#4 $)

>  <Rbt.Library>
libRbt.so (2013.1, Build901 2013/11/27)

>  <Rbt.Parameter_File>
/export/apps/rDock/src/rDock_2013.1_src/data/scripts/dock_solv.prm

>  <Rbt.Receptor>
prm/pocket_docking_6.prm

>  <SCORE>
-9.19084

>  <SCORE.INTER>
-2.53126

>  <SCORE.INTER.CONST>
1

>  <SCORE.INTER.POLAR>
-0.765905

>  <SCORE.INTER.ROT>
11

>  <SCORE.INTER.SOLV>
9.87134

>  <SCORE.INTER.VDW>
-13.3583

>  <SCORE.INTER.norm>
-0.180804

>  <SCORE.INTRA>
-6.65957

>  <SCORE.INTRA.DIHEDRAL>
-12.476

>  <SCORE.INTRA.DIHEDRAL.0>
17.7811

>  <SCORE.INTRA.POLAR>
0

>  <SCORE.INTRA.POLAR.0>
0

>  <SCORE.INTRA.REPUL>
0

>  <SCORE.INTRA.REPUL.0>
0

>  <SCORE.INTRA.SOLV>
1.81421

>  <SCORE.INTRA.SOLV.lig_0>
-47.9565

>  <SCORE.INTRA.VDW>
-1.32866

>  <SCORE.INTRA.VDW.0>
0.515983

>  <SCORE.INTRA.norm>
-0.475684

>  <SCORE.RESTR>
0

>  <SCORE.RESTR.CAVITY>
0

>  <SCORE.RESTR.norm>
0

>  <SCORE.SYSTEM>
0

>  <SCORE.SYSTEM.CONST>
0

>  <SCORE.SYSTEM.DIHEDRAL>
0

>  <SCORE.SYSTEM.SOLV>
0

>  <SCORE.SYSTEM.norm>
0

>  <SCORE.heavy>
14

>  <SCORE.norm>
-0.656488

>  <RMSD>
6.225

$$$$
1xpf_lig
 OpenBabel02141814123D
libRbt.so/2013.1/901 2013/11/27
 14 13  0  0  0  0  0  0  0  0999 V2000
   15.0526   -0.6999   63.5425 N   0  0  0  0  0  0  0  0  0  0  0  0
   15.1095    0.7246   63.2709 C   0  0  0  0  0  0  0  0  0  0  0  0
   16.4952    1.2346   63.3959 C   0  0  0  0  0  0  0  0  0  0  0  0
   16.4556    2.6804   63.0092 C   0  0  0  0  0  0  0  0  0  0  0  0
   17.8578    3.1636   63.0432 N   0  0  0  0  0  0  0  0  0  0  0  0
   18.5722    2.7921   61.7836 C   0  0  0  0  0  0  0  0  0  0  0  0
   19.8500    3.6140   61.5421 C   0  0  0  0  0  0  0  0  0  0  0  0
   20.5932    3.2468   60.2455 C   0  0  0  0  0  0  0  0  0  0  0  0
   21.7491    4.2146   60.0418 C   0  0  0  0  0  0  0  0  0  0  0  0
   22.3917    3.7750   58.7947 N   0  0  0  0  0  0  0  0  0  0  0  0
   23.4968    4.6098   58.2458 C   0  0  0  0  0  0  0  0  0  0  0  0
   24.0651    3.6467   57.1810 C   0  0  0  0  0  0  0  0  0  0  0  0
   25.2542    4.0869   56.3654 C   0  0  0  0  0  0  0  0  0  0  0  0
   25.8327    3.0534   55.5243 N   0  0  0  0  0  0  0  0  0  0  0  0
  1  2  1  0  0  0  0
  2  3  1  0  0  0  0
  3  4  1  0  0  0  0
  4  5  1  0  0  0  0
  5  6  1  0  0  0  0
  6  7  1  0  0  0  0
  7  8  1  0  0  0  0
  8  9  1  0  0  0  0
  9 10  1  0  0  0  0
 10 11  1  0  0  0  0
 11 12  1  0  0  0  0
 12 13  1  0  0  0  0
 13 14  1  0  0  0  0
M  END
>  <CHROM.1>
176.31330903,-176.12156749,81.37118117,161.72867781,-179.74858156,174.18145618
179.62910543,174.31839035,167.66761872,-179.04098993,171.84478771,20.19823523
2.86756311,60.42765882,3.07435797,0.67471682,0.49955178

>  <Name>
1xpf_lig

>  <RI>
0

>  <Rbt.Current_Directory>
/home/afrankz/demos/rdock_decoys_rna/rnas/1xpf

>  <Rbt.Executable>
rbdock ($Id: //depot/dev/client3/rdock/2013.1/src/exe/rbdock.cxx#4 $)

>  <Rbt.Library>
libRbt.so (2013.1, Build901 2013/11/27)

>  <Rbt.Parameter_File>
/export/apps/rDock/src/rDock_2013.1_src/data/scripts/dock_solv.prm

>  <Rbt.Receptor>
prm/pocket_docking_8.prm

>  <SCORE>
-14.3774

>  <SCORE.INTER>
-4.48316

>  <SCORE.INTER.CONST>
1

>  <SCORE.INTER.POLAR>
-0.979552

>  <SCORE.INTER.ROT>
11

>  <SCORE.INTER.SOLV>
15.1724

>  <SCORE.INTER.VDW>
-15.7144

>  <SCORE.INTER.norm>
-0.320226

>  <SCORE.INTRA>
-9.89423

>  <SCORE.INTRA.DIHEDRAL>
-16.5407

>  <SCORE.INTRA.DIHEDRAL.0>
17.7811

>  <SCORE.INTRA.POLAR>
0

>  <SCORE.INTRA.POLAR.0>
0

>  <SCORE.INTRA.REPUL>
0

>  <SCORE.INTRA.REPUL.0>
0

>  <SCORE.INTRA.SOLV>
-0.99136

>  <SCORE.INTRA.SOLV.lig_0>
-47.9565

>  <SCORE.INTRA.VDW>
-1.12822

>  <SCORE.INTRA.VDW.0>
0.515983

>  <SCORE.INTRA.norm>
-0.706731

>  <SCORE.RESTR>
0

>  <SCORE.RESTR.CAVITY>
0

>  <SCORE.RESTR.norm>
0

>  <SCORE.SYSTEM>
0

>  <SCORE.SYSTEM.CONST>
0

>  <SCORE.SYSTEM.DIHEDRAL>
0

>  <SCORE.SYSTEM.SOLV>
0

>  <SCORE.SYSTEM.norm>
0

>  <SCORE.heavy>
14

>  <SCORE.norm>
-1.02696

>  <RMSD>
6.254

$$$$
1xpf_lig
 OpenBabel02141814123D
libRbt.so/2013.1/901 2013/11/27
 14 13  0  0  0  0  0  0  0  0999 V2000
   18.6552   -0.9299   60.1672 N   0  0  0  0  0  0  0  0  0  0  0  0
   17.3906   -1.3510   60.7414 C   0  0  0  0  0  0  0  0  0  0  0  0
   16.8526   -2.5353   60.0316 C   0  0  0  0  0  0  0  0  0  0  0  0
   17.6227   -3.7188   60.5292 C   0  0  0  0  0  0  0  0  0  0  0  0
   17.1644   -3.9650   61.9185 N   0  0  0  0  0  0  0  0  0  0  0  0
   18.1448   -4.8238   62.6507 C   0  0  0  0  0  0  0  0  0  0  0  0
   17.9446   -4.8135   64.1761 C   0  0  0  0  0  0  0  0  0  0  0  0
   16.5920   -5.3885   64.6325 C   0  0  0  0  0  0  0  0  0  0  0  0
   16.4355   -5.1672   66.1294 C   0  0  0  0  0  0  0  0  0  0  0  0
   16.0663   -3.7504   66.2630 N   0  0  0  0  0  0  0  0  0  0  0  0
   16.8720   -2.9021   67.1853 C   0  0  0  0  0  0  0  0  0  0  0  0
   16.6198   -1.5095   66.5678 C   0  0  0  0  0  0  0  0  0  0  0  0
   17.5807   -0.3913   66.8827 C   0  0  0  0  0  0  0  0  0  0  0  0
   17.8085   -0.1641   68.2993 N   0  0  0  0  0  0  0  0  0  0  0  0
  1  2  1  0  0  0  0
  2  3  1  0  0  0  0
  3  4  1  0  0  0  0
  4  5  1  0  0  0  0
  5  6  1  0  0  0  0
  6  7  1  0  0  0  0
  7  8  1  0  0  0  0
  8  9  1  0  0  0  0
  9 10  1  0  0  0  0
 10 11  1  0  0  0  0
 11 12  1  0  0  0  0
 12 13  1  0  0  0  0
 13 14  1  0  0  0  0
M  END
>  <CHROM.1>
77.74849227,71.93931498,-162.16040243,164.51170700,63.26671366,-172.96006778
77.59980875,-127.22936707,155.44759606,-160.04969464,-53.21292444,17.26776211
-2.95818200,64.01242056,-1.07106045,1.37308326,0.98170863

>  <Name>
1xpf_lig

>  <RI>
0

>  <Rbt.Current_Directory>
/home/afrankz/demos/rdock_decoys_rna/rnas/1xpf

>  <Rbt.Executable>
rbdock ($Id: //depot/dev/client3/rdock/2013.1/src/exe/rbdock.cxx#4 $)

>  <Rbt.Library>
libRbt.so (2013.1, Build901 2013/11/27)

>  <Rbt.Parameter_File>
/export/apps/rDock/src/rDock_2013.1_src/data/scripts/dock_solv.prm

>  <Rbt.Receptor>
prm/pocket_docking_5.prm

>  <SCORE>
-10.8555

>  <SCORE.INTER>
-4.63871

>  <SCORE.INTER.CONST>
1

>  <SCORE.INTER.POLAR>
-1.51191

>  <SCORE.INTER.ROT>
11

>  <SCORE.INTER.SOLV>
11.6327

>  <SCORE.INTER.VDW>
-12.8637

>  <SCORE.INTER.norm>
-0.331336

>  <SCORE.INTRA>
-6.2168

>  <SCORE.INTRA.DIHEDRAL>
-11.2486

>  <SCORE.INTRA.DIHEDRAL.0>
17.7811

>  <SCORE.INTRA.POLAR>
0

>  <SCORE.INTRA.POLAR.0>
0

>  <SCORE.INTRA.REPUL>
0

>  <SCORE.INTRA.REPUL.0>
0

>  <SCORE.INTRA.SOLV>
2.03491

>  <SCORE.INTRA.SOLV.lig_0>
-47.9565

>  <SCORE.INTRA.VDW>
-1.60994

>  <SCORE.INTRA.VDW.0>
0.515983

>  <SCORE.INTRA.norm>
-0.444057

>  <SCORE.RESTR>
0

>  <SCORE.RESTR.CAVITY>
0

>  <SCORE.RESTR.norm>
0

>  <SCORE.SYSTEM>
0

>  <SCORE.SYSTEM.CONST>
0

>  <SCORE.SYSTEM.DIHEDRAL>
0

>  <SCORE.SYSTEM.SOLV>
0

>  <SCORE.SYSTEM.norm>
0

>  <SCORE.heavy>
14

>  <SCORE.norm>
-0.775393

>  <RMSD>
6.270

$$$$
1xpf_lig
 OpenBabel02141814123D
libRbt.so/2013.1/901 2013/11/27
 14 13  0  0  0  0  0  0  0  0999 V2000
   20.0077   -0.1356   59.2332 N   0  0  0  0  0  0  0  0  0  0  0  0
   19.5041   -1.1583   60.1312 C   0  0  0  0  0  0  0  0  0  0  0  0
   18.2854   -1.7963   59.5801 C   0  0  0  0  0  0  0  0  0  0  0  0
   17.2440   -0.7244   59.4913 C   0  0  0  0  0  0  0  0  0  0  0  0
   15.9523   -1.4119   59.2479 N   0  0  0  0  0  0  0  0  0  0  0  0
   14.8086   -0.4746   59.4678 C   0  0  0  0  0  0  0  0  0  0  0  0
   14.8774    0.2663   60.8143 C   0  0  0  0  0  0  0  0  0  0  0  0
   15.0914   -0.6582   62.0259 C   0  0  0  0  0  0  0  0  0  0  0  0
   15.3056    0.1910   63.2697 C   0  0  0  0  0  0  0  0  0  0  0  0
   15.8740   -0.7331   64.2619 N   0  0  0  0  0  0  0  0  0  0  0  0
   16.3426   -0.1659   65.5574 C   0  0  0  0  0  0  0  0  0  0  0  0
   16.5260   -1.4632   66.3744 C   0  0  0  0  0  0  0  0  0  0  0  0
   16.4795   -1.3855   67.8793 C   0  0  0  0  0  0  0  0  0  0  0  0
   17.4582   -0.4918   68.4741 N   0  0  0  0  0  0  0  0  0  0  0  0
  1  2  1  0  0  0  0
  2  3  1  0  0  0  0
  3  4  1  0  0  0  0
  4  5  1  0  0  0  0
  5  6  1  0  0  0  0
  6  7  1  0  0  0  0
  7  8  1  0  0  0  0
  8  9  1  0  0  0  0
  9 10  1  0  0  0  0
 10 11  1  0  0  0  0
 11 12  1  0  0  0  0
 12 13  1  0  0  0  0
 13 14  1  0  0  0  0
M  END
>  <CHROM.1>
-63.26451125,-167.07199301,166.41828825,-50.63287944,-50.98561702,173.41951564
-164.21149144,173.29071256,167.29473729,-156.72036528,-57.95337271,16.69665425
-0.72441069,62.55763905,-1.46081096,-0.13383258,1.58691557

>  <Name>
1xpf_lig

>  <RI>
0

>  <Rbt.Current_Directory>
/home/afrankz/demos/rdock_decoys_rna/rnas/1xpf

>  <Rbt.Executable>
rbdock ($Id: //depot/dev/client3/rdock/2013.1/src/exe/rbdock.cxx#4 $)

>  <Rbt.Library>
libRbt.so (2013.1, Build901 2013/11/27)

>  <Rbt.Parameter_File>
/export/apps/rDock/src/rDock_2013.1_src/data/scripts/dock_solv.prm

>  <Rbt.Receptor>
prm/pocket_docking_7.prm

>  <SCORE>
-13.2068

>  <SCORE.INTER>
-7.30625

>  <SCORE.INTER.CONST>
1

>  <SCORE.INTER.POLAR>
-2.09163

>  <SCORE.INTER.ROT>
11

>  <SCORE.INTER.SOLV>
15.9263

>  <SCORE.INTER.VDW>
-14.1409

>  <SCORE.INTER.norm>
-0.521875

>  <SCORE.INTRA>
-5.90053

>  <SCORE.INTRA.DIHEDRAL>
-13.5548

>  <SCORE.INTRA.DIHEDRAL.0>
17.7811

>  <SCORE.INTRA.POLAR>
0

>  <SCORE.INTRA.POLAR.0>
0

>  <SCORE.INTRA.REPUL>
0

>  <SCORE.INTRA.REPUL.0>
0

>  <SCORE.INTRA.SOLV>
1.03148

>  <SCORE.INTRA.SOLV.lig_0>
-47.9565

>  <SCORE.INTRA.VDW>
0.36112

>  <SCORE.INTRA.VDW.0>
0.515983

>  <SCORE.INTRA.norm>
-0.421466

>  <SCORE.RESTR>
0

>  <SCORE.RESTR.CAVITY>
0

>  <SCORE.RESTR.norm>
0

>  <SCORE.SYSTEM>
0

>  <SCORE.SYSTEM.CONST>
0

>  <SCORE.SYSTEM.DIHEDRAL>
0

>  <SCORE.SYSTEM.SOLV>
0

>  <SCORE.SYSTEM.norm>
0

>  <SCORE.heavy>
14

>  <SCORE.norm>
-0.943342

>  <RMSD>
6.302

$$$$
1xpf_lig
 OpenBabel02141814123D
libRbt.so/2013.1/901 2013/11/27
 14 13  0  0  0  0  0  0  0  0999 V2000
   20.8609    5.6285   72.0710 N   0  0  0  0  0  0  0  0  0  0  0  0
   21.8331    5.7023   70.9961 C   0  0  0  0  0  0  0  0  0  0  0  0
   21.2119    5.3655   69.6936 C   0  0  0  0  0  0  0  0  0  0  0  0
   20.8536    3.9131   69.7530 C   0  0  0  0  0  0  0  0  0  0  0  0
   20.2835    3.5659   68.4283 N   0  0  0  0  0  0  0  0  0  0  0  0
   19.8732    2.1287   68.3932 C   0  0  0  0  0  0  0  0  0  0  0  0
   19.7864    1.5538   66.9688 C   0  0  0  0  0  0  0  0  0  0  0  0
   19.3917    0.0672   66.9182 C   0  0  0  0  0  0  0  0  0  0  0  0
   17.9407   -0.0788   67.3513 C   0  0  0  0  0  0  0  0  0  0  0  0
   17.7683   -1.5161   67.6081 N   0  0  0  0  0  0  0  0  0  0  0  0
   16.3814   -2.0595   67.6372 C   0  0  0  0  0  0  0  0  0  0  0  0
   16.2915   -2.5027   69.1135 C   0  0  0  0  0  0  0  0  0  0  0  0
   17.1428   -3.6572   69.5776 C   0  0  0  0  0  0  0  0  0  0  0  0
   16.9236   -4.0609   70.9557 N   0  0  0  0  0  0  0  0  0  0  0  0
  1  2  1  0  0  0  0
  2  3  1  0  0  0  0
  3  4  1  0  0  0  0
  4  5  1  0  0  0  0
  5  6  1  0  0  0  0
  6  7  1  0  0  0  0
  7  8  1  0  0  0  0
  8  9  1  0  0  0  0
  9 10  1  0  0  0  0
 10 11  1  0  0  0  0
 11 12  1  0  0  0  0
 12 13  1  0  0  0  0
 13 14  1  0  0  0  0
M  END
>  <CHROM.1>
-67.54765707,-177.72044953,-179.18785785,-157.95257643,178.86824570,69.17288445
-165.67080440,-161.27532513,-115.28108490,-67.81130846,-175.95782774,19.03877850
1.00360709,68.96149834,0.19414911,1.07474036,1.52780947

>  <Name>
1xpf_lig

>  <RI>
0

>  <Rbt.Current_Directory>
/home/afrankz/demos/rdock_decoys_rna/rnas/1xpf

>  <Rbt.Executable>
rbdock ($Id: //depot/dev/client3/rdock/2013.1/src/exe/rbdock.cxx#4 $)

>  <Rbt.Library>
libRbt.so (2013.1, Build901 2013/11/27)

>  <Rbt.Parameter_File>
/export/apps/rDock/src/rDock_2013.1_src/data/scripts/dock_solv.prm

>  <Rbt.Receptor>
prm/pocket_docking_8.prm

>  <SCORE>
-14.0769

>  <SCORE.INTER>
-6.29946

>  <SCORE.INTER.CONST>
1

>  <SCORE.INTER.POLAR>
-0.798399

>  <SCORE.INTER.ROT>
11

>  <SCORE.INTER.SOLV>
8.14627

>  <SCORE.INTER.VDW>
-15.1871

>  <SCORE.INTER.norm>
-0.449962

>  <SCORE.INTRA>
-7.7774

>  <SCORE.INTRA.DIHEDRAL>
-14.3617

>  <SCORE.INTRA.DIHEDRAL.0>
17.7811

>  <SCORE.INTRA.POLAR>
0

>  <SCORE.INTRA.POLAR.0>
0

>  <SCORE.INTRA.REPUL>
0

>  <SCORE.INTRA.REPUL.0>
0

>  <SCORE.INTRA.SOLV>
0.543815

>  <SCORE.INTRA.SOLV.lig_0>
-47.9565

>  <SCORE.INTRA.VDW>
-0.868446

>  <SCORE.INTRA.VDW.0>
0.515983

>  <SCORE.INTRA.norm>
-0.555529

>  <SCORE.RESTR>
0

>  <SCORE.RESTR.CAVITY>
0

>  <SCORE.RESTR.norm>
0

>  <SCORE.SYSTEM>
0

>  <SCORE.SYSTEM.CONST>
0

>  <SCORE.SYSTEM.DIHEDRAL>
0

>  <SCORE.SYSTEM.SOLV>
0

>  <SCORE.SYSTEM.norm>
0

>  <SCORE.heavy>
14

>  <SCORE.norm>
-1.00549

>  <RMSD>
6.319

$$$$
1xpf_lig
 OpenBabel02141814123D
libRbt.so/2013.1/901 2013/11/27
 14 13  0  0  0  0  0  0  0  0999 V2000
   26.1369    0.7862   63.4048 N   0  0  0  0  0  0  0  0  0  0  0  0
   24.8269    0.2740   63.0475 C   0  0  0  0  0  0  0  0  0  0  0  0
   24.7865   -1.2034   63.1546 C   0  0  0  0  0  0  0  0  0  0  0  0
   23.4394   -1.6315   62.6612 C   0  0  0  0  0  0  0  0  0  0  0  0
   22.4629   -1.2315   63.7038 N   0  0  0  0  0  0  0  0  0  0  0  0
   21.4625   -2.3188   63.9315 C   0  0  0  0  0  0  0  0  0  0  0  0
   20.1060   -1.8025   64.4419 C   0  0  0  0  0  0  0  0  0  0  0  0
   20.1842   -1.0724   65.7943 C   0  0  0  0  0  0  0  0  0  0  0  0
   18.7763   -0.8666   66.3323 C   0  0  0  0  0  0  0  0  0  0  0  0
   18.9642   -0.2168   67.6376 N   0  0  0  0  0  0  0  0  0  0  0  0
   19.1238    1.2642   67.6647 C   0  0  0  0  0  0  0  0  0  0  0  0
   19.5632    1.4659   69.1311 C   0  0  0  0  0  0  0  0  0  0  0  0
   19.7508    2.8705   69.6457 C   0  0  0  0  0  0  0  0  0  0  0  0
   20.0917    2.9631   71.0547 N   0  0  0  0  0  0  0  0  0  0  0  0
  1  2  1  0  0  0  0
  2  3  1  0  0  0  0
  3  4  1  0  0  0  0
  4  5  1  0  0  0  0
  5  6  1  0  0  0  0
  6  7  1  0  0  0  0
  7  8  1  0  0  0  0
  8  9  1  0  0  0  0
  9 10  1  0  0  0  0
 10 11  1  0  0  0  0
 11 12  1  0  0  0  0
 12 13  1  0  0  0  0
 13 14  1  0  0  0  0
M  END
>  <CHROM.1>
-175.49670849,-72.18153666,-137.34384631,-152.83648988,-61.04873329,-168.36196145
177.81646663,84.75532853,-169.32234239,-175.70893264,176.71533845,21.40517281
-0.05164874,65.82872712,-0.88186960,0.42391213,0.84156685

>  <Name>
1xpf_lig

>  <RI>
0

>  <Rbt.Current_Directory>
/home/afrankz/demos/rdock_decoys_rna/rnas/1xpf

>  <Rbt.Executable>
rbdock ($Id: //depot/dev/client3/rdock/2013.1/src/exe/rbdock.cxx#4 $)

>  <Rbt.Library>
libRbt.so (2013.1, Build901 2013/11/27)

>  <Rbt.Parameter_File>
/export/apps/rDock/src/rDock_2013.1_src/data/scripts/dock_solv.prm

>  <Rbt.Receptor>
prm/pocket_docking_8.prm

>  <SCORE>
-13.0393

>  <SCORE.INTER>
-4.50057

>  <SCORE.INTER.CONST>
1

>  <SCORE.INTER.POLAR>
-0.524124

>  <SCORE.INTER.ROT>
11

>  <SCORE.INTER.SOLV>
8.39906

>  <SCORE.INTER.VDW>
-14.9863

>  <SCORE.INTER.norm>
-0.321469

>  <SCORE.INTRA>
-8.53873

>  <SCORE.INTRA.DIHEDRAL>
-14.47

>  <SCORE.INTRA.DIHEDRAL.0>
17.7811

>  <SCORE.INTRA.POLAR>
0

>  <SCORE.INTRA.POLAR.0>
0

>  <SCORE.INTRA.REPUL>
0

>  <SCORE.INTRA.REPUL.0>
0

>  <SCORE.INTRA.SOLV>
-0.128344

>  <SCORE.INTRA.SOLV.lig_0>
-47.9565

>  <SCORE.INTRA.VDW>
-1.23954

>  <SCORE.INTRA.VDW.0>
0.515983

>  <SCORE.INTRA.norm>
-0.609909

>  <SCORE.RESTR>
0

>  <SCORE.RESTR.CAVITY>
0

>  <SCORE.RESTR.norm>
0

>  <SCORE.SYSTEM>
0

>  <SCORE.SYSTEM.CONST>
0

>  <SCORE.SYSTEM.DIHEDRAL>
0

>  <SCORE.SYSTEM.SOLV>
0

>  <SCORE.SYSTEM.norm>
0

>  <SCORE.heavy>
14

>  <SCORE.norm>
-0.931378

>  <RMSD>
6.338

$$$$
1xpf_lig
 OpenBabel02141814123D
libRbt.so/2013.1/901 2013/11/27
 14 13  0  0  0  0  0  0  0  0999 V2000
   13.8358   -7.7909   64.3275 N   0  0  0  0  0  0  0  0  0  0  0  0
   14.7363   -6.6636   64.1707 C   0  0  0  0  0  0  0  0  0  0  0  0
   15.9141   -6.7965   65.0601 C   0  0  0  0  0  0  0  0  0  0  0  0
   15.4166   -6.6106   66.4598 C   0  0  0  0  0  0  0  0  0  0  0  0
   16.6077   -6.6753   67.3417 N   0  0  0  0  0  0  0  0  0  0  0  0
   16.4212   -5.8028   68.5413 C   0  0  0  0  0  0  0  0  0  0  0  0
   16.4374   -4.3003   68.2110 C   0  0  0  0  0  0  0  0  0  0  0  0
   16.3962   -3.3879   69.4497 C   0  0  0  0  0  0  0  0  0  0  0  0
   16.2350   -1.9436   69.0003 C   0  0  0  0  0  0  0  0  0  0  0  0
   17.3989   -1.6860   68.1398 N   0  0  0  0  0  0  0  0  0  0  0  0
   17.3318   -0.5318   67.2002 C   0  0  0  0  0  0  0  0  0  0  0  0
   16.5188   -1.1624   66.0489 C   0  0  0  0  0  0  0  0  0  0  0  0
   16.1787   -0.3128   64.8508 C   0  0  0  0  0  0  0  0  0  0  0  0
   17.3230    0.1329   64.0749 N   0  0  0  0  0  0  0  0  0  0  0  0
  1  2  1  0  0  0  0
  2  3  1  0  0  0  0
  3  4  1  0  0  0  0
  4  5  1  0  0  0  0
  5  6  1  0  0  0  0
  6  7  1  0  0  0  0
  7  8  1  0  0  0  0
  8  9  1  0  0  0  0
  9 10  1  0  0  0  0
 10 11  1  0  0  0  0
 11 12  1  0  0  0  0
 12 13  1  0  0  0  0
 13 14  1  0  0  0  0
M  END
>  <CHROM.1>
-69.49969357,-177.18597086,148.37325190,-69.49103847,-173.87691226,-172.75645845
-58.87356824,160.91187096,-81.04212448,178.81371284,64.40482823,16.19648980
-3.82361391,66.63432431,2.60188809,1.26034114,2.28490114

>  <Name>
1xpf_lig

>  <RI>
0

>  <Rbt.Current_Directory>
/home/afrankz/demos/rdock_decoys_rna/rnas/1xpf

>  <Rbt.Executable>
rbdock ($Id: //depot/dev/client3/rdock/2013.1/src/exe/rbdock.cxx#4 $)

>  <Rbt.Library>
libRbt.so (2013.1, Build901 2013/11/27)

>  <Rbt.Parameter_File>
/export/apps/rDock/src/rDock_2013.1_src/data/scripts/dock_solv.prm

>  <Rbt.Receptor>
prm/pocket_docking_7.prm

>  <SCORE>
-11.8344

>  <SCORE.INTER>
-4.49251

>  <SCORE.INTER.CONST>
1

>  <SCORE.INTER.POLAR>
-0.8

>  <SCORE.INTER.ROT>
11

>  <SCORE.INTER.SOLV>
7.68759

>  <SCORE.INTER.VDW>
-13.8242

>  <SCORE.INTER.norm>
-0.320893

>  <SCORE.INTRA>
-7.34192

>  <SCORE.INTRA.DIHEDRAL>
-15.6475

>  <SCORE.INTRA.DIHEDRAL.0>
17.7811

>  <SCORE.INTRA.POLAR>
0

>  <SCORE.INTRA.POLAR.0>
0

>  <SCORE.INTRA.REPUL>
0

>  <SCORE.INTRA.REPUL.0>
0

>  <SCORE.INTRA.SOLV>
0.954878

>  <SCORE.INTRA.SOLV.lig_0>
-47.9565

>  <SCORE.INTRA.VDW>
0.00437852

>  <SCORE.INTRA.VDW.0>
0.515983

>  <SCORE.INTRA.norm>
-0.524423

>  <SCORE.RESTR>
0

>  <SCORE.RESTR.CAVITY>
0

>  <SCORE.RESTR.norm>
0

>  <SCORE.SYSTEM>
0

>  <SCORE.SYSTEM.CONST>
0

>  <SCORE.SYSTEM.DIHEDRAL>
0

>  <SCORE.SYSTEM.SOLV>
0

>  <SCORE.SYSTEM.norm>
0

>  <SCORE.heavy>
14

>  <SCORE.norm>
-0.845316

>  <RMSD>
6.416

$$$$
1xpf_lig
 OpenBabel02141814123D
libRbt.so/2013.1/901 2013/11/27
 14 13  0  0  0  0  0  0  0  0999 V2000
   15.3254   -2.2666   58.9189 N   0  0  0  0  0  0  0  0  0  0  0  0
   15.4161   -3.3790   59.8465 C   0  0  0  0  0  0  0  0  0  0  0  0
   16.7290   -4.0572   59.7364 C   0  0  0  0  0  0  0  0  0  0  0  0
   16.6902   -5.2205   60.6780 C   0  0  0  0  0  0  0  0  0  0  0  0
   16.6533   -4.6519   62.0477 N   0  0  0  0  0  0  0  0  0  0  0  0
   17.8083   -5.1509   62.8550 C   0  0  0  0  0  0  0  0  0  0  0  0
   17.6389   -4.9240   64.3672 C   0  0  0  0  0  0  0  0  0  0  0  0
   16.3846   -5.5886   64.9619 C   0  0  0  0  0  0  0  0  0  0  0  0
   16.2680   -5.2093   66.4305 C   0  0  0  0  0  0  0  0  0  0  0  0
   16.0106   -3.7618   66.4252 N   0  0  0  0  0  0  0  0  0  0  0  0
   16.8660   -2.8967   67.2851 C   0  0  0  0  0  0  0  0  0  0  0  0
   16.5494   -1.5113   66.6812 C   0  0  0  0  0  0  0  0  0  0  0  0
   17.5157   -0.3785   66.9182 C   0  0  0  0  0  0  0  0  0  0  0  0
   17.8368   -0.1331   68.3134 N   0  0  0  0  0  0  0  0  0  0  0  0
  1  2  1  0  0  0  0
  2  3  1  0  0  0  0
  3  4  1  0  0  0  0
  4  5  1  0  0  0  0
  5  6  1  0  0  0  0
  6  7  1  0  0  0  0
  7  8  1  0  0  0  0
  8  9  1  0  0  0  0
  9 10  1  0  0  0  0
 10 11  1  0  0  0  0
 11 12  1  0  0  0  0
 12 13  1  0  0  0  0
 13 14  1  0  0  0  0
M  END
>  <CHROM.1>
-177.21177283,-67.80509481,-122.27006224,-164.30587592,58.55009800,-175.74642048
66.26670715,-129.06848770,164.46962867,-159.79126976,-53.67818877,16.69241464
-3.50957505,63.96182647,2.66911082,1.44086176,-2.94649681

>  <Name>
1xpf_lig

>  <RI>
0

>  <Rbt.Current_Directory>
/home/afrankz/demos/rdock_decoys_rna/rnas/1xpf

>  <Rbt.Executable>
rbdock ($Id: //depot/dev/client3/rdock/2013.1/src/exe/rbdock.cxx#4 $)

>  <Rbt.Library>
libRbt.so (2013.1, Build901 2013/11/27)

>  <Rbt.Parameter_File>
/export/apps/rDock/src/rDock_2013.1_src/data/scripts/dock_solv.prm

>  <Rbt.Receptor>
prm/pocket_docking_7.prm

>  <SCORE>
-16.3421

>  <SCORE.INTER>
-9.15468

>  <SCORE.INTER.CONST>
1

>  <SCORE.INTER.POLAR>
-2.4403

>  <SCORE.INTER.ROT>
11

>  <SCORE.INTER.SOLV>
14.3095

>  <SCORE.INTER.VDW>
-13.672

>  <SCORE.INTER.norm>
-0.653906

>  <SCORE.INTRA>
-7.18746

>  <SCORE.INTRA.DIHEDRAL>
-13.0291

>  <SCORE.INTRA.DIHEDRAL.0>
17.7811

>  <SCORE.INTRA.POLAR>
0

>  <SCORE.INTRA.POLAR.0>
0

>  <SCORE.INTRA.REPUL>
0

>  <SCORE.INTRA.REPUL.0>
0

>  <SCORE.INTRA.SOLV>
1.16466

>  <SCORE.INTRA.SOLV.lig_0>
-47.9565

>  <SCORE.INTRA.VDW>
-1.25523

>  <SCORE.INTRA.VDW.0>
0.515983

>  <SCORE.INTRA.norm>
-0.51339

>  <SCORE.RESTR>
0

>  <SCORE.RESTR.CAVITY>
0

>  <SCORE.RESTR.norm>
0

>  <SCORE.SYSTEM>
0

>  <SCORE.SYSTEM.CONST>
0

>  <SCORE.SYSTEM.DIHEDRAL>
0

>  <SCORE.SYSTEM.SOLV>
0

>  <SCORE.SYSTEM.norm>
0

>  <SCORE.heavy>
14

>  <SCORE.norm>
-1.1673

>  <RMSD>
6.426

$$$$
1xpf_lig
 OpenBabel02141814123D
libRbt.so/2013.1/901 2013/11/27
 14 13  0  0  0  0  0  0  0  0999 V2000
   18.9525    1.3867   69.3226 N   0  0  0  0  0  0  0  0  0  0  0  0
   19.7919    1.5841   68.1553 C   0  0  0  0  0  0  0  0  0  0  0  0
   19.1769    0.9799   66.9501 C   0  0  0  0  0  0  0  0  0  0  0  0
   19.9915    1.4359   65.7796 C   0  0  0  0  0  0  0  0  0  0  0  0
   19.7321    2.8885   65.6269 N   0  0  0  0  0  0  0  0  0  0  0  0
   20.5361    3.4500   64.4985 C   0  0  0  0  0  0  0  0  0  0  0  0
   20.4837    4.9854   64.4171 C   0  0  0  0  0  0  0  0  0  0  0  0
   21.3497    5.5813   63.2931 C   0  0  0  0  0  0  0  0  0  0  0  0
   21.3921    7.0944   63.4450 C   0  0  0  0  0  0  0  0  0  0  0  0
   22.3348    7.5491   62.4126 N   0  0  0  0  0  0  0  0  0  0  0  0
   23.7926    7.4146   62.6890 C   0  0  0  0  0  0  0  0  0  0  0  0
   24.3379    7.3249   61.2472 C   0  0  0  0  0  0  0  0  0  0  0  0
   25.8015    7.0266   61.0424 C   0  0  0  0  0  0  0  0  0  0  0  0
   26.2049    6.8777   59.6549 N   0  0  0  0  0  0  0  0  0  0  0  0
  1  2  1  0  0  0  0
  2  3  1  0  0  0  0
  3  4  1  0  0  0  0
  4  5  1  0  0  0  0
  5  6  1  0  0  0  0
  6  7  1  0  0  0  0
  7  8  1  0  0  0  0
  8  9  1  0  0  0  0
  9 10  1  0  0  0  0
 10 11  1  0  0  0  0
 11 12  1  0  0  0  0
 12 13  1  0  0  0  0
 13 14  1  0  0  0  0
M  END
>  <CHROM.1>
170.56994733,-69.35581024,178.41338270,-171.17937544,177.78850814,-171.24115961
174.88532072,-78.93666963,153.96935873,-173.47429889,176.27442522,21.70555446
4.68422162,64.18099210,2.25912551,-0.59022477,2.73866541

>  <Name>
1xpf_lig

>  <RI>
0

>  <Rbt.Current_Directory>
/home/afrankz/demos/rdock_decoys_rna/rnas/1xpf

>  <Rbt.Executable>
rbdock ($Id: //depot/dev/client3/rdock/2013.1/src/exe/rbdock.cxx#4 $)

>  <Rbt.Library>
libRbt.so (2013.1, Build901 2013/11/27)

>  <Rbt.Parameter_File>
/export/apps/rDock/src/rDock_2013.1_src/data/scripts/dock_solv.prm

>  <Rbt.Receptor>
prm/pocket_docking_7.prm

>  <SCORE>
-16.9245

>  <SCORE.INTER>
-7.88279

>  <SCORE.INTER.CONST>
1

>  <SCORE.INTER.POLAR>
-1.71652

>  <SCORE.INTER.ROT>
11

>  <SCORE.INTER.SOLV>
10.8072

>  <SCORE.INTER.VDW>
-14.0692

>  <SCORE.INTER.norm>
-0.563056

>  <SCORE.INTRA>
-9.04167

>  <SCORE.INTRA.DIHEDRAL>
-15.6692

>  <SCORE.INTRA.DIHEDRAL.0>
17.7811

>  <SCORE.INTRA.POLAR>
0

>  <SCORE.INTRA.POLAR.0>
0

>  <SCORE.INTRA.REPUL>
0

>  <SCORE.INTRA.REPUL.0>
0

>  <SCORE.INTRA.SOLV>
-0.30872

>  <SCORE.INTRA.SOLV.lig_0>
-47.9565

>  <SCORE.INTRA.VDW>
-1.05271

>  <SCORE.INTRA.VDW.0>
0.515983

>  <SCORE.INTRA.norm>
-0.645834

>  <SCORE.RESTR>
0

>  <SCORE.RESTR.CAVITY>
0

>  <SCORE.RESTR.norm>
0

>  <SCORE.SYSTEM>
0

>  <SCORE.SYSTEM.CONST>
0

>  <SCORE.SYSTEM.DIHEDRAL>
0

>  <SCORE.SYSTEM.SOLV>
0

>  <SCORE.SYSTEM.norm>
0

>  <SCORE.heavy>
14

>  <SCORE.norm>
-1.20889

>  <RMSD>
6.434

$$$$
1xpf_lig
 OpenBabel02141814123D
libRbt.so/2013.1/901 2013/11/27
 14 13  0  0  0  0  0  0  0  0999 V2000
   19.9074    0.8168   66.4739 N   0  0  0  0  0  0  0  0  0  0  0  0
   19.0881   -0.3129   66.8722 C   0  0  0  0  0  0  0  0  0  0  0  0
   17.6535    0.0568   66.9063 C   0  0  0  0  0  0  0  0  0  0  0  0
   16.9076   -1.1634   67.3493 C   0  0  0  0  0  0  0  0  0  0  0  0
   17.2056   -1.3379   68.7920 N   0  0  0  0  0  0  0  0  0  0  0  0
   16.0833   -2.0481   69.4782 C   0  0  0  0  0  0  0  0  0  0  0  0
   16.2837   -3.5714   69.5583 C   0  0  0  0  0  0  0  0  0  0  0  0
   16.4326   -4.2548   68.1874 C   0  0  0  0  0  0  0  0  0  0  0  0
   16.4928   -5.7619   68.3853 C   0  0  0  0  0  0  0  0  0  0  0  0
   16.6248   -6.3137   67.0290 N   0  0  0  0  0  0  0  0  0  0  0  0
   17.0586   -7.7322   66.8907 C   0  0  0  0  0  0  0  0  0  0  0  0
   16.6357   -8.0072   65.4313 C   0  0  0  0  0  0  0  0  0  0  0  0
   16.8189   -9.3952   64.8721 C   0  0  0  0  0  0  0  0  0  0  0  0
   16.0608  -10.4313   65.5519 N   0  0  0  0  0  0  0  0  0  0  0  0
  1  2  1  0  0  0  0
  2  3  1  0  0  0  0
  3  4  1  0  0  0  0
  4  5  1  0  0  0  0
  5  6  1  0  0  0  0
  6  7  1  0  0  0  0
  7  8  1  0  0  0  0
  8  9  1  0  0  0  0
  9 10  1  0  0  0  0
 10 11  1  0  0  0  0
 11 12  1  0  0  0  0
 12 13  1  0  0  0  0
 13 14  1  0  0  0  0
M  END
>  <CHROM.1>
-178.99289130,72.09503235,152.64484237,93.59730275,-59.05429744,-174.73774344
179.64111951,164.54546318,162.94363352,-176.44776113,61.93741659,17.08937753
-4.24684170,67.26998781,-1.25985842,-0.96333443,-2.68672633

>  <Name>
1xpf_lig

>  <RI>
0

>  <Rbt.Current_Directory>
/home/afrankz/demos/rdock_decoys_rna/rnas/1xpf

>  <Rbt.Executable>
rbdock ($Id: //depot/dev/client3/rdock/2013.1/src/exe/rbdock.cxx#4 $)

>  <Rbt.Library>
libRbt.so (2013.1, Build901 2013/11/27)

>  <Rbt.Parameter_File>
/export/apps/rDock/src/rDock_2013.1_src/data/scripts/dock_solv.prm

>  <Rbt.Receptor>
prm/blind_docking_80.prm

>  <SCORE>
-13.7826

>  <SCORE.INTER>
-5.06474

>  <SCORE.INTER.CONST>
1

>  <SCORE.INTER.POLAR>
-0.8

>  <SCORE.INTER.ROT>
11

>  <SCORE.INTER.SOLV>
13.6594

>  <SCORE.INTER.VDW>
-16.1963

>  <SCORE.INTER.norm>
-0.361767

>  <SCORE.INTRA>
-8.72317

>  <SCORE.INTRA.DIHEDRAL>
-15.4217

>  <SCORE.INTRA.DIHEDRAL.0>
17.7811

>  <SCORE.INTRA.POLAR>
0

>  <SCORE.INTRA.POLAR.0>
0

>  <SCORE.INTRA.REPUL>
0

>  <SCORE.INTRA.REPUL.0>
0

>  <SCORE.INTRA.SOLV>
0.567921

>  <SCORE.INTRA.SOLV.lig_0>
-47.9565

>  <SCORE.INTRA.VDW>
-1.29628

>  <SCORE.INTRA.VDW.0>
0.515983

>  <SCORE.INTRA.norm>
-0.623083

>  <SCORE.RESTR>
0.00529228

>  <SCORE.RESTR.CAVITY>
0.00529228

>  <SCORE.RESTR.norm>
0.00037802

>  <SCORE.SYSTEM>
0

>  <SCORE.SYSTEM.CONST>
0

>  <SCORE.SYSTEM.DIHEDRAL>
0

>  <SCORE.SYSTEM.SOLV>
0

>  <SCORE.SYSTEM.norm>
0

>  <SCORE.heavy>
14

>  <SCORE.norm>
-0.984472

>  <RMSD>
6.526

$$$$
1xpf_lig
 OpenBabel02141814123D
libRbt.so/2013.1/901 2013/11/27
 14 13  0  0  0  0  0  0  0  0999 V2000
   19.8718    4.4431   71.4949 N   0  0  0  0  0  0  0  0  0  0  0  0
   20.3250    3.3784   70.6190 C   0  0  0  0  0  0  0  0  0  0  0  0
   19.1808    2.7234   69.9425 C   0  0  0  0  0  0  0  0  0  0  0  0
   19.7605    1.7064   69.0092 C   0  0  0  0  0  0  0  0  0  0  0  0
   18.6176    1.1065   68.2782 N   0  0  0  0  0  0  0  0  0  0  0  0
   19.0307    0.6992   66.9003 C   0  0  0  0  0  0  0  0  0  0  0  0
   17.9291   -0.0485   66.1293 C   0  0  0  0  0  0  0  0  0  0  0  0
   17.5828   -1.4285   66.7159 C   0  0  0  0  0  0  0  0  0  0  0  0
   16.8096   -1.2397   68.0123 C   0  0  0  0  0  0  0  0  0  0  0  0
   17.1432   -2.4195   68.8237 N   0  0  0  0  0  0  0  0  0  0  0  0
   16.0328   -3.3273   69.2268 C   0  0  0  0  0  0  0  0  0  0  0  0
   16.8308   -4.6081   69.5538 C   0  0  0  0  0  0  0  0  0  0  0  0
   17.7224   -4.6169   70.7694 C   0  0  0  0  0  0  0  0  0  0  0  0
   17.0213   -4.5548   72.0402 N   0  0  0  0  0  0  0  0  0  0  0  0
  1  2  1  0  0  0  0
  2  3  1  0  0  0  0
  3  4  1  0  0  0  0
  4  5  1  0  0  0  0
  5  6  1  0  0  0  0
  6  7  1  0  0  0  0
  7  8  1  0  0  0  0
  8  9  1  0  0  0  0
  9 10  1  0  0  0  0
 10 11  1  0  0  0  0
 11 12  1  0  0  0  0
 12 13  1  0  0  0  0
 13 14  1  0  0  0  0
M  END
>  <CHROM.1>
176.65642461,-176.88082721,148.68024221,174.70595844,-66.83206890,72.70923977
-150.51803022,-119.00002541,159.96266537,69.32576176,67.73071120,18.13271652
-0.58484041,69.10781937,-0.34058172,1.16855751,1.93178283

>  <Name>
1xpf_lig

>  <RI>
0

>  <Rbt.Current_Directory>
/home/afrankz/demos/rdock_decoys_rna/rnas/1xpf

>  <Rbt.Executable>
rbdock ($Id: //depot/dev/client3/rdock/2013.1/src/exe/rbdock.cxx#4 $)

>  <Rbt.Library>
libRbt.so (2013.1, Build901 2013/11/27)

>  <Rbt.Parameter_File>
/export/apps/rDock/src/rDock_2013.1_src/data/scripts/dock_solv.prm

>  <Rbt.Receptor>
prm/pocket_docking_8.prm

>  <SCORE>
-15.3643

>  <SCORE.INTER>
-9.11492

>  <SCORE.INTER.CONST>
1

>  <SCORE.INTER.POLAR>
-1.38275

>  <SCORE.INTER.ROT>
11

>  <SCORE.INTER.SOLV>
8.63367

>  <SCORE.INTER.VDW>
-15.2787

>  <SCORE.INTER.norm>
-0.651066

>  <SCORE.INTRA>
-6.24942

>  <SCORE.INTRA.DIHEDRAL>
-11.4793

>  <SCORE.INTRA.DIHEDRAL.0>
17.7811

>  <SCORE.INTRA.POLAR>
0

>  <SCORE.INTRA.POLAR.0>
0

>  <SCORE.INTRA.REPUL>
0

>  <SCORE.INTRA.REPUL.0>
0

>  <SCORE.INTRA.SOLV>
1.86732

>  <SCORE.INTRA.SOLV.lig_0>
-47.9565

>  <SCORE.INTRA.VDW>
-1.44343

>  <SCORE.INTRA.VDW.0>
0.515983

>  <SCORE.INTRA.norm>
-0.446387

>  <SCORE.RESTR>
0

>  <SCORE.RESTR.CAVITY>
0

>  <SCORE.RESTR.norm>
0

>  <SCORE.SYSTEM>
0

>  <SCORE.SYSTEM.CONST>
0

>  <SCORE.SYSTEM.DIHEDRAL>
0

>  <SCORE.SYSTEM.SOLV>
0

>  <SCORE.SYSTEM.norm>
0

>  <SCORE.heavy>
14

>  <SCORE.norm>
-1.09745

>  <RMSD>
6.617

$$$$
1xpf_lig
 OpenBabel02141814123D
libRbt.so/2013.1/901 2013/11/27
 14 13  0  0  0  0  0  0  0  0999 V2000
   19.9606   -1.4222   60.3039 N   0  0  0  0  0  0  0  0  0  0  0  0
   21.0678   -0.4887   60.3988 C   0  0  0  0  0  0  0  0  0  0  0  0
   22.3408   -1.1313   59.9961 C   0  0  0  0  0  0  0  0  0  0  0  0
   23.4270   -0.1380   60.2700 C   0  0  0  0  0  0  0  0  0  0  0  0
   23.2755    0.9396   59.2617 N   0  0  0  0  0  0  0  0  0  0  0  0
   22.9838    2.2456   59.9282 C   0  0  0  0  0  0  0  0  0  0  0  0
   22.9192    3.4296   58.9480 C   0  0  0  0  0  0  0  0  0  0  0  0
   24.2582    3.7418   58.2565 C   0  0  0  0  0  0  0  0  0  0  0  0
   24.0415    4.8342   57.2201 C   0  0  0  0  0  0  0  0  0  0  0  0
   23.5318    5.9816   57.9850 N   0  0  0  0  0  0  0  0  0  0  0  0
   24.4965    6.7470   58.8234 C   0  0  0  0  0  0  0  0  0  0  0  0
   23.9003    6.4962   60.2255 C   0  0  0  0  0  0  0  0  0  0  0  0
   24.6124    7.0612   61.4283 C   0  0  0  0  0  0  0  0  0  0  0  0
   24.0618    6.6543   62.7095 N   0  0  0  0  0  0  0  0  0  0  0  0
  1  2  1  0  0  0  0
  2  3  1  0  0  0  0
  3  4  1  0  0  0  0
  4  5  1  0  0  0  0
  5  6  1  0  0  0  0
  6  7  1  0  0  0  0
  7  8  1  0  0  0  0
  8  9  1  0  0  0  0
  9 10  1  0  0  0  0
 10 11  1  0  0  0  0
 11 12  1  0  0  0  0
 12 13  1  0  0  0  0
 13 14  1  0  0  0  0
M  END
>  <CHROM.1>
-174.03506339,-71.00677828,117.88926140,175.65650947,-65.06063428,174.60385865
59.69927689,74.61306179,-117.12460263,177.60494414,-173.62794542,23.20572810
3.21084102,59.69663226,2.80806952,-1.21061605,-1.95061563

>  <Name>
1xpf_lig

>  <RI>
0

>  <Rbt.Current_Directory>
/home/afrankz/demos/rdock_decoys_rna/rnas/1xpf

>  <Rbt.Executable>
rbdock ($Id: //depot/dev/client3/rdock/2013.1/src/exe/rbdock.cxx#4 $)

>  <Rbt.Library>
libRbt.so (2013.1, Build901 2013/11/27)

>  <Rbt.Parameter_File>
/export/apps/rDock/src/rDock_2013.1_src/data/scripts/dock_solv.prm

>  <Rbt.Receptor>
prm/pocket_docking_5.prm

>  <SCORE>
-11.4017

>  <SCORE.INTER>
-4.11396

>  <SCORE.INTER.CONST>
1

>  <SCORE.INTER.POLAR>
-1.78885

>  <SCORE.INTER.ROT>
11

>  <SCORE.INTER.SOLV>
7.99091

>  <SCORE.INTER.VDW>
-10.3768

>  <SCORE.INTER.norm>
-0.293854

>  <SCORE.INTRA>
-7.31353

>  <SCORE.INTRA.DIHEDRAL>
-14.2377

>  <SCORE.INTRA.DIHEDRAL.0>
17.7811

>  <SCORE.INTRA.POLAR>
0

>  <SCORE.INTRA.POLAR.0>
0

>  <SCORE.INTRA.REPUL>
0

>  <SCORE.INTRA.REPUL.0>
0

>  <SCORE.INTRA.SOLV>
0.408922

>  <SCORE.INTRA.SOLV.lig_0>
-47.9565

>  <SCORE.INTRA.VDW>
-0.399163

>  <SCORE.INTRA.VDW.0>
0.515983

>  <SCORE.INTRA.norm>
-0.522395

>  <SCORE.RESTR>
0.0257617

>  <SCORE.RESTR.CAVITY>
0.0257617

>  <SCORE.RESTR.norm>
0.00184012

>  <SCORE.SYSTEM>
0

>  <SCORE.SYSTEM.CONST>
0

>  <SCORE.SYSTEM.DIHEDRAL>
0

>  <SCORE.SYSTEM.SOLV>
0

>  <SCORE.SYSTEM.norm>
0

>  <SCORE.heavy>
14

>  <SCORE.norm>
-0.814409

>  <RMSD>
6.621

$$$$
1xpf_lig
 OpenBabel02141814123D
libRbt.so/2013.1/901 2013/11/27
 14 13  0  0  0  0  0  0  0  0999 V2000
   17.6421   -4.9906   70.6415 N   0  0  0  0  0  0  0  0  0  0  0  0
   16.2248   -4.7723   70.4184 C   0  0  0  0  0  0  0  0  0  0  0  0
   15.9601   -4.3963   69.0097 C   0  0  0  0  0  0  0  0  0  0  0  0
   16.6170   -3.0689   68.7904 C   0  0  0  0  0  0  0  0  0  0  0  0
   16.0539   -2.5239   67.5309 N   0  0  0  0  0  0  0  0  0  0  0  0
   17.0953   -1.7615   66.7764 C   0  0  0  0  0  0  0  0  0  0  0  0
   17.6059   -0.5197   67.5274 C   0  0  0  0  0  0  0  0  0  0  0  0
   18.6414    0.3039   66.7413 C   0  0  0  0  0  0  0  0  0  0  0  0
   19.6048    0.9587   67.7198 C   0  0  0  0  0  0  0  0  0  0  0  0
   18.7543    1.7881   68.5859 N   0  0  0  0  0  0  0  0  0  0  0  0
   19.3656    2.9872   69.2245 C   0  0  0  0  0  0  0  0  0  0  0  0
   18.5123    3.0794   70.5081 C   0  0  0  0  0  0  0  0  0  0  0  0
   18.8133    2.1402   71.6484 C   0  0  0  0  0  0  0  0  0  0  0  0
   18.4852    0.7480   71.3943 N   0  0  0  0  0  0  0  0  0  0  0  0
  1  2  1  0  0  0  0
  2  3  1  0  0  0  0
  3  4  1  0  0  0  0
  4  5  1  0  0  0  0
  5  6  1  0  0  0  0
  6  7  1  0  0  0  0
  7  8  1  0  0  0  0
  8  9  1  0  0  0  0
  9 10  1  0  0  0  0
 10 11  1  0  0  0  0
 11 12  1  0  0  0  0
 12 13  1  0  0  0  0
 13 14  1  0  0  0  0
M  END
>  <CHROM.1>
-65.20280569,-164.87831089,-144.62045072,-63.52237261,-177.89616695,-148.80003353
-58.88251052,-153.21643777,-150.95866546,77.90643432,-69.41952816,17.81260383
-0.71605535,69.03672092,-3.08224622,-1.20236841,-1.44006446

>  <Name>
1xpf_lig

>  <RI>
0

>  <Rbt.Current_Directory>
/home/afrankz/demos/rdock_decoys_rna/rnas/1xpf

>  <Rbt.Executable>
rbdock ($Id: //depot/dev/client3/rdock/2013.1/src/exe/rbdock.cxx#4 $)

>  <Rbt.Library>
libRbt.so (2013.1, Build901 2013/11/27)

>  <Rbt.Parameter_File>
/export/apps/rDock/src/rDock_2013.1_src/data/scripts/dock_solv.prm

>  <Rbt.Receptor>
prm/blind_docking_80.prm

>  <SCORE>
-7.48814

>  <SCORE.INTER>
-3.8191

>  <SCORE.INTER.CONST>
1

>  <SCORE.INTER.POLAR>
-0.8

>  <SCORE.INTER.ROT>
11

>  <SCORE.INTER.SOLV>
14.4269

>  <SCORE.INTER.VDW>
-15.6217

>  <SCORE.INTER.norm>
-0.272793

>  <SCORE.INTRA>
-3.70244

>  <SCORE.INTRA.DIHEDRAL>
-10.2828

>  <SCORE.INTRA.DIHEDRAL.0>
17.7811

>  <SCORE.INTRA.POLAR>
0

>  <SCORE.INTRA.POLAR.0>
0

>  <SCORE.INTRA.REPUL>
0

>  <SCORE.INTRA.REPUL.0>
0

>  <SCORE.INTRA.SOLV>
3.5457

>  <SCORE.INTRA.SOLV.lig_0>
-47.9565

>  <SCORE.INTRA.VDW>
-0.333866

>  <SCORE.INTRA.VDW.0>
0.515983

>  <SCORE.INTRA.norm>
-0.26446

>  <SCORE.RESTR>
0.0333996

>  <SCORE.RESTR.CAVITY>
0.0333996

>  <SCORE.RESTR.norm>
0.00238568

>  <SCORE.SYSTEM>
0

>  <SCORE.SYSTEM.CONST>
0

>  <SCORE.SYSTEM.DIHEDRAL>
0

>  <SCORE.SYSTEM.SOLV>
0

>  <SCORE.SYSTEM.norm>
0

>  <SCORE.heavy>
14

>  <SCORE.norm>
-0.534867

>  <RMSD>
6.657

$$$$
1xpf_lig
 OpenBabel02141814123D
libRbt.so/2013.1/901 2013/11/27
 14 13  0  0  0  0  0  0  0  0999 V2000
   17.8077   -0.1205   68.2729 N   0  0  0  0  0  0  0  0  0  0  0  0
   17.6258   -0.1166   66.8331 C   0  0  0  0  0  0  0  0  0  0  0  0
   17.0212   -1.3879   66.3704 C   0  0  0  0  0  0  0  0  0  0  0  0
   16.7206   -1.2136   64.9141 C   0  0  0  0  0  0  0  0  0  0  0  0
   15.4989   -0.3759   64.8340 N   0  0  0  0  0  0  0  0  0  0  0  0
   15.5144    0.4584   63.5936 C   0  0  0  0  0  0  0  0  0  0  0  0
   14.4362    0.0543   62.5732 C   0  0  0  0  0  0  0  0  0  0  0  0
   14.4211    0.9233   61.3032 C   0  0  0  0  0  0  0  0  0  0  0  0
   13.4871    0.2949   60.2799 C   0  0  0  0  0  0  0  0  0  0  0  0
   14.1506   -0.9560   59.8843 N   0  0  0  0  0  0  0  0  0  0  0  0
   13.9476   -1.4448   58.4917 C   0  0  0  0  0  0  0  0  0  0  0  0
   12.9049   -2.5562   58.7405 C   0  0  0  0  0  0  0  0  0  0  0  0
   13.2913   -3.7350   59.5972 C   0  0  0  0  0  0  0  0  0  0  0  0
   14.4041   -4.5187   59.0896 N   0  0  0  0  0  0  0  0  0  0  0  0
  1  2  1  0  0  0  0
  2  3  1  0  0  0  0
  3  4  1  0  0  0  0
  4  5  1  0  0  0  0
  5  6  1  0  0  0  0
  6  7  1  0  0  0  0
  7  8  1  0  0  0  0
  8  9  1  0  0  0  0
  9 10  1  0  0  0  0
 10 11  1  0  0  0  0
 11 12  1  0  0  0  0
 12 13  1  0  0  0  0
 13 14  1  0  0  0  0
M  END
>  <CHROM.1>
173.06899320,-76.62094980,149.09044762,112.23827858,178.80645355,170.59451189
-67.70005024,-148.51702825,-102.01940370,-62.74591967,-60.87702492,15.08781541
-1.04940023,62.48390643,-0.49766277,1.07891886,-2.83665043

>  <Name>
1xpf_lig

>  <RI>
0

>  <Rbt.Current_Directory>
/home/afrankz/demos/rdock_decoys_rna/rnas/1xpf

>  <Rbt.Executable>
rbdock ($Id: //depot/dev/client3/rdock/2013.1/src/exe/rbdock.cxx#4 $)

>  <Rbt.Library>
libRbt.so (2013.1, Build901 2013/11/27)

>  <Rbt.Parameter_File>
/export/apps/rDock/src/rDock_2013.1_src/data/scripts/dock_solv.prm

>  <Rbt.Receptor>
prm/pocket_docking_7.prm

>  <SCORE>
-12.3558

>  <SCORE.INTER>
-5.78079

>  <SCORE.INTER.CONST>
1

>  <SCORE.INTER.POLAR>
-1.50731

>  <SCORE.INTER.ROT>
11

>  <SCORE.INTER.SOLV>
10.2702

>  <SCORE.INTER.VDW>
-13.1862

>  <SCORE.INTER.norm>
-0.412913

>  <SCORE.INTRA>
-6.57504

>  <SCORE.INTRA.DIHEDRAL>
-12.6194

>  <SCORE.INTRA.DIHEDRAL.0>
17.7811

>  <SCORE.INTRA.POLAR>
0

>  <SCORE.INTRA.POLAR.0>
0

>  <SCORE.INTRA.REPUL>
0

>  <SCORE.INTRA.REPUL.0>
0

>  <SCORE.INTRA.SOLV>
1.74431

>  <SCORE.INTRA.SOLV.lig_0>
-47.9565

>  <SCORE.INTRA.VDW>
-1.13751

>  <SCORE.INTRA.VDW.0>
0.515983

>  <SCORE.INTRA.norm>
-0.469645

>  <SCORE.RESTR>
0

>  <SCORE.RESTR.CAVITY>
0

>  <SCORE.RESTR.norm>
0

>  <SCORE.SYSTEM>
0

>  <SCORE.SYSTEM.CONST>
0

>  <SCORE.SYSTEM.DIHEDRAL>
0

>  <SCORE.SYSTEM.SOLV>
0

>  <SCORE.SYSTEM.norm>
0

>  <SCORE.heavy>
14

>  <SCORE.norm>
-0.882559

>  <RMSD>
6.675

$$$$
1xpf_lig
 OpenBabel02141814123D
libRbt.so/2013.1/901 2013/11/27
 14 13  0  0  0  0  0  0  0  0999 V2000
   12.9807   -8.3990   61.6016 N   0  0  0  0  0  0  0  0  0  0  0  0
   13.9728   -8.3118   62.6572 C   0  0  0  0  0  0  0  0  0  0  0  0
   13.3574   -8.5426   63.9853 C   0  0  0  0  0  0  0  0  0  0  0  0
   14.4423   -8.3503   64.9989 C   0  0  0  0  0  0  0  0  0  0  0  0
   14.7163   -6.8932   65.0505 N   0  0  0  0  0  0  0  0  0  0  0  0
   15.7239   -6.5854   66.1111 C   0  0  0  0  0  0  0  0  0  0  0  0
   15.6769   -5.1246   66.5915 C   0  0  0  0  0  0  0  0  0  0  0  0
   16.6802   -4.8033   67.7134 C   0  0  0  0  0  0  0  0  0  0  0  0
   16.5210   -3.3468   68.1229 C   0  0  0  0  0  0  0  0  0  0  0  0
   16.8987   -2.5776   66.9283 N   0  0  0  0  0  0  0  0  0  0  0  0
   16.9190   -1.0915   67.0314 C   0  0  0  0  0  0  0  0  0  0  0  0
   18.4357   -0.8288   66.9102 C   0  0  0  0  0  0  0  0  0  0  0  0
   18.9516    0.5675   67.1489 C   0  0  0  0  0  0  0  0  0  0  0  0
   18.7034    1.0895   68.4816 N   0  0  0  0  0  0  0  0  0  0  0  0
  1  2  1  0  0  0  0
  2  3  1  0  0  0  0
  3  4  1  0  0  0  0
  4  5  1  0  0  0  0
  5  6  1  0  0  0  0
  6  7  1  0  0  0  0
  7  8  1  0  0  0  0
  8  9  1  0  0  0  0
  9 10  1  0  0  0  0
 10 11  1  0  0  0  0
 11 12  1  0  0  0  0
 12 13  1  0  0  0  0
 13 14  1  0  0  0  0
M  END
>  <CHROM.1>
-176.69222857,72.28832588,175.94382116,-158.28019186,178.26278571,-178.82769047
-64.07039725,-176.70223052,111.73174611,-171.89243139,61.41799237,15.99865370
-4.51424891,65.95252269,3.07525698,1.11460006,2.12422229

>  <Name>
1xpf_lig

>  <RI>
0

>  <Rbt.Current_Directory>
/home/afrankz/demos/rdock_decoys_rna/rnas/1xpf

>  <Rbt.Executable>
rbdock ($Id: //depot/dev/client3/rdock/2013.1/src/exe/rbdock.cxx#4 $)

>  <Rbt.Library>
libRbt.so (2013.1, Build901 2013/11/27)

>  <Rbt.Parameter_File>
/export/apps/rDock/src/rDock_2013.1_src/data/scripts/dock_solv.prm

>  <Rbt.Receptor>
prm/blind_docking_80.prm

>  <SCORE>
-12.1144

>  <SCORE.INTER>
-3.64878

>  <SCORE.INTER.CONST>
1

>  <SCORE.INTER.POLAR>
-0.8

>  <SCORE.INTER.ROT>
11

>  <SCORE.INTER.SOLV>
13.1409

>  <SCORE.INTER.VDW>
-15.0795

>  <SCORE.INTER.norm>
-0.260627

>  <SCORE.INTRA>
-8.46558

>  <SCORE.INTRA.DIHEDRAL>
-15.3407

>  <SCORE.INTRA.DIHEDRAL.0>
17.7811

>  <SCORE.INTRA.POLAR>
0

>  <SCORE.INTRA.POLAR.0>
0

>  <SCORE.INTRA.REPUL>
0

>  <SCORE.INTRA.REPUL.0>
0

>  <SCORE.INTRA.SOLV>
0.739719

>  <SCORE.INTRA.SOLV.lig_0>
-47.9565

>  <SCORE.INTRA.VDW>
-1.16507

>  <SCORE.INTRA.VDW.0>
0.515983

>  <SCORE.INTRA.norm>
-0.604684

>  <SCORE.RESTR>
0

>  <SCORE.RESTR.CAVITY>
0

>  <SCORE.RESTR.norm>
0

>  <SCORE.SYSTEM>
0

>  <SCORE.SYSTEM.CONST>
0

>  <SCORE.SYSTEM.DIHEDRAL>
0

>  <SCORE.SYSTEM.SOLV>
0

>  <SCORE.SYSTEM.norm>
0

>  <SCORE.heavy>
14

>  <SCORE.norm>
-0.865311

>  <RMSD>
6.752

$$$$
1xpf_lig
 OpenBabel02141814123D
libRbt.so/2013.1/901 2013/11/27
 14 13  0  0  0  0  0  0  0  0999 V2000
   15.3481   -4.8234   57.9137 N   0  0  0  0  0  0  0  0  0  0  0  0
   14.9483   -4.1207   59.1189 C   0  0  0  0  0  0  0  0  0  0  0  0
   16.1294   -3.7403   59.9289 C   0  0  0  0  0  0  0  0  0  0  0  0
   15.6041   -3.1541   61.2024 C   0  0  0  0  0  0  0  0  0  0  0  0
   14.9994   -1.8472   60.8460 N   0  0  0  0  0  0  0  0  0  0  0  0
   14.0038   -1.4295   61.8801 C   0  0  0  0  0  0  0  0  0  0  0  0
   14.5925   -0.4951   62.9511 C   0  0  0  0  0  0  0  0  0  0  0  0
   15.7037   -1.1388   63.7993 C   0  0  0  0  0  0  0  0  0  0  0  0
   16.1183   -0.1701   64.8965 C   0  0  0  0  0  0  0  0  0  0  0  0
   17.1764   -0.8722   65.6372 N   0  0  0  0  0  0  0  0  0  0  0  0
   17.1640   -0.7857   67.1245 C   0  0  0  0  0  0  0  0  0  0  0  0
   16.7100   -2.2184   67.4787 C   0  0  0  0  0  0  0  0  0  0  0  0
   16.4326   -2.5556   68.9217 C   0  0  0  0  0  0  0  0  0  0  0  0
   16.1323   -3.9543   69.1740 N   0  0  0  0  0  0  0  0  0  0  0  0
  1  2  1  0  0  0  0
  2  3  1  0  0  0  0
  3  4  1  0  0  0  0
  4  5  1  0  0  0  0
  5  6  1  0  0  0  0
  6  7  1  0  0  0  0
  7  8  1  0  0  0  0
  8  9  1  0  0  0  0
  9 10  1  0  0  0  0
 10 11  1  0  0  0  0
 11 12  1  0  0  0  0
 12 13  1  0  0  0  0
 13 14  1  0  0  0  0
M  END
>  <CHROM.1>
-174.33138965,-70.20894119,157.89333171,94.83683783,-63.26397268,-174.99380732
-179.77408252,-138.04033581,107.67099047,-174.42148722,-174.54783413,15.79015523
-2.23583735,63.63387643,-2.40676952,-1.35057095,0.57307824

>  <Name>
1xpf_lig

>  <RI>
0

>  <Rbt.Current_Directory>
/home/afrankz/demos/rdock_decoys_rna/rnas/1xpf

>  <Rbt.Executable>
rbdock ($Id: //depot/dev/client3/rdock/2013.1/src/exe/rbdock.cxx#4 $)

>  <Rbt.Library>
libRbt.so (2013.1, Build901 2013/11/27)

>  <Rbt.Parameter_File>
/export/apps/rDock/src/rDock_2013.1_src/data/scripts/dock_solv.prm

>  <Rbt.Receptor>
prm/pocket_docking_6.prm

>  <SCORE>
-9.86585

>  <SCORE.INTER>
-1.63328

>  <SCORE.INTER.CONST>
1

>  <SCORE.INTER.POLAR>
-0.979796

>  <SCORE.INTER.ROT>
11

>  <SCORE.INTER.SOLV>
11.0991

>  <SCORE.INTER.VDW>
-12.4559

>  <SCORE.INTER.norm>
-0.116663

>  <SCORE.INTRA>
-8.23257

>  <SCORE.INTRA.DIHEDRAL>
-13.7616

>  <SCORE.INTRA.DIHEDRAL.0>
17.7811

>  <SCORE.INTRA.POLAR>
0

>  <SCORE.INTRA.POLAR.0>
0

>  <SCORE.INTRA.REPUL>
0

>  <SCORE.INTRA.REPUL.0>
0

>  <SCORE.INTRA.SOLV>
-0.097286

>  <SCORE.INTRA.SOLV.lig_0>
-47.9565

>  <SCORE.INTRA.VDW>
-1.30314

>  <SCORE.INTRA.VDW.0>
0.515983

>  <SCORE.INTRA.norm>
-0.588041

>  <SCORE.RESTR>
0

>  <SCORE.RESTR.CAVITY>
0

>  <SCORE.RESTR.norm>
0

>  <SCORE.SYSTEM>
0

>  <SCORE.SYSTEM.CONST>
0

>  <SCORE.SYSTEM.DIHEDRAL>
0

>  <SCORE.SYSTEM.SOLV>
0

>  <SCORE.SYSTEM.norm>
0

>  <SCORE.heavy>
14

>  <SCORE.norm>
-0.704703

>  <RMSD>
6.842

$$$$
1xpf_lig
 OpenBabel02141814123D
libRbt.so/2013.1/901 2013/11/27
 14 13  0  0  0  0  0  0  0  0999 V2000
   19.2171    0.5384   67.0365 N   0  0  0  0  0  0  0  0  0  0  0  0
   17.8848   -0.0212   67.1703 C   0  0  0  0  0  0  0  0  0  0  0  0
   17.9049   -1.4915   66.9867 C   0  0  0  0  0  0  0  0  0  0  0  0
   16.4806   -1.9493   67.0428 C   0  0  0  0  0  0  0  0  0  0  0  0
   16.5071   -3.4253   66.8958 N   0  0  0  0  0  0  0  0  0  0  0  0
   16.6207   -3.8079   65.4551 C   0  0  0  0  0  0  0  0  0  0  0  0
   16.2437   -5.2742   65.1819 C   0  0  0  0  0  0  0  0  0  0  0  0
   17.0100   -6.2883   66.0496 C   0  0  0  0  0  0  0  0  0  0  0  0
   16.8741   -7.6735   65.4354 C   0  0  0  0  0  0  0  0  0  0  0  0
   15.4337   -7.9646   65.4805 N   0  0  0  0  0  0  0  0  0  0  0  0
   14.9844   -9.3315   65.0943 C   0  0  0  0  0  0  0  0  0  0  0  0
   13.8396   -8.9788   64.1200 C   0  0  0  0  0  0  0  0  0  0  0  0
   14.1855   -8.3773   62.7815 C   0  0  0  0  0  0  0  0  0  0  0  0
   13.0429   -7.9627   61.9860 N   0  0  0  0  0  0  0  0  0  0  0  0
  1  2  1  0  0  0  0
  2  3  1  0  0  0  0
  3  4  1  0  0  0  0
  4  5  1  0  0  0  0
  5  6  1  0  0  0  0
  6  7  1  0  0  0  0
  7  8  1  0  0  0  0
  8  9  1  0  0  0  0
  9 10  1  0  0  0  0
 10 11  1  0  0  0  0
 11 12  1  0  0  0  0
 12 13  1  0  0  0  0
 13 14  1  0  0  0  0
M  END
>  <CHROM.1>
-175.90955210,-178.49281778,-81.68915371,-163.05097676,-53.61155031,-163.60857671
-62.35399749,-172.85283485,-131.73319042,70.32137540,-174.44461859,16.15927174
-5.14358790,65.47980692,0.94312649,-0.84704071,-0.11019942

>  <Name>
1xpf_lig

>  <RI>
0

>  <Rbt.Current_Directory>
/home/afrankz/demos/rdock_decoys_rna/rnas/1xpf

>  <Rbt.Executable>
rbdock ($Id: //depot/dev/client3/rdock/2013.1/src/exe/rbdock.cxx#4 $)

>  <Rbt.Library>
libRbt.so (2013.1, Build901 2013/11/27)

>  <Rbt.Parameter_File>
/export/apps/rDock/src/rDock_2013.1_src/data/scripts/dock_solv.prm

>  <Rbt.Receptor>
prm/blind_docking_80.prm

>  <SCORE>
-7.52929

>  <SCORE.INTER>
0.18514

>  <SCORE.INTER.CONST>
1

>  <SCORE.INTER.POLAR>
0

>  <SCORE.INTER.ROT>
11

>  <SCORE.INTER.SOLV>
9.94679

>  <SCORE.INTER.VDW>
-14.1255

>  <SCORE.INTER.norm>
0.0132243

>  <SCORE.INTRA>
-7.71443

>  <SCORE.INTRA.DIHEDRAL>
-14.2667

>  <SCORE.INTRA.DIHEDRAL.0>
17.7811

>  <SCORE.INTRA.POLAR>
0

>  <SCORE.INTRA.POLAR.0>
0

>  <SCORE.INTRA.REPUL>
0

>  <SCORE.INTRA.REPUL.0>
0

>  <SCORE.INTRA.SOLV>
0.335836

>  <SCORE.INTRA.SOLV.lig_0>
-47.9565

>  <SCORE.INTRA.VDW>
-0.748997

>  <SCORE.INTRA.VDW.0>
0.515983

>  <SCORE.INTRA.norm>
-0.551031

>  <SCORE.RESTR>
0

>  <SCORE.RESTR.CAVITY>
0

>  <SCORE.RESTR.norm>
0

>  <SCORE.SYSTEM>
0

>  <SCORE.SYSTEM.CONST>
0

>  <SCORE.SYSTEM.DIHEDRAL>
0

>  <SCORE.SYSTEM.SOLV>
0

>  <SCORE.SYSTEM.norm>
0

>  <SCORE.heavy>
14

>  <SCORE.norm>
-0.537806

>  <RMSD>
6.843

$$$$
1xpf_lig
 OpenBabel02141814123D
libRbt.so/2013.1/901 2013/11/27
 14 13  0  0  0  0  0  0  0  0999 V2000
   21.4815   -2.1346   63.1027 N   0  0  0  0  0  0  0  0  0  0  0  0
   21.1412   -2.8297   64.3304 C   0  0  0  0  0  0  0  0  0  0  0  0
   21.0800   -4.2941   64.1126 C   0  0  0  0  0  0  0  0  0  0  0  0
   19.8544   -4.5541   63.2930 C   0  0  0  0  0  0  0  0  0  0  0  0
   18.6934   -4.3112   64.1839 N   0  0  0  0  0  0  0  0  0  0  0  0
   17.4862   -5.0373   63.6833 C   0  0  0  0  0  0  0  0  0  0  0  0
   16.3535   -5.1251   64.7208 C   0  0  0  0  0  0  0  0  0  0  0  0
   16.7452   -5.8649   66.0122 C   0  0  0  0  0  0  0  0  0  0  0  0
   17.0083   -7.3279   65.6888 C   0  0  0  0  0  0  0  0  0  0  0  0
   15.7009   -7.8637   65.2828 N   0  0  0  0  0  0  0  0  0  0  0  0
   15.4690   -8.1176   63.8331 C   0  0  0  0  0  0  0  0  0  0  0  0
   14.0405   -8.7015   63.8821 C   0  0  0  0  0  0  0  0  0  0  0  0
   13.2457   -8.7827   62.6035 C   0  0  0  0  0  0  0  0  0  0  0  0
   13.8923   -9.5163   61.5293 N   0  0  0  0  0  0  0  0  0  0  0  0
  1  2  1  0  0  0  0
  2  3  1  0  0  0  0
  3  4  1  0  0  0  0
  4  5  1  0  0  0  0
  5  6  1  0  0  0  0
  6  7  1  0  0  0  0
  7  8  1  0  0  0  0
  8  9  1  0  0  0  0
  9 10  1  0  0  0  0
 10 11  1  0  0  0  0
 11 12  1  0  0  0  0
 12 13  1  0  0  0  0
 13 14  1  0  0  0  0
M  END
>  <CHROM.1>
-71.04841848,-71.02569357,-157.42634548,165.60036000,-60.43854856,-66.16353343
-66.33474666,105.20910326,178.05893712,164.40633779,55.88981700,17.29938203
-6.03292483,64.01865630,-0.09425252,-0.69147535,-1.62159452

>  <Name>
1xpf_lig

>  <RI>
0

>  <Rbt.Current_Directory>
/home/afrankz/demos/rdock_decoys_rna/rnas/1xpf

>  <Rbt.Executable>
rbdock ($Id: //depot/dev/client3/rdock/2013.1/src/exe/rbdock.cxx#4 $)

>  <Rbt.Library>
libRbt.so (2013.1, Build901 2013/11/27)

>  <Rbt.Parameter_File>
/export/apps/rDock/src/rDock_2013.1_src/data/scripts/dock_solv.prm

>  <Rbt.Receptor>
prm/pocket_docking_7.prm

>  <SCORE>
-10.013

>  <SCORE.INTER>
-3.86938

>  <SCORE.INTER.CONST>
1

>  <SCORE.INTER.POLAR>
-0.894427

>  <SCORE.INTER.ROT>
11

>  <SCORE.INTER.SOLV>
11.2201

>  <SCORE.INTER.VDW>
-14.2715

>  <SCORE.INTER.norm>
-0.276384

>  <SCORE.INTRA>
-6.14363

>  <SCORE.INTRA.DIHEDRAL>
-14.0748

>  <SCORE.INTRA.DIHEDRAL.0>
17.7811

>  <SCORE.INTRA.POLAR>
0

>  <SCORE.INTRA.POLAR.0>
0

>  <SCORE.INTRA.REPUL>
0

>  <SCORE.INTRA.REPUL.0>
0

>  <SCORE.INTRA.SOLV>
2.65956

>  <SCORE.INTRA.SOLV.lig_0>
-47.9565

>  <SCORE.INTRA.VDW>
-0.436016

>  <SCORE.INTRA.VDW.0>
0.515983

>  <SCORE.INTRA.norm>
-0.438831

>  <SCORE.RESTR>
0

>  <SCORE.RESTR.CAVITY>
0

>  <SCORE.RESTR.norm>
0

>  <SCORE.SYSTEM>
0

>  <SCORE.SYSTEM.CONST>
0

>  <SCORE.SYSTEM.DIHEDRAL>
0

>  <SCORE.SYSTEM.SOLV>
0

>  <SCORE.SYSTEM.norm>
0

>  <SCORE.heavy>
14

>  <SCORE.norm>
-0.715215

>  <RMSD>
6.876

$$$$
1xpf_lig
 OpenBabel02141814123D
libRbt.so/2013.1/901 2013/11/27
 14 13  0  0  0  0  0  0  0  0999 V2000
   18.6919   -0.7244   60.0535 N   0  0  0  0  0  0  0  0  0  0  0  0
   20.1275   -0.8495   60.2245 C   0  0  0  0  0  0  0  0  0  0  0  0
   20.7445    0.4653   60.5184 C   0  0  0  0  0  0  0  0  0  0  0  0
   22.1861    0.2027   60.8251 C   0  0  0  0  0  0  0  0  0  0  0  0
   22.8091   -0.2546   59.5588 N   0  0  0  0  0  0  0  0  0  0  0  0
   24.1413   -0.8789   59.8242 C   0  0  0  0  0  0  0  0  0  0  0  0
   25.2837    0.1455   59.9353 C   0  0  0  0  0  0  0  0  0  0  0  0
   25.4296    1.0548   58.7023 C   0  0  0  0  0  0  0  0  0  0  0  0
   26.5784    2.0253   58.9313 C   0  0  0  0  0  0  0  0  0  0  0  0
   26.5160    2.9560   57.7949 N   0  0  0  0  0  0  0  0  0  0  0  0
   27.0782    4.3233   57.9794 C   0  0  0  0  0  0  0  0  0  0  0  0
   26.0831    5.1456   57.1323 C   0  0  0  0  0  0  0  0  0  0  0  0
   24.6586    5.2749   57.6089 C   0  0  0  0  0  0  0  0  0  0  0  0
   23.7982    6.0697   56.7498 N   0  0  0  0  0  0  0  0  0  0  0  0
  1  2  1  0  0  0  0
  2  3  1  0  0  0  0
  3  4  1  0  0  0  0
  4  5  1  0  0  0  0
  5  6  1  0  0  0  0
  6  7  1  0  0  0  0
  7  8  1  0  0  0  0
  8  9  1  0  0  0  0
  9 10  1  0  0  0  0
 10 11  1  0  0  0  0
 11 12  1  0  0  0  0
 12 13  1  0  0  0  0
 13 14  1  0  0  0  0
M  END
>  <CHROM.1>
173.84845515,67.67750282,-165.21811942,-83.69209380,-56.31186725,179.64708779
-172.48773636,154.29565998,-144.24307409,67.92368897,179.81234999,23.86652035
1.78246399,58.98866793,2.30206642,-0.06491032,2.70792891

>  <Name>
1xpf_lig

>  <RI>
0

>  <Rbt.Current_Directory>
/home/afrankz/demos/rdock_decoys_rna/rnas/1xpf

>  <Rbt.Executable>
rbdock ($Id: //depot/dev/client3/rdock/2013.1/src/exe/rbdock.cxx#4 $)

>  <Rbt.Library>
libRbt.so (2013.1, Build901 2013/11/27)

>  <Rbt.Parameter_File>
/export/apps/rDock/src/rDock_2013.1_src/data/scripts/dock_solv.prm

>  <Rbt.Receptor>
prm/pocket_docking_7.prm

>  <SCORE>
-9.88778

>  <SCORE.INTER>
-1.37029

>  <SCORE.INTER.CONST>
1

>  <SCORE.INTER.POLAR>
-1.78871

>  <SCORE.INTER.ROT>
11

>  <SCORE.INTER.SOLV>
8.8195

>  <SCORE.INTER.VDW>
-8.82432

>  <SCORE.INTER.norm>
-0.0978776

>  <SCORE.INTRA>
-8.5175

>  <SCORE.INTRA.DIHEDRAL>
-15.1016

>  <SCORE.INTRA.DIHEDRAL.0>
17.7811

>  <SCORE.INTRA.POLAR>
0

>  <SCORE.INTRA.POLAR.0>
0

>  <SCORE.INTRA.REPUL>
0

>  <SCORE.INTRA.REPUL.0>
0

>  <SCORE.INTRA.SOLV>
0.435553

>  <SCORE.INTRA.SOLV.lig_0>
-47.9565

>  <SCORE.INTRA.VDW>
-1.18448

>  <SCORE.INTRA.VDW.0>
0.515983

>  <SCORE.INTRA.norm>
-0.608393

>  <SCORE.RESTR>
0

>  <SCORE.RESTR.CAVITY>
0

>  <SCORE.RESTR.norm>
0

>  <SCORE.SYSTEM>
0

>  <SCORE.SYSTEM.CONST>
0

>  <SCORE.SYSTEM.DIHEDRAL>
0

>  <SCORE.SYSTEM.SOLV>
0

>  <SCORE.SYSTEM.norm>
0

>  <SCORE.heavy>
14

>  <SCORE.norm>
-0.70627

>  <RMSD>
6.899

$$$$
1xpf_lig
 OpenBabel02141814123D
libRbt.so/2013.1/901 2013/11/27
 14 13  0  0  0  0  0  0  0  0999 V2000
   16.3301   -5.8776   70.0808 N   0  0  0  0  0  0  0  0  0  0  0  0
   16.4313   -5.4273   68.7049 C   0  0  0  0  0  0  0  0  0  0  0  0
   16.4024   -3.9478   68.6264 C   0  0  0  0  0  0  0  0  0  0  0  0
   16.4369   -3.5957   67.1716 C   0  0  0  0  0  0  0  0  0  0  0  0
   16.3907   -2.1149   67.0960 N   0  0  0  0  0  0  0  0  0  0  0  0
   17.7641   -1.5554   66.9064 C   0  0  0  0  0  0  0  0  0  0  0  0
   17.8701   -0.0636   67.2673 C   0  0  0  0  0  0  0  0  0  0  0  0
   19.3041    0.4921   67.2118 C   0  0  0  0  0  0  0  0  0  0  0  0
   19.3499    1.8279   67.9382 C   0  0  0  0  0  0  0  0  0  0  0  0
   18.9808    1.5134   69.3261 N   0  0  0  0  0  0  0  0  0  0  0  0
   19.3144    2.5108   70.3813 C   0  0  0  0  0  0  0  0  0  0  0  0
   19.4443    1.5805   71.6068 C   0  0  0  0  0  0  0  0  0  0  0  0
   18.2257    0.8296   72.0802 C   0  0  0  0  0  0  0  0  0  0  0  0
   18.4229    0.0472   73.2881 N   0  0  0  0  0  0  0  0  0  0  0  0
  1  2  1  0  0  0  0
  2  3  1  0  0  0  0
  3  4  1  0  0  0  0
  4  5  1  0  0  0  0
  5  6  1  0  0  0  0
  6  7  1  0  0  0  0
  7  8  1  0  0  0  0
  8  9  1  0  0  0  0
  9 10  1  0  0  0  0
 10 11  1  0  0  0  0
 11 12  1  0  0  0  0
 12 13  1  0  0  0  0
 13 14  1  0  0  0  0
M  END
>  <CHROM.1>
-176.99773624,179.30873946,98.50512730,-161.37638467,174.23889795,-164.61288504
61.98791707,162.21844121,-152.90717177,-64.05369329,-176.24813027,17.90498953
-0.98410526,69.12009298,2.90566024,-1.16430627,-1.48659416

>  <Name>
1xpf_lig

>  <RI>
0

>  <Rbt.Current_Directory>
/home/afrankz/demos/rdock_decoys_rna/rnas/1xpf

>  <Rbt.Executable>
rbdock ($Id: //depot/dev/client3/rdock/2013.1/src/exe/rbdock.cxx#4 $)

>  <Rbt.Library>
libRbt.so (2013.1, Build901 2013/11/27)

>  <Rbt.Parameter_File>
/export/apps/rDock/src/rDock_2013.1_src/data/scripts/dock_solv.prm

>  <Rbt.Receptor>
prm/blind_docking_80.prm

>  <SCORE>
-15.4304

>  <SCORE.INTER>
-6.95099

>  <SCORE.INTER.CONST>
1

>  <SCORE.INTER.POLAR>
-0.779325

>  <SCORE.INTER.ROT>
11

>  <SCORE.INTER.SOLV>
10.1046

>  <SCORE.INTER.VDW>
-16.3378

>  <SCORE.INTER.norm>
-0.496499

>  <SCORE.INTRA>
-8.47943

>  <SCORE.INTRA.DIHEDRAL>
-14.6775

>  <SCORE.INTRA.DIHEDRAL.0>
17.7811

>  <SCORE.INTRA.POLAR>
0

>  <SCORE.INTRA.POLAR.0>
0

>  <SCORE.INTRA.REPUL>
0

>  <SCORE.INTRA.REPUL.0>
0

>  <SCORE.INTRA.SOLV>
-0.00727273

>  <SCORE.INTRA.SOLV.lig_0>
-47.9565

>  <SCORE.INTRA.VDW>
-1.13707

>  <SCORE.INTRA.VDW.0>
0.515983

>  <SCORE.INTRA.norm>
-0.605674

>  <SCORE.RESTR>
0

>  <SCORE.RESTR.CAVITY>
0

>  <SCORE.RESTR.norm>
0

>  <SCORE.SYSTEM>
0

>  <SCORE.SYSTEM.CONST>
0

>  <SCORE.SYSTEM.DIHEDRAL>
0

>  <SCORE.SYSTEM.SOLV>
0

>  <SCORE.SYSTEM.norm>
0

>  <SCORE.heavy>
14

>  <SCORE.norm>
-1.10217

>  <RMSD>
6.900

$$$$
1xpf_lig
 OpenBabel02141814123D
libRbt.so/2013.1/901 2013/11/27
 14 13  0  0  0  0  0  0  0  0999 V2000
   23.7343    5.7050   57.7260 N   0  0  0  0  0  0  0  0  0  0  0  0
   23.8738    4.8090   58.8590 C   0  0  0  0  0  0  0  0  0  0  0  0
   23.4414    3.4360   58.5073 C   0  0  0  0  0  0  0  0  0  0  0  0
   23.5010    2.6322   59.7690 C   0  0  0  0  0  0  0  0  0  0  0  0
   23.1437    1.2409   59.3986 N   0  0  0  0  0  0  0  0  0  0  0  0
   22.2119    0.6512   60.4081 C   0  0  0  0  0  0  0  0  0  0  0  0
   22.9356    0.0094   61.6044 C   0  0  0  0  0  0  0  0  0  0  0  0
   23.8211   -1.1916   61.2278 C   0  0  0  0  0  0  0  0  0  0  0  0
   24.3564   -1.8345   62.4984 C   0  0  0  0  0  0  0  0  0  0  0  0
   25.2362   -0.8172   63.0920 N   0  0  0  0  0  0  0  0  0  0  0  0
   25.5968   -0.9583   64.5306 C   0  0  0  0  0  0  0  0  0  0  0  0
   26.7374    0.0778   64.6303 C   0  0  0  0  0  0  0  0  0  0  0  0
   26.3981    1.5428   64.5234 C   0  0  0  0  0  0  0  0  0  0  0  0
   25.9300    1.9662   63.2151 N   0  0  0  0  0  0  0  0  0  0  0  0
  1  2  1  0  0  0  0
  2  3  1  0  0  0  0
  3  4  1  0  0  0  0
  4  5  1  0  0  0  0
  5  6  1  0  0  0  0
  6  7  1  0  0  0  0
  7  8  1  0  0  0  0
  8  9  1  0  0  0  0
  9 10  1  0  0  0  0
 10 11  1  0  0  0  0
 11 12  1  0  0  0  0
 12 13  1  0  0  0  0
 13 14  1  0  0  0  0
M  END
>  <CHROM.1>
-174.72530560,-176.79599990,-136.97548993,-86.29764274,-63.29860000,-173.72531686
-65.53586386,161.96921914,167.69709746,69.61589960,-67.64943803,24.35118887
1.23317151,61.42809652,-2.02368937,0.83507756,2.62431074

>  <Name>
1xpf_lig

>  <RI>
0

>  <Rbt.Current_Directory>
/home/afrankz/demos/rdock_decoys_rna/rnas/1xpf

>  <Rbt.Executable>
rbdock ($Id: //depot/dev/client3/rdock/2013.1/src/exe/rbdock.cxx#4 $)

>  <Rbt.Library>
libRbt.so (2013.1, Build901 2013/11/27)

>  <Rbt.Parameter_File>
/export/apps/rDock/src/rDock_2013.1_src/data/scripts/dock_solv.prm

>  <Rbt.Receptor>
prm/pocket_docking_8.prm

>  <SCORE>
-12.4223

>  <SCORE.INTER>
-5.08818

>  <SCORE.INTER.CONST>
1

>  <SCORE.INTER.POLAR>
-1.77978

>  <SCORE.INTER.ROT>
11

>  <SCORE.INTER.SOLV>
7.90782

>  <SCORE.INTER.VDW>
-11.0288

>  <SCORE.INTER.norm>
-0.363441

>  <SCORE.INTRA>
-7.33409

>  <SCORE.INTRA.DIHEDRAL>
-14.926

>  <SCORE.INTRA.DIHEDRAL.0>
17.7811

>  <SCORE.INTRA.POLAR>
0

>  <SCORE.INTRA.POLAR.0>
0

>  <SCORE.INTRA.REPUL>
0

>  <SCORE.INTRA.REPUL.0>
0

>  <SCORE.INTRA.SOLV>
3.66929

>  <SCORE.INTRA.SOLV.lig_0>
-47.9565

>  <SCORE.INTRA.VDW>
-1.70575

>  <SCORE.INTRA.VDW.0>
0.515983

>  <SCORE.INTRA.norm>
-0.523864

>  <SCORE.RESTR>
0

>  <SCORE.RESTR.CAVITY>
0

>  <SCORE.RESTR.norm>
0

>  <SCORE.SYSTEM>
0

>  <SCORE.SYSTEM.CONST>
0

>  <SCORE.SYSTEM.DIHEDRAL>
0

>  <SCORE.SYSTEM.SOLV>
0

>  <SCORE.SYSTEM.norm>
0

>  <SCORE.heavy>
14

>  <SCORE.norm>
-0.887305

>  <RMSD>
6.923

$$$$
1xpf_lig
 OpenBabel02141814123D
libRbt.so/2013.1/901 2013/11/27
 14 13  0  0  0  0  0  0  0  0999 V2000
   17.9289    0.7195   67.7682 N   0  0  0  0  0  0  0  0  0  0  0  0
   17.4503   -0.2845   66.8360 C   0  0  0  0  0  0  0  0  0  0  0  0
   16.9632   -1.4864   67.5529 C   0  0  0  0  0  0  0  0  0  0  0  0
   16.6298   -2.5034   66.5061 C   0  0  0  0  0  0  0  0  0  0  0  0
   16.3750   -3.7769   67.2228 N   0  0  0  0  0  0  0  0  0  0  0  0
   16.4098   -4.9306   66.2727 C   0  0  0  0  0  0  0  0  0  0  0  0
   15.0223   -5.5347   65.9957 C   0  0  0  0  0  0  0  0  0  0  0  0
   15.0222   -6.6296   64.9142 C   0  0  0  0  0  0  0  0  0  0  0  0
   15.3355   -5.9988   63.5658 C   0  0  0  0  0  0  0  0  0  0  0  0
   15.2028   -7.0971   62.5975 N   0  0  0  0  0  0  0  0  0  0  0  0
   15.8278   -6.9257   61.2561 C   0  0  0  0  0  0  0  0  0  0  0  0
   14.6231   -7.2551   60.3481 C   0  0  0  0  0  0  0  0  0  0  0  0
   14.8015   -7.1865   58.8527 C   0  0  0  0  0  0  0  0  0  0  0  0
   15.2866   -5.9110   58.3546 N   0  0  0  0  0  0  0  0  0  0  0  0
  1  2  1  0  0  0  0
  2  3  1  0  0  0  0
  3  4  1  0  0  0  0
  4  5  1  0  0  0  0
  5  6  1  0  0  0  0
  6  7  1  0  0  0  0
  7  8  1  0  0  0  0
  8  9  1  0  0  0  0
  9 10  1  0  0  0  0
 10 11  1  0  0  0  0
 11 12  1  0  0  0  0
 12 13  1  0  0  0  0
 13 14  1  0  0  0  0
M  END
>  <CHROM.1>
-174.27175774,170.18843100,-164.18404204,-108.00659649,174.19906090,-68.09708828
-175.50626465,-162.07732375,-127.89397073,179.18618096,-55.71676733,15.91981185
-4.62888015,64.14602549,-0.85096061,-1.22451699,-1.54539998

>  <Name>
1xpf_lig

>  <RI>
0

>  <Rbt.Current_Directory>
/home/afrankz/demos/rdock_decoys_rna/rnas/1xpf

>  <Rbt.Executable>
rbdock ($Id: //depot/dev/client3/rdock/2013.1/src/exe/rbdock.cxx#4 $)

>  <Rbt.Library>
libRbt.so (2013.1, Build901 2013/11/27)

>  <Rbt.Parameter_File>
/export/apps/rDock/src/rDock_2013.1_src/data/scripts/dock_solv.prm

>  <Rbt.Receptor>
prm/pocket_docking_6.prm

>  <SCORE>
-12.0107

>  <SCORE.INTER>
-3.65572

>  <SCORE.INTER.CONST>
1

>  <SCORE.INTER.POLAR>
-1.77294

>  <SCORE.INTER.ROT>
11

>  <SCORE.INTER.SOLV>
14.8018

>  <SCORE.INTER.VDW>
-12.3946

>  <SCORE.INTER.norm>
-0.261123

>  <SCORE.INTRA>
-8.35496

>  <SCORE.INTRA.DIHEDRAL>
-14.082

>  <SCORE.INTRA.DIHEDRAL.0>
17.7811

>  <SCORE.INTRA.POLAR>
0

>  <SCORE.INTRA.POLAR.0>
0

>  <SCORE.INTRA.REPUL>
0

>  <SCORE.INTRA.REPUL.0>
0

>  <SCORE.INTRA.SOLV>
-0.103389

>  <SCORE.INTRA.SOLV.lig_0>
-47.9565

>  <SCORE.INTRA.VDW>
-1.26224

>  <SCORE.INTRA.VDW.0>
0.515983

>  <SCORE.INTRA.norm>
-0.596783

>  <SCORE.RESTR>
0

>  <SCORE.RESTR.CAVITY>
0

>  <SCORE.RESTR.norm>
0

>  <SCORE.SYSTEM>
0

>  <SCORE.SYSTEM.CONST>
0

>  <SCORE.SYSTEM.DIHEDRAL>
0

>  <SCORE.SYSTEM.SOLV>
0

>  <SCORE.SYSTEM.norm>
0

>  <SCORE.heavy>
14

>  <SCORE.norm>
-0.857906

>  <RMSD>
7.013

$$$$
1xpf_lig
 OpenBabel02141814123D
libRbt.so/2013.1/901 2013/11/27
 14 13  0  0  0  0  0  0  0  0999 V2000
   18.3908   -0.4832   65.9373 N   0  0  0  0  0  0  0  0  0  0  0  0
   17.0470   -0.6951   66.4430 C   0  0  0  0  0  0  0  0  0  0  0  0
   16.0955   -0.9453   65.3349 C   0  0  0  0  0  0  0  0  0  0  0  0
   16.0146    0.3242   64.5454 C   0  0  0  0  0  0  0  0  0  0  0  0
   15.0005    0.0973   63.4868 N   0  0  0  0  0  0  0  0  0  0  0  0
   15.1594    1.0947   62.3845 C   0  0  0  0  0  0  0  0  0  0  0  0
   14.0854    0.9705   61.2900 C   0  0  0  0  0  0  0  0  0  0  0  0
   14.0549   -0.4037   60.5978 C   0  0  0  0  0  0  0  0  0  0  0  0
   13.1230   -0.3368   59.3973 C   0  0  0  0  0  0  0  0  0  0  0  0
   12.9183   -1.7381   59.0023 N   0  0  0  0  0  0  0  0  0  0  0  0
   13.8448   -2.3222   57.9924 C   0  0  0  0  0  0  0  0  0  0  0  0
   13.1762   -3.6960   57.7691 C   0  0  0  0  0  0  0  0  0  0  0  0
   13.8466   -4.6890   56.8540 C   0  0  0  0  0  0  0  0  0  0  0  0
   15.1218   -5.1942   57.3321 N   0  0  0  0  0  0  0  0  0  0  0  0
  1  2  1  0  0  0  0
  2  3  1  0  0  0  0
  3  4  1  0  0  0  0
  4  5  1  0  0  0  0
  5  6  1  0  0  0  0
  6  7  1  0  0  0  0
  7  8  1  0  0  0  0
  8  9  1  0  0  0  0
  9 10  1  0  0  0  0
 10 11  1  0  0  0  0
 11 12  1  0  0  0  0
 12 13  1  0  0  0  0
 13 14  1  0  0  0  0
M  END
>  <CHROM.1>
-66.26186563,-176.65443901,-161.04620558,-176.57232600,-59.40118556,-170.87099911
-167.26087849,-91.13756581,-173.71369259,-176.23865234,66.26739413,14.84826830
-1.28670244,61.31188265,-1.01603633,0.89078857,-2.43644196

>  <Name>
1xpf_lig

>  <RI>
0

>  <Rbt.Current_Directory>
/home/afrankz/demos/rdock_decoys_rna/rnas/1xpf

>  <Rbt.Executable>
rbdock ($Id: //depot/dev/client3/rdock/2013.1/src/exe/rbdock.cxx#4 $)

>  <Rbt.Library>
libRbt.so (2013.1, Build901 2013/11/27)

>  <Rbt.Parameter_File>
/export/apps/rDock/src/rDock_2013.1_src/data/scripts/dock_solv.prm

>  <Rbt.Receptor>
prm/pocket_docking_8.prm

>  <SCORE>
-12.7679

>  <SCORE.INTER>
-4.16361

>  <SCORE.INTER.CONST>
1

>  <SCORE.INTER.POLAR>
-0.979796

>  <SCORE.INTER.ROT>
11

>  <SCORE.INTER.SOLV>
9.50984

>  <SCORE.INTER.VDW>
-13.613

>  <SCORE.INTER.norm>
-0.297401

>  <SCORE.INTRA>
-8.60425

>  <SCORE.INTRA.DIHEDRAL>
-15.5057

>  <SCORE.INTRA.DIHEDRAL.0>
17.7811

>  <SCORE.INTRA.POLAR>
0

>  <SCORE.INTRA.POLAR.0>
0

>  <SCORE.INTRA.REPUL>
0

>  <SCORE.INTRA.REPUL.0>
0

>  <SCORE.INTRA.SOLV>
0.864153

>  <SCORE.INTRA.SOLV.lig_0>
-47.9565

>  <SCORE.INTRA.VDW>
-1.28346

>  <SCORE.INTRA.VDW.0>
0.515983

>  <SCORE.INTRA.norm>
-0.614589

>  <SCORE.RESTR>
0

>  <SCORE.RESTR.CAVITY>
0

>  <SCORE.RESTR.norm>
0

>  <SCORE.SYSTEM>
0

>  <SCORE.SYSTEM.CONST>
0

>  <SCORE.SYSTEM.DIHEDRAL>
0

>  <SCORE.SYSTEM.SOLV>
0

>  <SCORE.SYSTEM.norm>
0

>  <SCORE.heavy>
14

>  <SCORE.norm>
-0.91199

>  <RMSD>
7.038

$$$$
1xpf_lig
 OpenBabel02141814123D
libRbt.so/2013.1/901 2013/11/27
 14 13  0  0  0  0  0  0  0  0999 V2000
   27.0828    3.4415   56.5604 N   0  0  0  0  0  0  0  0  0  0  0  0
   25.9489    3.2704   55.6709 C   0  0  0  0  0  0  0  0  0  0  0  0
   24.7040    3.7795   56.2928 C   0  0  0  0  0  0  0  0  0  0  0  0
   24.8874    5.2545   56.4724 C   0  0  0  0  0  0  0  0  0  0  0  0
   23.7203    5.7315   57.2540 N   0  0  0  0  0  0  0  0  0  0  0  0
   24.0389    5.7521   58.7145 C   0  0  0  0  0  0  0  0  0  0  0  0
   22.9981    5.0165   59.5762 C   0  0  0  0  0  0  0  0  0  0  0  0
   22.9477    3.4976   59.3340 C   0  0  0  0  0  0  0  0  0  0  0  0
   21.7901    2.9048   60.1232 C   0  0  0  0  0  0  0  0  0  0  0  0
   21.8302    1.4657   59.8249 N   0  0  0  0  0  0  0  0  0  0  0  0
   20.5859    0.6736   60.0340 C   0  0  0  0  0  0  0  0  0  0  0  0
   21.1474   -0.5075   60.8550 C   0  0  0  0  0  0  0  0  0  0  0  0
   20.2058   -1.6022   61.2886 C   0  0  0  0  0  0  0  0  0  0  0  0
   20.7671   -2.5487   62.2369 N   0  0  0  0  0  0  0  0  0  0  0  0
  1  2  1  0  0  0  0
  2  3  1  0  0  0  0
  3  4  1  0  0  0  0
  4  5  1  0  0  0  0
  5  6  1  0  0  0  0
  6  7  1  0  0  0  0
  7  8  1  0  0  0  0
  8  9  1  0  0  0  0
  9 10  1  0  0  0  0
 10 11  1  0  0  0  0
 11 12  1  0  0  0  0
 12 13  1  0  0  0  0
 13 14  1  0  0  0  0
M  END
>  <CHROM.1>
64.29649161,-172.72030362,93.65132498,-128.43500059,66.44760926,-173.94988611
179.98365112,-158.74019734,-130.75845159,-179.29263117,-170.19291400,23.04663611
2.58089193,58.87409689,-0.77229984,-0.74757343,3.08892436

>  <Name>
1xpf_lig

>  <RI>
0

>  <Rbt.Current_Directory>
/home/afrankz/demos/rdock_decoys_rna/rnas/1xpf

>  <Rbt.Executable>
rbdock ($Id: //depot/dev/client3/rdock/2013.1/src/exe/rbdock.cxx#4 $)

>  <Rbt.Library>
libRbt.so (2013.1, Build901 2013/11/27)

>  <Rbt.Parameter_File>
/export/apps/rDock/src/rDock_2013.1_src/data/scripts/dock_solv.prm

>  <Rbt.Receptor>
prm/pocket_docking_8.prm

>  <SCORE>
-11.3489

>  <SCORE.INTER>
-3.40492

>  <SCORE.INTER.CONST>
1

>  <SCORE.INTER.POLAR>
-1.65762

>  <SCORE.INTER.ROT>
11

>  <SCORE.INTER.SOLV>
10.1525

>  <SCORE.INTER.VDW>
-11.062

>  <SCORE.INTER.norm>
-0.243208

>  <SCORE.INTRA>
-7.94397

>  <SCORE.INTRA.DIHEDRAL>
-13.5489

>  <SCORE.INTRA.DIHEDRAL.0>
17.7811

>  <SCORE.INTRA.POLAR>
0

>  <SCORE.INTRA.POLAR.0>
0

>  <SCORE.INTRA.REPUL>
0

>  <SCORE.INTRA.REPUL.0>
0

>  <SCORE.INTRA.SOLV>
0.598969

>  <SCORE.INTRA.SOLV.lig_0>
-47.9565

>  <SCORE.INTRA.VDW>
-1.469

>  <SCORE.INTRA.VDW.0>
0.515983

>  <SCORE.INTRA.norm>
-0.567426

>  <SCORE.RESTR>
0

>  <SCORE.RESTR.CAVITY>
0

>  <SCORE.RESTR.norm>
0

>  <SCORE.SYSTEM>
0

>  <SCORE.SYSTEM.CONST>
0

>  <SCORE.SYSTEM.DIHEDRAL>
0

>  <SCORE.SYSTEM.SOLV>
0

>  <SCORE.SYSTEM.norm>
0

>  <SCORE.heavy>
14

>  <SCORE.norm>
-0.810635

>  <RMSD>
7.041

$$$$
1xpf_lig
 OpenBabel02141814123D
libRbt.so/2013.1/901 2013/11/27
 14 13  0  0  0  0  0  0  0  0999 V2000
   18.9114    1.7000   68.9674 N   0  0  0  0  0  0  0  0  0  0  0  0
   19.9159    1.9752   67.9569 C   0  0  0  0  0  0  0  0  0  0  0  0
   19.5454    3.1601   67.1479 C   0  0  0  0  0  0  0  0  0  0  0  0
   20.6398    3.3525   66.1446 C   0  0  0  0  0  0  0  0  0  0  0  0
   20.1809    4.4186   65.2207 N   0  0  0  0  0  0  0  0  0  0  0  0
   20.6848    5.7535   65.6671 C   0  0  0  0  0  0  0  0  0  0  0  0
   20.1377    6.9229   64.8305 C   0  0  0  0  0  0  0  0  0  0  0  0
   20.6516    6.9476   63.3801 C   0  0  0  0  0  0  0  0  0  0  0  0
   22.1015    7.4080   63.3724 C   0  0  0  0  0  0  0  0  0  0  0  0
   22.5161    7.3193   61.9647 N   0  0  0  0  0  0  0  0  0  0  0  0
   23.3079    6.1299   61.5428 C   0  0  0  0  0  0  0  0  0  0  0  0
   22.7441    5.9153   60.1214 C   0  0  0  0  0  0  0  0  0  0  0  0
   23.2096    4.7201   59.3291 C   0  0  0  0  0  0  0  0  0  0  0  0
   22.6683    4.6321   57.9839 N   0  0  0  0  0  0  0  0  0  0  0  0
  1  2  1  0  0  0  0
  2  3  1  0  0  0  0
  3  4  1  0  0  0  0
  4  5  1  0  0  0  0
  5  6  1  0  0  0  0
  6  7  1  0  0  0  0
  7  8  1  0  0  0  0
  8  9  1  0  0  0  0
  9 10  1  0  0  0  0
 10 11  1  0  0  0  0
 11 12  1  0  0  0  0
 12 13  1  0  0  0  0
 13 14  1  0  0  0  0
M  END
>  <CHROM.1>
-179.97303064,172.43967422,93.91726976,-174.55879700,-67.91285638,-73.91302100
176.71313282,-99.87761118,144.04789819,-175.81057354,-177.53965933,21.22972119
5.02557762,63.83079661,-2.90000730,1.18693184,0.11566261

>  <Name>
1xpf_lig

>  <RI>
0

>  <Rbt.Current_Directory>
/home/afrankz/demos/rdock_decoys_rna/rnas/1xpf

>  <Rbt.Executable>
rbdock ($Id: //depot/dev/client3/rdock/2013.1/src/exe/rbdock.cxx#4 $)

>  <Rbt.Library>
libRbt.so (2013.1, Build901 2013/11/27)

>  <Rbt.Parameter_File>
/export/apps/rDock/src/rDock_2013.1_src/data/scripts/dock_solv.prm

>  <Rbt.Receptor>
prm/pocket_docking_6.prm

>  <SCORE>
-16.3448

>  <SCORE.INTER>
-7.92823

>  <SCORE.INTER.CONST>
1

>  <SCORE.INTER.POLAR>
-2.72752

>  <SCORE.INTER.ROT>
11

>  <SCORE.INTER.SOLV>
15.5492

>  <SCORE.INTER.VDW>
-12.3101

>  <SCORE.INTER.norm>
-0.566302

>  <SCORE.INTRA>
-8.41656

>  <SCORE.INTRA.DIHEDRAL>
-14.0006

>  <SCORE.INTRA.DIHEDRAL.0>
17.7811

>  <SCORE.INTRA.POLAR>
0

>  <SCORE.INTRA.POLAR.0>
0

>  <SCORE.INTRA.REPUL>
0

>  <SCORE.INTRA.REPUL.0>
0

>  <SCORE.INTRA.SOLV>
-0.368209

>  <SCORE.INTRA.SOLV.lig_0>
-47.9565

>  <SCORE.INTRA.VDW>
-1.23215

>  <SCORE.INTRA.VDW.0>
0.515983

>  <SCORE.INTRA.norm>
-0.601183

>  <SCORE.RESTR>
0

>  <SCORE.RESTR.CAVITY>
0

>  <SCORE.RESTR.norm>
0

>  <SCORE.SYSTEM>
0

>  <SCORE.SYSTEM.CONST>
0

>  <SCORE.SYSTEM.DIHEDRAL>
0

>  <SCORE.SYSTEM.SOLV>
0

>  <SCORE.SYSTEM.norm>
0

>  <SCORE.heavy>
14

>  <SCORE.norm>
-1.16749

>  <RMSD>
7.069

$$$$
1xpf_lig
 OpenBabel02141814123D
libRbt.so/2013.1/901 2013/11/27
 14 13  0  0  0  0  0  0  0  0999 V2000
   24.8962    7.7625   55.6656 N   0  0  0  0  0  0  0  0  0  0  0  0
   24.6572    6.5874   56.4831 C   0  0  0  0  0  0  0  0  0  0  0  0
   24.5352    5.3721   55.6440 C   0  0  0  0  0  0  0  0  0  0  0  0
   24.2332    4.2385   56.5742 C   0  0  0  0  0  0  0  0  0  0  0  0
   25.4644    4.0068   57.3686 N   0  0  0  0  0  0  0  0  0  0  0  0
   25.8093    2.5523   57.3911 C   0  0  0  0  0  0  0  0  0  0  0  0
   25.1161    1.7785   58.5259 C   0  0  0  0  0  0  0  0  0  0  0  0
   25.3861    0.2636   58.5048 C   0  0  0  0  0  0  0  0  0  0  0  0
   24.6384   -0.3924   59.6558 C   0  0  0  0  0  0  0  0  0  0  0  0
   23.2160   -0.2108   59.3316 N   0  0  0  0  0  0  0  0  0  0  0  0
   22.2181   -0.4347   60.4149 C   0  0  0  0  0  0  0  0  0  0  0  0
   21.3036   -1.4763   59.7343 C   0  0  0  0  0  0  0  0  0  0  0  0
   20.1016   -1.9882   60.4867 C   0  0  0  0  0  0  0  0  0  0  0  0
   19.0990   -0.9820   60.7909 N   0  0  0  0  0  0  0  0  0  0  0  0
  1  2  1  0  0  0  0
  2  3  1  0  0  0  0
  3  4  1  0  0  0  0
  4  5  1  0  0  0  0
  5  6  1  0  0  0  0
  6  7  1  0  0  0  0
  7  8  1  0  0  0  0
  8  9  1  0  0  0  0
  9 10  1  0  0  0  0
 10 11  1  0  0  0  0
 11 12  1  0  0  0  0
 12 13  1  0  0  0  0
 13 14  1  0  0  0  0
M  END
>  <CHROM.1>
-177.60118221,-69.31877769,-131.92370222,-87.35198581,176.09223322,-179.26858589
65.96071055,-164.91210496,-125.40660493,-178.91264568,63.68662083,23.61977763
1.93379424,58.32655120,1.13111833,0.15146968,-0.44536546

>  <Name>
1xpf_lig

>  <RI>
0

>  <Rbt.Current_Directory>
/home/afrankz/demos/rdock_decoys_rna/rnas/1xpf

>  <Rbt.Executable>
rbdock ($Id: //depot/dev/client3/rdock/2013.1/src/exe/rbdock.cxx#4 $)

>  <Rbt.Library>
libRbt.so (2013.1, Build901 2013/11/27)

>  <Rbt.Parameter_File>
/export/apps/rDock/src/rDock_2013.1_src/data/scripts/dock_solv.prm

>  <Rbt.Receptor>
prm/pocket_docking_8.prm

>  <SCORE>
-12.5152

>  <SCORE.INTER>
-4.78116

>  <SCORE.INTER.CONST>
1

>  <SCORE.INTER.POLAR>
-0.894427

>  <SCORE.INTER.ROT>
11

>  <SCORE.INTER.SOLV>
4.97818

>  <SCORE.INTER.VDW>
-12.7987

>  <SCORE.INTER.norm>
-0.341512

>  <SCORE.INTRA>
-7.73408

>  <SCORE.INTRA.DIHEDRAL>
-14.2307

>  <SCORE.INTRA.DIHEDRAL.0>
17.7811

>  <SCORE.INTRA.POLAR>
0

>  <SCORE.INTRA.POLAR.0>
0

>  <SCORE.INTRA.REPUL>
0

>  <SCORE.INTRA.REPUL.0>
0

>  <SCORE.INTRA.SOLV>
0.679485

>  <SCORE.INTRA.SOLV.lig_0>
-47.9565

>  <SCORE.INTRA.VDW>
-0.958489

>  <SCORE.INTRA.VDW.0>
0.515983

>  <SCORE.INTRA.norm>
-0.552434

>  <SCORE.RESTR>
0

>  <SCORE.RESTR.CAVITY>
0

>  <SCORE.RESTR.norm>
0

>  <SCORE.SYSTEM>
0

>  <SCORE.SYSTEM.CONST>
0

>  <SCORE.SYSTEM.DIHEDRAL>
0

>  <SCORE.SYSTEM.SOLV>
0

>  <SCORE.SYSTEM.norm>
0

>  <SCORE.heavy>
14

>  <SCORE.norm>
-0.893946

>  <RMSD>
7.120

$$$$
1xpf_lig
 OpenBabel02141814123D
libRbt.so/2013.1/901 2013/11/27
 14 13  0  0  0  0  0  0  0  0999 V2000
   22.5307    4.3865   58.4941 N   0  0  0  0  0  0  0  0  0  0  0  0
   22.7721    4.9696   59.8010 C   0  0  0  0  0  0  0  0  0  0  0  0
   23.8580    5.9761   59.7417 C   0  0  0  0  0  0  0  0  0  0  0  0
   24.1434    6.3815   61.1543 C   0  0  0  0  0  0  0  0  0  0  0  0
   23.0313    7.2712   61.5694 N   0  0  0  0  0  0  0  0  0  0  0  0
   23.2759    7.8132   62.9411 C   0  0  0  0  0  0  0  0  0  0  0  0
   22.3274    7.2329   64.0043 C   0  0  0  0  0  0  0  0  0  0  0  0
   20.8349    7.4186   63.6780 C   0  0  0  0  0  0  0  0  0  0  0  0
   20.0011    6.8613   64.8219 C   0  0  0  0  0  0  0  0  0  0  0  0
   20.3448    5.4329   64.8759 N   0  0  0  0  0  0  0  0  0  0  0  0
   19.2386    4.4426   64.7526 C   0  0  0  0  0  0  0  0  0  0  0  0
   20.0518    3.1499   64.5249 C   0  0  0  0  0  0  0  0  0  0  0  0
   19.3107    1.8532   64.3195 C   0  0  0  0  0  0  0  0  0  0  0  0
   18.4295    1.8310   63.1649 N   0  0  0  0  0  0  0  0  0  0  0  0
  1  2  1  0  0  0  0
  2  3  1  0  0  0  0
  3  4  1  0  0  0  0
  4  5  1  0  0  0  0
  5  6  1  0  0  0  0
  6  7  1  0  0  0  0
  7  8  1  0  0  0  0
  8  9  1  0  0  0  0
  9 10  1  0  0  0  0
 10 11  1  0  0  0  0
 11 12  1  0  0  0  0
 12 13  1  0  0  0  0
 13 14  1  0  0  0  0
M  END
>  <CHROM.1>
-172.91517371,-75.22707224,-175.86124611,-109.72266500,-55.89865523,-177.62969595
-61.52588431,-123.27218126,167.29464926,-179.01582321,60.53627073,21.43943142
5.35886437,62.70339207,0.09398357,-0.86258492,-2.38086317

>  <Name>
1xpf_lig

>  <RI>
0

>  <Rbt.Current_Directory>
/home/afrankz/demos/rdock_decoys_rna/rnas/1xpf

>  <Rbt.Executable>
rbdock ($Id: //depot/dev/client3/rdock/2013.1/src/exe/rbdock.cxx#4 $)

>  <Rbt.Library>
libRbt.so (2013.1, Build901 2013/11/27)

>  <Rbt.Parameter_File>
/export/apps/rDock/src/rDock_2013.1_src/data/scripts/dock_solv.prm

>  <Rbt.Receptor>
prm/pocket_docking_7.prm

>  <SCORE>
-11.7988

>  <SCORE.INTER>
-3.94165

>  <SCORE.INTER.CONST>
1

>  <SCORE.INTER.POLAR>
-1.85003

>  <SCORE.INTER.ROT>
11

>  <SCORE.INTER.SOLV>
9.84539

>  <SCORE.INTER.VDW>
-10.6761

>  <SCORE.INTER.norm>
-0.281546

>  <SCORE.INTRA>
-7.85711

>  <SCORE.INTRA.DIHEDRAL>
-14.2127

>  <SCORE.INTRA.DIHEDRAL.0>
17.7811

>  <SCORE.INTRA.POLAR>
0

>  <SCORE.INTRA.POLAR.0>
0

>  <SCORE.INTRA.REPUL>
0

>  <SCORE.INTRA.REPUL.0>
0

>  <SCORE.INTRA.SOLV>
0.996265

>  <SCORE.INTRA.SOLV.lig_0>
-47.9565

>  <SCORE.INTRA.VDW>
-1.24888

>  <SCORE.INTRA.VDW.0>
0.515983

>  <SCORE.INTRA.norm>
-0.561222

>  <SCORE.RESTR>
0

>  <SCORE.RESTR.CAVITY>
0

>  <SCORE.RESTR.norm>
0

>  <SCORE.SYSTEM>
0

>  <SCORE.SYSTEM.CONST>
0

>  <SCORE.SYSTEM.DIHEDRAL>
0

>  <SCORE.SYSTEM.SOLV>
0

>  <SCORE.SYSTEM.norm>
0

>  <SCORE.heavy>
14

>  <SCORE.norm>
-0.842768

>  <RMSD>
7.142

$$$$
1xpf_lig
 OpenBabel02141814123D
libRbt.so/2013.1/901 2013/11/27
 14 13  0  0  0  0  0  0  0  0999 V2000
   18.3506   -0.9838   67.6460 N   0  0  0  0  0  0  0  0  0  0  0  0
   16.9206   -0.9276   67.4052 C   0  0  0  0  0  0  0  0  0  0  0  0
   16.5033   -1.9690   66.4371 C   0  0  0  0  0  0  0  0  0  0  0  0
   16.5952   -3.2805   67.1532 C   0  0  0  0  0  0  0  0  0  0  0  0
   16.1499   -4.3176   66.1905 N   0  0  0  0  0  0  0  0  0  0  0  0
   16.5130   -5.6818   66.6825 C   0  0  0  0  0  0  0  0  0  0  0  0
   16.2504   -6.7923   65.6505 C   0  0  0  0  0  0  0  0  0  0  0  0
   14.7613   -7.0017   65.3235 C   0  0  0  0  0  0  0  0  0  0  0  0
   14.2767   -5.8554   64.4487 C   0  0  0  0  0  0  0  0  0  0  0  0
   14.9366   -6.0675   63.1522 N   0  0  0  0  0  0  0  0  0  0  0  0
   15.3886   -4.8678   62.3932 C   0  0  0  0  0  0  0  0  0  0  0  0
   15.3721   -5.4306   60.9555 C   0  0  0  0  0  0  0  0  0  0  0  0
   15.7302   -4.5139   59.8134 C   0  0  0  0  0  0  0  0  0  0  0  0
   15.5730   -5.0964   58.4919 N   0  0  0  0  0  0  0  0  0  0  0  0
  1  2  1  0  0  0  0
  2  3  1  0  0  0  0
  3  4  1  0  0  0  0
  4  5  1  0  0  0  0
  5  6  1  0  0  0  0
  6  7  1  0  0  0  0
  7  8  1  0  0  0  0
  8  9  1  0  0  0  0
  9 10  1  0  0  0  0
 10 11  1  0  0  0  0
 11 12  1  0  0  0  0
 12 13  1  0  0  0  0
 13 14  1  0  0  0  0
M  END
>  <CHROM.1>
72.01086096,178.84841329,166.25319729,-172.32386969,-65.96547044,74.07264779
70.09308706,-143.15486936,-154.69485570,177.99559608,-174.80039301,15.95140128
-4.48486185,64.41045699,-0.88086943,-1.20409620,-1.33660119

>  <Name>
1xpf_lig

>  <RI>
0

>  <Rbt.Current_Directory>
/home/afrankz/demos/rdock_decoys_rna/rnas/1xpf

>  <Rbt.Executable>
rbdock ($Id: //depot/dev/client3/rdock/2013.1/src/exe/rbdock.cxx#4 $)

>  <Rbt.Library>
libRbt.so (2013.1, Build901 2013/11/27)

>  <Rbt.Parameter_File>
/export/apps/rDock/src/rDock_2013.1_src/data/scripts/dock_solv.prm

>  <Rbt.Receptor>
prm/blind_docking_80.prm

>  <SCORE>
-9.26105

>  <SCORE.INTER>
-1.72644

>  <SCORE.INTER.CONST>
1

>  <SCORE.INTER.POLAR>
-1.66734

>  <SCORE.INTER.ROT>
11

>  <SCORE.INTER.SOLV>
12.7088

>  <SCORE.INTER.VDW>
-10.7627

>  <SCORE.INTER.norm>
-0.123317

>  <SCORE.INTRA>
-7.54734

>  <SCORE.INTRA.DIHEDRAL>
-14.3662

>  <SCORE.INTRA.DIHEDRAL.0>
17.7811

>  <SCORE.INTRA.POLAR>
0

>  <SCORE.INTRA.POLAR.0>
0

>  <SCORE.INTRA.REPUL>
0

>  <SCORE.INTRA.REPUL.0>
0

>  <SCORE.INTRA.SOLV>
1.94464

>  <SCORE.INTRA.SOLV.lig_0>
-47.9565

>  <SCORE.INTRA.VDW>
-1.33655

>  <SCORE.INTRA.VDW.0>
0.515983

>  <SCORE.INTRA.norm>
-0.539096

>  <SCORE.RESTR>
0.0127256

>  <SCORE.RESTR.CAVITY>
0.0127256

>  <SCORE.RESTR.norm>
0.000908974

>  <SCORE.SYSTEM>
0

>  <SCORE.SYSTEM.CONST>
0

>  <SCORE.SYSTEM.DIHEDRAL>
0

>  <SCORE.SYSTEM.SOLV>
0

>  <SCORE.SYSTEM.norm>
0

>  <SCORE.heavy>
14

>  <SCORE.norm>
-0.661504

>  <RMSD>
7.185

$$$$
1xpf_lig
 OpenBabel02141814123D
libRbt.so/2013.1/901 2013/11/27
 14 13  0  0  0  0  0  0  0  0999 V2000
   20.8522    6.6667   64.7896 N   0  0  0  0  0  0  0  0  0  0  0  0
   20.7235    7.3761   63.5301 C   0  0  0  0  0  0  0  0  0  0  0  0
   21.6929    8.4938   63.4481 C   0  0  0  0  0  0  0  0  0  0  0  0
   23.0418    7.8765   63.2464 C   0  0  0  0  0  0  0  0  0  0  0  0
   23.0693    7.3721   61.8516 N   0  0  0  0  0  0  0  0  0  0  0  0
   24.3825    6.7229   61.5535 C   0  0  0  0  0  0  0  0  0  0  0  0
   24.2739    5.5566   60.5560 C   0  0  0  0  0  0  0  0  0  0  0  0
   23.9010    5.9894   59.1270 C   0  0  0  0  0  0  0  0  0  0  0  0
   23.7602    4.7530   58.2520 C   0  0  0  0  0  0  0  0  0  0  0  0
   22.4964    4.1338   58.6775 N   0  0  0  0  0  0  0  0  0  0  0  0
   22.5675    2.8838   59.4850 C   0  0  0  0  0  0  0  0  0  0  0  0
   21.0842    2.7319   59.8863 C   0  0  0  0  0  0  0  0  0  0  0  0
   20.6618    1.5036   60.6518 C   0  0  0  0  0  0  0  0  0  0  0  0
   21.2323    1.3888   61.9828 N   0  0  0  0  0  0  0  0  0  0  0  0
  1  2  1  0  0  0  0
  2  3  1  0  0  0  0
  3  4  1  0  0  0  0
  4  5  1  0  0  0  0
  5  6  1  0  0  0  0
  6  7  1  0  0  0  0
  7  8  1  0  0  0  0
  8  9  1  0  0  0  0
  9 10  1  0  0  0  0
 10 11  1  0  0  0  0
 11 12  1  0  0  0  0
 12 13  1  0  0  0  0
 13 14  1  0  0  0  0
M  END
>  <CHROM.1>
72.62639648,72.69027590,-179.56237196,147.72739378,68.26357966,-177.38828462
73.28931710,-106.74165388,171.30047344,175.42330721,65.23989509,22.41015173
5.24650423,61.21673337,1.55070771,0.83743708,0.65032017

>  <Name>
1xpf_lig

>  <RI>
0

>  <Rbt.Current_Directory>
/home/afrankz/demos/rdock_decoys_rna/rnas/1xpf

>  <Rbt.Executable>
rbdock ($Id: //depot/dev/client3/rdock/2013.1/src/exe/rbdock.cxx#4 $)

>  <Rbt.Library>
libRbt.so (2013.1, Build901 2013/11/27)

>  <Rbt.Parameter_File>
/export/apps/rDock/src/rDock_2013.1_src/data/scripts/dock_solv.prm

>  <Rbt.Receptor>
prm/pocket_docking_7.prm

>  <SCORE>
-13.3973

>  <SCORE.INTER>
-6.22587

>  <SCORE.INTER.CONST>
1

>  <SCORE.INTER.POLAR>
-1.89631

>  <SCORE.INTER.ROT>
11

>  <SCORE.INTER.SOLV>
7.38746

>  <SCORE.INTER.VDW>
-11.2254

>  <SCORE.INTER.norm>
-0.444705

>  <SCORE.INTRA>
-7.17144

>  <SCORE.INTRA.DIHEDRAL>
-13.712

>  <SCORE.INTRA.DIHEDRAL.0>
17.7811

>  <SCORE.INTRA.POLAR>
0

>  <SCORE.INTRA.POLAR.0>
0

>  <SCORE.INTRA.REPUL>
0

>  <SCORE.INTRA.REPUL.0>
0

>  <SCORE.INTRA.SOLV>
1.98493

>  <SCORE.INTRA.SOLV.lig_0>
-47.9565

>  <SCORE.INTRA.VDW>
-1.3079

>  <SCORE.INTRA.VDW.0>
0.515983

>  <SCORE.INTRA.norm>
-0.512246

>  <SCORE.RESTR>
0

>  <SCORE.RESTR.CAVITY>
0

>  <SCORE.RESTR.norm>
0

>  <SCORE.SYSTEM>
0

>  <SCORE.SYSTEM.CONST>
0

>  <SCORE.SYSTEM.DIHEDRAL>
0

>  <SCORE.SYSTEM.SOLV>
0

>  <SCORE.SYSTEM.norm>
0

>  <SCORE.heavy>
14

>  <SCORE.norm>
-0.956951

>  <RMSD>
7.229

$$$$
1xpf_lig
 OpenBabel02141814123D
libRbt.so/2013.1/901 2013/11/27
 14 13  0  0  0  0  0  0  0  0999 V2000
   19.7323    1.1848   66.6958 N   0  0  0  0  0  0  0  0  0  0  0  0
   18.6336    0.4888   67.3395 C   0  0  0  0  0  0  0  0  0  0  0  0
   18.1454   -0.6282   66.4969 C   0  0  0  0  0  0  0  0  0  0  0  0
   16.9006   -1.1441   67.1494 C   0  0  0  0  0  0  0  0  0  0  0  0
   17.3272   -1.8006   68.4094 N   0  0  0  0  0  0  0  0  0  0  0  0
   16.1378   -2.2290   69.2075 C   0  0  0  0  0  0  0  0  0  0  0  0
   16.1289   -3.7334   69.5291 C   0  0  0  0  0  0  0  0  0  0  0  0
   16.3083   -4.6369   68.2963 C   0  0  0  0  0  0  0  0  0  0  0  0
   16.0675   -6.0840   68.6991 C   0  0  0  0  0  0  0  0  0  0  0  0
   14.6437   -6.1410   69.0612 N   0  0  0  0  0  0  0  0  0  0  0  0
   13.8804   -7.3696   68.7046 C   0  0  0  0  0  0  0  0  0  0  0  0
   12.7533   -6.7532   67.8479 C   0  0  0  0  0  0  0  0  0  0  0  0
   13.1142   -6.0881   66.5439 C   0  0  0  0  0  0  0  0  0  0  0  0
   11.9968   -5.4877   65.8361 N   0  0  0  0  0  0  0  0  0  0  0  0
  1  2  1  0  0  0  0
  2  3  1  0  0  0  0
  3  4  1  0  0  0  0
  4  5  1  0  0  0  0
  5  6  1  0  0  0  0
  6  7  1  0  0  0  0
  7  8  1  0  0  0  0
  8  9  1  0  0  0  0
  9 10  1  0  0  0  0
 10 11  1  0  0  0  0
 11 12  1  0  0  0  0
 12 13  1  0  0  0  0
 13 14  1  0  0  0  0
M  END
>  <CHROM.1>
-171.88952798,-69.27265355,174.21836566,123.09870953,-52.30318657,-171.26455523
66.02156186,143.05780756,-122.85036085,64.97481490,-177.47336029,15.84067887
-3.60179790,67.84419012,0.65161060,-0.69500645,-0.77954802

>  <Name>
1xpf_lig

>  <RI>
0

>  <Rbt.Current_Directory>
/home/afrankz/demos/rdock_decoys_rna/rnas/1xpf

>  <Rbt.Executable>
rbdock ($Id: //depot/dev/client3/rdock/2013.1/src/exe/rbdock.cxx#4 $)

>  <Rbt.Library>
libRbt.so (2013.1, Build901 2013/11/27)

>  <Rbt.Parameter_File>
/export/apps/rDock/src/rDock_2013.1_src/data/scripts/dock_solv.prm

>  <Rbt.Receptor>
prm/pocket_docking_7.prm

>  <SCORE>
-13.3391

>  <SCORE.INTER>
-5.94419

>  <SCORE.INTER.CONST>
1

>  <SCORE.INTER.POLAR>
-1.03675

>  <SCORE.INTER.ROT>
11

>  <SCORE.INTER.SOLV>
17.6955

>  <SCORE.INTER.VDW>
-17.3388

>  <SCORE.INTER.norm>
-0.424585

>  <SCORE.INTRA>
-7.39487

>  <SCORE.INTRA.DIHEDRAL>
-13.202

>  <SCORE.INTRA.DIHEDRAL.0>
17.7811

>  <SCORE.INTRA.POLAR>
0

>  <SCORE.INTRA.POLAR.0>
0

>  <SCORE.INTRA.REPUL>
0

>  <SCORE.INTRA.REPUL.0>
0

>  <SCORE.INTRA.SOLV>
0.938441

>  <SCORE.INTRA.SOLV.lig_0>
-47.9565

>  <SCORE.INTRA.VDW>
-1.2631

>  <SCORE.INTRA.VDW.0>
0.515983

>  <SCORE.INTRA.norm>
-0.528205

>  <SCORE.RESTR>
0

>  <SCORE.RESTR.CAVITY>
0

>  <SCORE.RESTR.norm>
0

>  <SCORE.SYSTEM>
0

>  <SCORE.SYSTEM.CONST>
0

>  <SCORE.SYSTEM.DIHEDRAL>
0

>  <SCORE.SYSTEM.SOLV>
0

>  <SCORE.SYSTEM.norm>
0

>  <SCORE.heavy>
14

>  <SCORE.norm>
-0.95279

>  <RMSD>
7.239

$$$$
1xpf_lig
 OpenBabel02141814123D
libRbt.so/2013.1/901 2013/11/27
 14 13  0  0  0  0  0  0  0  0999 V2000
   20.1998    5.1183   67.1657 N   0  0  0  0  0  0  0  0  0  0  0  0
   20.0886    3.9670   66.2892 C   0  0  0  0  0  0  0  0  0  0  0  0
   19.5672    4.3600   64.9590 C   0  0  0  0  0  0  0  0  0  0  0  0
   19.5426    3.1172   64.1246 C   0  0  0  0  0  0  0  0  0  0  0  0
   19.0417    3.5182   62.7871 N   0  0  0  0  0  0  0  0  0  0  0  0
   19.0679    2.3567   61.8463 C   0  0  0  0  0  0  0  0  0  0  0  0
   20.4323    2.1543   61.1650 C   0  0  0  0  0  0  0  0  0  0  0  0
   20.8371    3.3027   60.2239 C   0  0  0  0  0  0  0  0  0  0  0  0
   22.2269    3.0274   59.6699 C   0  0  0  0  0  0  0  0  0  0  0  0
   22.4551    4.0921   58.6821 N   0  0  0  0  0  0  0  0  0  0  0  0
   23.8617    4.4038   58.3027 C   0  0  0  0  0  0  0  0  0  0  0  0
   23.9077    3.7855   56.8886 C   0  0  0  0  0  0  0  0  0  0  0  0
   25.1414    3.9911   56.0467 C   0  0  0  0  0  0  0  0  0  0  0  0
   26.3706    3.4854   56.6328 N   0  0  0  0  0  0  0  0  0  0  0  0
  1  2  1  0  0  0  0
  2  3  1  0  0  0  0
  3  4  1  0  0  0  0
  4  5  1  0  0  0  0
  5  6  1  0  0  0  0
  6  7  1  0  0  0  0
  7  8  1  0  0  0  0
  8  9  1  0  0  0  0
  9 10  1  0  0  0  0
 10 11  1  0  0  0  0
 11 12  1  0  0  0  0
 12 13  1  0  0  0  0
 13 14  1  0  0  0  0
M  END
>  <CHROM.1>
177.87443285,-179.07933190,176.15066660,-84.99131192,-65.24780698,177.02935995
174.00152202,159.08610461,106.48865319,173.92975522,59.25086568,21.62416062
3.61980259,61.05586753,-2.18790118,-0.44973150,-1.88661222

>  <Name>
1xpf_lig

>  <RI>
0

>  <Rbt.Current_Directory>
/home/afrankz/demos/rdock_decoys_rna/rnas/1xpf

>  <Rbt.Executable>
rbdock ($Id: //depot/dev/client3/rdock/2013.1/src/exe/rbdock.cxx#4 $)

>  <Rbt.Library>
libRbt.so (2013.1, Build901 2013/11/27)

>  <Rbt.Parameter_File>
/export/apps/rDock/src/rDock_2013.1_src/data/scripts/dock_solv.prm

>  <Rbt.Receptor>
prm/pocket_docking_8.prm

>  <SCORE>
-11.7834

>  <SCORE.INTER>
-2.44876

>  <SCORE.INTER.CONST>
1

>  <SCORE.INTER.POLAR>
-0.97862

>  <SCORE.INTER.ROT>
11

>  <SCORE.INTER.SOLV>
9.10116

>  <SCORE.INTER.VDW>
-12.3375

>  <SCORE.INTER.norm>
-0.174912

>  <SCORE.INTRA>
-9.3346

>  <SCORE.INTRA.DIHEDRAL>
-15.5071

>  <SCORE.INTRA.DIHEDRAL.0>
17.7811

>  <SCORE.INTRA.POLAR>
0

>  <SCORE.INTRA.POLAR.0>
0

>  <SCORE.INTRA.REPUL>
0

>  <SCORE.INTRA.REPUL.0>
0

>  <SCORE.INTRA.SOLV>
0.0182485

>  <SCORE.INTRA.SOLV.lig_0>
-47.9565

>  <SCORE.INTRA.VDW>
-1.59016

>  <SCORE.INTRA.VDW.0>
0.515983

>  <SCORE.INTRA.norm>
-0.666757

>  <SCORE.RESTR>
0

>  <SCORE.RESTR.CAVITY>
0

>  <SCORE.RESTR.norm>
0

>  <SCORE.SYSTEM>
0

>  <SCORE.SYSTEM.CONST>
0

>  <SCORE.SYSTEM.DIHEDRAL>
0

>  <SCORE.SYSTEM.SOLV>
0

>  <SCORE.SYSTEM.norm>
0

>  <SCORE.heavy>
14

>  <SCORE.norm>
-0.841669

>  <RMSD>
7.306

$$$$
1xpf_lig
 OpenBabel02141814123D
libRbt.so/2013.1/901 2013/11/27
 14 13  0  0  0  0  0  0  0  0999 V2000
   19.3412    0.9448   65.7184 N   0  0  0  0  0  0  0  0  0  0  0  0
   20.0141    2.1453   66.1789 C   0  0  0  0  0  0  0  0  0  0  0  0
   20.4300    2.9929   65.0367 C   0  0  0  0  0  0  0  0  0  0  0  0
   21.1218    4.1862   65.6188 C   0  0  0  0  0  0  0  0  0  0  0  0
   21.4616    5.0729   64.4792 N   0  0  0  0  0  0  0  0  0  0  0  0
   20.3342    6.0109   64.1889 C   0  0  0  0  0  0  0  0  0  0  0  0
   20.7079    7.1249   63.1958 C   0  0  0  0  0  0  0  0  0  0  0  0
   21.7816    8.0948   63.7201 C   0  0  0  0  0  0  0  0  0  0  0  0
   23.1590    7.5136   63.4386 C   0  0  0  0  0  0  0  0  0  0  0  0
   23.4109    7.8143   62.0217 N   0  0  0  0  0  0  0  0  0  0  0  0
   23.9419    6.7219   61.1590 C   0  0  0  0  0  0  0  0  0  0  0  0
   24.4556    7.5458   59.9583 C   0  0  0  0  0  0  0  0  0  0  0  0
   24.9098    6.8168   58.7193 C   0  0  0  0  0  0  0  0  0  0  0  0
   23.8652    6.0825   58.0267 N   0  0  0  0  0  0  0  0  0  0  0  0
  1  2  1  0  0  0  0
  2  3  1  0  0  0  0
  3  4  1  0  0  0  0
  4  5  1  0  0  0  0
  5  6  1  0  0  0  0
  6  7  1  0  0  0  0
  7  8  1  0  0  0  0
  8  9  1  0  0  0  0
  9 10  1  0  0  0  0
 10 11  1  0  0  0  0
 11 12  1  0  0  0  0
 12 13  1  0  0  0  0
 13 14  1  0  0  0  0
M  END
>  <CHROM.1>
-179.37265275,-176.54966108,88.49850041,169.48788130,-64.75790499,85.32632786
79.68478837,-133.72438987,-163.25563903,-171.15030302,64.69552716,22.06678205
5.64795752,62.96160615,-2.86843082,1.03901746,0.33541657

>  <Name>
1xpf_lig

>  <RI>
0

>  <Rbt.Current_Directory>
/home/afrankz/demos/rdock_decoys_rna/rnas/1xpf

>  <Rbt.Executable>
rbdock ($Id: //depot/dev/client3/rdock/2013.1/src/exe/rbdock.cxx#4 $)

>  <Rbt.Library>
libRbt.so (2013.1, Build901 2013/11/27)

>  <Rbt.Parameter_File>
/export/apps/rDock/src/rDock_2013.1_src/data/scripts/dock_solv.prm

>  <Rbt.Receptor>
prm/pocket_docking_6.prm

>  <SCORE>
-13.4805

>  <SCORE.INTER>
-6.75807

>  <SCORE.INTER.CONST>
1

>  <SCORE.INTER.POLAR>
-1.81094

>  <SCORE.INTER.ROT>
11

>  <SCORE.INTER.SOLV>
9.21769

>  <SCORE.INTER.VDW>
-12.4748

>  <SCORE.INTER.norm>
-0.482719

>  <SCORE.INTRA>
-6.72244

>  <SCORE.INTRA.DIHEDRAL>
-11.7067

>  <SCORE.INTRA.DIHEDRAL.0>
17.7811

>  <SCORE.INTRA.POLAR>
0

>  <SCORE.INTRA.POLAR.0>
0

>  <SCORE.INTRA.REPUL>
0

>  <SCORE.INTRA.REPUL.0>
0

>  <SCORE.INTRA.SOLV>
1.15214

>  <SCORE.INTRA.SOLV.lig_0>
-47.9565

>  <SCORE.INTRA.VDW>
-1.44514

>  <SCORE.INTRA.VDW.0>
0.515983

>  <SCORE.INTRA.norm>
-0.480174

>  <SCORE.RESTR>
0

>  <SCORE.RESTR.CAVITY>
0

>  <SCORE.RESTR.norm>
0

>  <SCORE.SYSTEM>
0

>  <SCORE.SYSTEM.CONST>
0

>  <SCORE.SYSTEM.DIHEDRAL>
0

>  <SCORE.SYSTEM.SOLV>
0

>  <SCORE.SYSTEM.norm>
0

>  <SCORE.heavy>
14

>  <SCORE.norm>
-0.962893

>  <RMSD>
7.339

$$$$
1xpf_lig
 OpenBabel02141814123D
libRbt.so/2013.1/901 2013/11/27
 14 13  0  0  0  0  0  0  0  0999 V2000
   16.2159   -8.1690   64.4008 N   0  0  0  0  0  0  0  0  0  0  0  0
   16.3280   -6.7548   64.7068 C   0  0  0  0  0  0  0  0  0  0  0  0
   16.5416   -6.5400   66.1573 C   0  0  0  0  0  0  0  0  0  0  0  0
   16.4861   -5.0612   66.3837 C   0  0  0  0  0  0  0  0  0  0  0  0
   16.6419   -4.8530   67.8443 N   0  0  0  0  0  0  0  0  0  0  0  0
   16.5068   -3.4039   68.1858 C   0  0  0  0  0  0  0  0  0  0  0  0
   16.5411   -3.1281   69.6990 C   0  0  0  0  0  0  0  0  0  0  0  0
   16.4388   -1.6367   70.0647 C   0  0  0  0  0  0  0  0  0  0  0  0
   16.7173   -1.4672   71.5506 C   0  0  0  0  0  0  0  0  0  0  0  0
   16.9132   -0.0217   71.7334 N   0  0  0  0  0  0  0  0  0  0  0  0
   17.8042    0.4287   72.8392 C   0  0  0  0  0  0  0  0  0  0  0  0
   19.1525    0.5064   72.0906 C   0  0  0  0  0  0  0  0  0  0  0  0
   19.2956    1.4860   70.9536 C   0  0  0  0  0  0  0  0  0  0  0  0
   18.6488    1.0832   69.7168 N   0  0  0  0  0  0  0  0  0  0  0  0
  1  2  1  0  0  0  0
  2  3  1  0  0  0  0
  3  4  1  0  0  0  0
  4  5  1  0  0  0  0
  5  6  1  0  0  0  0
  6  7  1  0  0  0  0
  7  8  1  0  0  0  0
  8  9  1  0  0  0  0
  9 10  1  0  0  0  0
 10 11  1  0  0  0  0
 11 12  1  0  0  0  0
 12 13  1  0  0  0  0
 13 14  1  0  0  0  0
M  END
>  <CHROM.1>
-173.68345411,177.62546508,-176.16195125,175.21089405,178.53706336,-170.54495258
166.94996405,-151.22141585,91.46416786,62.97114803,-76.04423833,17.15942592
-2.68068535,69.02356533,-1.86310942,0.85231826,0.92713157

>  <Name>
1xpf_lig

>  <RI>
0

>  <Rbt.Current_Directory>
/home/afrankz/demos/rdock_decoys_rna/rnas/1xpf

>  <Rbt.Executable>
rbdock ($Id: //depot/dev/client3/rdock/2013.1/src/exe/rbdock.cxx#4 $)

>  <Rbt.Library>
libRbt.so (2013.1, Build901 2013/11/27)

>  <Rbt.Parameter_File>
/export/apps/rDock/src/rDock_2013.1_src/data/scripts/dock_solv.prm

>  <Rbt.Receptor>
prm/blind_docking_80.prm

>  <SCORE>
-9.52489

>  <SCORE.INTER>
-2.05604

>  <SCORE.INTER.CONST>
1

>  <SCORE.INTER.POLAR>
-0.717993

>  <SCORE.INTER.ROT>
11

>  <SCORE.INTER.SOLV>
14.017

>  <SCORE.INTER.VDW>
-14.583

>  <SCORE.INTER.norm>
-0.14686

>  <SCORE.INTRA>
-7.46885

>  <SCORE.INTRA.DIHEDRAL>
-14.4253

>  <SCORE.INTRA.DIHEDRAL.0>
17.7811

>  <SCORE.INTRA.POLAR>
0

>  <SCORE.INTRA.POLAR.0>
0

>  <SCORE.INTRA.REPUL>
0

>  <SCORE.INTRA.REPUL.0>
0

>  <SCORE.INTRA.SOLV>
2.92798

>  <SCORE.INTRA.SOLV.lig_0>
-47.9565

>  <SCORE.INTRA.VDW>
-1.72017

>  <SCORE.INTRA.VDW.0>
0.515983

>  <SCORE.INTRA.norm>
-0.533489

>  <SCORE.RESTR>
0

>  <SCORE.RESTR.CAVITY>
0

>  <SCORE.RESTR.norm>
0

>  <SCORE.SYSTEM>
0

>  <SCORE.SYSTEM.CONST>
0

>  <SCORE.SYSTEM.DIHEDRAL>
0

>  <SCORE.SYSTEM.SOLV>
0

>  <SCORE.SYSTEM.norm>
0

>  <SCORE.heavy>
14

>  <SCORE.norm>
-0.680349

>  <RMSD>
7.364

$$$$
1xpf_lig
 OpenBabel02141814123D
libRbt.so/2013.1/901 2013/11/27
 14 13  0  0  0  0  0  0  0  0999 V2000
   16.9565  -10.8003   67.4110 N   0  0  0  0  0  0  0  0  0  0  0  0
   17.1393  -11.5833   66.2029 C   0  0  0  0  0  0  0  0  0  0  0  0
   17.1173  -10.7179   65.0002 C   0  0  0  0  0  0  0  0  0  0  0  0
   15.6959  -10.2891   64.8074 C   0  0  0  0  0  0  0  0  0  0  0  0
   15.6898   -9.3608   63.6504 N   0  0  0  0  0  0  0  0  0  0  0  0
   15.1284   -8.0327   64.0454 C   0  0  0  0  0  0  0  0  0  0  0  0
   16.1887   -6.9205   64.1211 C   0  0  0  0  0  0  0  0  0  0  0  0
   15.6510   -5.5799   64.6524 C   0  0  0  0  0  0  0  0  0  0  0  0
   16.7736   -4.5534   64.6434 C   0  0  0  0  0  0  0  0  0  0  0  0
   16.1769   -3.3393   65.2188 N   0  0  0  0  0  0  0  0  0  0  0  0
   16.9327   -2.0616   65.0927 C   0  0  0  0  0  0  0  0  0  0  0  0
   16.9941   -1.6320   66.5746 C   0  0  0  0  0  0  0  0  0  0  0  0
   17.6770   -0.3346   66.9261 C   0  0  0  0  0  0  0  0  0  0  0  0
   17.9128   -0.1350   68.3455 N   0  0  0  0  0  0  0  0  0  0  0  0
  1  2  1  0  0  0  0
  2  3  1  0  0  0  0
  3  4  1  0  0  0  0
  4  5  1  0  0  0  0
  5  6  1  0  0  0  0
  6  7  1  0  0  0  0
  7  8  1  0  0  0  0
  8  9  1  0  0  0  0
  9 10  1  0  0  0  0
 10 11  1  0  0  0  0
 11 12  1  0  0  0  0
 12 13  1  0  0  0  0
 13 14  1  0  0  0  0
M  END
>  <CHROM.1>
-72.46249670,176.80304384,-122.11382950,108.43534543,-174.60596632,-178.36003385
-177.57705170,-167.55755887,-125.60395887,-179.10729502,-168.79019114,16.57382306
-6.09581981,65.47771138,-1.77635464,-1.10222608,-0.03993391

>  <Name>
1xpf_lig

>  <RI>
0

>  <Rbt.Current_Directory>
/home/afrankz/demos/rdock_decoys_rna/rnas/1xpf

>  <Rbt.Executable>
rbdock ($Id: //depot/dev/client3/rdock/2013.1/src/exe/rbdock.cxx#4 $)

>  <Rbt.Library>
libRbt.so (2013.1, Build901 2013/11/27)

>  <Rbt.Parameter_File>
/export/apps/rDock/src/rDock_2013.1_src/data/scripts/dock_solv.prm

>  <Rbt.Receptor>
prm/pocket_docking_7.prm

>  <SCORE>
-13.0613

>  <SCORE.INTER>
-4.83755

>  <SCORE.INTER.CONST>
1

>  <SCORE.INTER.POLAR>
-1.51787

>  <SCORE.INTER.ROT>
11

>  <SCORE.INTER.SOLV>
11.6008

>  <SCORE.INTER.VDW>
-12.9657

>  <SCORE.INTER.norm>
-0.34554

>  <SCORE.INTRA>
-8.22374

>  <SCORE.INTRA.DIHEDRAL>
-12.9808

>  <SCORE.INTRA.DIHEDRAL.0>
17.7811

>  <SCORE.INTRA.POLAR>
0

>  <SCORE.INTRA.POLAR.0>
0

>  <SCORE.INTRA.REPUL>
0

>  <SCORE.INTRA.REPUL.0>
0

>  <SCORE.INTRA.SOLV>
-0.159208

>  <SCORE.INTRA.SOLV.lig_0>
-47.9565

>  <SCORE.INTRA.VDW>
-1.65373

>  <SCORE.INTRA.VDW.0>
0.515983

>  <SCORE.INTRA.norm>
-0.58741

>  <SCORE.RESTR>
0

>  <SCORE.RESTR.CAVITY>
0

>  <SCORE.RESTR.norm>
0

>  <SCORE.SYSTEM>
0

>  <SCORE.SYSTEM.CONST>
0

>  <SCORE.SYSTEM.DIHEDRAL>
0

>  <SCORE.SYSTEM.SOLV>
0

>  <SCORE.SYSTEM.norm>
0

>  <SCORE.heavy>
14

>  <SCORE.norm>
-0.93295

>  <RMSD>
7.378

$$$$
1xpf_lig
 OpenBabel02141814123D
libRbt.so/2013.1/901 2013/11/27
 14 13  0  0  0  0  0  0  0  0999 V2000
   15.1892   -8.8007   62.2010 N   0  0  0  0  0  0  0  0  0  0  0  0
   15.7186   -7.5445   61.7034 C   0  0  0  0  0  0  0  0  0  0  0  0
   15.3128   -6.4151   62.5726 C   0  0  0  0  0  0  0  0  0  0  0  0
   16.0584   -6.5771   63.8607 C   0  0  0  0  0  0  0  0  0  0  0  0
   15.8129   -5.3433   64.6469 N   0  0  0  0  0  0  0  0  0  0  0  0
   15.2169   -5.6774   65.9766 C   0  0  0  0  0  0  0  0  0  0  0  0
   16.1854   -5.4578   67.1517 C   0  0  0  0  0  0  0  0  0  0  0  0
   15.5325   -5.6128   68.5366 C   0  0  0  0  0  0  0  0  0  0  0  0
   16.5837   -5.3838   69.6121 C   0  0  0  0  0  0  0  0  0  0  0  0
   17.0501   -4.0067   69.3942 N   0  0  0  0  0  0  0  0  0  0  0  0
   16.4801   -2.9315   70.2536 C   0  0  0  0  0  0  0  0  0  0  0  0
   15.7430   -2.0909   69.1885 C   0  0  0  0  0  0  0  0  0  0  0  0
   16.5495   -1.4332   68.0976 C   0  0  0  0  0  0  0  0  0  0  0  0
   17.5425   -0.4808   68.5635 N   0  0  0  0  0  0  0  0  0  0  0  0
  1  2  1  0  0  0  0
  2  3  1  0  0  0  0
  3  4  1  0  0  0  0
  4  5  1  0  0  0  0
  5  6  1  0  0  0  0
  6  7  1  0  0  0  0
  7  8  1  0  0  0  0
  8  9  1  0  0  0  0
  9 10  1  0  0  0  0
 10 11  1  0  0  0  0
 11 12  1  0  0  0  0
 12 13  1  0  0  0  0
 13 14  1  0  0  0  0
M  END
>  <CHROM.1>
69.75370328,171.58635983,123.17159986,109.01588315,172.14753076,179.60738155
60.76704574,98.90940267,-115.73777381,-62.92658747,-60.43732595,16.06954681
-4.83976550,66.55436940,2.46094319,-1.39333503,-1.31974344

>  <Name>
1xpf_lig

>  <RI>
0

>  <Rbt.Current_Directory>
/home/afrankz/demos/rdock_decoys_rna/rnas/1xpf

>  <Rbt.Executable>
rbdock ($Id: //depot/dev/client3/rdock/2013.1/src/exe/rbdock.cxx#4 $)

>  <Rbt.Library>
libRbt.so (2013.1, Build901 2013/11/27)

>  <Rbt.Parameter_File>
/export/apps/rDock/src/rDock_2013.1_src/data/scripts/dock_solv.prm

>  <Rbt.Receptor>
prm/blind_docking_80.prm

>  <SCORE>
-11.4856

>  <SCORE.INTER>
-5.21076

>  <SCORE.INTER.CONST>
1

>  <SCORE.INTER.POLAR>
-1.85487

>  <SCORE.INTER.ROT>
11

>  <SCORE.INTER.SOLV>
14.5794

>  <SCORE.INTER.VDW>
-13.0841

>  <SCORE.INTER.norm>
-0.372197

>  <SCORE.INTRA>
-6.27487

>  <SCORE.INTRA.DIHEDRAL>
-12.5492

>  <SCORE.INTRA.DIHEDRAL.0>
17.7811

>  <SCORE.INTRA.POLAR>
0

>  <SCORE.INTRA.POLAR.0>
0

>  <SCORE.INTRA.REPUL>
0

>  <SCORE.INTRA.REPUL.0>
0

>  <SCORE.INTRA.SOLV>
1.99655

>  <SCORE.INTRA.SOLV.lig_0>
-47.9565

>  <SCORE.INTRA.VDW>
-0.998527

>  <SCORE.INTRA.VDW.0>
0.515983

>  <SCORE.INTRA.norm>
-0.448205

>  <SCORE.RESTR>
0

>  <SCORE.RESTR.CAVITY>
0

>  <SCORE.RESTR.norm>
0

>  <SCORE.SYSTEM>
0

>  <SCORE.SYSTEM.CONST>
0

>  <SCORE.SYSTEM.DIHEDRAL>
0

>  <SCORE.SYSTEM.SOLV>
0

>  <SCORE.SYSTEM.norm>
0

>  <SCORE.heavy>
14

>  <SCORE.norm>
-0.820402

>  <RMSD>
7.540

$$$$
1xpf_lig
 OpenBabel02141814123D
libRbt.so/2013.1/901 2013/11/27
 14 13  0  0  0  0  0  0  0  0999 V2000
   16.9049  -10.2427   65.1309 N   0  0  0  0  0  0  0  0  0  0  0  0
   16.2147   -9.2947   64.2758 C   0  0  0  0  0  0  0  0  0  0  0  0
   15.0511   -9.9275   63.6114 C   0  0  0  0  0  0  0  0  0  0  0  0
   14.3463   -8.8426   62.8581 C   0  0  0  0  0  0  0  0  0  0  0  0
   15.1858   -8.5392   61.6733 N   0  0  0  0  0  0  0  0  0  0  0  0
   14.7085   -7.2949   60.9959 C   0  0  0  0  0  0  0  0  0  0  0  0
   15.8388   -6.2996   60.6817 C   0  0  0  0  0  0  0  0  0  0  0  0
   15.3561   -4.9913   60.0307 C   0  0  0  0  0  0  0  0  0  0  0  0
   16.5538   -4.0878   59.7792 C   0  0  0  0  0  0  0  0  0  0  0  0
   15.9756   -2.8188   59.3136 N   0  0  0  0  0  0  0  0  0  0  0  0
   16.4694   -1.5568   59.9327 C   0  0  0  0  0  0  0  0  0  0  0  0
   15.5684   -0.5285   59.2151 C   0  0  0  0  0  0  0  0  0  0  0  0
   14.0794   -0.5832   59.4452 C   0  0  0  0  0  0  0  0  0  0  0  0
   13.6535   -0.1882   60.7766 N   0  0  0  0  0  0  0  0  0  0  0  0
  1  2  1  0  0  0  0
  2  3  1  0  0  0  0
  3  4  1  0  0  0  0
  4  5  1  0  0  0  0
  5  6  1  0  0  0  0
  6  7  1  0  0  0  0
  7  8  1  0  0  0  0
  8  9  1  0  0  0  0
  9 10  1  0  0  0  0
 10 11  1  0  0  0  0
 11 12  1  0  0  0  0
 12 13  1  0  0  0  0
 13 14  1  0  0  0  0
M  END
>  <CHROM.1>
175.06995151,73.91046629,-169.17752250,131.70784054,-177.87880324,179.53255636
-173.41084370,132.38155063,-177.41973124,63.85901254,69.72633901,15.42188718
-5.37110346,61.26553599,1.49418239,-0.72570280,2.64997748

>  <Name>
1xpf_lig

>  <RI>
0

>  <Rbt.Current_Directory>
/home/afrankz/demos/rdock_decoys_rna/rnas/1xpf

>  <Rbt.Executable>
rbdock ($Id: //depot/dev/client3/rdock/2013.1/src/exe/rbdock.cxx#4 $)

>  <Rbt.Library>
libRbt.so (2013.1, Build901 2013/11/27)

>  <Rbt.Parameter_File>
/export/apps/rDock/src/rDock_2013.1_src/data/scripts/dock_solv.prm

>  <Rbt.Receptor>
prm/pocket_docking_7.prm

>  <SCORE>
-12.1299

>  <SCORE.INTER>
-3.99838

>  <SCORE.INTER.CONST>
1

>  <SCORE.INTER.POLAR>
-1.41032

>  <SCORE.INTER.ROT>
11

>  <SCORE.INTER.SOLV>
9.18972

>  <SCORE.INTER.VDW>
-11.9611

>  <SCORE.INTER.norm>
-0.285599

>  <SCORE.INTRA>
-8.13151

>  <SCORE.INTRA.DIHEDRAL>
-14.1341

>  <SCORE.INTRA.DIHEDRAL.0>
17.7811

>  <SCORE.INTRA.POLAR>
0

>  <SCORE.INTRA.POLAR.0>
0

>  <SCORE.INTRA.REPUL>
0

>  <SCORE.INTRA.REPUL.0>
0

>  <SCORE.INTRA.SOLV>
1.01162

>  <SCORE.INTRA.SOLV.lig_0>
-47.9565

>  <SCORE.INTRA.VDW>
-1.57026

>  <SCORE.INTRA.VDW.0>
0.515983

>  <SCORE.INTRA.norm>
-0.580822

>  <SCORE.RESTR>
0

>  <SCORE.RESTR.CAVITY>
0

>  <SCORE.RESTR.norm>
0

>  <SCORE.SYSTEM>
0

>  <SCORE.SYSTEM.CONST>
0

>  <SCORE.SYSTEM.DIHEDRAL>
0

>  <SCORE.SYSTEM.SOLV>
0

>  <SCORE.SYSTEM.norm>
0

>  <SCORE.heavy>
14

>  <SCORE.norm>
-0.866421

>  <RMSD>
7.562

$$$$
1xpf_lig
 OpenBabel02141814123D
libRbt.so/2013.1/901 2013/11/27
 14 13  0  0  0  0  0  0  0  0999 V2000
   18.6290   -0.9773   67.4057 N   0  0  0  0  0  0  0  0  0  0  0  0
   19.2954    0.1620   66.8023 C   0  0  0  0  0  0  0  0  0  0  0  0
   18.9504    1.4165   67.5115 C   0  0  0  0  0  0  0  0  0  0  0  0
   19.5885    1.3333   68.8633 C   0  0  0  0  0  0  0  0  0  0  0  0
   18.8089    2.2291   69.7523 N   0  0  0  0  0  0  0  0  0  0  0  0
   19.3812    2.2265   71.1334 C   0  0  0  0  0  0  0  0  0  0  0  0
   19.2100    0.8824   71.8621 C   0  0  0  0  0  0  0  0  0  0  0  0
   17.7505    0.4029   71.9538 C   0  0  0  0  0  0  0  0  0  0  0  0
   17.7284   -1.0375   72.4424 C   0  0  0  0  0  0  0  0  0  0  0  0
   16.4229   -1.5597   72.0129 N   0  0  0  0  0  0  0  0  0  0  0  0
   16.2851   -2.0247   70.6043 C   0  0  0  0  0  0  0  0  0  0  0  0
   16.8015   -3.4734   70.7419 C   0  0  0  0  0  0  0  0  0  0  0  0
   17.0292   -4.2843   69.4915 C   0  0  0  0  0  0  0  0  0  0  0  0
   15.8256   -4.5986   68.7413 N   0  0  0  0  0  0  0  0  0  0  0  0
  1  2  1  0  0  0  0
  2  3  1  0  0  0  0
  3  4  1  0  0  0  0
  4  5  1  0  0  0  0
  5  6  1  0  0  0  0
  6  7  1  0  0  0  0
  7  8  1  0  0  0  0
  8  9  1  0  0  0  0
  9 10  1  0  0  0  0
 10 11  1  0  0  0  0
 11 12  1  0  0  0  0
 12 13  1  0  0  0  0
 13 14  1  0  0  0  0
M  END
>  <CHROM.1>
68.63933465,-155.97332119,-179.39831052,-67.81833181,-56.06135165,169.13915562
-158.81379498,81.46976107,85.17332920,-171.26271441,-66.12109896,17.97926505
-0.66425540,69.95153956,-0.23012444,-1.06774014,-1.96897591

>  <Name>
1xpf_lig

>  <RI>
0

>  <Rbt.Current_Directory>
/home/afrankz/demos/rdock_decoys_rna/rnas/1xpf

>  <Rbt.Executable>
rbdock ($Id: //depot/dev/client3/rdock/2013.1/src/exe/rbdock.cxx#4 $)

>  <Rbt.Library>
libRbt.so (2013.1, Build901 2013/11/27)

>  <Rbt.Parameter_File>
/export/apps/rDock/src/rDock_2013.1_src/data/scripts/dock_solv.prm

>  <Rbt.Receptor>
prm/blind_docking_80.prm

>  <SCORE>
-11.5618

>  <SCORE.INTER>
-5.98837

>  <SCORE.INTER.CONST>
1

>  <SCORE.INTER.POLAR>
-1.20259

>  <SCORE.INTER.ROT>
11

>  <SCORE.INTER.SOLV>
15.163

>  <SCORE.INTER.VDW>
-15.9713

>  <SCORE.INTER.norm>
-0.427741

>  <SCORE.INTRA>
-5.57345

>  <SCORE.INTRA.DIHEDRAL>
-12.2565

>  <SCORE.INTRA.DIHEDRAL.0>
17.7811

>  <SCORE.INTRA.POLAR>
0

>  <SCORE.INTRA.POLAR.0>
0

>  <SCORE.INTRA.REPUL>
0

>  <SCORE.INTRA.REPUL.0>
0

>  <SCORE.INTRA.SOLV>
2.07126

>  <SCORE.INTRA.SOLV.lig_0>
-47.9565

>  <SCORE.INTRA.VDW>
-0.480805

>  <SCORE.INTRA.VDW.0>
0.515983

>  <SCORE.INTRA.norm>
-0.398103

>  <SCORE.RESTR>
0

>  <SCORE.RESTR.CAVITY>
0

>  <SCORE.RESTR.norm>
0

>  <SCORE.SYSTEM>
0

>  <SCORE.SYSTEM.CONST>
0

>  <SCORE.SYSTEM.DIHEDRAL>
0

>  <SCORE.SYSTEM.SOLV>
0

>  <SCORE.SYSTEM.norm>
0

>  <SCORE.heavy>
14

>  <SCORE.norm>
-0.825844

>  <RMSD>
7.610

$$$$
1xpf_lig
 OpenBabel02141814123D
libRbt.so/2013.1/901 2013/11/27
 14 13  0  0  0  0  0  0  0  0999 V2000
   16.1426  -10.2418   64.9853 N   0  0  0  0  0  0  0  0  0  0  0  0
   16.4937   -9.2377   63.9980 C   0  0  0  0  0  0  0  0  0  0  0  0
   15.8842   -7.9288   64.3312 C   0  0  0  0  0  0  0  0  0  0  0  0
   16.4303   -6.9399   63.3487 C   0  0  0  0  0  0  0  0  0  0  0  0
   15.8566   -7.2980   62.0284 N   0  0  0  0  0  0  0  0  0  0  0  0
   14.6204   -6.5016   61.7593 C   0  0  0  0  0  0  0  0  0  0  0  0
   14.9090   -5.0967   61.2026 C   0  0  0  0  0  0  0  0  0  0  0  0
   15.4919   -5.0967   59.7783 C   0  0  0  0  0  0  0  0  0  0  0  0
   15.6285   -3.6607   59.2952 C   0  0  0  0  0  0  0  0  0  0  0  0
   14.2477   -3.1668   59.1907 N   0  0  0  0  0  0  0  0  0  0  0  0
   14.0243   -1.8508   58.5290 C   0  0  0  0  0  0  0  0  0  0  0  0
   13.7265   -0.9708   59.7624 C   0  0  0  0  0  0  0  0  0  0  0  0
   13.4067    0.4876   59.5529 C   0  0  0  0  0  0  0  0  0  0  0  0
   13.0664    1.2168   60.7623 N   0  0  0  0  0  0  0  0  0  0  0  0
  1  2  1  0  0  0  0
  2  3  1  0  0  0  0
  3  4  1  0  0  0  0
  4  5  1  0  0  0  0
  5  6  1  0  0  0  0
  6  7  1  0  0  0  0
  7  8  1  0  0  0  0
  8  9  1  0  0  0  0
  9 10  1  0  0  0  0
 10 11  1  0  0  0  0
 11 12  1  0  0  0  0
 12 13  1  0  0  0  0
 13 14  1  0  0  0  0
M  END
>  <CHROM.1>
173.71832295,68.59621149,94.38676743,82.62721344,68.49753608,175.45020315
-65.85400211,-170.29143005,-105.51353977,-178.91072670,176.66017195,14.99496717
-4.73465844,61.32300028,0.74555177,-1.21955438,1.85676194

>  <Name>
1xpf_lig

>  <RI>
0

>  <Rbt.Current_Directory>
/home/afrankz/demos/rdock_decoys_rna/rnas/1xpf

>  <Rbt.Executable>
rbdock ($Id: //depot/dev/client3/rdock/2013.1/src/exe/rbdock.cxx#4 $)

>  <Rbt.Library>
libRbt.so (2013.1, Build901 2013/11/27)

>  <Rbt.Parameter_File>
/export/apps/rDock/src/rDock_2013.1_src/data/scripts/dock_solv.prm

>  <Rbt.Receptor>
prm/blind_docking_80.prm

>  <SCORE>
-1.3602

>  <SCORE.INTER>
6.30518

>  <SCORE.INTER.CONST>
1

>  <SCORE.INTER.POLAR>
0

>  <SCORE.INTER.ROT>
11

>  <SCORE.INTER.SOLV>
12.1234

>  <SCORE.INTER.VDW>
-10.771

>  <SCORE.INTER.norm>
0.45037

>  <SCORE.INTRA>
-7.66538

>  <SCORE.INTRA.DIHEDRAL>
-14.6058

>  <SCORE.INTRA.DIHEDRAL.0>
17.7811

>  <SCORE.INTRA.POLAR>
0

>  <SCORE.INTRA.POLAR.0>
0

>  <SCORE.INTRA.REPUL>
0

>  <SCORE.INTRA.REPUL.0>
0

>  <SCORE.INTRA.SOLV>
0.371862

>  <SCORE.INTRA.SOLV.lig_0>
-47.9565

>  <SCORE.INTRA.VDW>
-0.548406

>  <SCORE.INTRA.VDW.0>
0.515983

>  <SCORE.INTRA.norm>
-0.547527

>  <SCORE.RESTR>
0

>  <SCORE.RESTR.CAVITY>
0

>  <SCORE.RESTR.norm>
0

>  <SCORE.SYSTEM>
0

>  <SCORE.SYSTEM.CONST>
0

>  <SCORE.SYSTEM.DIHEDRAL>
0

>  <SCORE.SYSTEM.SOLV>
0

>  <SCORE.SYSTEM.norm>
0

>  <SCORE.heavy>
14

>  <SCORE.norm>
-0.0971575

>  <RMSD>
7.640

$$$$
1xpf_lig
 OpenBabel02141814123D
libRbt.so/2013.1/901 2013/11/27
 14 13  0  0  0  0  0  0  0  0999 V2000
   23.0845   -0.2025   59.3971 N   0  0  0  0  0  0  0  0  0  0  0  0
   24.3382    0.3799   59.8391 C   0  0  0  0  0  0  0  0  0  0  0  0
   24.5794    1.6852   59.1803 C   0  0  0  0  0  0  0  0  0  0  0  0
   23.4824    2.6000   59.6287 C   0  0  0  0  0  0  0  0  0  0  0  0
   23.7252    3.9046   58.9655 N   0  0  0  0  0  0  0  0  0  0  0  0
   22.6589    4.8865   59.3314 C   0  0  0  0  0  0  0  0  0  0  0  0
   22.9182    5.5977   60.6707 C   0  0  0  0  0  0  0  0  0  0  0  0
   24.1479    6.5230   60.6588 C   0  0  0  0  0  0  0  0  0  0  0  0
   24.3771    7.0660   62.0612 C   0  0  0  0  0  0  0  0  0  0  0  0
   23.1936    7.8917   62.3422 N   0  0  0  0  0  0  0  0  0  0  0  0
   22.7266    7.9867   63.7538 C   0  0  0  0  0  0  0  0  0  0  0  0
   21.3888    8.7305   63.5507 C   0  0  0  0  0  0  0  0  0  0  0  0
   20.5685    9.0923   64.7627 C   0  0  0  0  0  0  0  0  0  0  0  0
   20.1982    7.9687   65.6057 N   0  0  0  0  0  0  0  0  0  0  0  0
  1  2  1  0  0  0  0
  2  3  1  0  0  0  0
  3  4  1  0  0  0  0
  4  5  1  0  0  0  0
  5  6  1  0  0  0  0
  6  7  1  0  0  0  0
  7  8  1  0  0  0  0
  8  9  1  0  0  0  0
  9 10  1  0  0  0  0
 10 11  1  0  0  0  0
 11 12  1  0  0  0  0
 12 13  1  0  0  0  0
 13 14  1  0  0  0  0
M  END
>  <CHROM.1>
63.50600929,-179.89343793,178.87827742,83.69997493,66.25383302,-174.83336784
-64.66917565,148.65095585,-171.50766914,-177.94220556,-57.29097116,22.95640808
5.29375505,61.41050160,1.16337913,-0.84683142,-2.85294356

>  <Name>
1xpf_lig

>  <RI>
0

>  <Rbt.Current_Directory>
/home/afrankz/demos/rdock_decoys_rna/rnas/1xpf

>  <Rbt.Executable>
rbdock ($Id: //depot/dev/client3/rdock/2013.1/src/exe/rbdock.cxx#4 $)

>  <Rbt.Library>
libRbt.so (2013.1, Build901 2013/11/27)

>  <Rbt.Parameter_File>
/export/apps/rDock/src/rDock_2013.1_src/data/scripts/dock_solv.prm

>  <Rbt.Receptor>
prm/pocket_docking_6.prm

>  <SCORE>
-14.4589

>  <SCORE.INTER>
-6.0908

>  <SCORE.INTER.CONST>
1

>  <SCORE.INTER.POLAR>
-1.81094

>  <SCORE.INTER.ROT>
11

>  <SCORE.INTER.SOLV>
10.4055

>  <SCORE.INTER.VDW>
-12.4259

>  <SCORE.INTER.norm>
-0.435057

>  <SCORE.INTRA>
-8.36809

>  <SCORE.INTRA.DIHEDRAL>
-16.2435

>  <SCORE.INTRA.DIHEDRAL.0>
17.7811

>  <SCORE.INTRA.POLAR>
0

>  <SCORE.INTRA.POLAR.0>
0

>  <SCORE.INTRA.REPUL>
0

>  <SCORE.INTRA.REPUL.0>
0

>  <SCORE.INTRA.SOLV>
1.45485

>  <SCORE.INTRA.SOLV.lig_0>
-47.9565

>  <SCORE.INTRA.VDW>
-0.97374

>  <SCORE.INTRA.VDW.0>
0.515983

>  <SCORE.INTRA.norm>
-0.597721

>  <SCORE.RESTR>
0

>  <SCORE.RESTR.CAVITY>
0

>  <SCORE.RESTR.norm>
0

>  <SCORE.SYSTEM>
0

>  <SCORE.SYSTEM.CONST>
0

>  <SCORE.SYSTEM.DIHEDRAL>
0

>  <SCORE.SYSTEM.SOLV>
0

>  <SCORE.SYSTEM.norm>
0

>  <SCORE.heavy>
14

>  <SCORE.norm>
-1.03278

>  <RMSD>
7.651

$$$$
1xpf_lig
 OpenBabel02141814123D
libRbt.so/2013.1/901 2013/11/27
 14 13  0  0  0  0  0  0  0  0999 V2000
   23.8283    6.6268   56.4288 N   0  0  0  0  0  0  0  0  0  0  0  0
   24.9025    5.6509   56.4268 C   0  0  0  0  0  0  0  0  0  0  0  0
   24.4272    4.3362   56.9181 C   0  0  0  0  0  0  0  0  0  0  0  0
   25.6487    3.5261   57.2229 C   0  0  0  0  0  0  0  0  0  0  0  0
   25.1698    2.2252   57.7511 N   0  0  0  0  0  0  0  0  0  0  0  0
   26.0402    1.7619   58.8748 C   0  0  0  0  0  0  0  0  0  0  0  0
   26.0833    0.2310   59.0216 C   0  0  0  0  0  0  0  0  0  0  0  0
   24.6967   -0.4228   59.1576 C   0  0  0  0  0  0  0  0  0  0  0  0
   24.0491    0.0457   60.4519 C   0  0  0  0  0  0  0  0  0  0  0  0
   24.9118   -0.4856   61.5172 N   0  0  0  0  0  0  0  0  0  0  0  0
   24.2700   -1.2645   62.6131 C   0  0  0  0  0  0  0  0  0  0  0  0
   25.4457   -1.3550   63.6100 C   0  0  0  0  0  0  0  0  0  0  0  0
   25.8591   -0.1135   64.3589 C   0  0  0  0  0  0  0  0  0  0  0  0
   26.8327   -0.3340   65.4142 N   0  0  0  0  0  0  0  0  0  0  0  0
  1  2  1  0  0  0  0
  2  3  1  0  0  0  0
  3  4  1  0  0  0  0
  4  5  1  0  0  0  0
  5  6  1  0  0  0  0
  6  7  1  0  0  0  0
  7  8  1  0  0  0  0
  8  9  1  0  0  0  0
  9 10  1  0  0  0  0
 10 11  1  0  0  0  0
 11 12  1  0  0  0  0
 12 13  1  0  0  0  0
 13 14  1  0  0  0  0
M  END
>  <CHROM.1>
-165.23853749,178.41134493,-140.83714704,-151.89955657,-54.48373956,-64.60733360
-64.38395130,-128.23998627,-168.78986819,71.85463628,171.18776411,25.15462343
1.45895613,59.98323580,-2.02811231,1.35310765,2.70946884

>  <Name>
1xpf_lig

>  <RI>
0

>  <Rbt.Current_Directory>
/home/afrankz/demos/rdock_decoys_rna/rnas/1xpf

>  <Rbt.Executable>
rbdock ($Id: //depot/dev/client3/rdock/2013.1/src/exe/rbdock.cxx#4 $)

>  <Rbt.Library>
libRbt.so (2013.1, Build901 2013/11/27)

>  <Rbt.Parameter_File>
/export/apps/rDock/src/rDock_2013.1_src/data/scripts/dock_solv.prm

>  <Rbt.Receptor>
prm/pocket_docking_8.prm

>  <SCORE>
-13.9604

>  <SCORE.INTER>
-6.82507

>  <SCORE.INTER.CONST>
1

>  <SCORE.INTER.POLAR>
-1.71828

>  <SCORE.INTER.ROT>
11

>  <SCORE.INTER.SOLV>
12.5981

>  <SCORE.INTER.VDW>
-13.9551

>  <SCORE.INTER.norm>
-0.487505

>  <SCORE.INTRA>
-7.13536

>  <SCORE.INTRA.DIHEDRAL>
-13.2458

>  <SCORE.INTRA.DIHEDRAL.0>
17.7811

>  <SCORE.INTRA.POLAR>
0

>  <SCORE.INTRA.POLAR.0>
0

>  <SCORE.INTRA.REPUL>
0

>  <SCORE.INTRA.REPUL.0>
0

>  <SCORE.INTRA.SOLV>
0.734125

>  <SCORE.INTRA.SOLV.lig_0>
-47.9565

>  <SCORE.INTRA.VDW>
-0.879531

>  <SCORE.INTRA.VDW.0>
0.515983

>  <SCORE.INTRA.norm>
-0.509668

>  <SCORE.RESTR>
0

>  <SCORE.RESTR.CAVITY>
0

>  <SCORE.RESTR.norm>
0

>  <SCORE.SYSTEM>
0

>  <SCORE.SYSTEM.CONST>
0

>  <SCORE.SYSTEM.DIHEDRAL>
0

>  <SCORE.SYSTEM.SOLV>
0

>  <SCORE.SYSTEM.norm>
0

>  <SCORE.heavy>
14

>  <SCORE.norm>
-0.997173

>  <RMSD>
7.673

$$$$
1xpf_lig
 OpenBabel02141814123D
libRbt.so/2013.1/901 2013/11/27
 14 13  0  0  0  0  0  0  0  0999 V2000
   17.1768   -1.3930   68.7858 N   0  0  0  0  0  0  0  0  0  0  0  0
   16.3730   -2.5874   68.6031 C   0  0  0  0  0  0  0  0  0  0  0  0
   16.6512   -3.5829   69.6650 C   0  0  0  0  0  0  0  0  0  0  0  0
   15.9381   -4.8391   69.2714 C   0  0  0  0  0  0  0  0  0  0  0  0
   16.6791   -5.3985   68.1144 N   0  0  0  0  0  0  0  0  0  0  0  0
   15.9121   -5.1893   66.8484 C   0  0  0  0  0  0  0  0  0  0  0  0
   16.6709   -5.6508   65.5922 C   0  0  0  0  0  0  0  0  0  0  0  0
   16.0008   -5.2365   64.2701 C   0  0  0  0  0  0  0  0  0  0  0  0
   16.8149   -5.7811   63.1062 C   0  0  0  0  0  0  0  0  0  0  0  0
   16.1843   -5.2100   61.9071 N   0  0  0  0  0  0  0  0  0  0  0  0
   16.7002   -5.6357   60.5759 C   0  0  0  0  0  0  0  0  0  0  0  0
   16.4453   -4.3503   59.7592 C   0  0  0  0  0  0  0  0  0  0  0  0
   15.0228   -3.9072   59.5289 C   0  0  0  0  0  0  0  0  0  0  0  0
   14.8781   -2.7429   58.6725 N   0  0  0  0  0  0  0  0  0  0  0  0
  1  2  1  0  0  0  0
  2  3  1  0  0  0  0
  3  4  1  0  0  0  0
  4  5  1  0  0  0  0
  5  6  1  0  0  0  0
  6  7  1  0  0  0  0
  7  8  1  0  0  0  0
  8  9  1  0  0  0  0
  9 10  1  0  0  0  0
 10 11  1  0  0  0  0
 11 12  1  0  0  0  0
 12 13  1  0  0  0  0
 13 14  1  0  0  0  0
M  END
>  <CHROM.1>
-171.61559205,71.41611665,-106.16352129,175.63945485,-170.54542395,-178.33430143
-173.88542490,-175.77361729,-148.65202351,-65.35816023,-175.85560011,16.24626227
-4.39348689,64.62154977,0.95543303,-1.42784492,0.89507414

>  <Name>
1xpf_lig

>  <RI>
0

>  <Rbt.Current_Directory>
/home/afrankz/demos/rdock_decoys_rna/rnas/1xpf

>  <Rbt.Executable>
rbdock ($Id: //depot/dev/client3/rdock/2013.1/src/exe/rbdock.cxx#4 $)

>  <Rbt.Library>
libRbt.so (2013.1, Build901 2013/11/27)

>  <Rbt.Parameter_File>
/export/apps/rDock/src/rDock_2013.1_src/data/scripts/dock_solv.prm

>  <Rbt.Receptor>
prm/blind_docking_80.prm

>  <SCORE>
-12.1512

>  <SCORE.INTER>
-3.98105

>  <SCORE.INTER.CONST>
1

>  <SCORE.INTER.POLAR>
-1.71652

>  <SCORE.INTER.ROT>
11

>  <SCORE.INTER.SOLV>
12.8359

>  <SCORE.INTER.VDW>
-12.1443

>  <SCORE.INTER.norm>
-0.284361

>  <SCORE.INTRA>
-8.17869

>  <SCORE.INTRA.DIHEDRAL>
-14.6631

>  <SCORE.INTRA.DIHEDRAL.0>
17.7811

>  <SCORE.INTRA.POLAR>
0

>  <SCORE.INTRA.POLAR.0>
0

>  <SCORE.INTRA.REPUL>
0

>  <SCORE.INTRA.REPUL.0>
0

>  <SCORE.INTRA.SOLV>
0.319758

>  <SCORE.INTRA.SOLV.lig_0>
-47.9565

>  <SCORE.INTRA.VDW>
-1.00702

>  <SCORE.INTRA.VDW.0>
0.515983

>  <SCORE.INTRA.norm>
-0.584192

>  <SCORE.RESTR>
0.00859382

>  <SCORE.RESTR.CAVITY>
0.00859382

>  <SCORE.RESTR.norm>
0.000613844

>  <SCORE.SYSTEM>
0

>  <SCORE.SYSTEM.CONST>
0

>  <SCORE.SYSTEM.DIHEDRAL>
0

>  <SCORE.SYSTEM.SOLV>
0

>  <SCORE.SYSTEM.norm>
0

>  <SCORE.heavy>
14

>  <SCORE.norm>
-0.86794

>  <RMSD>
7.693

$$$$
1xpf_lig
 OpenBabel02141814123D
libRbt.so/2013.1/901 2013/11/27
 14 13  0  0  0  0  0  0  0  0999 V2000
   15.2429   -9.2279   62.6019 N   0  0  0  0  0  0  0  0  0  0  0  0
   16.0277   -8.1581   63.1901 C   0  0  0  0  0  0  0  0  0  0  0  0
   15.8940   -6.9079   62.4060 C   0  0  0  0  0  0  0  0  0  0  0  0
   16.6630   -5.8560   63.1433 C   0  0  0  0  0  0  0  0  0  0  0  0
   15.9587   -5.6456   64.4318 N   0  0  0  0  0  0  0  0  0  0  0  0
   16.4154   -4.3779   65.0793 C   0  0  0  0  0  0  0  0  0  0  0  0
   16.2754   -4.3906   66.6114 C   0  0  0  0  0  0  0  0  0  0  0  0
   16.6642   -3.0628   67.2853 C   0  0  0  0  0  0  0  0  0  0  0  0
   16.5647   -3.2217   68.7949 C   0  0  0  0  0  0  0  0  0  0  0  0
   16.8919   -1.8939   69.3347 N   0  0  0  0  0  0  0  0  0  0  0  0
   16.1398   -1.4207   70.5304 C   0  0  0  0  0  0  0  0  0  0  0  0
   17.1886   -1.6787   71.6339 C   0  0  0  0  0  0  0  0  0  0  0  0
   16.8637   -1.2802   73.0511 C   0  0  0  0  0  0  0  0  0  0  0  0
   16.7311    0.1502   73.2669 N   0  0  0  0  0  0  0  0  0  0  0  0
  1  2  1  0  0  0  0
  2  3  1  0  0  0  0
  3  4  1  0  0  0  0
  4  5  1  0  0  0  0
  5  6  1  0  0  0  0
  6  7  1  0  0  0  0
  7  8  1  0  0  0  0
  8  9  1  0  0  0  0
  9 10  1  0  0  0  0
 10 11  1  0  0  0  0
 11 12  1  0  0  0  0
 12 13  1  0  0  0  0
 13 14  1  0  0  0  0
M  END
>  <CHROM.1>
176.35865565,-65.69690145,-164.79343547,-153.27650638,-176.61284889,-176.69074839
-177.45919859,142.40658403,101.90650237,177.46769086,-66.10239066,16.39444971
-4.06938250,67.24000138,1.93586805,-1.34600959,-1.82742530

>  <Name>
1xpf_lig

>  <RI>
0

>  <Rbt.Current_Directory>
/home/afrankz/demos/rdock_decoys_rna/rnas/1xpf

>  <Rbt.Executable>
rbdock ($Id: //depot/dev/client3/rdock/2013.1/src/exe/rbdock.cxx#4 $)

>  <Rbt.Library>
libRbt.so (2013.1, Build901 2013/11/27)

>  <Rbt.Parameter_File>
/export/apps/rDock/src/rDock_2013.1_src/data/scripts/dock_solv.prm

>  <Rbt.Receptor>
prm/blind_docking_80.prm

>  <SCORE>
-13.0303

>  <SCORE.INTER>
-4.57046

>  <SCORE.INTER.CONST>
1

>  <SCORE.INTER.POLAR>
-1.4031

>  <SCORE.INTER.ROT>
11

>  <SCORE.INTER.SOLV>
11.7119

>  <SCORE.INTER.VDW>
-13.2073

>  <SCORE.INTER.norm>
-0.326462

>  <SCORE.INTRA>
-8.45981

>  <SCORE.INTRA.DIHEDRAL>
-14.8712

>  <SCORE.INTRA.DIHEDRAL.0>
17.7811

>  <SCORE.INTRA.POLAR>
0

>  <SCORE.INTRA.POLAR.0>
0

>  <SCORE.INTRA.REPUL>
0

>  <SCORE.INTRA.REPUL.0>
0

>  <SCORE.INTRA.SOLV>
0.284574

>  <SCORE.INTRA.SOLV.lig_0>
-47.9565

>  <SCORE.INTRA.VDW>
-1.16648

>  <SCORE.INTRA.VDW.0>
0.515983

>  <SCORE.INTRA.norm>
-0.604272

>  <SCORE.RESTR>
0

>  <SCORE.RESTR.CAVITY>
0

>  <SCORE.RESTR.norm>
0

>  <SCORE.SYSTEM>
0

>  <SCORE.SYSTEM.CONST>
0

>  <SCORE.SYSTEM.DIHEDRAL>
0

>  <SCORE.SYSTEM.SOLV>
0

>  <SCORE.SYSTEM.norm>
0

>  <SCORE.heavy>
14

>  <SCORE.norm>
-0.930733

>  <RMSD>
7.695

$$$$
1xpf_lig
 OpenBabel02141814123D
libRbt.so/2013.1/901 2013/11/27
 14 13  0  0  0  0  0  0  0  0999 V2000
   16.8200   -1.1415   72.9333 N   0  0  0  0  0  0  0  0  0  0  0  0
   16.4265   -1.0824   71.5377 C   0  0  0  0  0  0  0  0  0  0  0  0
   16.4095   -2.4350   70.9326 C   0  0  0  0  0  0  0  0  0  0  0  0
   15.8994   -2.2720   69.5345 C   0  0  0  0  0  0  0  0  0  0  0  0
   17.0033   -1.6634   68.7522 N   0  0  0  0  0  0  0  0  0  0  0  0
   16.5727   -1.4138   67.3425 C   0  0  0  0  0  0  0  0  0  0  0  0
   16.9419   -2.5563   66.3806 C   0  0  0  0  0  0  0  0  0  0  0  0
   16.3342   -3.9171   66.7645 C   0  0  0  0  0  0  0  0  0  0  0  0
   16.7376   -4.9541   65.7272 C   0  0  0  0  0  0  0  0  0  0  0  0
   16.1319   -6.2091   66.1955 N   0  0  0  0  0  0  0  0  0  0  0  0
   14.8699   -6.6614   65.5456 C   0  0  0  0  0  0  0  0  0  0  0  0
   15.4392   -7.6275   64.4840 C   0  0  0  0  0  0  0  0  0  0  0  0
   14.4788   -8.3758   63.5947 C   0  0  0  0  0  0  0  0  0  0  0  0
   15.1042   -9.2936   62.6584 N   0  0  0  0  0  0  0  0  0  0  0  0
  1  2  1  0  0  0  0
  2  3  1  0  0  0  0
  3  4  1  0  0  0  0
  4  5  1  0  0  0  0
  5  6  1  0  0  0  0
  6  7  1  0  0  0  0
  7  8  1  0  0  0  0
  8  9  1  0  0  0  0
  9 10  1  0  0  0  0
 10 11  1  0  0  0  0
 11 12  1  0  0  0  0
 12 13  1  0  0  0  0
 13 14  1  0  0  0  0
M  END
>  <CHROM.1>
176.00216198,74.29891006,-177.98220450,-94.29026940,59.16432030,178.57740824
179.03616980,100.79804271,95.27120652,177.92951149,-178.03126626,16.08343282
-4.25723323,67.31296045,1.13841916,1.20695902,1.22048583

>  <Name>
1xpf_lig

>  <RI>
0

>  <Rbt.Current_Directory>
/home/afrankz/demos/rdock_decoys_rna/rnas/1xpf

>  <Rbt.Executable>
rbdock ($Id: //depot/dev/client3/rdock/2013.1/src/exe/rbdock.cxx#4 $)

>  <Rbt.Library>
libRbt.so (2013.1, Build901 2013/11/27)

>  <Rbt.Parameter_File>
/export/apps/rDock/src/rDock_2013.1_src/data/scripts/dock_solv.prm

>  <Rbt.Receptor>
prm/blind_docking_80.prm

>  <SCORE>
-16.983

>  <SCORE.INTER>
-8.67232

>  <SCORE.INTER.CONST>
1

>  <SCORE.INTER.POLAR>
-1.67363

>  <SCORE.INTER.ROT>
11

>  <SCORE.INTER.SOLV>
11.9858

>  <SCORE.INTER.VDW>
-15.1314

>  <SCORE.INTER.norm>
-0.619451

>  <SCORE.INTRA>
-8.31658

>  <SCORE.INTRA.DIHEDRAL>
-14.5153

>  <SCORE.INTRA.DIHEDRAL.0>
17.7811

>  <SCORE.INTRA.POLAR>
0

>  <SCORE.INTRA.POLAR.0>
0

>  <SCORE.INTRA.REPUL>
0

>  <SCORE.INTRA.REPUL.0>
0

>  <SCORE.INTRA.SOLV>
-0.113535

>  <SCORE.INTRA.SOLV.lig_0>
-47.9565

>  <SCORE.INTRA.VDW>
-1.00215

>  <SCORE.INTRA.VDW.0>
0.515983

>  <SCORE.INTRA.norm>
-0.594041

>  <SCORE.RESTR>
0.00593174

>  <SCORE.RESTR.CAVITY>
0.00593174

>  <SCORE.RESTR.norm>
0.000423695

>  <SCORE.SYSTEM>
0

>  <SCORE.SYSTEM.CONST>
0

>  <SCORE.SYSTEM.DIHEDRAL>
0

>  <SCORE.SYSTEM.SOLV>
0

>  <SCORE.SYSTEM.norm>
0

>  <SCORE.heavy>
14

>  <SCORE.norm>
-1.21307

>  <RMSD>
7.708

$$$$
1xpf_lig
 OpenBabel02141814123D
libRbt.so/2013.1/901 2013/11/27
 14 13  0  0  0  0  0  0  0  0999 V2000
   19.6512    1.6443   72.3553 N   0  0  0  0  0  0  0  0  0  0  0  0
   18.5776    0.8449   71.7946 C   0  0  0  0  0  0  0  0  0  0  0  0
   17.7737    0.2090   72.8648 C   0  0  0  0  0  0  0  0  0  0  0  0
   16.6345   -0.4876   72.1877 C   0  0  0  0  0  0  0  0  0  0  0  0
   17.2055   -1.6916   71.5357 N   0  0  0  0  0  0  0  0  0  0  0  0
   16.1214   -2.5280   70.9355 C   0  0  0  0  0  0  0  0  0  0  0  0
   15.7449   -2.1038   69.5054 C   0  0  0  0  0  0  0  0  0  0  0  0
   16.6306   -2.7309   68.4141 C   0  0  0  0  0  0  0  0  0  0  0  0
   16.3559   -4.2256   68.3465 C   0  0  0  0  0  0  0  0  0  0  0  0
   16.9136   -4.6518   67.0547 N   0  0  0  0  0  0  0  0  0  0  0  0
   16.8194   -6.0944   66.6945 C   0  0  0  0  0  0  0  0  0  0  0  0
   17.0146   -6.0084   65.1652 C   0  0  0  0  0  0  0  0  0  0  0  0
   15.9905   -5.2673   64.3436 C   0  0  0  0  0  0  0  0  0  0  0  0
   16.2362   -5.2752   62.9119 N   0  0  0  0  0  0  0  0  0  0  0  0
  1  2  1  0  0  0  0
  2  3  1  0  0  0  0
  3  4  1  0  0  0  0
  4  5  1  0  0  0  0
  5  6  1  0  0  0  0
  6  7  1  0  0  0  0
  7  8  1  0  0  0  0
  8  9  1  0  0  0  0
  9 10  1  0  0  0  0
 10 11  1  0  0  0  0
 11 12  1  0  0  0  0
 12 13  1  0  0  0  0
 13 14  1  0  0  0  0
M  END
>  <CHROM.1>
175.23869470,73.62890152,174.72801023,86.75193093,85.51365994,68.35474867
163.48972858,179.10057827,160.40704222,-63.36972029,-178.17546566,16.97618418
-2.74055070,68.86512680,-1.32068327,-0.86027445,-2.04533970

>  <Name>
1xpf_lig

>  <RI>
0

>  <Rbt.Current_Directory>
/home/afrankz/demos/rdock_decoys_rna/rnas/1xpf

>  <Rbt.Executable>
rbdock ($Id: //depot/dev/client3/rdock/2013.1/src/exe/rbdock.cxx#4 $)

>  <Rbt.Library>
libRbt.so (2013.1, Build901 2013/11/27)

>  <Rbt.Parameter_File>
/export/apps/rDock/src/rDock_2013.1_src/data/scripts/dock_solv.prm

>  <Rbt.Receptor>
prm/blind_docking_80.prm

>  <SCORE>
-7.05083

>  <SCORE.INTER>
-0.0550392

>  <SCORE.INTER.CONST>
1

>  <SCORE.INTER.POLAR>
0

>  <SCORE.INTER.ROT>
11

>  <SCORE.INTER.SOLV>
11.8939

>  <SCORE.INTER.VDW>
-14.9346

>  <SCORE.INTER.norm>
-0.00393137

>  <SCORE.INTRA>
-7.00198

>  <SCORE.INTRA.DIHEDRAL>
-12.7817

>  <SCORE.INTRA.DIHEDRAL.0>
17.7811

>  <SCORE.INTRA.POLAR>
0

>  <SCORE.INTRA.POLAR.0>
0

>  <SCORE.INTRA.REPUL>
0

>  <SCORE.INTRA.REPUL.0>
0

>  <SCORE.INTRA.SOLV>
0.473592

>  <SCORE.INTRA.SOLV.lig_0>
-47.9565

>  <SCORE.INTRA.VDW>
-0.847945

>  <SCORE.INTRA.VDW.0>
0.515983

>  <SCORE.INTRA.norm>
-0.500141

>  <SCORE.RESTR>
0.00618969

>  <SCORE.RESTR.CAVITY>
0.00618969

>  <SCORE.RESTR.norm>
0.00044212

>  <SCORE.SYSTEM>
0

>  <SCORE.SYSTEM.CONST>
0

>  <SCORE.SYSTEM.DIHEDRAL>
0

>  <SCORE.SYSTEM.SOLV>
0

>  <SCORE.SYSTEM.norm>
0

>  <SCORE.heavy>
14

>  <SCORE.norm>
-0.50363

>  <RMSD>
7.708

$$$$
1xpf_lig
 OpenBabel02141814123D
libRbt.so/2013.1/901 2013/11/27
 14 13  0  0  0  0  0  0  0  0999 V2000
   17.9531    0.7300   72.7434 N   0  0  0  0  0  0  0  0  0  0  0  0
   17.7845   -0.5678   72.1160 C   0  0  0  0  0  0  0  0  0  0  0  0
   16.4129   -0.7234   71.5771 C   0  0  0  0  0  0  0  0  0  0  0  0
   16.3388   -2.0967   70.9855 C   0  0  0  0  0  0  0  0  0  0  0  0
   16.9021   -1.9961   69.6168 N   0  0  0  0  0  0  0  0  0  0  0  0
   16.5724   -3.2186   68.8219 C   0  0  0  0  0  0  0  0  0  0  0  0
   16.7129   -3.0150   67.3035 C   0  0  0  0  0  0  0  0  0  0  0  0
   16.1016   -4.1492   66.4619 C   0  0  0  0  0  0  0  0  0  0  0  0
   16.8822   -5.4310   66.7102 C   0  0  0  0  0  0  0  0  0  0  0  0
   16.0380   -6.4985   66.1541 N   0  0  0  0  0  0  0  0  0  0  0  0
   16.4033   -7.0560   64.8217 C   0  0  0  0  0  0  0  0  0  0  0  0
   15.0012   -7.1996   64.1909 C   0  0  0  0  0  0  0  0  0  0  0  0
   14.8910   -7.7076   62.7757 C   0  0  0  0  0  0  0  0  0  0  0  0
   15.3255   -9.0806   62.5853 N   0  0  0  0  0  0  0  0  0  0  0  0
  1  2  1  0  0  0  0
  2  3  1  0  0  0  0
  3  4  1  0  0  0  0
  4  5  1  0  0  0  0
  5  6  1  0  0  0  0
  6  7  1  0  0  0  0
  7  8  1  0  0  0  0
  8  9  1  0  0  0  0
  9 10  1  0  0  0  0
 10 11  1  0  0  0  0
 11 12  1  0  0  0  0
 12 13  1  0  0  0  0
 13 14  1  0  0  0  0
M  END
>  <CHROM.1>
-178.72277700,-83.50047499,-166.08095479,161.47337340,-167.80844848,-65.43888082
166.01667452,101.84452854,-139.42829437,178.14931779,65.33426034,16.37989581
-4.14354379,67.63308633,1.11719620,-1.18804379,0.41829188

>  <Name>
1xpf_lig

>  <RI>
0

>  <Rbt.Current_Directory>
/home/afrankz/demos/rdock_decoys_rna/rnas/1xpf

>  <Rbt.Executable>
rbdock ($Id: //depot/dev/client3/rdock/2013.1/src/exe/rbdock.cxx#4 $)

>  <Rbt.Library>
libRbt.so (2013.1, Build901 2013/11/27)

>  <Rbt.Parameter_File>
/export/apps/rDock/src/rDock_2013.1_src/data/scripts/dock_solv.prm

>  <Rbt.Receptor>
prm/blind_docking_80.prm

>  <SCORE>
-10.3591

>  <SCORE.INTER>
-3.27033

>  <SCORE.INTER.CONST>
1

>  <SCORE.INTER.POLAR>
-1.27114

>  <SCORE.INTER.ROT>
11

>  <SCORE.INTER.SOLV>
11.2748

>  <SCORE.INTER.VDW>
-12.6347

>  <SCORE.INTER.norm>
-0.233595

>  <SCORE.INTRA>
-7.08879

>  <SCORE.INTRA.DIHEDRAL>
-12.1648

>  <SCORE.INTRA.DIHEDRAL.0>
17.7811

>  <SCORE.INTRA.POLAR>
0

>  <SCORE.INTRA.POLAR.0>
0

>  <SCORE.INTRA.REPUL>
0

>  <SCORE.INTRA.REPUL.0>
0

>  <SCORE.INTRA.SOLV>
0.236715

>  <SCORE.INTRA.SOLV.lig_0>
-47.9565

>  <SCORE.INTRA.VDW>
-1.12475

>  <SCORE.INTRA.VDW.0>
0.515983

>  <SCORE.INTRA.norm>
-0.506342

>  <SCORE.RESTR>
0

>  <SCORE.RESTR.CAVITY>
0

>  <SCORE.RESTR.norm>
0

>  <SCORE.SYSTEM>
0

>  <SCORE.SYSTEM.CONST>
0

>  <SCORE.SYSTEM.DIHEDRAL>
0

>  <SCORE.SYSTEM.SOLV>
0

>  <SCORE.SYSTEM.norm>
0

>  <SCORE.heavy>
14

>  <SCORE.norm>
-0.739937

>  <RMSD>
7.715

$$$$
1xpf_lig
 OpenBabel02141814123D
libRbt.so/2013.1/901 2013/11/27
 14 13  0  0  0  0  0  0  0  0999 V2000
   14.9856   -8.8839   62.1254 N   0  0  0  0  0  0  0  0  0  0  0  0
   14.9195   -7.6002   61.4517 C   0  0  0  0  0  0  0  0  0  0  0  0
   15.8120   -6.6121   62.1021 C   0  0  0  0  0  0  0  0  0  0  0  0
   15.1504   -6.2179   63.3860 C   0  0  0  0  0  0  0  0  0  0  0  0
   16.0748   -5.2761   64.0637 N   0  0  0  0  0  0  0  0  0  0  0  0
   15.6438   -5.0417   65.4759 C   0  0  0  0  0  0  0  0  0  0  0  0
   16.7861   -5.1931   66.4953 C   0  0  0  0  0  0  0  0  0  0  0  0
   16.5985   -4.3555   67.7726 C   0  0  0  0  0  0  0  0  0  0  0  0
   16.8212   -2.8871   67.4434 C   0  0  0  0  0  0  0  0  0  0  0  0
   17.0799   -2.2463   68.7411 N   0  0  0  0  0  0  0  0  0  0  0  0
   15.9092   -1.8953   69.5931 C   0  0  0  0  0  0  0  0  0  0  0  0
   16.1900   -2.7835   70.8245 C   0  0  0  0  0  0  0  0  0  0  0  0
   17.3218   -2.4080   71.7470 C   0  0  0  0  0  0  0  0  0  0  0  0
   17.1746   -1.1180   72.3985 N   0  0  0  0  0  0  0  0  0  0  0  0
  1  2  1  0  0  0  0
  2  3  1  0  0  0  0
  3  4  1  0  0  0  0
  4  5  1  0  0  0  0
  5  6  1  0  0  0  0
  6  7  1  0  0  0  0
  7  8  1  0  0  0  0
  8  9  1  0  0  0  0
  9 10  1  0  0  0  0
 10 11  1  0  0  0  0
 11 12  1  0  0  0  0
 12 13  1  0  0  0  0
 13 14  1  0  0  0  0
M  END
>  <CHROM.1>
-73.92960772,177.48768863,-168.28563946,130.96621930,152.40657289,-72.27960595
-161.19776035,-81.16279726,117.54641607,71.99090915,62.00055115,16.17618447
-4.46563981,66.68709923,2.44200900,-1.36909249,-1.25890754

>  <Name>
1xpf_lig

>  <RI>
0

>  <Rbt.Current_Directory>
/home/afrankz/demos/rdock_decoys_rna/rnas/1xpf

>  <Rbt.Executable>
rbdock ($Id: //depot/dev/client3/rdock/2013.1/src/exe/rbdock.cxx#4 $)

>  <Rbt.Library>
libRbt.so (2013.1, Build901 2013/11/27)

>  <Rbt.Parameter_File>
/export/apps/rDock/src/rDock_2013.1_src/data/scripts/dock_solv.prm

>  <Rbt.Receptor>
prm/blind_docking_80.prm

>  <SCORE>
-9.74298

>  <SCORE.INTER>
-5.01324

>  <SCORE.INTER.CONST>
1

>  <SCORE.INTER.POLAR>
-1.54884

>  <SCORE.INTER.ROT>
11

>  <SCORE.INTER.SOLV>
10.9981

>  <SCORE.INTER.VDW>
-12.7787

>  <SCORE.INTER.norm>
-0.358089

>  <SCORE.INTRA>
-4.73934

>  <SCORE.INTRA.DIHEDRAL>
-9.5162

>  <SCORE.INTRA.DIHEDRAL.0>
17.7811

>  <SCORE.INTRA.POLAR>
0

>  <SCORE.INTRA.POLAR.0>
0

>  <SCORE.INTRA.REPUL>
0

>  <SCORE.INTRA.REPUL.0>
0

>  <SCORE.INTRA.SOLV>
1.56827

>  <SCORE.INTRA.SOLV.lig_0>
-47.9565

>  <SCORE.INTRA.VDW>
-0.765372

>  <SCORE.INTRA.VDW.0>
0.515983

>  <SCORE.INTRA.norm>
-0.338524

>  <SCORE.RESTR>
0.00960126

>  <SCORE.RESTR.CAVITY>
0.00960126

>  <SCORE.RESTR.norm>
0.000685804

>  <SCORE.SYSTEM>
0

>  <SCORE.SYSTEM.CONST>
0

>  <SCORE.SYSTEM.DIHEDRAL>
0

>  <SCORE.SYSTEM.SOLV>
0

>  <SCORE.SYSTEM.norm>
0

>  <SCORE.heavy>
14

>  <SCORE.norm>
-0.695927

>  <RMSD>
7.722

$$$$
1xpf_lig
 OpenBabel02141814123D
libRbt.so/2013.1/901 2013/11/27
 14 13  0  0  0  0  0  0  0  0999 V2000
   17.9730   -0.0519   68.2724 N   0  0  0  0  0  0  0  0  0  0  0  0
   17.5185   -0.4732   66.9601 C   0  0  0  0  0  0  0  0  0  0  0  0
   16.4750   -1.5196   67.0696 C   0  0  0  0  0  0  0  0  0  0  0  0
   17.1007   -2.6744   67.7881 C   0  0  0  0  0  0  0  0  0  0  0  0
   16.0511   -3.7163   67.9039 N   0  0  0  0  0  0  0  0  0  0  0  0
   16.6426   -5.0087   68.3675 C   0  0  0  0  0  0  0  0  0  0  0  0
   15.7985   -6.2372   67.9866 C   0  0  0  0  0  0  0  0  0  0  0  0
   15.3982   -6.2840   66.5013 C   0  0  0  0  0  0  0  0  0  0  0  0
   15.0579   -7.7172   66.1213 C   0  0  0  0  0  0  0  0  0  0  0  0
   14.1377   -7.5949   64.9813 N   0  0  0  0  0  0  0  0  0  0  0  0
   13.2178   -8.7327   64.7003 C   0  0  0  0  0  0  0  0  0  0  0  0
   13.8461   -9.2786   63.3997 C   0  0  0  0  0  0  0  0  0  0  0  0
   13.7587   -8.4452   62.1464 C   0  0  0  0  0  0  0  0  0  0  0  0
   14.4303   -9.0117   60.9897 N   0  0  0  0  0  0  0  0  0  0  0  0
  1  2  1  0  0  0  0
  2  3  1  0  0  0  0
  3  4  1  0  0  0  0
  4  5  1  0  0  0  0
  5  6  1  0  0  0  0
  6  7  1  0  0  0  0
  7  8  1  0  0  0  0
  8  9  1  0  0  0  0
  9 10  1  0  0  0  0
 10 11  1  0  0  0  0
 11 12  1  0  0  0  0
 12 13  1  0  0  0  0
 13 14  1  0  0  0  0
M  END
>  <CHROM.1>
-60.28191799,179.63631693,169.01801425,-156.86970092,50.22106938,158.58888343
154.57524885,-156.81527025,-109.20002200,-68.58046345,177.30380177,15.52896508
-5.48198206,65.94219258,-0.22777332,-1.19687013,-1.24093129

>  <Name>
1xpf_lig

>  <RI>
0

>  <Rbt.Current_Directory>
/home/afrankz/demos/rdock_decoys_rna/rnas/1xpf

>  <Rbt.Executable>
rbdock ($Id: //depot/dev/client3/rdock/2013.1/src/exe/rbdock.cxx#4 $)

>  <Rbt.Library>
libRbt.so (2013.1, Build901 2013/11/27)

>  <Rbt.Parameter_File>
/export/apps/rDock/src/rDock_2013.1_src/data/scripts/dock_solv.prm

>  <Rbt.Receptor>
prm/blind_docking_80.prm

>  <SCORE>
-12.8714

>  <SCORE.INTER>
-6.60963

>  <SCORE.INTER.CONST>
1

>  <SCORE.INTER.POLAR>
-2.02641

>  <SCORE.INTER.ROT>
11

>  <SCORE.INTER.SOLV>
15.8412

>  <SCORE.INTER.VDW>
-13.8655

>  <SCORE.INTER.norm>
-0.472116

>  <SCORE.INTRA>
-6.27515

>  <SCORE.INTRA.DIHEDRAL>
-11.3077

>  <SCORE.INTRA.DIHEDRAL.0>
17.7811

>  <SCORE.INTRA.POLAR>
0

>  <SCORE.INTRA.POLAR.0>
0

>  <SCORE.INTRA.REPUL>
0

>  <SCORE.INTRA.REPUL.0>
0

>  <SCORE.INTRA.SOLV>
0.918096

>  <SCORE.INTRA.SOLV.lig_0>
-47.9565

>  <SCORE.INTRA.VDW>
-1.08032

>  <SCORE.INTRA.VDW.0>
0.515983

>  <SCORE.INTRA.norm>
-0.448225

>  <SCORE.RESTR>
0.013389

>  <SCORE.RESTR.CAVITY>
0.013389

>  <SCORE.RESTR.norm>
0.000956357

>  <SCORE.SYSTEM>
0

>  <SCORE.SYSTEM.CONST>
0

>  <SCORE.SYSTEM.DIHEDRAL>
0

>  <SCORE.SYSTEM.SOLV>
0

>  <SCORE.SYSTEM.norm>
0

>  <SCORE.heavy>
14

>  <SCORE.norm>
-0.919385

>  <RMSD>
7.723

$$$$
1xpf_lig
 OpenBabel02141814123D
libRbt.so/2013.1/901 2013/11/27
 14 13  0  0  0  0  0  0  0  0999 V2000
   18.3926    0.5887   74.7281 N   0  0  0  0  0  0  0  0  0  0  0  0
   18.3526    0.0415   73.3845 C   0  0  0  0  0  0  0  0  0  0  0  0
   19.4330    0.6118   72.5459 C   0  0  0  0  0  0  0  0  0  0  0  0
   19.0535    2.0330   72.2672 C   0  0  0  0  0  0  0  0  0  0  0  0
   20.1647    2.6180   71.4775 N   0  0  0  0  0  0  0  0  0  0  0  0
   19.7361    2.8584   70.0656 C   0  0  0  0  0  0  0  0  0  0  0  0
   19.6292    1.5693   69.2327 C   0  0  0  0  0  0  0  0  0  0  0  0
   18.9872    1.7712   67.8487 C   0  0  0  0  0  0  0  0  0  0  0  0
   18.6342    0.4137   67.2598 C   0  0  0  0  0  0  0  0  0  0  0  0
   17.7328   -0.2004   68.2456 N   0  0  0  0  0  0  0  0  0  0  0  0
   16.6173   -1.0486   67.7398 C   0  0  0  0  0  0  0  0  0  0  0  0
   17.3378   -2.4095   67.6255 C   0  0  0  0  0  0  0  0  0  0  0  0
   16.5078   -3.6660   67.5526 C   0  0  0  0  0  0  0  0  0  0  0  0
   15.9408   -4.0962   68.8190 N   0  0  0  0  0  0  0  0  0  0  0  0
  1  2  1  0  0  0  0
  2  3  1  0  0  0  0
  3  4  1  0  0  0  0
  4  5  1  0  0  0  0
  5  6  1  0  0  0  0
  6  7  1  0  0  0  0
  7  8  1  0  0  0  0
  8  9  1  0  0  0  0
  9 10  1  0  0  0  0
 10 11  1  0  0  0  0
 11 12  1  0  0  0  0
 12 13  1  0  0  0  0
 13 14  1  0  0  0  0
M  END
>  <CHROM.1>
-71.68518667,177.59849659,109.62261486,-74.22037471,171.18242821,-166.72828786
57.86458403,144.30567268,86.63977030,161.40806874,-76.36123563,18.32293317
0.07765178,69.91337962,0.72884128,1.05540775,1.62265660

>  <Name>
1xpf_lig

>  <RI>
0

>  <Rbt.Current_Directory>
/home/afrankz/demos/rdock_decoys_rna/rnas/1xpf

>  <Rbt.Executable>
rbdock ($Id: //depot/dev/client3/rdock/2013.1/src/exe/rbdock.cxx#4 $)

>  <Rbt.Library>
libRbt.so (2013.1, Build901 2013/11/27)

>  <Rbt.Parameter_File>
/export/apps/rDock/src/rDock_2013.1_src/data/scripts/dock_solv.prm

>  <Rbt.Receptor>
prm/blind_docking_80.prm

>  <SCORE>
-13.8745

>  <SCORE.INTER>
-8.45041

>  <SCORE.INTER.CONST>
1

>  <SCORE.INTER.POLAR>
-1.50975

>  <SCORE.INTER.ROT>
11

>  <SCORE.INTER.SOLV>
11.7061

>  <SCORE.INTER.VDW>
-15.4365

>  <SCORE.INTER.norm>
-0.603601

>  <SCORE.INTRA>
-5.4241

>  <SCORE.INTRA.DIHEDRAL>
-11.5392

>  <SCORE.INTRA.DIHEDRAL.0>
17.7811

>  <SCORE.INTRA.POLAR>
0

>  <SCORE.INTRA.POLAR.0>
0

>  <SCORE.INTRA.REPUL>
0

>  <SCORE.INTRA.REPUL.0>
0

>  <SCORE.INTRA.SOLV>
1.01703

>  <SCORE.INTRA.SOLV.lig_0>
-47.9565

>  <SCORE.INTRA.VDW>
-0.162995

>  <SCORE.INTRA.VDW.0>
0.515983

>  <SCORE.INTRA.norm>
-0.387435

>  <SCORE.RESTR>
0

>  <SCORE.RESTR.CAVITY>
0

>  <SCORE.RESTR.norm>
0

>  <SCORE.SYSTEM>
0

>  <SCORE.SYSTEM.CONST>
0

>  <SCORE.SYSTEM.DIHEDRAL>
0

>  <SCORE.SYSTEM.SOLV>
0

>  <SCORE.SYSTEM.norm>
0

>  <SCORE.heavy>
14

>  <SCORE.norm>
-0.991036

>  <RMSD>
7.808

$$$$
1xpf_lig
 OpenBabel02141814123D
libRbt.so/2013.1/901 2013/11/27
 14 13  0  0  0  0  0  0  0  0999 V2000
   15.3214   -4.0622   69.6729 N   0  0  0  0  0  0  0  0  0  0  0  0
   16.3084   -3.0351   69.9508 C   0  0  0  0  0  0  0  0  0  0  0  0
   16.2234   -1.9348   68.9619 C   0  0  0  0  0  0  0  0  0  0  0  0
   16.9457   -2.4034   67.7371 C   0  0  0  0  0  0  0  0  0  0  0  0
   16.0689   -3.4107   67.0912 N   0  0  0  0  0  0  0  0  0  0  0  0
   16.6852   -3.9077   65.8231 C   0  0  0  0  0  0  0  0  0  0  0  0
   15.6795   -4.5987   64.8861 C   0  0  0  0  0  0  0  0  0  0  0  0
   16.2343   -4.8916   63.4809 C   0  0  0  0  0  0  0  0  0  0  0  0
   15.0965   -5.3494   62.5808 C   0  0  0  0  0  0  0  0  0  0  0  0
   14.7253   -6.6774   63.0908 N   0  0  0  0  0  0  0  0  0  0  0  0
   13.3598   -6.8505   63.6610 C   0  0  0  0  0  0  0  0  0  0  0  0
   13.4683   -8.2938   64.1990 C   0  0  0  0  0  0  0  0  0  0  0  0
   13.8112   -9.4028   63.2370 C   0  0  0  0  0  0  0  0  0  0  0  0
   15.1256   -9.2966   62.6278 N   0  0  0  0  0  0  0  0  0  0  0  0
  1  2  1  0  0  0  0
  2  3  1  0  0  0  0
  3  4  1  0  0  0  0
  4  5  1  0  0  0  0
  5  6  1  0  0  0  0
  6  7  1  0  0  0  0
  7  8  1  0  0  0  0
  8  9  1  0  0  0  0
  9 10  1  0  0  0  0
 10 11  1  0  0  0  0
 11 12  1  0  0  0  0
 12 13  1  0  0  0  0
 13 14  1  0  0  0  0
M  END
>  <CHROM.1>
-80.17900369,73.51156989,177.99514669,-161.95265043,169.71208650,-170.41402792
-69.51362593,115.99367047,-173.86952659,-58.35609993,63.67942646,15.36098457
-5.29368265,65.49998759,1.04205781,1.05469215,1.29993974

>  <Name>
1xpf_lig

>  <RI>
0

>  <Rbt.Current_Directory>
/home/afrankz/demos/rdock_decoys_rna/rnas/1xpf

>  <Rbt.Executable>
rbdock ($Id: //depot/dev/client3/rdock/2013.1/src/exe/rbdock.cxx#4 $)

>  <Rbt.Library>
libRbt.so (2013.1, Build901 2013/11/27)

>  <Rbt.Parameter_File>
/export/apps/rDock/src/rDock_2013.1_src/data/scripts/dock_solv.prm

>  <Rbt.Receptor>
prm/blind_docking_80.prm

>  <SCORE>
-6.8372

>  <SCORE.INTER>
-2.05503

>  <SCORE.INTER.CONST>
1

>  <SCORE.INTER.POLAR>
-1.20726

>  <SCORE.INTER.ROT>
11

>  <SCORE.INTER.SOLV>
14.1758

>  <SCORE.INTER.VDW>
-13.0044

>  <SCORE.INTER.norm>
-0.146788

>  <SCORE.INTRA>
-4.79837

>  <SCORE.INTRA.DIHEDRAL>
-13.082

>  <SCORE.INTRA.DIHEDRAL.0>
17.7811

>  <SCORE.INTRA.POLAR>
0

>  <SCORE.INTRA.POLAR.0>
0

>  <SCORE.INTRA.REPUL>
0

>  <SCORE.INTRA.REPUL.0>
0

>  <SCORE.INTRA.SOLV>
5.61835

>  <SCORE.INTRA.SOLV.lig_0>
-47.9565

>  <SCORE.INTRA.VDW>
-1.06656

>  <SCORE.INTRA.VDW.0>
0.515983

>  <SCORE.INTRA.norm>
-0.342741

>  <SCORE.RESTR>
0.0161997

>  <SCORE.RESTR.CAVITY>
0.0161997

>  <SCORE.RESTR.norm>
0.00115712

>  <SCORE.SYSTEM>
0

>  <SCORE.SYSTEM.CONST>
0

>  <SCORE.SYSTEM.DIHEDRAL>
0

>  <SCORE.SYSTEM.SOLV>
0

>  <SCORE.SYSTEM.norm>
0

>  <SCORE.heavy>
14

>  <SCORE.norm>
-0.488371

>  <RMSD>
7.828

$$$$
1xpf_lig
 OpenBabel02141814123D
libRbt.so/2013.1/901 2013/11/27
 14 13  0  0  0  0  0  0  0  0999 V2000
   17.8586   -4.9931   70.8884 N   0  0  0  0  0  0  0  0  0  0  0  0
   17.0637   -4.3541   69.8561 C   0  0  0  0  0  0  0  0  0  0  0  0
   16.7462   -2.9532   70.2205 C   0  0  0  0  0  0  0  0  0  0  0  0
   16.3216   -2.2685   68.9586 C   0  0  0  0  0  0  0  0  0  0  0  0
   17.5009   -2.2758   68.0587 N   0  0  0  0  0  0  0  0  0  0  0  0
   17.0710   -2.2036   66.6287 C   0  0  0  0  0  0  0  0  0  0  0  0
   16.1986   -3.3937   66.1933 C   0  0  0  0  0  0  0  0  0  0  0  0
   16.7554   -4.7644   66.6169 C   0  0  0  0  0  0  0  0  0  0  0  0
   15.6800   -5.8222   66.4198 C   0  0  0  0  0  0  0  0  0  0  0  0
   15.5624   -5.9709   64.9619 N   0  0  0  0  0  0  0  0  0  0  0  0
   14.3032   -6.5522   64.4179 C   0  0  0  0  0  0  0  0  0  0  0  0
   14.5934   -8.0574   64.6035 C   0  0  0  0  0  0  0  0  0  0  0  0
   15.5726   -8.7276   63.6735 C   0  0  0  0  0  0  0  0  0  0  0  0
   15.1226   -8.8469   62.2975 N   0  0  0  0  0  0  0  0  0  0  0  0
  1  2  1  0  0  0  0
  2  3  1  0  0  0  0
  3  4  1  0  0  0  0
  4  5  1  0  0  0  0
  5  6  1  0  0  0  0
  6  7  1  0  0  0  0
  7  8  1  0  0  0  0
  8  9  1  0  0  0  0
  9 10  1  0  0  0  0
 10 11  1  0  0  0  0
 11 12  1  0  0  0  0
 12 13  1  0  0  0  0
 13 14  1  0  0  0  0
M  END
>  <CHROM.1>
162.64775825,-63.83944752,154.48078517,-61.15800688,-47.08628811,167.30893885
71.11922088,-158.85010002,-82.13199598,-74.13760052,-68.31973243,16.16772830
-5.08437286,66.69970998,-0.27113157,1.28883910,2.71099562

>  <Name>
1xpf_lig

>  <RI>
0

>  <Rbt.Current_Directory>
/home/afrankz/demos/rdock_decoys_rna/rnas/1xpf

>  <Rbt.Executable>
rbdock ($Id: //depot/dev/client3/rdock/2013.1/src/exe/rbdock.cxx#4 $)

>  <Rbt.Library>
libRbt.so (2013.1, Build901 2013/11/27)

>  <Rbt.Parameter_File>
/export/apps/rDock/src/rDock_2013.1_src/data/scripts/dock_solv.prm

>  <Rbt.Receptor>
prm/blind_docking_80.prm

>  <SCORE>
-10.1535

>  <SCORE.INTER>
-5.26103

>  <SCORE.INTER.CONST>
1

>  <SCORE.INTER.POLAR>
-1.68872

>  <SCORE.INTER.ROT>
11

>  <SCORE.INTER.SOLV>
11.5827

>  <SCORE.INTER.VDW>
-12.6725

>  <SCORE.INTER.norm>
-0.375788

>  <SCORE.INTRA>
-4.90608

>  <SCORE.INTRA.DIHEDRAL>
-12.8163

>  <SCORE.INTRA.DIHEDRAL.0>
17.7811

>  <SCORE.INTRA.POLAR>
0

>  <SCORE.INTRA.POLAR.0>
0

>  <SCORE.INTRA.REPUL>
0

>  <SCORE.INTRA.REPUL.0>
0

>  <SCORE.INTRA.SOLV>
2.27985

>  <SCORE.INTRA.SOLV.lig_0>
-47.9565

>  <SCORE.INTRA.VDW>
0.362141

>  <SCORE.INTRA.VDW.0>
0.515983

>  <SCORE.INTRA.norm>
-0.350434

>  <SCORE.RESTR>
0.0136398

>  <SCORE.RESTR.CAVITY>
0.0136398

>  <SCORE.RESTR.norm>
0.000974273

>  <SCORE.SYSTEM>
0

>  <SCORE.SYSTEM.CONST>
0

>  <SCORE.SYSTEM.DIHEDRAL>
0

>  <SCORE.SYSTEM.SOLV>
0

>  <SCORE.SYSTEM.norm>
0

>  <SCORE.heavy>
14

>  <SCORE.norm>
-0.725248

>  <RMSD>
7.836

$$$$
1xpf_lig
 OpenBabel02141814123D
libRbt.so/2013.1/901 2013/11/27
 14 13  0  0  0  0  0  0  0  0999 V2000
   16.0498    0.6292   73.8943 N   0  0  0  0  0  0  0  0  0  0  0  0
   16.1514   -0.6801   73.2764 C   0  0  0  0  0  0  0  0  0  0  0  0
   16.4346   -0.5631   71.8266 C   0  0  0  0  0  0  0  0  0  0  0  0
   16.6617   -1.9539   71.3213 C   0  0  0  0  0  0  0  0  0  0  0  0
   16.8840   -1.8392   69.8590 N   0  0  0  0  0  0  0  0  0  0  0  0
   16.4217   -3.0765   69.1587 C   0  0  0  0  0  0  0  0  0  0  0  0
   16.6688   -3.0464   67.6405 C   0  0  0  0  0  0  0  0  0  0  0  0
   16.3616   -4.3772   66.9311 C   0  0  0  0  0  0  0  0  0  0  0  0
   16.6073   -4.2151   65.4386 C   0  0  0  0  0  0  0  0  0  0  0  0
   16.3839   -5.5540   64.8738 N   0  0  0  0  0  0  0  0  0  0  0  0
   16.3830   -5.6957   63.3907 C   0  0  0  0  0  0  0  0  0  0  0  0
   15.7137   -7.0799   63.2480 C   0  0  0  0  0  0  0  0  0  0  0  0
   15.4623   -7.6250   61.8650 C   0  0  0  0  0  0  0  0  0  0  0  0
   14.7618   -8.8971   61.8293 N   0  0  0  0  0  0  0  0  0  0  0  0
  1  2  1  0  0  0  0
  2  3  1  0  0  0  0
  3  4  1  0  0  0  0
  4  5  1  0  0  0  0
  5  6  1  0  0  0  0
  6  7  1  0  0  0  0
  7  8  1  0  0  0  0
  8  9  1  0  0  0  0
  9 10  1  0  0  0  0
 10 11  1  0  0  0  0
 11 12  1  0  0  0  0
 12 13  1  0  0  0  0
 13 14  1  0  0  0  0
M  END
>  <CHROM.1>
174.16588859,177.49587629,-150.37105742,-177.94888721,172.77079192,178.53469892
175.96356676,172.54955440,-163.76056344,178.09395581,-176.69392119,16.21048499
-3.85524854,67.46803250,1.47066251,0.88725626,1.05090293

>  <Name>
1xpf_lig

>  <RI>
0

>  <Rbt.Current_Directory>
/home/afrankz/demos/rdock_decoys_rna/rnas/1xpf

>  <Rbt.Executable>
rbdock ($Id: //depot/dev/client3/rdock/2013.1/src/exe/rbdock.cxx#4 $)

>  <Rbt.Library>
libRbt.so (2013.1, Build901 2013/11/27)

>  <Rbt.Parameter_File>
/export/apps/rDock/src/rDock_2013.1_src/data/scripts/dock_solv.prm

>  <Rbt.Receptor>
prm/blind_docking_80.prm

>  <SCORE>
-14.6697

>  <SCORE.INTER>
-4.11086

>  <SCORE.INTER.CONST>
1

>  <SCORE.INTER.POLAR>
-1.17606

>  <SCORE.INTER.ROT>
11

>  <SCORE.INTER.SOLV>
13.0286

>  <SCORE.INTER.VDW>
-14.0966

>  <SCORE.INTER.norm>
-0.293633

>  <SCORE.INTRA>
-10.5634

>  <SCORE.INTRA.DIHEDRAL>
-16.4678

>  <SCORE.INTRA.DIHEDRAL.0>
17.7811

>  <SCORE.INTRA.POLAR>
0

>  <SCORE.INTRA.POLAR.0>
0

>  <SCORE.INTRA.REPUL>
0

>  <SCORE.INTRA.REPUL.0>
0

>  <SCORE.INTRA.SOLV>
-0.998947

>  <SCORE.INTRA.SOLV.lig_0>
-47.9565

>  <SCORE.INTRA.VDW>
-1.83004

>  <SCORE.INTRA.VDW.0>
0.515983

>  <SCORE.INTRA.norm>
-0.75453

>  <SCORE.RESTR>
0.00455892

>  <SCORE.RESTR.CAVITY>
0.00455892

>  <SCORE.RESTR.norm>
0.000325637

>  <SCORE.SYSTEM>
0

>  <SCORE.SYSTEM.CONST>
0

>  <SCORE.SYSTEM.DIHEDRAL>
0

>  <SCORE.SYSTEM.SOLV>
0

>  <SCORE.SYSTEM.norm>
0

>  <SCORE.heavy>
14

>  <SCORE.norm>
-1.04784

>  <RMSD>
7.936

$$$$
1xpf_lig
 OpenBabel02141814123D
libRbt.so/2013.1/901 2013/11/27
 14 13  0  0  0  0  0  0  0  0999 V2000
   13.3726   -7.2770   62.1994 N   0  0  0  0  0  0  0  0  0  0  0  0
   12.9418   -8.5393   62.7714 C   0  0  0  0  0  0  0  0  0  0  0  0
   14.0979   -9.4324   63.0198 C   0  0  0  0  0  0  0  0  0  0  0  0
   14.7480   -8.9506   64.2794 C   0  0  0  0  0  0  0  0  0  0  0  0
   15.5327   -7.7460   63.9137 N   0  0  0  0  0  0  0  0  0  0  0  0
   16.1837   -7.1558   65.1232 C   0  0  0  0  0  0  0  0  0  0  0  0
   16.0126   -5.6302   65.2247 C   0  0  0  0  0  0  0  0  0  0  0  0
   16.6211   -5.0167   66.4982 C   0  0  0  0  0  0  0  0  0  0  0  0
   16.4162   -3.5096   66.4728 C   0  0  0  0  0  0  0  0  0  0  0  0
   16.9984   -3.0302   67.7348 N   0  0  0  0  0  0  0  0  0  0  0  0
   16.5606   -1.7012   68.2464 C   0  0  0  0  0  0  0  0  0  0  0  0
   15.6955   -2.1411   69.4473 C   0  0  0  0  0  0  0  0  0  0  0  0
   16.3672   -2.8133   70.6177 C   0  0  0  0  0  0  0  0  0  0  0  0
   17.2888   -1.9696   71.3586 N   0  0  0  0  0  0  0  0  0  0  0  0
  1  2  1  0  0  0  0
  2  3  1  0  0  0  0
  3  4  1  0  0  0  0
  4  5  1  0  0  0  0
  5  6  1  0  0  0  0
  6  7  1  0  0  0  0
  7  8  1  0  0  0  0
  8  9  1  0  0  0  0
  9 10  1  0  0  0  0
 10 11  1  0  0  0  0
 11 12  1  0  0  0  0
 12 13  1  0  0  0  0
 13 14  1  0  0  0  0
M  END
>  <CHROM.1>
78.41230957,-77.48940353,177.86058810,-133.42019866,177.31440991,178.85220036
178.68726326,-159.13767902,108.06992378,66.23764099,65.79774769,15.63114497
-5.35105842,66.20764197,2.35409872,1.17723248,-3.07466131

>  <Name>
1xpf_lig

>  <RI>
0

>  <Rbt.Current_Directory>
/home/afrankz/demos/rdock_decoys_rna/rnas/1xpf

>  <Rbt.Executable>
rbdock ($Id: //depot/dev/client3/rdock/2013.1/src/exe/rbdock.cxx#4 $)

>  <Rbt.Library>
libRbt.so (2013.1, Build901 2013/11/27)

>  <Rbt.Parameter_File>
/export/apps/rDock/src/rDock_2013.1_src/data/scripts/dock_solv.prm

>  <Rbt.Receptor>
prm/blind_docking_80.prm

>  <SCORE>
-7.67435

>  <SCORE.INTER>
-1.68066

>  <SCORE.INTER.CONST>
1

>  <SCORE.INTER.POLAR>
0

>  <SCORE.INTER.ROT>
11

>  <SCORE.INTER.SOLV>
9.3293

>  <SCORE.INTER.VDW>
-15.1635

>  <SCORE.INTER.norm>
-0.120047

>  <SCORE.INTRA>
-5.99369

>  <SCORE.INTRA.DIHEDRAL>
-12.7327

>  <SCORE.INTRA.DIHEDRAL.0>
17.7811

>  <SCORE.INTRA.POLAR>
0

>  <SCORE.INTRA.POLAR.0>
0

>  <SCORE.INTRA.REPUL>
0

>  <SCORE.INTRA.REPUL.0>
0

>  <SCORE.INTRA.SOLV>
3.73338

>  <SCORE.INTRA.SOLV.lig_0>
-47.9565

>  <SCORE.INTRA.VDW>
-1.49403

>  <SCORE.INTRA.VDW.0>
0.515983

>  <SCORE.INTRA.norm>
-0.428121

>  <SCORE.RESTR>
0

>  <SCORE.RESTR.CAVITY>
0

>  <SCORE.RESTR.norm>
0

>  <SCORE.SYSTEM>
0

>  <SCORE.SYSTEM.CONST>
0

>  <SCORE.SYSTEM.DIHEDRAL>
0

>  <SCORE.SYSTEM.SOLV>
0

>  <SCORE.SYSTEM.norm>
0

>  <SCORE.heavy>
14

>  <SCORE.norm>
-0.548168

>  <RMSD>
7.980

$$$$
1xpf_lig
 OpenBabel02141814123D
libRbt.so/2013.1/901 2013/11/27
 14 13  0  0  0  0  0  0  0  0999 V2000
   16.4268  -10.8948   65.1743 N   0  0  0  0  0  0  0  0  0  0  0  0
   15.5249   -9.9933   64.4815 C   0  0  0  0  0  0  0  0  0  0  0  0
   16.2239   -8.7522   64.0730 C   0  0  0  0  0  0  0  0  0  0  0  0
   15.1924   -7.8665   63.4463 C   0  0  0  0  0  0  0  0  0  0  0  0
   15.8977   -6.6306   63.0270 N   0  0  0  0  0  0  0  0  0  0  0  0
   15.2765   -5.4293   63.6643 C   0  0  0  0  0  0  0  0  0  0  0  0
   15.9887   -4.9863   64.9541 C   0  0  0  0  0  0  0  0  0  0  0  0
   15.7621   -5.9300   66.1485 C   0  0  0  0  0  0  0  0  0  0  0  0
   16.6640   -5.5056   67.2976 C   0  0  0  0  0  0  0  0  0  0  0  0
   16.1943   -4.1624   67.6674 N   0  0  0  0  0  0  0  0  0  0  0  0
   17.0161   -3.3743   68.6281 C   0  0  0  0  0  0  0  0  0  0  0  0
   15.9098   -2.5552   69.3277 C   0  0  0  0  0  0  0  0  0  0  0  0
   16.2932   -1.6375   70.4607 C   0  0  0  0  0  0  0  0  0  0  0  0
   16.8726   -2.3029   71.6147 N   0  0  0  0  0  0  0  0  0  0  0  0
  1  2  1  0  0  0  0
  2  3  1  0  0  0  0
  3  4  1  0  0  0  0
  4  5  1  0  0  0  0
  5  6  1  0  0  0  0
  6  7  1  0  0  0  0
  7  8  1  0  0  0  0
  8  9  1  0  0  0  0
  9 10  1  0  0  0  0
 10 11  1  0  0  0  0
 11 12  1  0  0  0  0
 12 13  1  0  0  0  0
 13 14  1  0  0  0  0
M  END
>  <CHROM.1>
-176.69676150,-179.47886540,-122.58747614,95.59012211,-71.82983227,171.99203715
63.90916995,-170.44433027,-148.90792540,176.98912327,-62.22646485,16.08868343
-5.71566224,66.42589789,-1.95342254,-1.35392532,0.39216286

>  <Name>
1xpf_lig

>  <RI>
0

>  <Rbt.Current_Directory>
/home/afrankz/demos/rdock_decoys_rna/rnas/1xpf

>  <Rbt.Executable>
rbdock ($Id: //depot/dev/client3/rdock/2013.1/src/exe/rbdock.cxx#4 $)

>  <Rbt.Library>
libRbt.so (2013.1, Build901 2013/11/27)

>  <Rbt.Parameter_File>
/export/apps/rDock/src/rDock_2013.1_src/data/scripts/dock_solv.prm

>  <Rbt.Receptor>
prm/blind_docking_80.prm

>  <SCORE>
-7.0434

>  <SCORE.INTER>
1.5068

>  <SCORE.INTER.CONST>
1

>  <SCORE.INTER.POLAR>
0

>  <SCORE.INTER.ROT>
11

>  <SCORE.INTER.SOLV>
12.2235

>  <SCORE.INTER.VDW>
-14.0033

>  <SCORE.INTER.norm>
0.107629

>  <SCORE.INTRA>
-8.55021

>  <SCORE.INTRA.DIHEDRAL>
-14.175

>  <SCORE.INTRA.DIHEDRAL.0>
17.7811

>  <SCORE.INTRA.POLAR>
0

>  <SCORE.INTRA.POLAR.0>
0

>  <SCORE.INTRA.REPUL>
0

>  <SCORE.INTRA.REPUL.0>
0

>  <SCORE.INTRA.SOLV>
0.435719

>  <SCORE.INTRA.SOLV.lig_0>
-47.9565

>  <SCORE.INTRA.VDW>
-1.68056

>  <SCORE.INTRA.VDW.0>
0.515983

>  <SCORE.INTRA.norm>
-0.610729

>  <SCORE.RESTR>
0

>  <SCORE.RESTR.CAVITY>
0

>  <SCORE.RESTR.norm>
0

>  <SCORE.SYSTEM>
0

>  <SCORE.SYSTEM.CONST>
0

>  <SCORE.SYSTEM.DIHEDRAL>
0

>  <SCORE.SYSTEM.SOLV>
0

>  <SCORE.SYSTEM.norm>
0

>  <SCORE.heavy>
14

>  <SCORE.norm>
-0.5031

>  <RMSD>
8.005

$$$$
1xpf_lig
 OpenBabel02141814123D
libRbt.so/2013.1/901 2013/11/27
 14 13  0  0  0  0  0  0  0  0999 V2000
   20.1273    3.0062   70.2665 N   0  0  0  0  0  0  0  0  0  0  0  0
   19.9289    1.8665   69.3902 C   0  0  0  0  0  0  0  0  0  0  0  0
   19.4264    2.2967   68.0642 C   0  0  0  0  0  0  0  0  0  0  0  0
   19.1735    1.0487   67.2769 C   0  0  0  0  0  0  0  0  0  0  0  0
   17.9464    0.4361   67.8423 N   0  0  0  0  0  0  0  0  0  0  0  0
   17.4631   -0.6755   66.9672 C   0  0  0  0  0  0  0  0  0  0  0  0
   16.3435   -1.5137   67.6084 C   0  0  0  0  0  0  0  0  0  0  0  0
   16.7937   -2.3201   68.8394 C   0  0  0  0  0  0  0  0  0  0  0  0
   15.5875   -2.5935   69.7250 C   0  0  0  0  0  0  0  0  0  0  0  0
   16.1546   -2.9221   71.0410 N   0  0  0  0  0  0  0  0  0  0  0  0
   16.0846   -1.8873   72.1105 C   0  0  0  0  0  0  0  0  0  0  0  0
   17.4576   -1.2060   71.9231 C   0  0  0  0  0  0  0  0  0  0  0  0
   17.8925   -0.1635   72.9216 C   0  0  0  0  0  0  0  0  0  0  0  0
   17.0058    0.9818   73.0323 N   0  0  0  0  0  0  0  0  0  0  0  0
  1  2  1  0  0  0  0
  2  3  1  0  0  0  0
  3  4  1  0  0  0  0
  4  5  1  0  0  0  0
  5  6  1  0  0  0  0
  6  7  1  0  0  0  0
  7  8  1  0  0  0  0
  8  9  1  0  0  0  0
  9 10  1  0  0  0  0
 10 11  1  0  0  0  0
 11 12  1  0  0  0  0
 12 13  1  0  0  0  0
 13 14  1  0  0  0  0
M  END
>  <CHROM.1>
-176.39938197,73.46573631,169.45044254,169.98858085,-66.53419532,155.31202830
-160.73548374,104.27072444,-93.45886703,-173.27565079,-59.31840637,17.67033099
-0.26065709,69.78602501,-0.42328690,0.92838564,1.45601475

>  <Name>
1xpf_lig

>  <RI>
0

>  <Rbt.Current_Directory>
/home/afrankz/demos/rdock_decoys_rna/rnas/1xpf

>  <Rbt.Executable>
rbdock ($Id: //depot/dev/client3/rdock/2013.1/src/exe/rbdock.cxx#4 $)

>  <Rbt.Library>
libRbt.so (2013.1, Build901 2013/11/27)

>  <Rbt.Parameter_File>
/export/apps/rDock/src/rDock_2013.1_src/data/scripts/dock_solv.prm

>  <Rbt.Receptor>
prm/blind_docking_80.prm

>  <SCORE>
-12.785

>  <SCORE.INTER>
-5.77193

>  <SCORE.INTER.CONST>
1

>  <SCORE.INTER.POLAR>
-0.8

>  <SCORE.INTER.ROT>
11

>  <SCORE.INTER.SOLV>
13.0871

>  <SCORE.INTER.VDW>
-16.477

>  <SCORE.INTER.norm>
-0.41228

>  <SCORE.INTRA>
-7.01305

>  <SCORE.INTRA.DIHEDRAL>
-11.3486

>  <SCORE.INTRA.DIHEDRAL.0>
17.7811

>  <SCORE.INTRA.POLAR>
0

>  <SCORE.INTRA.POLAR.0>
0

>  <SCORE.INTRA.REPUL>
0

>  <SCORE.INTRA.REPUL.0>
0

>  <SCORE.INTRA.SOLV>
0.736707

>  <SCORE.INTRA.SOLV.lig_0>
-47.9565

>  <SCORE.INTRA.VDW>
-1.7071

>  <SCORE.INTRA.VDW.0>
0.515983

>  <SCORE.INTRA.norm>
-0.500932

>  <SCORE.RESTR>
0

>  <SCORE.RESTR.CAVITY>
0

>  <SCORE.RESTR.norm>
0

>  <SCORE.SYSTEM>
0

>  <SCORE.SYSTEM.CONST>
0

>  <SCORE.SYSTEM.DIHEDRAL>
0

>  <SCORE.SYSTEM.SOLV>
0

>  <SCORE.SYSTEM.norm>
0

>  <SCORE.heavy>
14

>  <SCORE.norm>
-0.913213

>  <RMSD>
8.008

$$$$
1xpf_lig
 OpenBabel02141814123D
libRbt.so/2013.1/901 2013/11/27
 14 13  0  0  0  0  0  0  0  0999 V2000
   18.1022    1.0732   73.0703 N   0  0  0  0  0  0  0  0  0  0  0  0
   17.3012    0.0272   73.6789 C   0  0  0  0  0  0  0  0  0  0  0  0
   16.2298   -0.4244   72.7602 C   0  0  0  0  0  0  0  0  0  0  0  0
   16.9109   -1.0553   71.5857 C   0  0  0  0  0  0  0  0  0  0  0  0
   15.8500   -1.7244   70.7936 N   0  0  0  0  0  0  0  0  0  0  0  0
   16.0459   -3.2065   70.7991 C   0  0  0  0  0  0  0  0  0  0  0  0
   15.9816   -3.8355   69.3966 C   0  0  0  0  0  0  0  0  0  0  0  0
   17.0739   -3.3331   68.4359 C   0  0  0  0  0  0  0  0  0  0  0  0
   16.7166   -1.9320   67.9633 C   0  0  0  0  0  0  0  0  0  0  0  0
   17.9896   -1.3523   67.5107 N   0  0  0  0  0  0  0  0  0  0  0  0
   17.9697    0.0294   66.9539 C   0  0  0  0  0  0  0  0  0  0  0  0
   19.4853    0.3129   66.8697 C   0  0  0  0  0  0  0  0  0  0  0  0
   19.9447    1.6647   66.3855 C   0  0  0  0  0  0  0  0  0  0  0  0
   19.5787    1.9780   65.0151 N   0  0  0  0  0  0  0  0  0  0  0  0
  1  2  1  0  0  0  0
  2  3  1  0  0  0  0
  3  4  1  0  0  0  0
  4  5  1  0  0  0  0
  5  6  1  0  0  0  0
  6  7  1  0  0  0  0
  7  8  1  0  0  0  0
  8  9  1  0  0  0  0
  9 10  1  0  0  0  0
 10 11  1  0  0  0  0
 11 12  1  0  0  0  0
 12 13  1  0  0  0  0
 13 14  1  0  0  0  0
M  END
>  <CHROM.1>
64.94229092,169.83274874,-114.68062806,-130.81393374,62.00389328,-75.47308161
158.82588998,178.77492622,169.94697344,-177.94558840,-63.24753181,17.51269773
-0.84162502,69.37286289,-2.37860293,-1.02034766,-1.97616169

>  <Name>
1xpf_lig

>  <RI>
0

>  <Rbt.Current_Directory>
/home/afrankz/demos/rdock_decoys_rna/rnas/1xpf

>  <Rbt.Executable>
rbdock ($Id: //depot/dev/client3/rdock/2013.1/src/exe/rbdock.cxx#4 $)

>  <Rbt.Library>
libRbt.so (2013.1, Build901 2013/11/27)

>  <Rbt.Parameter_File>
/export/apps/rDock/src/rDock_2013.1_src/data/scripts/dock_solv.prm

>  <Rbt.Receptor>
prm/blind_docking_80.prm

>  <SCORE>
-13.1691

>  <SCORE.INTER>
-6.7369

>  <SCORE.INTER.CONST>
1

>  <SCORE.INTER.POLAR>
-0.8

>  <SCORE.INTER.ROT>
11

>  <SCORE.INTER.SOLV>
11.6673

>  <SCORE.INTER.VDW>
-16.647

>  <SCORE.INTER.norm>
-0.481207

>  <SCORE.INTRA>
-6.43222

>  <SCORE.INTRA.DIHEDRAL>
-12.3906

>  <SCORE.INTRA.DIHEDRAL.0>
17.7811

>  <SCORE.INTRA.POLAR>
0

>  <SCORE.INTRA.POLAR.0>
0

>  <SCORE.INTRA.REPUL>
0

>  <SCORE.INTRA.REPUL.0>
0

>  <SCORE.INTRA.SOLV>
2.04429

>  <SCORE.INTRA.SOLV.lig_0>
-47.9565

>  <SCORE.INTRA.VDW>
-1.25905

>  <SCORE.INTRA.VDW.0>
0.515983

>  <SCORE.INTRA.norm>
-0.459444

>  <SCORE.RESTR>
0

>  <SCORE.RESTR.CAVITY>
0

>  <SCORE.RESTR.norm>
0

>  <SCORE.SYSTEM>
0

>  <SCORE.SYSTEM.CONST>
0

>  <SCORE.SYSTEM.DIHEDRAL>
0

>  <SCORE.SYSTEM.SOLV>
0

>  <SCORE.SYSTEM.norm>
0

>  <SCORE.heavy>
14

>  <SCORE.norm>
-0.940651

>  <RMSD>
8.070

$$$$
1xpf_lig
 OpenBabel02141814123D
libRbt.so/2013.1/901 2013/11/27
 14 13  0  0  0  0  0  0  0  0999 V2000
   20.8554    3.4774   69.0056 N   0  0  0  0  0  0  0  0  0  0  0  0
   19.7259    2.6099   68.7265 C   0  0  0  0  0  0  0  0  0  0  0  0
   19.4679    1.6917   69.8606 C   0  0  0  0  0  0  0  0  0  0  0  0
   19.0967    2.5496   71.0300 C   0  0  0  0  0  0  0  0  0  0  0  0
   18.4761    1.6492   72.0323 N   0  0  0  0  0  0  0  0  0  0  0  0
   19.5069    1.1322   72.9837 C   0  0  0  0  0  0  0  0  0  0  0  0
   19.0321   -0.0860   73.7946 C   0  0  0  0  0  0  0  0  0  0  0  0
   18.6685   -1.3075   72.9319 C   0  0  0  0  0  0  0  0  0  0  0  0
   17.3544   -1.0381   72.2145 C   0  0  0  0  0  0  0  0  0  0  0  0
   17.2130   -2.1478   71.2605 N   0  0  0  0  0  0  0  0  0  0  0  0
   16.1460   -2.0482   70.2255 C   0  0  0  0  0  0  0  0  0  0  0  0
   16.3479   -3.3926   69.4934 C   0  0  0  0  0  0  0  0  0  0  0  0
   16.0051   -4.6707   70.2158 C   0  0  0  0  0  0  0  0  0  0  0  0
   16.2104   -5.8825   69.4414 N   0  0  0  0  0  0  0  0  0  0  0  0
  1  2  1  0  0  0  0
  2  3  1  0  0  0  0
  3  4  1  0  0  0  0
  4  5  1  0  0  0  0
  5  6  1  0  0  0  0
  6  7  1  0  0  0  0
  7  8  1  0  0  0  0
  8  9  1  0  0  0  0
  9 10  1  0  0  0  0
 10 11  1  0  0  0  0
 11 12  1  0  0  0  0
 12 13  1  0  0  0  0
 13 14  1  0  0  0  0
M  END
>  <CHROM.1>
63.26758334,164.38171200,91.80640168,-164.08189996,61.05040051,-72.80197889
170.85754825,-169.06353430,-179.14832900,68.78526064,179.19541084,18.15043394
-0.53302339,70.94423193,0.05519348,-1.08900605,-1.45216542

>  <Name>
1xpf_lig

>  <RI>
0

>  <Rbt.Current_Directory>
/home/afrankz/demos/rdock_decoys_rna/rnas/1xpf

>  <Rbt.Executable>
rbdock ($Id: //depot/dev/client3/rdock/2013.1/src/exe/rbdock.cxx#4 $)

>  <Rbt.Library>
libRbt.so (2013.1, Build901 2013/11/27)

>  <Rbt.Parameter_File>
/export/apps/rDock/src/rDock_2013.1_src/data/scripts/dock_solv.prm

>  <Rbt.Receptor>
prm/blind_docking_80.prm

>  <SCORE>
-7.55693

>  <SCORE.INTER>
-0.314766

>  <SCORE.INTER.CONST>
1

>  <SCORE.INTER.POLAR>
0

>  <SCORE.INTER.ROT>
11

>  <SCORE.INTER.SOLV>
9.23236

>  <SCORE.INTER.VDW>
-14.2206

>  <SCORE.INTER.norm>
-0.0224833

>  <SCORE.INTRA>
-7.28409

>  <SCORE.INTRA.DIHEDRAL>
-14.6528

>  <SCORE.INTRA.DIHEDRAL.0>
17.7811

>  <SCORE.INTRA.POLAR>
0

>  <SCORE.INTRA.POLAR.0>
0

>  <SCORE.INTRA.REPUL>
0

>  <SCORE.INTRA.REPUL.0>
0

>  <SCORE.INTRA.SOLV>
1.59008

>  <SCORE.INTRA.SOLV.lig_0>
-47.9565

>  <SCORE.INTRA.VDW>
-0.752743

>  <SCORE.INTRA.VDW.0>
0.515983

>  <SCORE.INTRA.norm>
-0.520292

>  <SCORE.RESTR>
0.0419241

>  <SCORE.RESTR.CAVITY>
0.0419241

>  <SCORE.RESTR.norm>
0.00299458

>  <SCORE.SYSTEM>
0

>  <SCORE.SYSTEM.CONST>
0

>  <SCORE.SYSTEM.DIHEDRAL>
0

>  <SCORE.SYSTEM.SOLV>
0

>  <SCORE.SYSTEM.norm>
0

>  <SCORE.heavy>
14

>  <SCORE.norm>
-0.539781

>  <RMSD>
8.072

$$$$
1xpf_lig
 OpenBabel02141814123D
libRbt.so/2013.1/901 2013/11/27
 14 13  0  0  0  0  0  0  0  0999 V2000
   17.5617   -1.7985   68.0847 N   0  0  0  0  0  0  0  0  0  0  0  0
   16.3956   -2.5885   68.4343 C   0  0  0  0  0  0  0  0  0  0  0  0
   16.5914   -4.0128   68.0751 C   0  0  0  0  0  0  0  0  0  0  0  0
   16.5454   -4.0874   66.5806 C   0  0  0  0  0  0  0  0  0  0  0  0
   16.7948   -5.5051   66.2222 N   0  0  0  0  0  0  0  0  0  0  0  0
   16.9845   -5.6485   64.7463 C   0  0  0  0  0  0  0  0  0  0  0  0
   16.0068   -6.6449   64.0996 C   0  0  0  0  0  0  0  0  0  0  0  0
   16.2043   -6.8193   62.5834 C   0  0  0  0  0  0  0  0  0  0  0  0
   15.1586   -7.7880   62.0522 C   0  0  0  0  0  0  0  0  0  0  0  0
   15.5824   -9.1062   62.5463 N   0  0  0  0  0  0  0  0  0  0  0  0
   14.8197   -9.7076   63.6759 C   0  0  0  0  0  0  0  0  0  0  0  0
   15.9127  -10.6028   64.2990 C   0  0  0  0  0  0  0  0  0  0  0  0
   17.0775   -9.9468   64.9961 C   0  0  0  0  0  0  0  0  0  0  0  0
   18.0724  -10.8675   65.5184 N   0  0  0  0  0  0  0  0  0  0  0  0
  1  2  1  0  0  0  0
  2  3  1  0  0  0  0
  3  4  1  0  0  0  0
  4  5  1  0  0  0  0
  5  6  1  0  0  0  0
  6  7  1  0  0  0  0
  7  8  1  0  0  0  0
  8  9  1  0  0  0  0
  9 10  1  0  0  0  0
 10 11  1  0  0  0  0
 11 12  1  0  0  0  0
 12 13  1  0  0  0  0
 13 14  1  0  0  0  0
M  END
>  <CHROM.1>
-70.99785209,177.82471010,-171.03205947,-123.49255435,-179.10806243,-178.20766934
-72.39589975,105.24299876,-153.26941196,69.21647590,-178.40250278,16.40745524
-6.79454434,65.13654335,-1.31421237,1.15064378,-2.82089435

>  <Name>
1xpf_lig

>  <RI>
0

>  <Rbt.Current_Directory>
/home/afrankz/demos/rdock_decoys_rna/rnas/1xpf

>  <Rbt.Executable>
rbdock ($Id: //depot/dev/client3/rdock/2013.1/src/exe/rbdock.cxx#4 $)

>  <Rbt.Library>
libRbt.so (2013.1, Build901 2013/11/27)

>  <Rbt.Parameter_File>
/export/apps/rDock/src/rDock_2013.1_src/data/scripts/dock_solv.prm

>  <Rbt.Receptor>
prm/pocket_docking_8.prm

>  <SCORE>
-15.4083

>  <SCORE.INTER>
-7.37132

>  <SCORE.INTER.CONST>
1

>  <SCORE.INTER.POLAR>
-1.57153

>  <SCORE.INTER.ROT>
11

>  <SCORE.INTER.SOLV>
15.3682

>  <SCORE.INTER.VDW>
-15.7319

>  <SCORE.INTER.norm>
-0.526523

>  <SCORE.INTRA>
-8.03703

>  <SCORE.INTRA.DIHEDRAL>
-13.6332

>  <SCORE.INTRA.DIHEDRAL.0>
17.7811

>  <SCORE.INTRA.POLAR>
0

>  <SCORE.INTRA.POLAR.0>
0

>  <SCORE.INTRA.REPUL>
0

>  <SCORE.INTRA.REPUL.0>
0

>  <SCORE.INTRA.SOLV>
0.758437

>  <SCORE.INTRA.SOLV.lig_0>
-47.9565

>  <SCORE.INTRA.VDW>
-1.59964

>  <SCORE.INTRA.VDW.0>
0.515983

>  <SCORE.INTRA.norm>
-0.574073

>  <SCORE.RESTR>
0

>  <SCORE.RESTR.CAVITY>
0

>  <SCORE.RESTR.norm>
0

>  <SCORE.SYSTEM>
0

>  <SCORE.SYSTEM.CONST>
0

>  <SCORE.SYSTEM.DIHEDRAL>
0

>  <SCORE.SYSTEM.SOLV>
0

>  <SCORE.SYSTEM.norm>
0

>  <SCORE.heavy>
14

>  <SCORE.norm>
-1.1006

>  <RMSD>
8.075

$$$$
1xpf_lig
 OpenBabel02141814123D
libRbt.so/2013.1/901 2013/11/27
 14 13  0  0  0  0  0  0  0  0999 V2000
   15.1411   -8.9925   62.1811 N   0  0  0  0  0  0  0  0  0  0  0  0
   16.0506   -8.2686   63.0501 C   0  0  0  0  0  0  0  0  0  0  0  0
   15.4519   -8.0585   64.3893 C   0  0  0  0  0  0  0  0  0  0  0  0
   16.3889   -7.1655   65.1416 C   0  0  0  0  0  0  0  0  0  0  0  0
   15.7577   -6.9078   66.4591 N   0  0  0  0  0  0  0  0  0  0  0  0
   16.6190   -6.0098   67.2877 C   0  0  0  0  0  0  0  0  0  0  0  0
   16.3001   -4.5163   67.1011 C   0  0  0  0  0  0  0  0  0  0  0  0
   16.9084   -3.6076   68.1841 C   0  0  0  0  0  0  0  0  0  0  0  0
   16.3969   -2.1883   67.9892 C   0  0  0  0  0  0  0  0  0  0  0  0
   16.8632   -1.4550   69.1751 N   0  0  0  0  0  0  0  0  0  0  0  0
   16.1582   -1.6927   70.4659 C   0  0  0  0  0  0  0  0  0  0  0  0
   17.0596   -0.8837   71.4237 C   0  0  0  0  0  0  0  0  0  0  0  0
   16.8367   -1.0096   72.9094 C   0  0  0  0  0  0  0  0  0  0  0  0
   15.5111   -0.6245   73.3617 N   0  0  0  0  0  0  0  0  0  0  0  0
  1  2  1  0  0  0  0
  2  3  1  0  0  0  0
  3  4  1  0  0  0  0
  4  5  1  0  0  0  0
  5  6  1  0  0  0  0
  6  7  1  0  0  0  0
  7  8  1  0  0  0  0
  8  9  1  0  0  0  0
  9 10  1  0  0  0  0
 10 11  1  0  0  0  0
 11 12  1  0  0  0  0
 12 13  1  0  0  0  0
 13 14  1  0  0  0  0
M  END
>  <CHROM.1>
-173.11763095,177.51985057,-179.58855107,90.65418887,165.28354592,-173.50996484
171.65061684,-75.03236505,173.49640962,-170.82438077,-59.60688081,16.24613752
-4.38428054,67.79422738,-1.79713988,1.26107108,1.05608924

>  <Name>
1xpf_lig

>  <RI>
0

>  <Rbt.Current_Directory>
/home/afrankz/demos/rdock_decoys_rna/rnas/1xpf

>  <Rbt.Executable>
rbdock ($Id: //depot/dev/client3/rdock/2013.1/src/exe/rbdock.cxx#4 $)

>  <Rbt.Library>
libRbt.so (2013.1, Build901 2013/11/27)

>  <Rbt.Parameter_File>
/export/apps/rDock/src/rDock_2013.1_src/data/scripts/dock_solv.prm

>  <Rbt.Receptor>
prm/blind_docking_80.prm

>  <SCORE>
-13.9498

>  <SCORE.INTER>
-5.06144

>  <SCORE.INTER.CONST>
1

>  <SCORE.INTER.POLAR>
-1.51713

>  <SCORE.INTER.ROT>
11

>  <SCORE.INTER.SOLV>
16.679

>  <SCORE.INTER.VDW>
-14.8102

>  <SCORE.INTER.norm>
-0.361531

>  <SCORE.INTRA>
-8.88838

>  <SCORE.INTRA.DIHEDRAL>
-15.2217

>  <SCORE.INTRA.DIHEDRAL.0>
17.7811

>  <SCORE.INTRA.POLAR>
0

>  <SCORE.INTRA.POLAR.0>
0

>  <SCORE.INTRA.REPUL>
0

>  <SCORE.INTRA.REPUL.0>
0

>  <SCORE.INTRA.SOLV>
-0.342056

>  <SCORE.INTRA.SOLV.lig_0>
-47.9565

>  <SCORE.INTRA.VDW>
-1.10648

>  <SCORE.INTRA.VDW.0>
0.515983

>  <SCORE.INTRA.norm>
-0.634885

>  <SCORE.RESTR>
0

>  <SCORE.RESTR.CAVITY>
0

>  <SCORE.RESTR.norm>
0

>  <SCORE.SYSTEM>
0

>  <SCORE.SYSTEM.CONST>
0

>  <SCORE.SYSTEM.DIHEDRAL>
0

>  <SCORE.SYSTEM.SOLV>
0

>  <SCORE.SYSTEM.norm>
0

>  <SCORE.heavy>
14

>  <SCORE.norm>
-0.996416

>  <RMSD>
8.083

$$$$
1xpf_lig
 OpenBabel02141814123D
libRbt.so/2013.1/901 2013/11/27
 14 13  0  0  0  0  0  0  0  0999 V2000
   15.3284   -9.6613   62.6706 N   0  0  0  0  0  0  0  0  0  0  0  0
   15.4794  -10.3043   63.9628 C   0  0  0  0  0  0  0  0  0  0  0  0
   15.3393   -9.3231   65.0644 C   0  0  0  0  0  0  0  0  0  0  0  0
   16.5377   -8.4285   64.9956 C   0  0  0  0  0  0  0  0  0  0  0  0
   16.3781   -7.4273   66.0786 N   0  0  0  0  0  0  0  0  0  0  0  0
   17.4155   -6.3572   65.9620 C   0  0  0  0  0  0  0  0  0  0  0  0
   16.8237   -4.9579   65.7198 C   0  0  0  0  0  0  0  0  0  0  0  0
   15.9818   -4.4242   66.8923 C   0  0  0  0  0  0  0  0  0  0  0  0
   16.9019   -4.0971   68.0588 C   0  0  0  0  0  0  0  0  0  0  0  0
   16.0019   -3.6578   69.1352 N   0  0  0  0  0  0  0  0  0  0  0  0
   16.0540   -2.2279   69.5499 C   0  0  0  0  0  0  0  0  0  0  0  0
   16.0596   -2.3878   71.0857 C   0  0  0  0  0  0  0  0  0  0  0  0
   16.0869   -1.1486   71.9440 C   0  0  0  0  0  0  0  0  0  0  0  0
   17.2895   -0.3441   71.8151 N   0  0  0  0  0  0  0  0  0  0  0  0
  1  2  1  0  0  0  0
  2  3  1  0  0  0  0
  3  4  1  0  0  0  0
  4  5  1  0  0  0  0
  5  6  1  0  0  0  0
  6  7  1  0  0  0  0
  7  8  1  0  0  0  0
  8  9  1  0  0  0  0
  9 10  1  0  0  0  0
 10 11  1  0  0  0  0
 11 12  1  0  0  0  0
 12 13  1  0  0  0  0
 13 14  1  0  0  0  0
M  END
>  <CHROM.1>
-68.70035096,178.65498581,-171.17777302,117.81185689,65.21393522,70.31188679
-177.54373062,-112.09111405,-134.73436614,-179.06852080,-64.34144535,16.26270037
-5.33911683,67.35246119,-1.68438427,0.98720883,0.82497756

>  <Name>
1xpf_lig

>  <RI>
0

>  <Rbt.Current_Directory>
/home/afrankz/demos/rdock_decoys_rna/rnas/1xpf

>  <Rbt.Executable>
rbdock ($Id: //depot/dev/client3/rdock/2013.1/src/exe/rbdock.cxx#4 $)

>  <Rbt.Library>
libRbt.so (2013.1, Build901 2013/11/27)

>  <Rbt.Parameter_File>
/export/apps/rDock/src/rDock_2013.1_src/data/scripts/dock_solv.prm

>  <Rbt.Receptor>
prm/blind_docking_80.prm

>  <SCORE>
-9.6084

>  <SCORE.INTER>
-2.39958

>  <SCORE.INTER.CONST>
1

>  <SCORE.INTER.POLAR>
-0.894427

>  <SCORE.INTER.ROT>
11

>  <SCORE.INTER.SOLV>
16.1769

>  <SCORE.INTER.VDW>
-14.9439

>  <SCORE.INTER.norm>
-0.171399

>  <SCORE.INTRA>
-7.20882

>  <SCORE.INTRA.DIHEDRAL>
-13.4198

>  <SCORE.INTRA.DIHEDRAL.0>
17.7811

>  <SCORE.INTRA.POLAR>
0

>  <SCORE.INTRA.POLAR.0>
0

>  <SCORE.INTRA.REPUL>
0

>  <SCORE.INTRA.REPUL.0>
0

>  <SCORE.INTRA.SOLV>
1.17079

>  <SCORE.INTRA.SOLV.lig_0>
-47.9565

>  <SCORE.INTRA.VDW>
-1.08431

>  <SCORE.INTRA.VDW.0>
0.515983

>  <SCORE.INTRA.norm>
-0.514916

>  <SCORE.RESTR>
0

>  <SCORE.RESTR.CAVITY>
0

>  <SCORE.RESTR.norm>
0

>  <SCORE.SYSTEM>
0

>  <SCORE.SYSTEM.CONST>
0

>  <SCORE.SYSTEM.DIHEDRAL>
0

>  <SCORE.SYSTEM.SOLV>
0

>  <SCORE.SYSTEM.norm>
0

>  <SCORE.heavy>
14

>  <SCORE.norm>
-0.686314

>  <RMSD>
8.147

$$$$
1xpf_lig
 OpenBabel02141814123D
libRbt.so/2013.1/901 2013/11/27
 14 13  0  0  0  0  0  0  0  0999 V2000
   14.5004   -9.2422   62.3415 N   0  0  0  0  0  0  0  0  0  0  0  0
   14.5386   -9.3519   63.7881 C   0  0  0  0  0  0  0  0  0  0  0  0
   15.9348   -9.3522   64.2844 C   0  0  0  0  0  0  0  0  0  0  0  0
   16.3757   -7.9220   64.3226 C   0  0  0  0  0  0  0  0  0  0  0  0
   15.7097   -7.3077   65.4972 N   0  0  0  0  0  0  0  0  0  0  0  0
   16.2962   -5.9642   65.7907 C   0  0  0  0  0  0  0  0  0  0  0  0
   15.9568   -5.4449   67.1985 C   0  0  0  0  0  0  0  0  0  0  0  0
   16.6018   -4.0891   67.5365 C   0  0  0  0  0  0  0  0  0  0  0  0
   16.3479   -3.7673   69.0015 C   0  0  0  0  0  0  0  0  0  0  0  0
   17.0335   -2.4868   69.2290 N   0  0  0  0  0  0  0  0  0  0  0  0
   16.3386   -1.4586   70.0533 C   0  0  0  0  0  0  0  0  0  0  0  0
   16.5531   -2.0476   71.4644 C   0  0  0  0  0  0  0  0  0  0  0  0
   16.0580   -1.2707   72.6578 C   0  0  0  0  0  0  0  0  0  0  0  0
   16.7809   -0.0397   72.9265 N   0  0  0  0  0  0  0  0  0  0  0  0
  1  2  1  0  0  0  0
  2  3  1  0  0  0  0
  3  4  1  0  0  0  0
  4  5  1  0  0  0  0
  5  6  1  0  0  0  0
  6  7  1  0  0  0  0
  7  8  1  0  0  0  0
  8  9  1  0  0  0  0
  9 10  1  0  0  0  0
 10 11  1  0  0  0  0
 11 12  1  0  0  0  0
 12 13  1  0  0  0  0
 13 14  1  0  0  0  0
M  END
>  <CHROM.1>
80.89582151,74.92600459,168.37557290,-163.48983454,177.60763090,-172.69123802
178.30510491,138.23395753,76.06284685,176.82896049,-68.85727601,16.07330177
-4.98187706,67.57804836,1.75668043,-0.92285105,-2.18654547

>  <Name>
1xpf_lig

>  <RI>
0

>  <Rbt.Current_Directory>
/home/afrankz/demos/rdock_decoys_rna/rnas/1xpf

>  <Rbt.Executable>
rbdock ($Id: //depot/dev/client3/rdock/2013.1/src/exe/rbdock.cxx#4 $)

>  <Rbt.Library>
libRbt.so (2013.1, Build901 2013/11/27)

>  <Rbt.Parameter_File>
/export/apps/rDock/src/rDock_2013.1_src/data/scripts/dock_solv.prm

>  <Rbt.Receptor>
prm/blind_docking_80.prm

>  <SCORE>
-12.4272

>  <SCORE.INTER>
-5.58476

>  <SCORE.INTER.CONST>
1

>  <SCORE.INTER.POLAR>
-1.29678

>  <SCORE.INTER.ROT>
11

>  <SCORE.INTER.SOLV>
12.3765

>  <SCORE.INTER.VDW>
-14.4594

>  <SCORE.INTER.norm>
-0.398911

>  <SCORE.INTRA>
-6.84935

>  <SCORE.INTRA.DIHEDRAL>
-13.4383

>  <SCORE.INTRA.DIHEDRAL.0>
17.7811

>  <SCORE.INTRA.POLAR>
0

>  <SCORE.INTRA.POLAR.0>
0

>  <SCORE.INTRA.REPUL>
0

>  <SCORE.INTRA.REPUL.0>
0

>  <SCORE.INTRA.SOLV>
0.978505

>  <SCORE.INTRA.SOLV.lig_0>
-47.9565

>  <SCORE.INTRA.VDW>
-0.61944

>  <SCORE.INTRA.VDW.0>
0.515983

>  <SCORE.INTRA.norm>
-0.489239

>  <SCORE.RESTR>
0.00693037

>  <SCORE.RESTR.CAVITY>
0.00693037

>  <SCORE.RESTR.norm>
0.000495026

>  <SCORE.SYSTEM>
0

>  <SCORE.SYSTEM.CONST>
0

>  <SCORE.SYSTEM.DIHEDRAL>
0

>  <SCORE.SYSTEM.SOLV>
0

>  <SCORE.SYSTEM.norm>
0

>  <SCORE.heavy>
14

>  <SCORE.norm>
-0.887655

>  <RMSD>
8.244

$$$$
1xpf_lig
 OpenBabel02141814123D
libRbt.so/2013.1/901 2013/11/27
 14 13  0  0  0  0  0  0  0  0999 V2000
   14.0495   -8.0585   62.7254 N   0  0  0  0  0  0  0  0  0  0  0  0
   15.4559   -7.7538   62.5373 C   0  0  0  0  0  0  0  0  0  0  0  0
   16.3094   -8.6802   63.3178 C   0  0  0  0  0  0  0  0  0  0  0  0
   16.0231   -8.4114   64.7625 C   0  0  0  0  0  0  0  0  0  0  0  0
   16.6167   -7.0870   65.0696 N   0  0  0  0  0  0  0  0  0  0  0  0
   16.4055   -6.7374   66.5077 C   0  0  0  0  0  0  0  0  0  0  0  0
   16.5833   -5.2381   66.8034 C   0  0  0  0  0  0  0  0  0  0  0  0
   16.3502   -4.8600   68.2769 C   0  0  0  0  0  0  0  0  0  0  0  0
   16.5263   -3.3578   68.4403 C   0  0  0  0  0  0  0  0  0  0  0  0
   16.2326   -3.0973   69.8571 N   0  0  0  0  0  0  0  0  0  0  0  0
   16.3786   -1.7010   70.3559 C   0  0  0  0  0  0  0  0  0  0  0  0
   16.3619   -1.9511   71.8795 C   0  0  0  0  0  0  0  0  0  0  0  0
   16.6424   -0.7963   72.8073 C   0  0  0  0  0  0  0  0  0  0  0  0
   15.6954    0.3016   72.7175 N   0  0  0  0  0  0  0  0  0  0  0  0
  1  2  1  0  0  0  0
  2  3  1  0  0  0  0
  3  4  1  0  0  0  0
  4  5  1  0  0  0  0
  5  6  1  0  0  0  0
  6  7  1  0  0  0  0
  7  8  1  0  0  0  0
  8  9  1  0  0  0  0
  9 10  1  0  0  0  0
 10 11  1  0  0  0  0
 11 12  1  0  0  0  0
 12 13  1  0  0  0  0
 13 14  1  0  0  0  0
M  END
>  <CHROM.1>
-65.19979622,-70.96745845,-178.89353564,-161.84990075,179.21472211,-178.90122279
177.83187994,177.34001881,-165.41381688,173.22598565,61.61666543,16.11666337
-4.81643117,67.57557226,1.64884959,0.73529666,-2.32222366

>  <Name>
1xpf_lig

>  <RI>
0

>  <Rbt.Current_Directory>
/home/afrankz/demos/rdock_decoys_rna/rnas/1xpf

>  <Rbt.Executable>
rbdock ($Id: //depot/dev/client3/rdock/2013.1/src/exe/rbdock.cxx#4 $)

>  <Rbt.Library>
libRbt.so (2013.1, Build901 2013/11/27)

>  <Rbt.Parameter_File>
/export/apps/rDock/src/rDock_2013.1_src/data/scripts/dock_solv.prm

>  <Rbt.Receptor>
prm/blind_docking_80.prm

>  <SCORE>
-7.11474

>  <SCORE.INTER>
1.58806

>  <SCORE.INTER.CONST>
1

>  <SCORE.INTER.POLAR>
0

>  <SCORE.INTER.ROT>
11

>  <SCORE.INTER.SOLV>
13.7484

>  <SCORE.INTER.VDW>
-14.4574

>  <SCORE.INTER.norm>
0.113433

>  <SCORE.INTRA>
-8.70279

>  <SCORE.INTRA.DIHEDRAL>
-16.6052

>  <SCORE.INTRA.DIHEDRAL.0>
17.7811

>  <SCORE.INTRA.POLAR>
0

>  <SCORE.INTRA.POLAR.0>
0

>  <SCORE.INTRA.REPUL>
0

>  <SCORE.INTRA.REPUL.0>
0

>  <SCORE.INTRA.SOLV>
1.51414

>  <SCORE.INTRA.SOLV.lig_0>
-47.9565

>  <SCORE.INTRA.VDW>
-1.15724

>  <SCORE.INTRA.VDW.0>
0.515983

>  <SCORE.INTRA.norm>
-0.621628

>  <SCORE.RESTR>
0

>  <SCORE.RESTR.CAVITY>
0

>  <SCORE.RESTR.norm>
0

>  <SCORE.SYSTEM>
0

>  <SCORE.SYSTEM.CONST>
0

>  <SCORE.SYSTEM.DIHEDRAL>
0

>  <SCORE.SYSTEM.SOLV>
0

>  <SCORE.SYSTEM.norm>
0

>  <SCORE.heavy>
14

>  <SCORE.norm>
-0.508195

>  <RMSD>
8.269

$$$$
1xpf_lig
 OpenBabel02141814123D
libRbt.so/2013.1/901 2013/11/27
 14 13  0  0  0  0  0  0  0  0999 V2000
   16.5744   -0.0377   73.5523 N   0  0  0  0  0  0  0  0  0  0  0  0
   16.2614   -0.3611   72.1726 C   0  0  0  0  0  0  0  0  0  0  0  0
   16.6406   -1.7579   71.8548 C   0  0  0  0  0  0  0  0  0  0  0  0
   16.3213   -1.9694   70.4075 C   0  0  0  0  0  0  0  0  0  0  0  0
   16.8445   -3.3115   70.0530 N   0  0  0  0  0  0  0  0  0  0  0  0
   16.3228   -3.7436   68.7203 C   0  0  0  0  0  0  0  0  0  0  0  0
   16.4281   -5.2606   68.4868 C   0  0  0  0  0  0  0  0  0  0  0  0
   15.7077   -5.7488   67.2175 C   0  0  0  0  0  0  0  0  0  0  0  0
   16.4417   -5.2222   65.9936 C   0  0  0  0  0  0  0  0  0  0  0  0
   15.6362   -5.6737   64.8495 N   0  0  0  0  0  0  0  0  0  0  0  0
   15.8418   -7.0640   64.3552 C   0  0  0  0  0  0  0  0  0  0  0  0
   14.4015   -7.4180   63.9257 C   0  0  0  0  0  0  0  0  0  0  0  0
   14.1480   -8.7490   63.2645 C   0  0  0  0  0  0  0  0  0  0  0  0
   14.7094   -8.8841   61.9315 N   0  0  0  0  0  0  0  0  0  0  0  0
  1  2  1  0  0  0  0
  2  3  1  0  0  0  0
  3  4  1  0  0  0  0
  4  5  1  0  0  0  0
  5  6  1  0  0  0  0
  6  7  1  0  0  0  0
  7  8  1  0  0  0  0
  8  9  1  0  0  0  0
  9 10  1  0  0  0  0
 10 11  1  0  0  0  0
 11 12  1  0  0  0  0
 12 13  1  0  0  0  0
 13 14  1  0  0  0  0
M  END
>  <CHROM.1>
-178.08982774,173.61448710,167.76459155,-161.10010993,171.29482350,68.29819034
-176.77652958,-82.64211834,145.31030422,176.16490302,-68.94778881,15.87707416
-4.65734614,67.62751181,0.92613475,-1.31821813,0.27746453

>  <Name>
1xpf_lig

>  <RI>
0

>  <Rbt.Current_Directory>
/home/afrankz/demos/rdock_decoys_rna/rnas/1xpf

>  <Rbt.Executable>
rbdock ($Id: //depot/dev/client3/rdock/2013.1/src/exe/rbdock.cxx#4 $)

>  <Rbt.Library>
libRbt.so (2013.1, Build901 2013/11/27)

>  <Rbt.Parameter_File>
/export/apps/rDock/src/rDock_2013.1_src/data/scripts/dock_solv.prm

>  <Rbt.Receptor>
prm/blind_docking_80.prm

>  <SCORE>
-11.241

>  <SCORE.INTER>
-2.54121

>  <SCORE.INTER.CONST>
1

>  <SCORE.INTER.POLAR>
-0.894427

>  <SCORE.INTER.ROT>
11

>  <SCORE.INTER.SOLV>
9.67691

>  <SCORE.INTER.VDW>
-12.8717

>  <SCORE.INTER.norm>
-0.181515

>  <SCORE.INTRA>
-8.69976

>  <SCORE.INTRA.DIHEDRAL>
-15.1463

>  <SCORE.INTRA.DIHEDRAL.0>
17.7811

>  <SCORE.INTRA.POLAR>
0

>  <SCORE.INTRA.POLAR.0>
0

>  <SCORE.INTRA.REPUL>
0

>  <SCORE.INTRA.REPUL.0>
0

>  <SCORE.INTRA.SOLV>
-0.233211

>  <SCORE.INTRA.SOLV.lig_0>
-47.9565

>  <SCORE.INTRA.VDW>
-1.00999

>  <SCORE.INTRA.VDW.0>
0.515983

>  <SCORE.INTRA.norm>
-0.621412

>  <SCORE.RESTR>
0

>  <SCORE.RESTR.CAVITY>
0

>  <SCORE.RESTR.norm>
0

>  <SCORE.SYSTEM>
0

>  <SCORE.SYSTEM.CONST>
0

>  <SCORE.SYSTEM.DIHEDRAL>
0

>  <SCORE.SYSTEM.SOLV>
0

>  <SCORE.SYSTEM.norm>
0

>  <SCORE.heavy>
14

>  <SCORE.norm>
-0.802927

>  <RMSD>
8.307

$$$$
1xpf_lig
 OpenBabel02141814123D
libRbt.so/2013.1/901 2013/11/27
 14 13  0  0  0  0  0  0  0  0999 V2000
   16.9846   -0.0061   73.3147 N   0  0  0  0  0  0  0  0  0  0  0  0
   16.2089   -0.7609   72.3479 C   0  0  0  0  0  0  0  0  0  0  0  0
   17.0574   -1.2080   71.2183 C   0  0  0  0  0  0  0  0  0  0  0  0
   16.1771   -2.0141   70.3147 C   0  0  0  0  0  0  0  0  0  0  0  0
   17.0050   -2.3833   69.1404 N   0  0  0  0  0  0  0  0  0  0  0  0
   17.2269   -3.8611   69.0977 C   0  0  0  0  0  0  0  0  0  0  0  0
   16.0066   -4.6466   68.5871 C   0  0  0  0  0  0  0  0  0  0  0  0
   16.3395   -6.0650   68.0913 C   0  0  0  0  0  0  0  0  0  0  0  0
   17.0037   -5.9730   66.7257 C   0  0  0  0  0  0  0  0  0  0  0  0
   17.1101   -7.3652   66.2654 N   0  0  0  0  0  0  0  0  0  0  0  0
   15.9772   -7.9304   65.4802 C   0  0  0  0  0  0  0  0  0  0  0  0
   16.5830   -9.2879   65.0629 C   0  0  0  0  0  0  0  0  0  0  0  0
   15.7706  -10.2060   64.1853 C   0  0  0  0  0  0  0  0  0  0  0  0
   15.3448   -9.6245   62.9240 N   0  0  0  0  0  0  0  0  0  0  0  0
  1  2  1  0  0  0  0
  2  3  1  0  0  0  0
  3  4  1  0  0  0  0
  4  5  1  0  0  0  0
  5  6  1  0  0  0  0
  6  7  1  0  0  0  0
  7  8  1  0  0  0  0
  8  9  1  0  0  0  0
  9 10  1  0  0  0  0
 10 11  1  0  0  0  0
 11 12  1  0  0  0  0
 12 13  1  0  0  0  0
 13 14  1  0  0  0  0
M  END
>  <CHROM.1>
177.90248272,176.29128708,113.81856071,77.07778643,160.60877738,-75.76523538
-172.48549579,89.88912150,172.83450407,-177.99102174,56.93001371,16.48533529
-5.09525491,68.05402417,-1.50125127,0.46252754,-2.44513549

>  <Name>
1xpf_lig

>  <RI>
0

>  <Rbt.Current_Directory>
/home/afrankz/demos/rdock_decoys_rna/rnas/1xpf

>  <Rbt.Executable>
rbdock ($Id: //depot/dev/client3/rdock/2013.1/src/exe/rbdock.cxx#4 $)

>  <Rbt.Library>
libRbt.so (2013.1, Build901 2013/11/27)

>  <Rbt.Parameter_File>
/export/apps/rDock/src/rDock_2013.1_src/data/scripts/dock_solv.prm

>  <Rbt.Receptor>
prm/blind_docking_80.prm

>  <SCORE>
-12.3862

>  <SCORE.INTER>
-4.96765

>  <SCORE.INTER.CONST>
1

>  <SCORE.INTER.POLAR>
-1.35495

>  <SCORE.INTER.ROT>
11

>  <SCORE.INTER.SOLV>
13.0673

>  <SCORE.INTER.VDW>
-14.0844

>  <SCORE.INTER.norm>
-0.354832

>  <SCORE.INTRA>
-7.41855

>  <SCORE.INTRA.DIHEDRAL>
-13.1302

>  <SCORE.INTRA.DIHEDRAL.0>
17.7811

>  <SCORE.INTRA.POLAR>
0

>  <SCORE.INTRA.POLAR.0>
0

>  <SCORE.INTRA.REPUL>
0

>  <SCORE.INTRA.REPUL.0>
0

>  <SCORE.INTRA.SOLV>
-0.106772

>  <SCORE.INTRA.SOLV.lig_0>
-47.9565

>  <SCORE.INTRA.VDW>
-0.800045

>  <SCORE.INTRA.VDW.0>
0.515983

>  <SCORE.INTRA.norm>
-0.529897

>  <SCORE.RESTR>
0

>  <SCORE.RESTR.CAVITY>
0

>  <SCORE.RESTR.norm>
0

>  <SCORE.SYSTEM>
0

>  <SCORE.SYSTEM.CONST>
0

>  <SCORE.SYSTEM.DIHEDRAL>
0

>  <SCORE.SYSTEM.SOLV>
0

>  <SCORE.SYSTEM.norm>
0

>  <SCORE.heavy>
14

>  <SCORE.norm>
-0.884729

>  <RMSD>
8.330

$$$$
1xpf_lig
 OpenBabel02141814123D
libRbt.so/2013.1/901 2013/11/27
 14 13  0  0  0  0  0  0  0  0999 V2000
   18.7570   -1.7574   60.4518 N   0  0  0  0  0  0  0  0  0  0  0  0
   17.3757   -2.1259   60.2021 C   0  0  0  0  0  0  0  0  0  0  0  0
   17.2829   -3.4984   59.6513 C   0  0  0  0  0  0  0  0  0  0  0  0
   15.8244   -3.8164   59.5379 C   0  0  0  0  0  0  0  0  0  0  0  0
   15.7331   -5.1455   58.8854 N   0  0  0  0  0  0  0  0  0  0  0  0
   14.3759   -5.7386   59.0890 C   0  0  0  0  0  0  0  0  0  0  0  0
   14.3450   -7.2664   58.9109 C   0  0  0  0  0  0  0  0  0  0  0  0
   15.1210   -8.0374   59.9935 C   0  0  0  0  0  0  0  0  0  0  0  0
   14.2922   -8.0770   61.2685 C   0  0  0  0  0  0  0  0  0  0  0  0
   15.0684   -8.9139   62.1950 N   0  0  0  0  0  0  0  0  0  0  0  0
   14.4015   -9.3776   63.4440 C   0  0  0  0  0  0  0  0  0  0  0  0
   15.5285  -10.2398   64.0528 C   0  0  0  0  0  0  0  0  0  0  0  0
   16.7435   -9.5505   64.6200 C   0  0  0  0  0  0  0  0  0  0  0  0
   17.7079  -10.4356   65.2499 N   0  0  0  0  0  0  0  0  0  0  0  0
  1  2  1  0  0  0  0
  2  3  1  0  0  0  0
  3  4  1  0  0  0  0
  4  5  1  0  0  0  0
  5  6  1  0  0  0  0
  6  7  1  0  0  0  0
  7  8  1  0  0  0  0
  8  9  1  0  0  0  0
  9 10  1  0  0  0  0
 10 11  1  0  0  0  0
 11 12  1  0  0  0  0
 12 13  1  0  0  0  0
 13 14  1  0  0  0  0
M  END
>  <CHROM.1>
175.47076771,175.54609244,163.03373126,-159.03123351,67.27352857,77.06139060
175.82519727,-167.88034226,177.74131564,71.54970547,176.08227078,15.89655746
-6.71294781,61.25354398,-1.39591421,0.74734163,2.44981548

>  <Name>
1xpf_lig

>  <RI>
0

>  <Rbt.Current_Directory>
/home/afrankz/demos/rdock_decoys_rna/rnas/1xpf

>  <Rbt.Executable>
rbdock ($Id: //depot/dev/client3/rdock/2013.1/src/exe/rbdock.cxx#4 $)

>  <Rbt.Library>
libRbt.so (2013.1, Build901 2013/11/27)

>  <Rbt.Parameter_File>
/export/apps/rDock/src/rDock_2013.1_src/data/scripts/dock_solv.prm

>  <Rbt.Receptor>
prm/pocket_docking_6.prm

>  <SCORE>
-14.226

>  <SCORE.INTER>
-5.09897

>  <SCORE.INTER.CONST>
1

>  <SCORE.INTER.POLAR>
-1.55501

>  <SCORE.INTER.ROT>
11

>  <SCORE.INTER.SOLV>
11.1451

>  <SCORE.INTER.VDW>
-12.8643

>  <SCORE.INTER.norm>
-0.364212

>  <SCORE.INTRA>
-9.12707

>  <SCORE.INTRA.DIHEDRAL>
-15.0071

>  <SCORE.INTRA.DIHEDRAL.0>
17.7811

>  <SCORE.INTRA.POLAR>
0

>  <SCORE.INTRA.POLAR.0>
0

>  <SCORE.INTRA.REPUL>
0

>  <SCORE.INTRA.REPUL.0>
0

>  <SCORE.INTRA.SOLV>
-0.0250669

>  <SCORE.INTRA.SOLV.lig_0>
-47.9565

>  <SCORE.INTRA.VDW>
-1.611

>  <SCORE.INTRA.VDW.0>
0.515983

>  <SCORE.INTRA.norm>
-0.651934

>  <SCORE.RESTR>
0

>  <SCORE.RESTR.CAVITY>
0

>  <SCORE.RESTR.norm>
0

>  <SCORE.SYSTEM>
0

>  <SCORE.SYSTEM.CONST>
0

>  <SCORE.SYSTEM.DIHEDRAL>
0

>  <SCORE.SYSTEM.SOLV>
0

>  <SCORE.SYSTEM.norm>
0

>  <SCORE.heavy>
14

>  <SCORE.norm>
-1.01615

>  <RMSD>
8.428

$$$$
1xpf_lig
 OpenBabel02141814123D
libRbt.so/2013.1/901 2013/11/27
 14 13  0  0  0  0  0  0  0  0999 V2000
   14.3716   -9.7211   61.8927 N   0  0  0  0  0  0  0  0  0  0  0  0
   14.4222   -9.5156   63.3284 C   0  0  0  0  0  0  0  0  0  0  0  0
   13.5178   -8.4164   63.7402 C   0  0  0  0  0  0  0  0  0  0  0  0
   13.8400   -8.1100   65.1698 C   0  0  0  0  0  0  0  0  0  0  0  0
   15.2346   -7.6047   65.1878 N   0  0  0  0  0  0  0  0  0  0  0  0
   15.8233   -7.7356   66.5557 C   0  0  0  0  0  0  0  0  0  0  0  0
   17.1321   -6.9469   66.7345 C   0  0  0  0  0  0  0  0  0  0  0  0
   17.0092   -5.4491   66.4029 C   0  0  0  0  0  0  0  0  0  0  0  0
   15.9846   -4.8151   67.3315 C   0  0  0  0  0  0  0  0  0  0  0  0
   16.6727   -4.6972   68.6253 N   0  0  0  0  0  0  0  0  0  0  0  0
   15.8408   -4.6884   69.8612 C   0  0  0  0  0  0  0  0  0  0  0  0
   16.2071   -3.2998   70.4285 C   0  0  0  0  0  0  0  0  0  0  0  0
   15.9240   -2.0771   69.5931 C   0  0  0  0  0  0  0  0  0  0  0  0
   16.9856   -1.7087   68.6726 N   0  0  0  0  0  0  0  0  0  0  0  0
  1  2  1  0  0  0  0
  2  3  1  0  0  0  0
  3  4  1  0  0  0  0
  4  5  1  0  0  0  0
  5  6  1  0  0  0  0
  6  7  1  0  0  0  0
  7  8  1  0  0  0  0
  8  9  1  0  0  0  0
  9 10  1  0  0  0  0
 10 11  1  0  0  0  0
 11 12  1  0  0  0  0
 12 13  1  0  0  0  0
 13 14  1  0  0  0  0
M  END
>  <CHROM.1>
-169.18475443,64.27767124,-159.49683041,-166.70727161,55.54167968,60.77602572
75.24259156,-153.64838107,-119.13669519,59.67604935,-87.60481168,15.64033779
-6.05616903,66.68053797,2.14475368,1.11234993,-2.88448122

>  <Name>
1xpf_lig

>  <RI>
0

>  <Rbt.Current_Directory>
/home/afrankz/demos/rdock_decoys_rna/rnas/1xpf

>  <Rbt.Executable>
rbdock ($Id: //depot/dev/client3/rdock/2013.1/src/exe/rbdock.cxx#4 $)

>  <Rbt.Library>
libRbt.so (2013.1, Build901 2013/11/27)

>  <Rbt.Parameter_File>
/export/apps/rDock/src/rDock_2013.1_src/data/scripts/dock_solv.prm

>  <Rbt.Receptor>
prm/blind_docking_80.prm

>  <SCORE>
-8.86695

>  <SCORE.INTER>
-4.65854

>  <SCORE.INTER.CONST>
1

>  <SCORE.INTER.POLAR>
-1.68572

>  <SCORE.INTER.ROT>
11

>  <SCORE.INTER.SOLV>
16.2541

>  <SCORE.INTER.VDW>
-13.838

>  <SCORE.INTER.norm>
-0.332753

>  <SCORE.INTRA>
-4.24193

>  <SCORE.INTRA.DIHEDRAL>
-11.8166

>  <SCORE.INTRA.DIHEDRAL.0>
17.7811

>  <SCORE.INTRA.POLAR>
0

>  <SCORE.INTRA.POLAR.0>
0

>  <SCORE.INTRA.REPUL>
0

>  <SCORE.INTRA.REPUL.0>
0

>  <SCORE.INTRA.SOLV>
4.28453

>  <SCORE.INTRA.SOLV.lig_0>
-47.9565

>  <SCORE.INTRA.VDW>
-0.475892

>  <SCORE.INTRA.VDW.0>
0.515983

>  <SCORE.INTRA.norm>
-0.302995

>  <SCORE.RESTR>
0.0335152

>  <SCORE.RESTR.CAVITY>
0.0335152

>  <SCORE.RESTR.norm>
0.00239394

>  <SCORE.SYSTEM>
0

>  <SCORE.SYSTEM.CONST>
0

>  <SCORE.SYSTEM.DIHEDRAL>
0

>  <SCORE.SYSTEM.SOLV>
0

>  <SCORE.SYSTEM.norm>
0

>  <SCORE.heavy>
14

>  <SCORE.norm>
-0.633354

>  <RMSD>
8.437

$$$$
1xpf_lig
 OpenBabel02141814123D
libRbt.so/2013.1/901 2013/11/27
 14 13  0  0  0  0  0  0  0  0999 V2000
   26.7834   -0.3954   65.6531 N   0  0  0  0  0  0  0  0  0  0  0  0
   26.0399   -0.3387   64.4080 C   0  0  0  0  0  0  0  0  0  0  0  0
   26.8843    0.1837   63.3080 C   0  0  0  0  0  0  0  0  0  0  0  0
   26.0113    0.2519   62.0937 C   0  0  0  0  0  0  0  0  0  0  0  0
   26.8926    0.6323   60.9627 N   0  0  0  0  0  0  0  0  0  0  0  0
   26.1073    0.7297   59.6944 C   0  0  0  0  0  0  0  0  0  0  0  0
   25.4344    2.0991   59.4973 C   0  0  0  0  0  0  0  0  0  0  0  0
   24.3741    2.1195   58.3821 C   0  0  0  0  0  0  0  0  0  0  0  0
   23.7612    3.5095   58.3017 C   0  0  0  0  0  0  0  0  0  0  0  0
   24.7996    4.3421   57.6774 N   0  0  0  0  0  0  0  0  0  0  0  0
   24.4391    5.7344   57.2885 C   0  0  0  0  0  0  0  0  0  0  0  0
   24.4751    5.6075   55.7501 C   0  0  0  0  0  0  0  0  0  0  0  0
   24.1855    6.8284   54.9144 C   0  0  0  0  0  0  0  0  0  0  0  0
   25.0872    7.9458   55.1348 N   0  0  0  0  0  0  0  0  0  0  0  0
  1  2  1  0  0  0  0
  2  3  1  0  0  0  0
  3  4  1  0  0  0  0
  4  5  1  0  0  0  0
  5  6  1  0  0  0  0
  6  7  1  0  0  0  0
  7  8  1  0  0  0  0
  8  9  1  0  0  0  0
  9 10  1  0  0  0  0
 10 11  1  0  0  0  0
 11 12  1  0  0  0  0
 12 13  1  0  0  0  0
 13 14  1  0  0  0  0
M  END
>  <CHROM.1>
-177.78979281,-173.95610067,-179.90093673,85.11063105,-166.74561621,178.79695692
73.77840297,171.92634374,-110.87785044,-178.92349667,59.66619339,25.37658650
2.80342265,59.50457973,-0.84492918,-1.26990741,-0.17885336

>  <Name>
1xpf_lig

>  <RI>
0

>  <Rbt.Current_Directory>
/home/afrankz/demos/rdock_decoys_rna/rnas/1xpf

>  <Rbt.Executable>
rbdock ($Id: //depot/dev/client3/rdock/2013.1/src/exe/rbdock.cxx#4 $)

>  <Rbt.Library>
libRbt.so (2013.1, Build901 2013/11/27)

>  <Rbt.Parameter_File>
/export/apps/rDock/src/rDock_2013.1_src/data/scripts/dock_solv.prm

>  <Rbt.Receptor>
prm/pocket_docking_8.prm

>  <SCORE>
-8.58718

>  <SCORE.INTER>
0.145779

>  <SCORE.INTER.CONST>
1

>  <SCORE.INTER.POLAR>
-0.824621

>  <SCORE.INTER.ROT>
11

>  <SCORE.INTER.SOLV>
9.38999

>  <SCORE.INTER.VDW>
-11.2174

>  <SCORE.INTER.norm>
0.0104128

>  <SCORE.INTRA>
-8.73296

>  <SCORE.INTRA.DIHEDRAL>
-14.6549

>  <SCORE.INTRA.DIHEDRAL.0>
17.7811

>  <SCORE.INTRA.POLAR>
0

>  <SCORE.INTRA.POLAR.0>
0

>  <SCORE.INTRA.REPUL>
0

>  <SCORE.INTRA.REPUL.0>
0

>  <SCORE.INTRA.SOLV>
0.0669974

>  <SCORE.INTRA.SOLV.lig_0>
-47.9565

>  <SCORE.INTRA.VDW>
-1.439

>  <SCORE.INTRA.VDW.0>
0.515983

>  <SCORE.INTRA.norm>
-0.623783

>  <SCORE.RESTR>
0

>  <SCORE.RESTR.CAVITY>
0

>  <SCORE.RESTR.norm>
0

>  <SCORE.SYSTEM>
0

>  <SCORE.SYSTEM.CONST>
0

>  <SCORE.SYSTEM.DIHEDRAL>
0

>  <SCORE.SYSTEM.SOLV>
0

>  <SCORE.SYSTEM.norm>
0

>  <SCORE.heavy>
14

>  <SCORE.norm>
-0.61337

>  <RMSD>
8.539

$$$$
1xpf_lig
 OpenBabel02141814123D
libRbt.so/2013.1/901 2013/11/27
 14 13  0  0  0  0  0  0  0  0999 V2000
   16.6530  -10.0984   66.0038 N   0  0  0  0  0  0  0  0  0  0  0  0
   15.3972   -9.9220   65.2983 C   0  0  0  0  0  0  0  0  0  0  0  0
   15.6276   -9.6887   63.8532 C   0  0  0  0  0  0  0  0  0  0  0  0
   14.2988   -9.3387   63.2590 C   0  0  0  0  0  0  0  0  0  0  0  0
   14.5472   -9.0190   61.8318 N   0  0  0  0  0  0  0  0  0  0  0  0
   14.2429   -7.5818   61.5547 C   0  0  0  0  0  0  0  0  0  0  0  0
   15.3707   -6.6262   61.9811 C   0  0  0  0  0  0  0  0  0  0  0  0
   15.3674   -6.2865   63.4821 C   0  0  0  0  0  0  0  0  0  0  0  0
   16.4897   -5.3016   63.7731 C   0  0  0  0  0  0  0  0  0  0  0  0
   16.3576   -4.9940   65.2047 N   0  0  0  0  0  0  0  0  0  0  0  0
   17.0531   -5.8824   66.1776 C   0  0  0  0  0  0  0  0  0  0  0  0
   16.4254   -5.3870   67.4985 C   0  0  0  0  0  0  0  0  0  0  0  0
   16.6789   -3.9661   67.9340 C   0  0  0  0  0  0  0  0  0  0  0  0
   16.1835   -3.6372   69.2594 N   0  0  0  0  0  0  0  0  0  0  0  0
  1  2  1  0  0  0  0
  2  3  1  0  0  0  0
  3  4  1  0  0  0  0
  4  5  1  0  0  0  0
  5  6  1  0  0  0  0
  6  7  1  0  0  0  0
  7  8  1  0  0  0  0
  8  9  1  0  0  0  0
  9 10  1  0  0  0  0
 10 11  1  0  0  0  0
 11 12  1  0  0  0  0
 12 13  1  0  0  0  0
 13 14  1  0  0  0  0
M  END
>  <CHROM.1>
-172.53844465,176.37040393,-114.99882614,79.99098864,-81.15048954,-177.98519950
177.26209648,87.53918533,-169.08242047,-63.83571501,-173.05052360,15.76370810
-6.98070721,64.79334063,-2.68520487,-1.29988258,-0.25458763

>  <Name>
1xpf_lig

>  <RI>
0

>  <Rbt.Current_Directory>
/home/afrankz/demos/rdock_decoys_rna/rnas/1xpf

>  <Rbt.Executable>
rbdock ($Id: //depot/dev/client3/rdock/2013.1/src/exe/rbdock.cxx#4 $)

>  <Rbt.Library>
libRbt.so (2013.1, Build901 2013/11/27)

>  <Rbt.Parameter_File>
/export/apps/rDock/src/rDock_2013.1_src/data/scripts/dock_solv.prm

>  <Rbt.Receptor>
prm/blind_docking_80.prm

>  <SCORE>
-10.2814

>  <SCORE.INTER>
-2.02014

>  <SCORE.INTER.CONST>
1

>  <SCORE.INTER.POLAR>
-0.894427

>  <SCORE.INTER.ROT>
11

>  <SCORE.INTER.SOLV>
9.11264

>  <SCORE.INTER.VDW>
-12.3362

>  <SCORE.INTER.norm>
-0.144296

>  <SCORE.INTRA>
-8.2631

>  <SCORE.INTRA.DIHEDRAL>
-13.6179

>  <SCORE.INTRA.DIHEDRAL.0>
17.7811

>  <SCORE.INTRA.POLAR>
0

>  <SCORE.INTRA.POLAR.0>
0

>  <SCORE.INTRA.REPUL>
0

>  <SCORE.INTRA.REPUL.0>
0

>  <SCORE.INTRA.SOLV>
0.0860387

>  <SCORE.INTRA.SOLV.lig_0>
-47.9565

>  <SCORE.INTRA.VDW>
-1.49717

>  <SCORE.INTRA.VDW.0>
0.515983

>  <SCORE.INTRA.norm>
-0.590222

>  <SCORE.RESTR>
0.00180785

>  <SCORE.RESTR.CAVITY>
0.00180785

>  <SCORE.RESTR.norm>
0.000129132

>  <SCORE.SYSTEM>
0

>  <SCORE.SYSTEM.CONST>
0

>  <SCORE.SYSTEM.DIHEDRAL>
0

>  <SCORE.SYSTEM.SOLV>
0

>  <SCORE.SYSTEM.norm>
0

>  <SCORE.heavy>
14

>  <SCORE.norm>
-0.734388

>  <RMSD>
8.600

$$$$
1xpf_lig
 OpenBabel02141814123D
libRbt.so/2013.1/901 2013/11/27
 14 13  0  0  0  0  0  0  0  0999 V2000
   22.7837    3.4756   57.5991 N   0  0  0  0  0  0  0  0  0  0  0  0
   23.6501    4.6304   57.7479 C   0  0  0  0  0  0  0  0  0  0  0  0
   23.9523    4.8876   59.1756 C   0  0  0  0  0  0  0  0  0  0  0  0
   24.7217    6.1709   59.2258 C   0  0  0  0  0  0  0  0  0  0  0  0
   25.1390    6.3564   60.6372 N   0  0  0  0  0  0  0  0  0  0  0  0
   24.0483    7.0066   61.4264 C   0  0  0  0  0  0  0  0  0  0  0  0
   24.4189    7.2407   62.9010 C   0  0  0  0  0  0  0  0  0  0  0  0
   24.6184    5.9457   63.7083 C   0  0  0  0  0  0  0  0  0  0  0  0
   25.9282    5.2944   63.2909 C   0  0  0  0  0  0  0  0  0  0  0  0
   26.1398    4.2166   64.2681 N   0  0  0  0  0  0  0  0  0  0  0  0
   26.9298    3.0287   63.8385 C   0  0  0  0  0  0  0  0  0  0  0  0
   26.4416    1.9876   64.8690 C   0  0  0  0  0  0  0  0  0  0  0  0
   26.9924    0.5858   64.8008 C   0  0  0  0  0  0  0  0  0  0  0  0
   26.6627   -0.1403   63.5866 N   0  0  0  0  0  0  0  0  0  0  0  0
  1  2  1  0  0  0  0
  2  3  1  0  0  0  0
  3  4  1  0  0  0  0
  4  5  1  0  0  0  0
  5  6  1  0  0  0  0
  6  7  1  0  0  0  0
  7  8  1  0  0  0  0
  8  9  1  0  0  0  0
  9 10  1  0  0  0  0
 10 11  1  0  0  0  0
 11 12  1  0  0  0  0
 12 13  1  0  0  0  0
 13 14  1  0  0  0  0
M  END
>  <CHROM.1>
-174.08528112,-174.49547833,-84.62202702,-179.51114442,-65.75365365,72.90013156
170.34972671,152.47759302,-158.59215302,179.57814397,-63.82799170,25.17335674
4.33510954,61.93410823,3.01813752,-1.15953328,0.47792213

>  <Name>
1xpf_lig

>  <RI>
0

>  <Rbt.Current_Directory>
/home/afrankz/demos/rdock_decoys_rna/rnas/1xpf

>  <Rbt.Executable>
rbdock ($Id: //depot/dev/client3/rdock/2013.1/src/exe/rbdock.cxx#4 $)

>  <Rbt.Library>
libRbt.so (2013.1, Build901 2013/11/27)

>  <Rbt.Parameter_File>
/export/apps/rDock/src/rDock_2013.1_src/data/scripts/dock_solv.prm

>  <Rbt.Receptor>
prm/pocket_docking_7.prm

>  <SCORE>
-8.93634

>  <SCORE.INTER>
-0.801749

>  <SCORE.INTER.CONST>
1

>  <SCORE.INTER.POLAR>
-1.14663

>  <SCORE.INTER.ROT>
11

>  <SCORE.INTER.SOLV>
11.8363

>  <SCORE.INTER.VDW>
-11.5912

>  <SCORE.INTER.norm>
-0.0572678

>  <SCORE.INTRA>
-8.13459

>  <SCORE.INTRA.DIHEDRAL>
-15.044

>  <SCORE.INTRA.DIHEDRAL.0>
17.7811

>  <SCORE.INTRA.POLAR>
0

>  <SCORE.INTRA.POLAR.0>
0

>  <SCORE.INTRA.REPUL>
0

>  <SCORE.INTRA.REPUL.0>
0

>  <SCORE.INTRA.SOLV>
0.652837

>  <SCORE.INTRA.SOLV.lig_0>
-47.9565

>  <SCORE.INTRA.VDW>
-0.939027

>  <SCORE.INTRA.VDW.0>
0.515983

>  <SCORE.INTRA.norm>
-0.581042

>  <SCORE.RESTR>
0

>  <SCORE.RESTR.CAVITY>
0

>  <SCORE.RESTR.norm>
0

>  <SCORE.SYSTEM>
0

>  <SCORE.SYSTEM.CONST>
0

>  <SCORE.SYSTEM.DIHEDRAL>
0

>  <SCORE.SYSTEM.SOLV>
0

>  <SCORE.SYSTEM.norm>
0

>  <SCORE.heavy>
14

>  <SCORE.norm>
-0.63831

>  <RMSD>
8.621

$$$$
1xpf_lig
 OpenBabel02141814123D
libRbt.so/2013.1/901 2013/11/27
 14 13  0  0  0  0  0  0  0  0999 V2000
   17.9188  -11.5224   65.3865 N   0  0  0  0  0  0  0  0  0  0  0  0
   16.7278  -11.0069   64.7370 C   0  0  0  0  0  0  0  0  0  0  0  0
   16.7405   -9.5255   64.7020 C   0  0  0  0  0  0  0  0  0  0  0  0
   16.6130   -9.0629   66.1202 C   0  0  0  0  0  0  0  0  0  0  0  0
   16.6061   -7.5800   66.0799 N   0  0  0  0  0  0  0  0  0  0  0  0
   16.5155   -7.0173   67.4620 C   0  0  0  0  0  0  0  0  0  0  0  0
   16.5046   -5.4792   67.4948 C   0  0  0  0  0  0  0  0  0  0  0  0
   16.4291   -4.8851   68.9125 C   0  0  0  0  0  0  0  0  0  0  0  0
   16.4426   -3.3668   68.8185 C   0  0  0  0  0  0  0  0  0  0  0  0
   16.3681   -2.9037   70.2118 N   0  0  0  0  0  0  0  0  0  0  0  0
   16.3054   -1.4357   70.4581 C   0  0  0  0  0  0  0  0  0  0  0  0
   16.2454   -1.4188   72.0009 C   0  0  0  0  0  0  0  0  0  0  0  0
   16.1431   -0.0914   72.7085 C   0  0  0  0  0  0  0  0  0  0  0  0
   16.1653   -0.1705   74.1588 N   0  0  0  0  0  0  0  0  0  0  0  0
  1  2  1  0  0  0  0
  2  3  1  0  0  0  0
  3  4  1  0  0  0  0
  4  5  1  0  0  0  0
  5  6  1  0  0  0  0
  6  7  1  0  0  0  0
  7  8  1  0  0  0  0
  8  9  1  0  0  0  0
  9 10  1  0  0  0  0
 10 11  1  0  0  0  0
 11 12  1  0  0  0  0
 12 13  1  0  0  0  0
 13 14  1  0  0  0  0
M  END
>  <CHROM.1>
-67.18734927,-179.19390486,-178.59419991,179.95946815,-179.28873878,179.28936844
-179.98687440,-177.51449373,-179.82011274,-178.83595759,-176.82583945,16.55173205
-5.39037689,68.51778099,-1.27587329,-1.34143831,0.93722301

>  <Name>
1xpf_lig

>  <RI>
0

>  <Rbt.Current_Directory>
/home/afrankz/demos/rdock_decoys_rna/rnas/1xpf

>  <Rbt.Executable>
rbdock ($Id: //depot/dev/client3/rdock/2013.1/src/exe/rbdock.cxx#4 $)

>  <Rbt.Library>
libRbt.so (2013.1, Build901 2013/11/27)

>  <Rbt.Parameter_File>
/export/apps/rDock/src/rDock_2013.1_src/data/scripts/dock_solv.prm

>  <Rbt.Receptor>
prm/blind_docking_80.prm

>  <SCORE>
-10.1918

>  <SCORE.INTER>
0.126575

>  <SCORE.INTER.CONST>
1

>  <SCORE.INTER.POLAR>
0

>  <SCORE.INTER.ROT>
11

>  <SCORE.INTER.SOLV>
11.2131

>  <SCORE.INTER.VDW>
-14.5867

>  <SCORE.INTER.norm>
0.00904105

>  <SCORE.INTRA>
-10.3184

>  <SCORE.INTRA.DIHEDRAL>
-17.5316

>  <SCORE.INTRA.DIHEDRAL.0>
17.7811

>  <SCORE.INTRA.POLAR>
0

>  <SCORE.INTRA.POLAR.0>
0

>  <SCORE.INTRA.REPUL>
0

>  <SCORE.INTRA.REPUL.0>
0

>  <SCORE.INTRA.SOLV>
-0.109269

>  <SCORE.INTRA.SOLV.lig_0>
-47.9565

>  <SCORE.INTRA.VDW>
-1.498

>  <SCORE.INTRA.VDW.0>
0.515983

>  <SCORE.INTRA.norm>
-0.73703

>  <SCORE.RESTR>
0

>  <SCORE.RESTR.CAVITY>
0

>  <SCORE.RESTR.norm>
0

>  <SCORE.SYSTEM>
0

>  <SCORE.SYSTEM.CONST>
0

>  <SCORE.SYSTEM.DIHEDRAL>
0

>  <SCORE.SYSTEM.SOLV>
0

>  <SCORE.SYSTEM.norm>
0

>  <SCORE.heavy>
14

>  <SCORE.norm>
-0.727989

>  <RMSD>
8.809

$$$$
1xpf_lig
 OpenBabel02141814123D
libRbt.so/2013.1/901 2013/11/27
 14 13  0  0  0  0  0  0  0  0999 V2000
   20.9385    3.3294   74.0535 N   0  0  0  0  0  0  0  0  0  0  0  0
   20.0625    2.5894   73.1640 C   0  0  0  0  0  0  0  0  0  0  0  0
   19.5952    1.3354   73.8002 C   0  0  0  0  0  0  0  0  0  0  0  0
   18.6640    0.6827   72.8264 C   0  0  0  0  0  0  0  0  0  0  0  0
   18.1123   -0.5134   73.5088 N   0  0  0  0  0  0  0  0  0  0  0  0
   16.8787   -0.9927   72.8136 C   0  0  0  0  0  0  0  0  0  0  0  0
   17.1715   -1.7718   71.5197 C   0  0  0  0  0  0  0  0  0  0  0  0
   15.9137   -2.1327   70.7096 C   0  0  0  0  0  0  0  0  0  0  0  0
   16.3336   -2.7783   69.3977 C   0  0  0  0  0  0  0  0  0  0  0  0
   17.0109   -1.7075   68.6521 N   0  0  0  0  0  0  0  0  0  0  0  0
   16.7312   -1.5863   67.1938 C   0  0  0  0  0  0  0  0  0  0  0  0
   17.3407   -0.1958   66.9123 C   0  0  0  0  0  0  0  0  0  0  0  0
   18.8327   -0.0188   67.0371 C   0  0  0  0  0  0  0  0  0  0  0  0
   19.3097    1.3299   66.7848 N   0  0  0  0  0  0  0  0  0  0  0  0
  1  2  1  0  0  0  0
  2  3  1  0  0  0  0
  3  4  1  0  0  0  0
  4  5  1  0  0  0  0
  5  6  1  0  0  0  0
  6  7  1  0  0  0  0
  7  8  1  0  0  0  0
  8  9  1  0  0  0  0
  9 10  1  0  0  0  0
 10 11  1  0  0  0  0
 11 12  1  0  0  0  0
 12 13  1  0  0  0  0
 13 14  1  0  0  0  0
M  END
>  <CHROM.1>
177.82912963,-175.47426715,162.42031618,77.31598485,-173.39723013,174.66321323
-66.50593209,-138.34824833,167.03265149,66.59494575,-178.59115984,18.06362611
-0.17391959,70.59805115,-1.01312556,-0.87795672,-1.57216924

>  <Name>
1xpf_lig

>  <RI>
0

>  <Rbt.Current_Directory>
/home/afrankz/demos/rdock_decoys_rna/rnas/1xpf

>  <Rbt.Executable>
rbdock ($Id: //depot/dev/client3/rdock/2013.1/src/exe/rbdock.cxx#4 $)

>  <Rbt.Library>
libRbt.so (2013.1, Build901 2013/11/27)

>  <Rbt.Parameter_File>
/export/apps/rDock/src/rDock_2013.1_src/data/scripts/dock_solv.prm

>  <Rbt.Receptor>
prm/blind_docking_80.prm

>  <SCORE>
-13.9851

>  <SCORE.INTER>
-5.03301

>  <SCORE.INTER.CONST>
1

>  <SCORE.INTER.POLAR>
-0.8

>  <SCORE.INTER.ROT>
11

>  <SCORE.INTER.SOLV>
12.5704

>  <SCORE.INTER.VDW>
-15.8121

>  <SCORE.INTER.norm>
-0.3595

>  <SCORE.INTRA>
-8.95208

>  <SCORE.INTRA.DIHEDRAL>
-15.5314

>  <SCORE.INTRA.DIHEDRAL.0>
17.7811

>  <SCORE.INTRA.POLAR>
0

>  <SCORE.INTRA.POLAR.0>
0

>  <SCORE.INTRA.REPUL>
0

>  <SCORE.INTRA.REPUL.0>
0

>  <SCORE.INTRA.SOLV>
-0.0605262

>  <SCORE.INTRA.SOLV.lig_0>
-47.9565

>  <SCORE.INTRA.VDW>
-1.15612

>  <SCORE.INTRA.VDW.0>
0.515983

>  <SCORE.INTRA.norm>
-0.639434

>  <SCORE.RESTR>
0

>  <SCORE.RESTR.CAVITY>
0

>  <SCORE.RESTR.norm>
0

>  <SCORE.SYSTEM>
0

>  <SCORE.SYSTEM.CONST>
0

>  <SCORE.SYSTEM.DIHEDRAL>
0

>  <SCORE.SYSTEM.SOLV>
0

>  <SCORE.SYSTEM.norm>
0

>  <SCORE.heavy>
14

>  <SCORE.norm>
-0.998934

>  <RMSD>
8.821

$$$$
1xpf_lig
 OpenBabel02141814123D
libRbt.so/2013.1/901 2013/11/27
 14 13  0  0  0  0  0  0  0  0999 V2000
   23.2081    1.8959   59.1549 N   0  0  0  0  0  0  0  0  0  0  0  0
   23.8359    3.1646   58.8348 C   0  0  0  0  0  0  0  0  0  0  0  0
   23.4434    3.6255   57.4823 C   0  0  0  0  0  0  0  0  0  0  0  0
   24.2458    4.8576   57.2004 C   0  0  0  0  0  0  0  0  0  0  0  0
   23.7599    5.8997   58.1378 N   0  0  0  0  0  0  0  0  0  0  0  0
   24.7121    7.0513   58.1827 C   0  0  0  0  0  0  0  0  0  0  0  0
   24.5071    7.9651   59.4033 C   0  0  0  0  0  0  0  0  0  0  0  0
   24.8824    7.3097   60.7442 C   0  0  0  0  0  0  0  0  0  0  0  0
   23.7454    6.4038   61.1923 C   0  0  0  0  0  0  0  0  0  0  0  0
   22.7527    7.3122   61.7847 N   0  0  0  0  0  0  0  0  0  0  0  0
   21.5341    6.7124   62.3970 C   0  0  0  0  0  0  0  0  0  0  0  0
   21.1770    7.8072   63.4256 C   0  0  0  0  0  0  0  0  0  0  0  0
   22.0873    8.0154   64.6093 C   0  0  0  0  0  0  0  0  0  0  0  0
   22.1825    6.8811   65.5118 N   0  0  0  0  0  0  0  0  0  0  0  0
  1  2  1  0  0  0  0
  2  3  1  0  0  0  0
  3  4  1  0  0  0  0
  4  5  1  0  0  0  0
  5  6  1  0  0  0  0
  6  7  1  0  0  0  0
  7  8  1  0  0  0  0
  8  9  1  0  0  0  0
  9 10  1  0  0  0  0
 10 11  1  0  0  0  0
 11 12  1  0  0  0  0
 12 13  1  0  0  0  0
 13 14  1  0  0  0  0
M  END
>  <CHROM.1>
-174.43592040,-67.44027890,165.72218649,-163.21112245,68.50228610,-79.75741661
-79.88564061,-176.56590121,153.73814682,-68.78340580,-63.35733099,23.29110512
6.06462892,60.57555927,0.98034906,-1.06812231,-2.59748029

>  <Name>
1xpf_lig

>  <RI>
0

>  <Rbt.Current_Directory>
/home/afrankz/demos/rdock_decoys_rna/rnas/1xpf

>  <Rbt.Executable>
rbdock ($Id: //depot/dev/client3/rdock/2013.1/src/exe/rbdock.cxx#4 $)

>  <Rbt.Library>
libRbt.so (2013.1, Build901 2013/11/27)

>  <Rbt.Parameter_File>
/export/apps/rDock/src/rDock_2013.1_src/data/scripts/dock_solv.prm

>  <Rbt.Receptor>
prm/pocket_docking_7.prm

>  <SCORE>
-17.3814

>  <SCORE.INTER>
-10.594

>  <SCORE.INTER.CONST>
1

>  <SCORE.INTER.POLAR>
-2.67505

>  <SCORE.INTER.ROT>
11

>  <SCORE.INTER.SOLV>
8.66414

>  <SCORE.INTER.VDW>
-11.9672

>  <SCORE.INTER.norm>
-0.756716

>  <SCORE.INTRA>
-6.78738

>  <SCORE.INTRA.DIHEDRAL>
-13.1272

>  <SCORE.INTRA.DIHEDRAL.0>
17.7811

>  <SCORE.INTRA.POLAR>
0

>  <SCORE.INTRA.POLAR.0>
0

>  <SCORE.INTRA.REPUL>
0

>  <SCORE.INTRA.REPUL.0>
0

>  <SCORE.INTRA.SOLV>
2.66241

>  <SCORE.INTRA.SOLV.lig_0>
-47.9565

>  <SCORE.INTRA.VDW>
-1.55497

>  <SCORE.INTRA.VDW.0>
0.515983

>  <SCORE.INTRA.norm>
-0.484813

>  <SCORE.RESTR>
0

>  <SCORE.RESTR.CAVITY>
0

>  <SCORE.RESTR.norm>
0

>  <SCORE.SYSTEM>
0

>  <SCORE.SYSTEM.CONST>
0

>  <SCORE.SYSTEM.DIHEDRAL>
0

>  <SCORE.SYSTEM.SOLV>
0

>  <SCORE.SYSTEM.norm>
0

>  <SCORE.heavy>
14

>  <SCORE.norm>
-1.24153

>  <RMSD>
8.853

$$$$
1xpf_lig
 OpenBabel02141814123D
libRbt.so/2013.1/901 2013/11/27
 14 13  0  0  0  0  0  0  0  0999 V2000
   18.0616   -2.1773   60.8557 N   0  0  0  0  0  0  0  0  0  0  0  0
   16.8180   -2.9249   60.8293 C   0  0  0  0  0  0  0  0  0  0  0  0
   16.7383   -3.7814   59.6227 C   0  0  0  0  0  0  0  0  0  0  0  0
   15.4022   -4.4557   59.6641 C   0  0  0  0  0  0  0  0  0  0  0  0
   15.3560   -5.3698   58.4967 N   0  0  0  0  0  0  0  0  0  0  0  0
   14.3710   -6.4700   58.7295 C   0  0  0  0  0  0  0  0  0  0  0  0
   15.0035   -7.7387   59.3273 C   0  0  0  0  0  0  0  0  0  0  0  0
   14.0275   -8.9214   59.4578 C   0  0  0  0  0  0  0  0  0  0  0  0
   13.2801   -8.8081   60.7779 C   0  0  0  0  0  0  0  0  0  0  0  0
   14.2932   -9.0815   61.8076 N   0  0  0  0  0  0  0  0  0  0  0  0
   13.8362   -9.2172   63.2192 C   0  0  0  0  0  0  0  0  0  0  0  0
   15.1682   -9.5935   63.9036 C   0  0  0  0  0  0  0  0  0  0  0  0
   15.1610   -9.9183   65.3758 C   0  0  0  0  0  0  0  0  0  0  0  0
   16.4752  -10.1124   65.9636 N   0  0  0  0  0  0  0  0  0  0  0  0
  1  2  1  0  0  0  0
  2  3  1  0  0  0  0
  3  4  1  0  0  0  0
  4  5  1  0  0  0  0
  5  6  1  0  0  0  0
  6  7  1  0  0  0  0
  7  8  1  0  0  0  0
  8  9  1  0  0  0  0
  9 10  1  0  0  0  0
 10 11  1  0  0  0  0
 11 12  1  0  0  0  0
 12 13  1  0  0  0  0
 13 14  1  0  0  0  0
M  END
>  <CHROM.1>
-177.55411303,-176.88460862,156.62848161,-93.34961842,-174.91491000,-86.05926263
-69.59802401,-172.37228535,175.95309595,-176.23992265,-173.38285021,15.28483330
-7.04087274,61.28770160,-1.23040485,0.94640504,2.23124746

>  <Name>
1xpf_lig

>  <RI>
0

>  <Rbt.Current_Directory>
/home/afrankz/demos/rdock_decoys_rna/rnas/1xpf

>  <Rbt.Executable>
rbdock ($Id: //depot/dev/client3/rdock/2013.1/src/exe/rbdock.cxx#4 $)

>  <Rbt.Library>
libRbt.so (2013.1, Build901 2013/11/27)

>  <Rbt.Parameter_File>
/export/apps/rDock/src/rDock_2013.1_src/data/scripts/dock_solv.prm

>  <Rbt.Receptor>
prm/pocket_docking_7.prm

>  <SCORE>
-14.7586

>  <SCORE.INTER>
-6.36787

>  <SCORE.INTER.CONST>
1

>  <SCORE.INTER.POLAR>
-1.8405

>  <SCORE.INTER.ROT>
11

>  <SCORE.INTER.SOLV>
7.98958

>  <SCORE.INTER.VDW>
-11.7068

>  <SCORE.INTER.norm>
-0.454848

>  <SCORE.INTRA>
-8.3907

>  <SCORE.INTRA.DIHEDRAL>
-13.4717

>  <SCORE.INTRA.DIHEDRAL.0>
17.7811

>  <SCORE.INTRA.POLAR>
0

>  <SCORE.INTRA.POLAR.0>
0

>  <SCORE.INTRA.REPUL>
0

>  <SCORE.INTRA.REPUL.0>
0

>  <SCORE.INTRA.SOLV>
-0.428867

>  <SCORE.INTRA.SOLV.lig_0>
-47.9565

>  <SCORE.INTRA.VDW>
-1.44044

>  <SCORE.INTRA.VDW.0>
0.515983

>  <SCORE.INTRA.norm>
-0.599336

>  <SCORE.RESTR>
0

>  <SCORE.RESTR.CAVITY>
0

>  <SCORE.RESTR.norm>
0

>  <SCORE.SYSTEM>
0

>  <SCORE.SYSTEM.CONST>
0

>  <SCORE.SYSTEM.DIHEDRAL>
0

>  <SCORE.SYSTEM.SOLV>
0

>  <SCORE.SYSTEM.norm>
0

>  <SCORE.heavy>
14

>  <SCORE.norm>
-1.05418

>  <RMSD>
8.985

$$$$
1xpf_lig
 OpenBabel02141814123D
libRbt.so/2013.1/901 2013/11/27
 14 13  0  0  0  0  0  0  0  0999 V2000
   15.4430   -4.5055   57.9701 N   0  0  0  0  0  0  0  0  0  0  0  0
   15.2750   -4.0916   59.3509 C   0  0  0  0  0  0  0  0  0  0  0  0
   16.3837   -4.5952   60.1954 C   0  0  0  0  0  0  0  0  0  0  0  0
   16.2197   -6.0811   60.2755 C   0  0  0  0  0  0  0  0  0  0  0  0
   15.1441   -6.3329   61.2656 N   0  0  0  0  0  0  0  0  0  0  0  0
   15.1092   -7.7779   61.6475 C   0  0  0  0  0  0  0  0  0  0  0  0
   14.2436   -8.0602   62.8877 C   0  0  0  0  0  0  0  0  0  0  0  0
   14.2979   -9.5214   63.3678 C   0  0  0  0  0  0  0  0  0  0  0  0
   15.6991   -9.8283   63.8743 C   0  0  0  0  0  0  0  0  0  0  0  0
   15.8454   -9.0149   65.0902 N   0  0  0  0  0  0  0  0  0  0  0  0
   17.1777   -8.9867   65.7563 C   0  0  0  0  0  0  0  0  0  0  0  0
   17.0681   -7.6564   66.5325 C   0  0  0  0  0  0  0  0  0  0  0  0
   16.9507   -6.3702   65.7548 C   0  0  0  0  0  0  0  0  0  0  0  0
   16.8403   -5.1729   66.5700 N   0  0  0  0  0  0  0  0  0  0  0  0
  1  2  1  0  0  0  0
  2  3  1  0  0  0  0
  3  4  1  0  0  0  0
  4  5  1  0  0  0  0
  5  6  1  0  0  0  0
  6  7  1  0  0  0  0
  7  8  1  0  0  0  0
  8  9  1  0  0  0  0
  9 10  1  0  0  0  0
 10 11  1  0  0  0  0
 11 12  1  0  0  0  0
 12 13  1  0  0  0  0
 13 14  1  0  0  0  0
M  END
>  <CHROM.1>
-68.90212803,-78.35223387,-167.32578040,167.08770901,-174.83515389,66.38492591
67.63720174,-173.88067729,157.35154062,-64.63972264,179.45474102,15.83553743
-6.99996293,62.89570160,-1.84330269,1.10145471,2.28477576

>  <Name>
1xpf_lig

>  <RI>
0

>  <Rbt.Current_Directory>
/home/afrankz/demos/rdock_decoys_rna/rnas/1xpf

>  <Rbt.Executable>
rbdock ($Id: //depot/dev/client3/rdock/2013.1/src/exe/rbdock.cxx#4 $)

>  <Rbt.Library>
libRbt.so (2013.1, Build901 2013/11/27)

>  <Rbt.Parameter_File>
/export/apps/rDock/src/rDock_2013.1_src/data/scripts/dock_solv.prm

>  <Rbt.Receptor>
prm/blind_docking_80.prm

>  <SCORE>
-7.8428

>  <SCORE.INTER>
-0.516978

>  <SCORE.INTER.CONST>
1

>  <SCORE.INTER.POLAR>
-0.942951

>  <SCORE.INTER.ROT>
11

>  <SCORE.INTER.SOLV>
11.2292

>  <SCORE.INTER.VDW>
-11.8779

>  <SCORE.INTER.norm>
-0.036927

>  <SCORE.INTRA>
-7.34721

>  <SCORE.INTRA.DIHEDRAL>
-15.0733

>  <SCORE.INTRA.DIHEDRAL.0>
17.7811

>  <SCORE.INTRA.POLAR>
0

>  <SCORE.INTRA.POLAR.0>
0

>  <SCORE.INTRA.REPUL>
0

>  <SCORE.INTRA.REPUL.0>
0

>  <SCORE.INTRA.SOLV>
1.83944

>  <SCORE.INTRA.SOLV.lig_0>
-47.9565

>  <SCORE.INTRA.VDW>
-0.730297

>  <SCORE.INTRA.VDW.0>
0.515983

>  <SCORE.INTRA.norm>
-0.524801

>  <SCORE.RESTR>
0.0213884

>  <SCORE.RESTR.CAVITY>
0.0213884

>  <SCORE.RESTR.norm>
0.00152775

>  <SCORE.SYSTEM>
0

>  <SCORE.SYSTEM.CONST>
0

>  <SCORE.SYSTEM.DIHEDRAL>
0

>  <SCORE.SYSTEM.SOLV>
0

>  <SCORE.SYSTEM.norm>
0

>  <SCORE.heavy>
14

>  <SCORE.norm>
-0.5602

>  <RMSD>
9.065

$$$$
1xpf_lig
 OpenBabel02141814123D
libRbt.so/2013.1/901 2013/11/27
 14 13  0  0  0  0  0  0  0  0999 V2000
   13.2048   -1.5927   57.8796 N   0  0  0  0  0  0  0  0  0  0  0  0
   13.5999   -2.6631   58.7764 C   0  0  0  0  0  0  0  0  0  0  0  0
   14.2567   -3.7640   58.0332 C   0  0  0  0  0  0  0  0  0  0  0  0
   14.5996   -4.8162   59.0415 C   0  0  0  0  0  0  0  0  0  0  0  0
   15.2690   -5.9105   58.2965 N   0  0  0  0  0  0  0  0  0  0  0  0
   14.7565   -7.2414   58.7448 C   0  0  0  0  0  0  0  0  0  0  0  0
   15.4577   -7.7713   60.0075 C   0  0  0  0  0  0  0  0  0  0  0  0
   14.8995   -7.1945   61.3206 C   0  0  0  0  0  0  0  0  0  0  0  0
   13.6947   -8.0159   61.7540 C   0  0  0  0  0  0  0  0  0  0  0  0
   14.2522   -9.3140   62.1612 N   0  0  0  0  0  0  0  0  0  0  0  0
   14.4468   -9.5655   63.6167 C   0  0  0  0  0  0  0  0  0  0  0  0
   15.9811   -9.4238   63.7167 C   0  0  0  0  0  0  0  0  0  0  0  0
   16.6407   -9.6080   65.0598 C   0  0  0  0  0  0  0  0  0  0  0  0
   16.2009   -8.6800   66.0873 N   0  0  0  0  0  0  0  0  0  0  0  0
  1  2  1  0  0  0  0
  2  3  1  0  0  0  0
  3  4  1  0  0  0  0
  4  5  1  0  0  0  0
  5  6  1  0  0  0  0
  6  7  1  0  0  0  0
  7  8  1  0  0  0  0
  8  9  1  0  0  0  0
  9 10  1  0  0  0  0
 10 11  1  0  0  0  0
 11 12  1  0  0  0  0
 12 13  1  0  0  0  0
 13 14  1  0  0  0  0
M  END
>  <CHROM.1>
-179.06266254,-179.44273468,-136.33329180,-83.87018870,82.16109752,85.06671249
69.77004503,99.86026476,-105.36889678,-179.90302820,-59.96308130,14.80432218
-6.82595875,61.03539118,3.01834993,1.37716711,-2.24975580

>  <Name>
1xpf_lig

>  <RI>
0

>  <Rbt.Current_Directory>
/home/afrankz/demos/rdock_decoys_rna/rnas/1xpf

>  <Rbt.Executable>
rbdock ($Id: //depot/dev/client3/rdock/2013.1/src/exe/rbdock.cxx#4 $)

>  <Rbt.Library>
libRbt.so (2013.1, Build901 2013/11/27)

>  <Rbt.Parameter_File>
/export/apps/rDock/src/rDock_2013.1_src/data/scripts/dock_solv.prm

>  <Rbt.Receptor>
prm/pocket_docking_8.prm

>  <SCORE>
-11.7777

>  <SCORE.INTER>
-5.80384

>  <SCORE.INTER.CONST>
1

>  <SCORE.INTER.POLAR>
-1.87422

>  <SCORE.INTER.ROT>
11

>  <SCORE.INTER.SOLV>
10.7125

>  <SCORE.INTER.VDW>
-12.126

>  <SCORE.INTER.norm>
-0.41456

>  <SCORE.INTRA>
-5.97391

>  <SCORE.INTRA.DIHEDRAL>
-10.1532

>  <SCORE.INTRA.DIHEDRAL.0>
17.7811

>  <SCORE.INTRA.POLAR>
0

>  <SCORE.INTRA.POLAR.0>
0

>  <SCORE.INTRA.REPUL>
0

>  <SCORE.INTRA.REPUL.0>
0

>  <SCORE.INTRA.SOLV>
0.54492

>  <SCORE.INTRA.SOLV.lig_0>
-47.9565

>  <SCORE.INTRA.VDW>
-1.16976

>  <SCORE.INTRA.VDW.0>
0.515983

>  <SCORE.INTRA.norm>
-0.426708

>  <SCORE.RESTR>
0

>  <SCORE.RESTR.CAVITY>
0

>  <SCORE.RESTR.norm>
0

>  <SCORE.SYSTEM>
0

>  <SCORE.SYSTEM.CONST>
0

>  <SCORE.SYSTEM.DIHEDRAL>
0

>  <SCORE.SYSTEM.SOLV>
0

>  <SCORE.SYSTEM.norm>
0

>  <SCORE.heavy>
14

>  <SCORE.norm>
-0.841268

>  <RMSD>
9.326

$$$$
1xpf_lig
 OpenBabel02141814123D
libRbt.so/2013.1/901 2013/11/27
 14 13  0  0  0  0  0  0  0  0999 V2000
   15.8104   -8.8227   66.0007 N   0  0  0  0  0  0  0  0  0  0  0  0
   15.6561  -10.1582   65.4542 C   0  0  0  0  0  0  0  0  0  0  0  0
   15.6172  -10.1253   63.9733 C   0  0  0  0  0  0  0  0  0  0  0  0
   14.3744   -9.3815   63.5943 C   0  0  0  0  0  0  0  0  0  0  0  0
   14.3160   -9.3876   62.1120 N   0  0  0  0  0  0  0  0  0  0  0  0
   14.7633   -8.0709   61.5632 C   0  0  0  0  0  0  0  0  0  0  0  0
   14.6006   -7.9591   60.0374 C   0  0  0  0  0  0  0  0  0  0  0  0
   15.0644   -6.6114   59.4569 C   0  0  0  0  0  0  0  0  0  0  0  0
   14.7134   -6.5582   57.9776 C   0  0  0  0  0  0  0  0  0  0  0  0
   15.1143   -5.2116   57.5447 N   0  0  0  0  0  0  0  0  0  0  0  0
   14.0928   -4.1283   57.5945 C   0  0  0  0  0  0  0  0  0  0  0  0
   14.5362   -3.3921   58.8773 C   0  0  0  0  0  0  0  0  0  0  0  0
   13.7449   -2.1937   59.3363 C   0  0  0  0  0  0  0  0  0  0  0  0
   12.3786   -2.4822   59.7365 N   0  0  0  0  0  0  0  0  0  0  0  0
  1  2  1  0  0  0  0
  2  3  1  0  0  0  0
  3  4  1  0  0  0  0
  4  5  1  0  0  0  0
  5  6  1  0  0  0  0
  6  7  1  0  0  0  0
  7  8  1  0  0  0  0
  8  9  1  0  0  0  0
  9 10  1  0  0  0  0
 10 11  1  0  0  0  0
 11 12  1  0  0  0  0
 12 13  1  0  0  0  0
 13 14  1  0  0  0  0
M  END
>  <CHROM.1>
-65.13443563,-178.25049612,-101.72069695,-174.46554085,-179.68060904,-173.71343229
176.42510765,-92.10511558,102.43075047,-179.24433069,64.87652625,14.62740835
-6.74889059,60.94691062,0.96376007,-1.30349414,1.76143987

>  <Name>
1xpf_lig

>  <RI>
0

>  <Rbt.Current_Directory>
/home/afrankz/demos/rdock_decoys_rna/rnas/1xpf

>  <Rbt.Executable>
rbdock ($Id: //depot/dev/client3/rdock/2013.1/src/exe/rbdock.cxx#4 $)

>  <Rbt.Library>
libRbt.so (2013.1, Build901 2013/11/27)

>  <Rbt.Parameter_File>
/export/apps/rDock/src/rDock_2013.1_src/data/scripts/dock_solv.prm

>  <Rbt.Receptor>
prm/pocket_docking_7.prm

>  <SCORE>
-15.3392

>  <SCORE.INTER>
-7.29171

>  <SCORE.INTER.CONST>
1

>  <SCORE.INTER.POLAR>
-1.87422

>  <SCORE.INTER.ROT>
11

>  <SCORE.INTER.SOLV>
8.51546

>  <SCORE.INTER.VDW>
-12.3855

>  <SCORE.INTER.norm>
-0.520836

>  <SCORE.INTRA>
-8.0475

>  <SCORE.INTRA.DIHEDRAL>
-14.7658

>  <SCORE.INTRA.DIHEDRAL.0>
17.7811

>  <SCORE.INTRA.POLAR>
0

>  <SCORE.INTRA.POLAR.0>
0

>  <SCORE.INTRA.REPUL>
0

>  <SCORE.INTRA.REPUL.0>
0

>  <SCORE.INTRA.SOLV>
0.587967

>  <SCORE.INTRA.SOLV.lig_0>
-47.9565

>  <SCORE.INTRA.VDW>
-0.958604

>  <SCORE.INTRA.VDW.0>
0.515983

>  <SCORE.INTRA.norm>
-0.574822

>  <SCORE.RESTR>
0

>  <SCORE.RESTR.CAVITY>
0

>  <SCORE.RESTR.norm>
0

>  <SCORE.SYSTEM>
0

>  <SCORE.SYSTEM.CONST>
0

>  <SCORE.SYSTEM.DIHEDRAL>
0

>  <SCORE.SYSTEM.SOLV>
0

>  <SCORE.SYSTEM.norm>
0

>  <SCORE.heavy>
14

>  <SCORE.norm>
-1.09566

>  <RMSD>
9.410

$$$$
1xpf_lig
 OpenBabel02141814123D
libRbt.so/2013.1/901 2013/11/27
 14 13  0  0  0  0  0  0  0  0999 V2000
   15.2132   -6.3495   57.7239 N   0  0  0  0  0  0  0  0  0  0  0  0
   14.2617   -7.0930   58.5289 C   0  0  0  0  0  0  0  0  0  0  0  0
   14.9407   -7.7894   59.6468 C   0  0  0  0  0  0  0  0  0  0  0  0
   13.8683   -8.4605   60.4474 C   0  0  0  0  0  0  0  0  0  0  0  0
   14.5487   -9.1352   61.5798 N   0  0  0  0  0  0  0  0  0  0  0  0
   13.7369   -9.0124   62.8291 C   0  0  0  0  0  0  0  0  0  0  0  0
   14.5254   -9.3544   64.1051 C   0  0  0  0  0  0  0  0  0  0  0  0
   15.7720   -8.4786   64.3227 C   0  0  0  0  0  0  0  0  0  0  0  0
   15.3333   -7.0661   64.6786 C   0  0  0  0  0  0  0  0  0  0  0  0
   16.5858   -6.3273   64.8954 N   0  0  0  0  0  0  0  0  0  0  0  0
   17.0859   -6.1941   66.2925 C   0  0  0  0  0  0  0  0  0  0  0  0
   16.3795   -4.8872   66.7132 C   0  0  0  0  0  0  0  0  0  0  0  0
   16.5767   -4.3756   68.1176 C   0  0  0  0  0  0  0  0  0  0  0  0
   16.1412   -5.2842   69.1641 N   0  0  0  0  0  0  0  0  0  0  0  0
  1  2  1  0  0  0  0
  2  3  1  0  0  0  0
  3  4  1  0  0  0  0
  4  5  1  0  0  0  0
  5  6  1  0  0  0  0
  6  7  1  0  0  0  0
  7  8  1  0  0  0  0
  8  9  1  0  0  0  0
  9 10  1  0  0  0  0
 10 11  1  0  0  0  0
 11 12  1  0  0  0  0
 12 13  1  0  0  0  0
 13 14  1  0  0  0  0
M  END
>  <CHROM.1>
177.13232325,-178.96060947,141.16950072,-164.94774074,58.70229303,70.13969590
178.68465301,-95.76184399,-89.50287867,178.30289378,-59.99855032,15.35484590
-7.12924355,63.50331042,-2.15382191,1.15076402,1.82851253

>  <Name>
1xpf_lig

>  <RI>
0

>  <Rbt.Current_Directory>
/home/afrankz/demos/rdock_decoys_rna/rnas/1xpf

>  <Rbt.Executable>
rbdock ($Id: //depot/dev/client3/rdock/2013.1/src/exe/rbdock.cxx#4 $)

>  <Rbt.Library>
libRbt.so (2013.1, Build901 2013/11/27)

>  <Rbt.Parameter_File>
/export/apps/rDock/src/rDock_2013.1_src/data/scripts/dock_solv.prm

>  <Rbt.Receptor>
prm/pocket_docking_8.prm

>  <SCORE>
-14.2922

>  <SCORE.INTER>
-6.05509

>  <SCORE.INTER.CONST>
1

>  <SCORE.INTER.POLAR>
-1.86593

>  <SCORE.INTER.ROT>
11

>  <SCORE.INTER.SOLV>
11.9751

>  <SCORE.INTER.VDW>
-12.742

>  <SCORE.INTER.norm>
-0.432506

>  <SCORE.INTRA>
-8.23711

>  <SCORE.INTRA.DIHEDRAL>
-14.8937

>  <SCORE.INTRA.DIHEDRAL.0>
17.7811

>  <SCORE.INTRA.POLAR>
0

>  <SCORE.INTRA.POLAR.0>
0

>  <SCORE.INTRA.REPUL>
0

>  <SCORE.INTRA.REPUL.0>
0

>  <SCORE.INTRA.SOLV>
0.384517

>  <SCORE.INTRA.SOLV.lig_0>
-47.9565

>  <SCORE.INTRA.VDW>
-0.982511

>  <SCORE.INTRA.VDW.0>
0.515983

>  <SCORE.INTRA.norm>
-0.588365

>  <SCORE.RESTR>
0

>  <SCORE.RESTR.CAVITY>
0

>  <SCORE.RESTR.norm>
0

>  <SCORE.SYSTEM>
0

>  <SCORE.SYSTEM.CONST>
0

>  <SCORE.SYSTEM.DIHEDRAL>
0

>  <SCORE.SYSTEM.SOLV>
0

>  <SCORE.SYSTEM.norm>
0

>  <SCORE.heavy>
14

>  <SCORE.norm>
-1.02087

>  <RMSD>
9.458

$$$$
1xpf_lig
 OpenBabel02141814123D
libRbt.so/2013.1/901 2013/11/27
 14 13  0  0  0  0  0  0  0  0999 V2000
   16.4882   -5.5742   69.9158 N   0  0  0  0  0  0  0  0  0  0  0  0
   16.6593   -4.6682   68.7950 C   0  0  0  0  0  0  0  0  0  0  0  0
   15.9027   -5.1388   67.6109 C   0  0  0  0  0  0  0  0  0  0  0  0
   16.5925   -6.3759   67.1262 C   0  0  0  0  0  0  0  0  0  0  0  0
   15.7968   -6.8796   65.9799 N   0  0  0  0  0  0  0  0  0  0  0  0
   16.6615   -7.6596   65.0425 C   0  0  0  0  0  0  0  0  0  0  0  0
   16.9383   -9.0956   65.5200 C   0  0  0  0  0  0  0  0  0  0  0  0
   15.7293  -10.0396   65.3948 C   0  0  0  0  0  0  0  0  0  0  0  0
   15.7911  -10.7540   64.0532 C   0  0  0  0  0  0  0  0  0  0  0  0
   15.3713   -9.7442   63.0704 N   0  0  0  0  0  0  0  0  0  0  0  0
   13.9390   -9.3348   63.0571 C   0  0  0  0  0  0  0  0  0  0  0  0
   14.0861   -7.8329   62.7302 C   0  0  0  0  0  0  0  0  0  0  0  0
   14.6959   -7.4340   61.4103 C   0  0  0  0  0  0  0  0  0  0  0  0
   14.7335   -6.0030   61.1639 N   0  0  0  0  0  0  0  0  0  0  0  0
  1  2  1  0  0  0  0
  2  3  1  0  0  0  0
  3  4  1  0  0  0  0
  4  5  1  0  0  0  0
  5  6  1  0  0  0  0
  6  7  1  0  0  0  0
  7  8  1  0  0  0  0
  8  9  1  0  0  0  0
  9 10  1  0  0  0  0
 10 11  1  0  0  0  0
 11 12  1  0  0  0  0
 12 13  1  0  0  0  0
 13 14  1  0  0  0  0
M  END
>  <CHROM.1>
-69.44674570,177.43714194,153.15447279,79.35266405,73.07521674,92.57462549
-75.65240808,-70.85116987,143.54784668,62.83893029,177.14231955,15.67041783
-7.60982679,65.06217478,-0.77128582,1.23059173,-2.81947824

>  <Name>
1xpf_lig

>  <RI>
0

>  <Rbt.Current_Directory>
/home/afrankz/demos/rdock_decoys_rna/rnas/1xpf

>  <Rbt.Executable>
rbdock ($Id: //depot/dev/client3/rdock/2013.1/src/exe/rbdock.cxx#4 $)

>  <Rbt.Library>
libRbt.so (2013.1, Build901 2013/11/27)

>  <Rbt.Parameter_File>
/export/apps/rDock/src/rDock_2013.1_src/data/scripts/dock_solv.prm

>  <Rbt.Receptor>
prm/blind_docking_80.prm

>  <SCORE>
-6.49362

>  <SCORE.INTER>
-1.54664

>  <SCORE.INTER.CONST>
1

>  <SCORE.INTER.POLAR>
-0.878821

>  <SCORE.INTER.ROT>
11

>  <SCORE.INTER.SOLV>
6.58667

>  <SCORE.INTER.VDW>
-11.2306

>  <SCORE.INTER.norm>
-0.110474

>  <SCORE.INTRA>
-4.94698

>  <SCORE.INTRA.DIHEDRAL>
-10.7178

>  <SCORE.INTRA.DIHEDRAL.0>
17.7811

>  <SCORE.INTRA.POLAR>
0

>  <SCORE.INTRA.POLAR.0>
0

>  <SCORE.INTRA.REPUL>
0

>  <SCORE.INTRA.REPUL.0>
0

>  <SCORE.INTRA.SOLV>
2.2235

>  <SCORE.INTRA.SOLV.lig_0>
-47.9565

>  <SCORE.INTRA.VDW>
-0.699846

>  <SCORE.INTRA.VDW.0>
0.515983

>  <SCORE.INTRA.norm>
-0.353356

>  <SCORE.RESTR>
0

>  <SCORE.RESTR.CAVITY>
0

>  <SCORE.RESTR.norm>
0

>  <SCORE.SYSTEM>
0

>  <SCORE.SYSTEM.CONST>
0

>  <SCORE.SYSTEM.DIHEDRAL>
0

>  <SCORE.SYSTEM.SOLV>
0

>  <SCORE.SYSTEM.norm>
0

>  <SCORE.heavy>
14

>  <SCORE.norm>
-0.46383

>  <RMSD>
9.599

$$$$
1xpf_lig
 OpenBabel02141814123D
libRbt.so/2013.1/901 2013/11/27
 14 13  0  0  0  0  0  0  0  0999 V2000
   23.9563    7.4784   57.6924 N   0  0  0  0  0  0  0  0  0  0  0  0
   24.4655    7.8758   58.9920 C   0  0  0  0  0  0  0  0  0  0  0  0
   24.5696    6.7103   59.9012 C   0  0  0  0  0  0  0  0  0  0  0  0
   24.8750    7.2550   61.2619 C   0  0  0  0  0  0  0  0  0  0  0  0
   23.5844    7.7153   61.8302 N   0  0  0  0  0  0  0  0  0  0  0  0
   23.6485    7.7449   63.3235 C   0  0  0  0  0  0  0  0  0  0  0  0
   22.2636    7.7649   63.9933 C   0  0  0  0  0  0  0  0  0  0  0  0
   22.3094    7.6407   65.5265 C   0  0  0  0  0  0  0  0  0  0  0  0
   22.8006    6.2503   65.8999 C   0  0  0  0  0  0  0  0  0  0  0  0
   22.8376    6.2472   67.3697 N   0  0  0  0  0  0  0  0  0  0  0  0
   24.1437    5.9819   68.0355 C   0  0  0  0  0  0  0  0  0  0  0  0
   23.6680    5.1655   69.2568 C   0  0  0  0  0  0  0  0  0  0  0  0
   22.8063    5.8435   70.2916 C   0  0  0  0  0  0  0  0  0  0  0  0
   22.4133    4.9985   71.4059 N   0  0  0  0  0  0  0  0  0  0  0  0
  1  2  1  0  0  0  0
  2  3  1  0  0  0  0
  3  4  1  0  0  0  0
  4  5  1  0  0  0  0
  5  6  1  0  0  0  0
  6  7  1  0  0  0  0
  7  8  1  0  0  0  0
  8  9  1  0  0  0  0
  9 10  1  0  0  0  0
 10 11  1  0  0  0  0
 11 12  1  0  0  0  0
 12 13  1  0  0  0  0
 13 14  1  0  0  0  0
M  END
>  <CHROM.1>
-170.62355420,80.52832106,156.63188611,-161.41416841,173.68956847,-67.61206798
178.70292447,-120.68596293,-143.73573510,-65.34636894,-179.73796610,23.45307983
6.76235541,64.62719668,-1.42065075,-0.63296763,1.84683547

>  <Name>
1xpf_lig

>  <RI>
0

>  <Rbt.Current_Directory>
/home/afrankz/demos/rdock_decoys_rna/rnas/1xpf

>  <Rbt.Executable>
rbdock ($Id: //depot/dev/client3/rdock/2013.1/src/exe/rbdock.cxx#4 $)

>  <Rbt.Library>
libRbt.so (2013.1, Build901 2013/11/27)

>  <Rbt.Parameter_File>
/export/apps/rDock/src/rDock_2013.1_src/data/scripts/dock_solv.prm

>  <Rbt.Receptor>
prm/pocket_docking_8.prm

>  <SCORE>
-13.2762

>  <SCORE.INTER>
-5.93416

>  <SCORE.INTER.CONST>
1

>  <SCORE.INTER.POLAR>
-1.81094

>  <SCORE.INTER.ROT>
11

>  <SCORE.INTER.SOLV>
11.021

>  <SCORE.INTER.VDW>
-12.5266

>  <SCORE.INTER.norm>
-0.423869

>  <SCORE.INTRA>
-7.34206

>  <SCORE.INTRA.DIHEDRAL>
-12.8541

>  <SCORE.INTRA.DIHEDRAL.0>
17.7811

>  <SCORE.INTRA.POLAR>
0

>  <SCORE.INTRA.POLAR.0>
0

>  <SCORE.INTRA.REPUL>
0

>  <SCORE.INTRA.REPUL.0>
0

>  <SCORE.INTRA.SOLV>
0.23489

>  <SCORE.INTRA.SOLV.lig_0>
-47.9565

>  <SCORE.INTRA.VDW>
-1.03243

>  <SCORE.INTRA.VDW.0>
0.515983

>  <SCORE.INTRA.norm>
-0.524433

>  <SCORE.RESTR>
0

>  <SCORE.RESTR.CAVITY>
0

>  <SCORE.RESTR.norm>
0

>  <SCORE.SYSTEM>
0

>  <SCORE.SYSTEM.CONST>
0

>  <SCORE.SYSTEM.DIHEDRAL>
0

>  <SCORE.SYSTEM.SOLV>
0

>  <SCORE.SYSTEM.norm>
0

>  <SCORE.heavy>
14

>  <SCORE.norm>
-0.948301

>  <RMSD>
9.645

$$$$
1xpf_lig
 OpenBabel02141814123D
libRbt.so/2013.1/901 2013/11/27
 14 13  0  0  0  0  0  0  0  0999 V2000
   19.8611    8.5327   65.4722 N   0  0  0  0  0  0  0  0  0  0  0  0
   21.2582    8.4323   65.0927 C   0  0  0  0  0  0  0  0  0  0  0  0
   21.3963    7.9874   63.6860 C   0  0  0  0  0  0  0  0  0  0  0  0
   22.8636    7.8478   63.4234 C   0  0  0  0  0  0  0  0  0  0  0  0
   22.9993    7.4271   62.0073 N   0  0  0  0  0  0  0  0  0  0  0  0
   24.4404    7.3580   61.6156 C   0  0  0  0  0  0  0  0  0  0  0  0
   24.6694    7.5157   60.1024 C   0  0  0  0  0  0  0  0  0  0  0  0
   26.1525    7.5998   59.7005 C   0  0  0  0  0  0  0  0  0  0  0  0
   26.2518    7.7659   58.1916 C   0  0  0  0  0  0  0  0  0  0  0  0
   25.7874    6.4840   57.6414 N   0  0  0  0  0  0  0  0  0  0  0  0
   24.9226    6.5161   56.4287 C   0  0  0  0  0  0  0  0  0  0  0  0
   24.7158    5.0032   56.1993 C   0  0  0  0  0  0  0  0  0  0  0  0
   24.0781    4.1841   57.2927 C   0  0  0  0  0  0  0  0  0  0  0  0
   22.7548    4.6287   57.6944 N   0  0  0  0  0  0  0  0  0  0  0  0
  1  2  1  0  0  0  0
  2  3  1  0  0  0  0
  3  4  1  0  0  0  0
  4  5  1  0  0  0  0
  5  6  1  0  0  0  0
  6  7  1  0  0  0  0
  7  8  1  0  0  0  0
  8  9  1  0  0  0  0
  9 10  1  0  0  0  0
 10 11  1  0  0  0  0
 11 12  1  0  0  0  0
 12 13  1  0  0  0  0
 13 14  1  0  0  0  0
M  END
>  <CHROM.1>
-177.05964193,-178.96140446,175.79321788,-155.81617223,173.71566784,-179.49866166
-68.27409872,139.79113647,178.73737081,59.18115393,58.06996512,23.72544188
6.94884788,60.32472292,2.07703180,0.48932760,0.99677417

>  <Name>
1xpf_lig

>  <RI>
0

>  <Rbt.Current_Directory>
/home/afrankz/demos/rdock_decoys_rna/rnas/1xpf

>  <Rbt.Executable>
rbdock ($Id: //depot/dev/client3/rdock/2013.1/src/exe/rbdock.cxx#4 $)

>  <Rbt.Library>
libRbt.so (2013.1, Build901 2013/11/27)

>  <Rbt.Parameter_File>
/export/apps/rDock/src/rDock_2013.1_src/data/scripts/dock_solv.prm

>  <Rbt.Receptor>
prm/pocket_docking_8.prm

>  <SCORE>
-15.9597

>  <SCORE.INTER>
-7.11391

>  <SCORE.INTER.CONST>
1

>  <SCORE.INTER.POLAR>
-1.99469

>  <SCORE.INTER.ROT>
11

>  <SCORE.INTER.SOLV>
10.3924

>  <SCORE.INTER.VDW>
-12.4911

>  <SCORE.INTER.norm>
-0.508137

>  <SCORE.INTRA>
-8.84574

>  <SCORE.INTRA.DIHEDRAL>
-15.9821

>  <SCORE.INTRA.DIHEDRAL.0>
17.7811

>  <SCORE.INTRA.POLAR>
0

>  <SCORE.INTRA.POLAR.0>
0

>  <SCORE.INTRA.REPUL>
0

>  <SCORE.INTRA.REPUL.0>
0

>  <SCORE.INTRA.SOLV>
1.62231

>  <SCORE.INTRA.SOLV.lig_0>
-47.9565

>  <SCORE.INTRA.VDW>
-1.66587

>  <SCORE.INTRA.VDW.0>
0.515983

>  <SCORE.INTRA.norm>
-0.631839

>  <SCORE.RESTR>
0

>  <SCORE.RESTR.CAVITY>
0

>  <SCORE.RESTR.norm>
0

>  <SCORE.SYSTEM>
0

>  <SCORE.SYSTEM.CONST>
0

>  <SCORE.SYSTEM.DIHEDRAL>
0

>  <SCORE.SYSTEM.SOLV>
0

>  <SCORE.SYSTEM.norm>
0

>  <SCORE.heavy>
14

>  <SCORE.norm>
-1.13998

>  <RMSD>
10.093

$$$$
1xpf_lig
 OpenBabel02141814123D
libRbt.so/2013.1/901 2013/11/27
 14 13  0  0  0  0  0  0  0  0999 V2000
   14.8887   -7.5106   57.5549 N   0  0  0  0  0  0  0  0  0  0  0  0
   14.3156   -7.3120   58.8733 C   0  0  0  0  0  0  0  0  0  0  0  0
   15.0586   -8.0832   59.8975 C   0  0  0  0  0  0  0  0  0  0  0  0
   14.2703   -7.9801   61.1661 C   0  0  0  0  0  0  0  0  0  0  0  0
   14.9790   -8.8106   62.1705 N   0  0  0  0  0  0  0  0  0  0  0  0
   14.0389   -9.2501   63.2465 C   0  0  0  0  0  0  0  0  0  0  0  0
   14.7518   -9.8379   64.4767 C   0  0  0  0  0  0  0  0  0  0  0  0
   15.1809   -8.7840   65.5128 C   0  0  0  0  0  0  0  0  0  0  0  0
   15.8247   -9.4847   66.6997 C   0  0  0  0  0  0  0  0  0  0  0  0
   15.8847   -8.4607   67.7530 N   0  0  0  0  0  0  0  0  0  0  0  0
   17.0324   -7.5110   67.7400 C   0  0  0  0  0  0  0  0  0  0  0  0
   16.5799   -6.5190   68.8334 C   0  0  0  0  0  0  0  0  0  0  0  0
   15.3133   -5.7302   68.6181 C   0  0  0  0  0  0  0  0  0  0  0  0
   15.0084   -4.7693   69.6640 N   0  0  0  0  0  0  0  0  0  0  0  0
  1  2  1  0  0  0  0
  2  3  1  0  0  0  0
  3  4  1  0  0  0  0
  4  5  1  0  0  0  0
  5  6  1  0  0  0  0
  6  7  1  0  0  0  0
  7  8  1  0  0  0  0
  8  9  1  0  0  0  0
  9 10  1  0  0  0  0
 10 11  1  0  0  0  0
 11 12  1  0  0  0  0
 12 13  1  0  0  0  0
 13 14  1  0  0  0  0
M  END
>  <CHROM.1>
-171.47619833,177.13520588,-156.15088482,-166.94038414,86.37847831,177.93731781
-166.17685036,-83.66619782,171.47376726,-62.53183809,-176.68669519,15.22338733
-7.86043607,64.44339539,2.83341301,1.42898188,-2.96504979

>  <Name>
1xpf_lig

>  <RI>
0

>  <Rbt.Current_Directory>
/home/afrankz/demos/rdock_decoys_rna/rnas/1xpf

>  <Rbt.Executable>
rbdock ($Id: //depot/dev/client3/rdock/2013.1/src/exe/rbdock.cxx#4 $)

>  <Rbt.Library>
libRbt.so (2013.1, Build901 2013/11/27)

>  <Rbt.Parameter_File>
/export/apps/rDock/src/rDock_2013.1_src/data/scripts/dock_solv.prm

>  <Rbt.Receptor>
prm/pocket_docking_7.prm

>  <SCORE>
-8.41564

>  <SCORE.INTER>
-0.146109

>  <SCORE.INTER.CONST>
1

>  <SCORE.INTER.POLAR>
-1.78656

>  <SCORE.INTER.ROT>
11

>  <SCORE.INTER.SOLV>
12.5509

>  <SCORE.INTER.VDW>
-9.25919

>  <SCORE.INTER.norm>
-0.0104363

>  <SCORE.INTRA>
-8.2759

>  <SCORE.INTRA.DIHEDRAL>
-13.4561

>  <SCORE.INTRA.DIHEDRAL.0>
17.7811

>  <SCORE.INTRA.POLAR>
0

>  <SCORE.INTRA.POLAR.0>
0

>  <SCORE.INTRA.REPUL>
0

>  <SCORE.INTRA.REPUL.0>
0

>  <SCORE.INTRA.SOLV>
-0.269441

>  <SCORE.INTRA.SOLV.lig_0>
-47.9565

>  <SCORE.INTRA.VDW>
-1.4131

>  <SCORE.INTRA.VDW.0>
0.515983

>  <SCORE.INTRA.norm>
-0.591135

>  <SCORE.RESTR>
0.00636465

>  <SCORE.RESTR.CAVITY>
0.00636465

>  <SCORE.RESTR.norm>
0.000454618

>  <SCORE.SYSTEM>
0

>  <SCORE.SYSTEM.CONST>
0

>  <SCORE.SYSTEM.DIHEDRAL>
0

>  <SCORE.SYSTEM.SOLV>
0

>  <SCORE.SYSTEM.norm>
0

>  <SCORE.heavy>
14

>  <SCORE.norm>
-0.601117

>  <RMSD>
10.336

$$$$
1xpf_lig
 OpenBabel02141814123D
libRbt.so/2013.1/901 2013/11/27
 14 13  0  0  0  0  0  0  0  0999 V2000
   23.8875    9.3254   57.6971 N   0  0  0  0  0  0  0  0  0  0  0  0
   25.2077    9.8816   57.9294 C   0  0  0  0  0  0  0  0  0  0  0  0
   26.1763    8.8192   58.2887 C   0  0  0  0  0  0  0  0  0  0  0  0
   25.6387    8.1464   59.5133 C   0  0  0  0  0  0  0  0  0  0  0  0
   26.7843    7.4491   60.1474 N   0  0  0  0  0  0  0  0  0  0  0  0
   26.3116    6.2663   60.9300 C   0  0  0  0  0  0  0  0  0  0  0  0
   25.4900    6.6466   62.1739 C   0  0  0  0  0  0  0  0  0  0  0  0
   24.0724    7.1539   61.8551 C   0  0  0  0  0  0  0  0  0  0  0  0
   23.4036    7.6080   63.1438 C   0  0  0  0  0  0  0  0  0  0  0  0
   22.0625    8.0504   62.7351 N   0  0  0  0  0  0  0  0  0  0  0  0
   21.2323    8.7797   63.7344 C   0  0  0  0  0  0  0  0  0  0  0  0
   20.0923    7.7589   63.9410 C   0  0  0  0  0  0  0  0  0  0  0  0
   19.0131    8.0702   64.9467 C   0  0  0  0  0  0  0  0  0  0  0  0
   18.2531    9.2772   64.6713 N   0  0  0  0  0  0  0  0  0  0  0  0
  1  2  1  0  0  0  0
  2  3  1  0  0  0  0
  3  4  1  0  0  0  0
  4  5  1  0  0  0  0
  5  6  1  0  0  0  0
  6  7  1  0  0  0  0
  7  8  1  0  0  0  0
  8  9  1  0  0  0  0
  9 10  1  0  0  0  0
 10 11  1  0  0  0  0
 11 12  1  0  0  0  0
 12 13  1  0  0  0  0
 13 14  1  0  0  0  0
M  END
>  <CHROM.1>
-58.26646524,-160.14868568,-152.67997803,-67.97462216,73.46137808,-175.22652560
-179.20452620,-169.48291690,-114.03596044,177.63112026,60.62372610,23.40207802
8.08788185,61.55061206,0.57154030,0.43894691,-1.01419205

>  <Name>
1xpf_lig

>  <RI>
0

>  <Rbt.Current_Directory>
/home/afrankz/demos/rdock_decoys_rna/rnas/1xpf

>  <Rbt.Executable>
rbdock ($Id: //depot/dev/client3/rdock/2013.1/src/exe/rbdock.cxx#4 $)

>  <Rbt.Library>
libRbt.so (2013.1, Build901 2013/11/27)

>  <Rbt.Parameter_File>
/export/apps/rDock/src/rDock_2013.1_src/data/scripts/dock_solv.prm

>  <Rbt.Receptor>
prm/pocket_docking_8.prm

>  <SCORE>
-12.5286

>  <SCORE.INTER>
-6.48779

>  <SCORE.INTER.CONST>
1

>  <SCORE.INTER.POLAR>
-1.8546

>  <SCORE.INTER.ROT>
11

>  <SCORE.INTER.SOLV>
13.0517

>  <SCORE.INTER.VDW>
-13.4271

>  <SCORE.INTER.norm>
-0.463414

>  <SCORE.INTRA>
-6.04086

>  <SCORE.INTRA.DIHEDRAL>
-13.8032

>  <SCORE.INTRA.DIHEDRAL.0>
17.7811

>  <SCORE.INTRA.POLAR>
0

>  <SCORE.INTRA.POLAR.0>
0

>  <SCORE.INTRA.REPUL>
0

>  <SCORE.INTRA.REPUL.0>
0

>  <SCORE.INTRA.SOLV>
0.944895

>  <SCORE.INTRA.SOLV.lig_0>
-47.9565

>  <SCORE.INTRA.VDW>
0.388277

>  <SCORE.INTRA.VDW.0>
0.515983

>  <SCORE.INTRA.norm>
-0.43149

>  <SCORE.RESTR>
0

>  <SCORE.RESTR.CAVITY>
0

>  <SCORE.RESTR.norm>
0

>  <SCORE.SYSTEM>
0

>  <SCORE.SYSTEM.CONST>
0

>  <SCORE.SYSTEM.DIHEDRAL>
0

>  <SCORE.SYSTEM.SOLV>
0

>  <SCORE.SYSTEM.norm>
0

>  <SCORE.heavy>
14

>  <SCORE.norm>
-0.894903

>  <RMSD>
10.428

$$$$
1xpf_lig
 OpenBabel02141814123D
libRbt.so/2013.1/901 2013/11/27
 14 13  0  0  0  0  0  0  0  0999 V2000
   24.0824    4.1747   65.2122 N   0  0  0  0  0  0  0  0  0  0  0  0
   23.5918    5.5370   65.1148 C   0  0  0  0  0  0  0  0  0  0  0  0
   24.1491    6.2188   63.9230 C   0  0  0  0  0  0  0  0  0  0  0  0
   23.5035    7.5681   63.8608 C   0  0  0  0  0  0  0  0  0  0  0  0
   22.0554    7.3318   63.6421 N   0  0  0  0  0  0  0  0  0  0  0  0
   21.2778    8.5882   63.8700 C   0  0  0  0  0  0  0  0  0  0  0  0
   19.7954    8.3373   64.1966 C   0  0  0  0  0  0  0  0  0  0  0  0
   18.9621    9.6226   64.3447 C   0  0  0  0  0  0  0  0  0  0  0  0
   17.4856    9.2584   64.3818 C   0  0  0  0  0  0  0  0  0  0  0  0
   16.7860   10.4846   63.9714 N   0  0  0  0  0  0  0  0  0  0  0  0
   15.3596   10.3700   63.5567 C   0  0  0  0  0  0  0  0  0  0  0  0
   15.3483   11.3283   62.3460 C   0  0  0  0  0  0  0  0  0  0  0  0
   14.0230   11.7216   61.7444 C   0  0  0  0  0  0  0  0  0  0  0  0
   13.2184   10.6118   61.2638 N   0  0  0  0  0  0  0  0  0  0  0  0
  1  2  1  0  0  0  0
  2  3  1  0  0  0  0
  3  4  1  0  0  0  0
  4  5  1  0  0  0  0
  5  6  1  0  0  0  0
  6  7  1  0  0  0  0
  7  8  1  0  0  0  0
  8  9  1  0  0  0  0
  9 10  1  0  0  0  0
 10 11  1  0  0  0  0
 11 12  1  0  0  0  0
 12 13  1  0  0  0  0
 13 14  1  0  0  0  0
M  END
>  <CHROM.1>
175.79567518,-63.99146850,167.27417954,-157.82274701,-176.28307395,168.58611574
-157.46794675,164.07452027,-139.07458877,-169.11803894,-58.76523836,19.25997126
8.65399510,63.67350807,0.54007008,-0.03600240,2.68663199

>  <Name>
1xpf_lig

>  <RI>
0

>  <Rbt.Current_Directory>
/home/afrankz/demos/rdock_decoys_rna/rnas/1xpf

>  <Rbt.Executable>
rbdock ($Id: //depot/dev/client3/rdock/2013.1/src/exe/rbdock.cxx#4 $)

>  <Rbt.Library>
libRbt.so (2013.1, Build901 2013/11/27)

>  <Rbt.Parameter_File>
/export/apps/rDock/src/rDock_2013.1_src/data/scripts/dock_solv.prm

>  <Rbt.Receptor>
prm/blind_docking_100.prm

>  <SCORE>
-8.09454

>  <SCORE.INTER>
-0.329732

>  <SCORE.INTER.CONST>
1

>  <SCORE.INTER.POLAR>
0

>  <SCORE.INTER.ROT>
11

>  <SCORE.INTER.SOLV>
12.0813

>  <SCORE.INTER.VDW>
-15.1803

>  <SCORE.INTER.norm>
-0.0235523

>  <SCORE.INTRA>
-7.76932

>  <SCORE.INTRA.DIHEDRAL>
-13.3111

>  <SCORE.INTRA.DIHEDRAL.0>
17.7811

>  <SCORE.INTRA.POLAR>
0

>  <SCORE.INTRA.POLAR.0>
0

>  <SCORE.INTRA.REPUL>
0

>  <SCORE.INTRA.REPUL.0>
0

>  <SCORE.INTRA.SOLV>
0.381863

>  <SCORE.INTRA.SOLV.lig_0>
-47.9565

>  <SCORE.INTRA.VDW>
-1.30472

>  <SCORE.INTRA.VDW.0>
0.515983

>  <SCORE.INTRA.norm>
-0.554952

>  <SCORE.RESTR>
0.00451727

>  <SCORE.RESTR.CAVITY>
0.00451727

>  <SCORE.RESTR.norm>
0.000322662

>  <SCORE.SYSTEM>
0

>  <SCORE.SYSTEM.CONST>
0

>  <SCORE.SYSTEM.DIHEDRAL>
0

>  <SCORE.SYSTEM.SOLV>
0

>  <SCORE.SYSTEM.norm>
0

>  <SCORE.heavy>
14

>  <SCORE.norm>
-0.578181

>  <RMSD>
10.486

$$$$
1xpf_lig
 OpenBabel02141814123D
libRbt.so/2013.1/901 2013/11/27
 14 13  0  0  0  0  0  0  0  0999 V2000
   13.3199   10.1805   60.4365 N   0  0  0  0  0  0  0  0  0  0  0  0
   14.5225   10.5876   61.1395 C   0  0  0  0  0  0  0  0  0  0  0  0
   14.2228   10.9344   62.5487 C   0  0  0  0  0  0  0  0  0  0  0  0
   15.4849   11.4919   63.1298 C   0  0  0  0  0  0  0  0  0  0  0  0
   16.3902   10.3384   63.3542 N   0  0  0  0  0  0  0  0  0  0  0  0
   17.4437   10.6845   64.3568 C   0  0  0  0  0  0  0  0  0  0  0  0
   18.0051    9.4596   65.0993 C   0  0  0  0  0  0  0  0  0  0  0  0
   18.9703    8.6068   64.2570 C   0  0  0  0  0  0  0  0  0  0  0  0
   20.3071    9.3250   64.1503 C   0  0  0  0  0  0  0  0  0  0  0  0
   21.1876    8.3776   63.4514 N   0  0  0  0  0  0  0  0  0  0  0  0
   22.3390    7.8069   64.2052 C   0  0  0  0  0  0  0  0  0  0  0  0
   22.5726    6.5066   63.4060 C   0  0  0  0  0  0  0  0  0  0  0  0
   21.4893    5.4582   63.3934 C   0  0  0  0  0  0  0  0  0  0  0  0
   21.2664    4.7968   64.6675 N   0  0  0  0  0  0  0  0  0  0  0  0
  1  2  1  0  0  0  0
  2  3  1  0  0  0  0
  3  4  1  0  0  0  0
  4  5  1  0  0  0  0
  5  6  1  0  0  0  0
  6  7  1  0  0  0  0
  7  8  1  0  0  0  0
  8  9  1  0  0  0  0
  9 10  1  0  0  0  0
 10 11  1  0  0  0  0
 11 12  1  0  0  0  0
 12 13  1  0  0  0  0
 13 14  1  0  0  0  0
M  END
>  <CHROM.1>
-173.36834186,-74.68987301,-159.50741308,154.45541488,75.19966434,75.08349254
174.51008427,-113.68368944,156.34841472,-63.96603202,-68.18101679,18.39452973
8.89696360,63.39987147,2.86392066,-0.50498444,0.61161006

>  <Name>
1xpf_lig

>  <RI>
0

>  <Rbt.Current_Directory>
/home/afrankz/demos/rdock_decoys_rna/rnas/1xpf

>  <Rbt.Executable>
rbdock ($Id: //depot/dev/client3/rdock/2013.1/src/exe/rbdock.cxx#4 $)

>  <Rbt.Library>
libRbt.so (2013.1, Build901 2013/11/27)

>  <Rbt.Parameter_File>
/export/apps/rDock/src/rDock_2013.1_src/data/scripts/dock_solv.prm

>  <Rbt.Receptor>
prm/blind_docking_100.prm

>  <SCORE>
-6.0024

>  <SCORE.INTER>
0.668487

>  <SCORE.INTER.CONST>
1

>  <SCORE.INTER.POLAR>
0

>  <SCORE.INTER.ROT>
11

>  <SCORE.INTER.SOLV>
10.8244

>  <SCORE.INTER.VDW>
-14.0958

>  <SCORE.INTER.norm>
0.0477491

>  <SCORE.INTRA>
-6.68181

>  <SCORE.INTRA.DIHEDRAL>
-12.3364

>  <SCORE.INTRA.DIHEDRAL.0>
17.7811

>  <SCORE.INTRA.POLAR>
0

>  <SCORE.INTRA.POLAR.0>
0

>  <SCORE.INTRA.REPUL>
0

>  <SCORE.INTRA.REPUL.0>
0

>  <SCORE.INTRA.SOLV>
1.73044

>  <SCORE.INTRA.SOLV.lig_0>
-47.9565

>  <SCORE.INTRA.VDW>
-1.37885

>  <SCORE.INTRA.VDW.0>
0.515983

>  <SCORE.INTRA.norm>
-0.477272

>  <SCORE.RESTR>
0.0109289

>  <SCORE.RESTR.CAVITY>
0.0109289

>  <SCORE.RESTR.norm>
0.000780635

>  <SCORE.SYSTEM>
0

>  <SCORE.SYSTEM.CONST>
0

>  <SCORE.SYSTEM.DIHEDRAL>
0

>  <SCORE.SYSTEM.SOLV>
0

>  <SCORE.SYSTEM.norm>
0

>  <SCORE.heavy>
14

>  <SCORE.norm>
-0.428743

>  <RMSD>
10.535

$$$$
1xpf_lig
 OpenBabel02141814123D
libRbt.so/2013.1/901 2013/11/27
 14 13  0  0  0  0  0  0  0  0999 V2000
   12.3825   12.0554   60.4452 N   0  0  0  0  0  0  0  0  0  0  0  0
   13.3357   11.0451   60.8657 C   0  0  0  0  0  0  0  0  0  0  0  0
   14.2729   11.5870   61.8776 C   0  0  0  0  0  0  0  0  0  0  0  0
   15.1474   10.4491   62.3038 C   0  0  0  0  0  0  0  0  0  0  0  0
   15.9845   10.9564   63.4185 N   0  0  0  0  0  0  0  0  0  0  0  0
   16.8951    9.8831   63.9224 C   0  0  0  0  0  0  0  0  0  0  0  0
   17.9654   10.4001   64.8991 C   0  0  0  0  0  0  0  0  0  0  0  0
   19.0470    9.3621   65.2473 C   0  0  0  0  0  0  0  0  0  0  0  0
   20.0485    9.2829   64.1050 C   0  0  0  0  0  0  0  0  0  0  0  0
   20.4963    7.8826   64.0947 N   0  0  0  0  0  0  0  0  0  0  0  0
   21.5187    7.4831   63.0874 C   0  0  0  0  0  0  0  0  0  0  0  0
   20.9430    6.1230   62.6370 C   0  0  0  0  0  0  0  0  0  0  0  0
   20.8232    5.0140   63.6513 C   0  0  0  0  0  0  0  0  0  0  0  0
   20.4010    3.7345   63.1086 N   0  0  0  0  0  0  0  0  0  0  0  0
  1  2  1  0  0  0  0
  2  3  1  0  0  0  0
  3  4  1  0  0  0  0
  4  5  1  0  0  0  0
  5  6  1  0  0  0  0
  6  7  1  0  0  0  0
  7  8  1  0  0  0  0
  8  9  1  0  0  0  0
  9 10  1  0  0  0  0
 10 11  1  0  0  0  0
 11 12  1  0  0  0  0
 12 13  1  0  0  0  0
 13 14  1  0  0  0  0
M  END
>  <CHROM.1>
176.42507941,-174.04589032,179.71407402,169.54108278,-170.53825151,78.69178827
-147.59434088,-178.84292615,-137.82658441,-62.55648655,-174.00702415,17.80456271
8.94715337,63.11898017,2.75305819,-0.57304356,0.57846148

>  <Name>
1xpf_lig

>  <RI>
0

>  <Rbt.Current_Directory>
/home/afrankz/demos/rdock_decoys_rna/rnas/1xpf

>  <Rbt.Executable>
rbdock ($Id: //depot/dev/client3/rdock/2013.1/src/exe/rbdock.cxx#4 $)

>  <Rbt.Library>
libRbt.so (2013.1, Build901 2013/11/27)

>  <Rbt.Parameter_File>
/export/apps/rDock/src/rDock_2013.1_src/data/scripts/dock_solv.prm

>  <Rbt.Receptor>
prm/blind_docking_100.prm

>  <SCORE>
-6.4348

>  <SCORE.INTER>
0.948703

>  <SCORE.INTER.CONST>
1

>  <SCORE.INTER.POLAR>
0

>  <SCORE.INTER.ROT>
11

>  <SCORE.INTER.SOLV>
8.06462

>  <SCORE.INTER.VDW>
-12.9891

>  <SCORE.INTER.norm>
0.0677645

>  <SCORE.INTRA>
-7.38531

>  <SCORE.INTRA.DIHEDRAL>
-11.6036

>  <SCORE.INTRA.DIHEDRAL.0>
17.7811

>  <SCORE.INTRA.POLAR>
0

>  <SCORE.INTRA.POLAR.0>
0

>  <SCORE.INTRA.REPUL>
0

>  <SCORE.INTRA.REPUL.0>
0

>  <SCORE.INTRA.SOLV>
-0.204008

>  <SCORE.INTRA.SOLV.lig_0>
-47.9565

>  <SCORE.INTRA.VDW>
-1.4815

>  <SCORE.INTRA.VDW.0>
0.515983

>  <SCORE.INTRA.norm>
-0.527522

>  <SCORE.RESTR>
0.00180895

>  <SCORE.RESTR.CAVITY>
0.00180895

>  <SCORE.RESTR.norm>
0.000129211

>  <SCORE.SYSTEM>
0

>  <SCORE.SYSTEM.CONST>
0

>  <SCORE.SYSTEM.DIHEDRAL>
0

>  <SCORE.SYSTEM.SOLV>
0

>  <SCORE.SYSTEM.norm>
0

>  <SCORE.heavy>
14

>  <SCORE.norm>
-0.459628

>  <RMSD>
10.569

$$$$
1xpf_lig
 OpenBabel02141814123D
libRbt.so/2013.1/901 2013/11/27
 14 13  0  0  0  0  0  0  0  0999 V2000
   20.1028   -8.6963   70.1220 N   0  0  0  0  0  0  0  0  0  0  0  0
   20.0761   -9.1133   68.7322 C   0  0  0  0  0  0  0  0  0  0  0  0
   18.6861   -9.3423   68.2726 C   0  0  0  0  0  0  0  0  0  0  0  0
   18.7784   -9.8529   66.8682 C   0  0  0  0  0  0  0  0  0  0  0  0
   17.3874  -10.1128   66.4229 N   0  0  0  0  0  0  0  0  0  0  0  0
   17.3738  -10.6438   65.0254 C   0  0  0  0  0  0  0  0  0  0  0  0
   15.9915  -10.5610   64.3550 C   0  0  0  0  0  0  0  0  0  0  0  0
   15.4305   -9.1314   64.2549 C   0  0  0  0  0  0  0  0  0  0  0  0
   14.0682   -9.1764   63.5794 C   0  0  0  0  0  0  0  0  0  0  0  0
   14.3612   -9.4156   62.1587 N   0  0  0  0  0  0  0  0  0  0  0  0
   13.3360   -9.0120   61.1559 C   0  0  0  0  0  0  0  0  0  0  0  0
   13.7349   -7.5369   60.9343 C   0  0  0  0  0  0  0  0  0  0  0  0
   15.0918   -7.2319   60.3523 C   0  0  0  0  0  0  0  0  0  0  0  0
   15.3877   -5.8174   60.2044 N   0  0  0  0  0  0  0  0  0  0  0  0
  1  2  1  0  0  0  0
  2  3  1  0  0  0  0
  3  4  1  0  0  0  0
  4  5  1  0  0  0  0
  5  6  1  0  0  0  0
  6  7  1  0  0  0  0
  7  8  1  0  0  0  0
  8  9  1  0  0  0  0
  9 10  1  0  0  0  0
 10 11  1  0  0  0  0
 11 12  1  0  0  0  0
 12 13  1  0  0  0  0
 13 14  1  0  0  0  0
M  END
>  <CHROM.1>
-176.28985715,178.63503594,-179.40139412,-163.58802543,59.43066481,-179.96689729
-74.46024605,-157.23518329,86.79527583,63.10741420,-178.87700493,16.41459192
-8.97476697,64.45976213,-0.70724963,-0.75682089,-0.68912720

>  <Name>
1xpf_lig

>  <RI>
0

>  <Rbt.Current_Directory>
/home/afrankz/demos/rdock_decoys_rna/rnas/1xpf

>  <Rbt.Executable>
rbdock ($Id: //depot/dev/client3/rdock/2013.1/src/exe/rbdock.cxx#4 $)

>  <Rbt.Library>
libRbt.so (2013.1, Build901 2013/11/27)

>  <Rbt.Parameter_File>
/export/apps/rDock/src/rDock_2013.1_src/data/scripts/dock_solv.prm

>  <Rbt.Receptor>
prm/pocket_docking_8.prm

>  <SCORE>
-12.196

>  <SCORE.INTER>
-3.21975

>  <SCORE.INTER.CONST>
1

>  <SCORE.INTER.POLAR>
-0.894427

>  <SCORE.INTER.ROT>
11

>  <SCORE.INTER.SOLV>
7.8806

>  <SCORE.INTER.VDW>
-12.7253

>  <SCORE.INTER.norm>
-0.229982

>  <SCORE.INTRA>
-8.97624

>  <SCORE.INTRA.DIHEDRAL>
-15.8392

>  <SCORE.INTRA.DIHEDRAL.0>
17.7811

>  <SCORE.INTRA.POLAR>
0

>  <SCORE.INTRA.POLAR.0>
0

>  <SCORE.INTRA.REPUL>
0

>  <SCORE.INTRA.REPUL.0>
0

>  <SCORE.INTRA.SOLV>
0.304248

>  <SCORE.INTRA.SOLV.lig_0>
-47.9565

>  <SCORE.INTRA.VDW>
-1.20875

>  <SCORE.INTRA.VDW.0>
0.515983

>  <SCORE.INTRA.norm>
-0.64116

>  <SCORE.RESTR>
0

>  <SCORE.RESTR.CAVITY>
0

>  <SCORE.RESTR.norm>
0

>  <SCORE.SYSTEM>
0

>  <SCORE.SYSTEM.CONST>
0

>  <SCORE.SYSTEM.DIHEDRAL>
0

>  <SCORE.SYSTEM.SOLV>
0

>  <SCORE.SYSTEM.norm>
0

>  <SCORE.heavy>
14

>  <SCORE.norm>
-0.871142

>  <RMSD>
10.891

$$$$
1xpf_lig
 OpenBabel02141814123D
libRbt.so/2013.1/901 2013/11/27
 14 13  0  0  0  0  0  0  0  0999 V2000
   12.5701   13.0420   61.9224 N   0  0  0  0  0  0  0  0  0  0  0  0
   13.8689   12.3953   61.9575 C   0  0  0  0  0  0  0  0  0  0  0  0
   13.7290   10.9316   62.1411 C   0  0  0  0  0  0  0  0  0  0  0  0
   15.1159   10.3813   62.2646 C   0  0  0  0  0  0  0  0  0  0  0  0
   15.6661   10.9092   63.5371 N   0  0  0  0  0  0  0  0  0  0  0  0
   16.8070   10.0648   64.0065 C   0  0  0  0  0  0  0  0  0  0  0  0
   17.8517   10.8485   64.8198 C   0  0  0  0  0  0  0  0  0  0  0  0
   19.0710   10.0103   65.2430 C   0  0  0  0  0  0  0  0  0  0  0  0
   19.8558    9.6100   64.0028 C   0  0  0  0  0  0  0  0  0  0  0  0
   21.0301    8.8905   64.5175 N   0  0  0  0  0  0  0  0  0  0  0  0
   21.6750    7.8810   63.6318 C   0  0  0  0  0  0  0  0  0  0  0  0
   20.6547    6.7274   63.7425 C   0  0  0  0  0  0  0  0  0  0  0  0
   21.0171    5.3808   63.1694 C   0  0  0  0  0  0  0  0  0  0  0  0
   22.0090    4.6413   63.9307 N   0  0  0  0  0  0  0  0  0  0  0  0
  1  2  1  0  0  0  0
  2  3  1  0  0  0  0
  3  4  1  0  0  0  0
  4  5  1  0  0  0  0
  5  6  1  0  0  0  0
  6  7  1  0  0  0  0
  7  8  1  0  0  0  0
  8  9  1  0  0  0  0
  9 10  1  0  0  0  0
 10 11  1  0  0  0  0
 11 12  1  0  0  0  0
 12 13  1  0  0  0  0
 13 14  1  0  0  0  0
M  END
>  <CHROM.1>
-175.90700818,66.84857042,159.46908649,150.38691011,-176.76289923,66.24800643
176.71875064,153.86246284,-75.31456682,-170.09159896,72.81456203,17.92299625
9.40816758,63.49190759,2.69976164,-0.47461928,0.48817598

>  <Name>
1xpf_lig

>  <RI>
0

>  <Rbt.Current_Directory>
/home/afrankz/demos/rdock_decoys_rna/rnas/1xpf

>  <Rbt.Executable>
rbdock ($Id: //depot/dev/client3/rdock/2013.1/src/exe/rbdock.cxx#4 $)

>  <Rbt.Library>
libRbt.so (2013.1, Build901 2013/11/27)

>  <Rbt.Parameter_File>
/export/apps/rDock/src/rDock_2013.1_src/data/scripts/dock_solv.prm

>  <Rbt.Receptor>
prm/blind_docking_100.prm

>  <SCORE>
-4.63616

>  <SCORE.INTER>
2.45841

>  <SCORE.INTER.CONST>
1

>  <SCORE.INTER.POLAR>
0

>  <SCORE.INTER.ROT>
11

>  <SCORE.INTER.SOLV>
7.53277

>  <SCORE.INTER.VDW>
-11.8053

>  <SCORE.INTER.norm>
0.1756

>  <SCORE.INTRA>
-7.1424

>  <SCORE.INTRA.DIHEDRAL>
-14.7737

>  <SCORE.INTRA.DIHEDRAL.0>
17.7811

>  <SCORE.INTRA.POLAR>
0

>  <SCORE.INTRA.POLAR.0>
0

>  <SCORE.INTRA.REPUL>
0

>  <SCORE.INTRA.REPUL.0>
0

>  <SCORE.INTRA.SOLV>
0.431187

>  <SCORE.INTRA.SOLV.lig_0>
-47.9565

>  <SCORE.INTRA.VDW>
0.0288778

>  <SCORE.INTRA.VDW.0>
0.515983

>  <SCORE.INTRA.norm>
-0.510171

>  <SCORE.RESTR>
0.0478385

>  <SCORE.RESTR.CAVITY>
0.0478385

>  <SCORE.RESTR.norm>
0.00341704

>  <SCORE.SYSTEM>
0

>  <SCORE.SYSTEM.CONST>
0

>  <SCORE.SYSTEM.DIHEDRAL>
0

>  <SCORE.SYSTEM.SOLV>
0

>  <SCORE.SYSTEM.norm>
0

>  <SCORE.heavy>
14

>  <SCORE.norm>
-0.331154

>  <RMSD>
11.047

$$$$
1xpf_lig
 OpenBabel02141814123D
libRbt.so/2013.1/901 2013/11/27
 14 13  0  0  0  0  0  0  0  0999 V2000
   12.6042   11.1239   62.8855 N   0  0  0  0  0  0  0  0  0  0  0  0
   12.8833   10.9569   61.4711 C   0  0  0  0  0  0  0  0  0  0  0  0
   14.2269   10.3686   61.2604 C   0  0  0  0  0  0  0  0  0  0  0  0
   15.2199   11.4188   61.6509 C   0  0  0  0  0  0  0  0  0  0  0  0
   15.3239   11.3701   63.1299 N   0  0  0  0  0  0  0  0  0  0  0  0
   16.7207   11.0397   63.5478 C   0  0  0  0  0  0  0  0  0  0  0  0
   16.8034    9.8345   64.5005 C   0  0  0  0  0  0  0  0  0  0  0  0
   18.0712    8.9810   64.3197 C   0  0  0  0  0  0  0  0  0  0  0  0
   19.2779    9.7719   64.8019 C   0  0  0  0  0  0  0  0  0  0  0  0
   20.3413    9.4608   63.8356 N   0  0  0  0  0  0  0  0  0  0  0  0
   21.2069    8.2786   64.1053 C   0  0  0  0  0  0  0  0  0  0  0  0
   20.6236    7.2740   63.0881 C   0  0  0  0  0  0  0  0  0  0  0  0
   21.1487    5.8608   63.0814 C   0  0  0  0  0  0  0  0  0  0  0  0
   20.5453    4.9910   62.0867 N   0  0  0  0  0  0  0  0  0  0  0  0
  1  2  1  0  0  0  0
  2  3  1  0  0  0  0
  3  4  1  0  0  0  0
  4  5  1  0  0  0  0
  5  6  1  0  0  0  0
  6  7  1  0  0  0  0
  7  8  1  0  0  0  0
  8  9  1  0  0  0  0
  9 10  1  0  0  0  0
 10 11  1  0  0  0  0
 11 12  1  0  0  0  0
 12 13  1  0  0  0  0
 13 14  1  0  0  0  0
M  END
>  <CHROM.1>
-69.72591323,80.83962163,119.19592734,-126.18974892,146.36028279,69.56603118
-140.69151963,-89.05089033,104.25956230,-175.44205194,-179.71047241,17.49990915
9.33794362,63.12612792,2.81535640,-0.45077058,0.64175387

>  <Name>
1xpf_lig

>  <RI>
0

>  <Rbt.Current_Directory>
/home/afrankz/demos/rdock_decoys_rna/rnas/1xpf

>  <Rbt.Executable>
rbdock ($Id: //depot/dev/client3/rdock/2013.1/src/exe/rbdock.cxx#4 $)

>  <Rbt.Library>
libRbt.so (2013.1, Build901 2013/11/27)

>  <Rbt.Parameter_File>
/export/apps/rDock/src/rDock_2013.1_src/data/scripts/dock_solv.prm

>  <Rbt.Receptor>
prm/blind_docking_100.prm

>  <SCORE>
0.0121424

>  <SCORE.INTER>
1.30092

>  <SCORE.INTER.CONST>
1

>  <SCORE.INTER.POLAR>
0

>  <SCORE.INTER.ROT>
11

>  <SCORE.INTER.SOLV>
11.9309

>  <SCORE.INTER.VDW>
-14.043

>  <SCORE.INTER.norm>
0.0929231

>  <SCORE.INTRA>
-1.52594

>  <SCORE.INTRA.DIHEDRAL>
-4.20875

>  <SCORE.INTRA.DIHEDRAL.0>
17.7811

>  <SCORE.INTRA.POLAR>
0

>  <SCORE.INTRA.POLAR.0>
0

>  <SCORE.INTRA.REPUL>
0

>  <SCORE.INTRA.REPUL.0>
0

>  <SCORE.INTRA.SOLV>
2.37824

>  <SCORE.INTRA.SOLV.lig_0>
-47.9565

>  <SCORE.INTRA.VDW>
-0.61068

>  <SCORE.INTRA.VDW.0>
0.515983

>  <SCORE.INTRA.norm>
-0.108995

>  <SCORE.RESTR>
0.237155

>  <SCORE.RESTR.CAVITY>
0.237155

>  <SCORE.RESTR.norm>
0.0169396

>  <SCORE.SYSTEM>
0

>  <SCORE.SYSTEM.CONST>
0

>  <SCORE.SYSTEM.DIHEDRAL>
0

>  <SCORE.SYSTEM.SOLV>
0

>  <SCORE.SYSTEM.norm>
0

>  <SCORE.heavy>
14

>  <SCORE.norm>
0.000867316

>  <RMSD>
11.119

$$$$
1xpf_lig
 OpenBabel02141814123D
libRbt.so/2013.1/901 2013/11/27
 14 13  0  0  0  0  0  0  0  0999 V2000
   13.3453    9.6337   58.7836 N   0  0  0  0  0  0  0  0  0  0  0  0
   13.1395    9.8035   60.2101 C   0  0  0  0  0  0  0  0  0  0  0  0
   14.3295   10.4120   60.8501 C   0  0  0  0  0  0  0  0  0  0  0  0
   14.0435   10.4689   62.3185 C   0  0  0  0  0  0  0  0  0  0  0  0
   15.2842   10.9556   62.9701 N   0  0  0  0  0  0  0  0  0  0  0  0
   16.1982    9.8136   63.2790 C   0  0  0  0  0  0  0  0  0  0  0  0
   16.9812    9.9966   64.5906 C   0  0  0  0  0  0  0  0  0  0  0  0
   18.0913    8.9528   64.8063 C   0  0  0  0  0  0  0  0  0  0  0  0
   19.3850    9.4663   64.1924 C   0  0  0  0  0  0  0  0  0  0  0  0
   20.2661    8.2908   64.1354 N   0  0  0  0  0  0  0  0  0  0  0  0
   21.5914    8.4420   63.4718 C   0  0  0  0  0  0  0  0  0  0  0  0
   22.3853    7.3278   64.1876 C   0  0  0  0  0  0  0  0  0  0  0  0
   23.8633    7.2024   63.9180 C   0  0  0  0  0  0  0  0  0  0  0  0
   24.2093    6.9259   62.5345 N   0  0  0  0  0  0  0  0  0  0  0  0
  1  2  1  0  0  0  0
  2  3  1  0  0  0  0
  3  4  1  0  0  0  0
  4  5  1  0  0  0  0
  5  6  1  0  0  0  0
  6  7  1  0  0  0  0
  7  8  1  0  0  0  0
  8  9  1  0  0  0  0
  9 10  1  0  0  0  0
 10 11  1  0  0  0  0
 11 12  1  0  0  0  0
 12 13  1  0  0  0  0
 13 14  1  0  0  0  0
M  END
>  <CHROM.1>
-176.82938338,174.66052989,-87.26625069,-144.51152432,-170.35541186,89.72868511
-165.79441679,175.08178313,154.41411538,-173.90947847,-61.17582397,18.07943016
9.12091837,62.87517177,-2.94087387,-0.35260637,1.30089576

>  <Name>
1xpf_lig

>  <RI>
0

>  <Rbt.Current_Directory>
/home/afrankz/demos/rdock_decoys_rna/rnas/1xpf

>  <Rbt.Executable>
rbdock ($Id: //depot/dev/client3/rdock/2013.1/src/exe/rbdock.cxx#4 $)

>  <Rbt.Library>
libRbt.so (2013.1, Build901 2013/11/27)

>  <Rbt.Parameter_File>
/export/apps/rDock/src/rDock_2013.1_src/data/scripts/dock_solv.prm

>  <Rbt.Receptor>
prm/blind_docking_100.prm

>  <SCORE>
-10.7507

>  <SCORE.INTER>
-3.60075

>  <SCORE.INTER.CONST>
1

>  <SCORE.INTER.POLAR>
-0.769542

>  <SCORE.INTER.ROT>
11

>  <SCORE.INTER.SOLV>
14.962

>  <SCORE.INTER.VDW>
-15.756

>  <SCORE.INTER.norm>
-0.257197

>  <SCORE.INTRA>
-7.17477

>  <SCORE.INTRA.DIHEDRAL>
-11.6348

>  <SCORE.INTRA.DIHEDRAL.0>
17.7811

>  <SCORE.INTRA.POLAR>
0

>  <SCORE.INTRA.POLAR.0>
0

>  <SCORE.INTRA.REPUL>
0

>  <SCORE.INTRA.REPUL.0>
0

>  <SCORE.INTRA.SOLV>
-0.185903

>  <SCORE.INTRA.SOLV.lig_0>
-47.9565

>  <SCORE.INTRA.VDW>
-1.26441

>  <SCORE.INTRA.VDW.0>
0.515983

>  <SCORE.INTRA.norm>
-0.512483

>  <SCORE.RESTR>
0.024829

>  <SCORE.RESTR.CAVITY>
0.024829

>  <SCORE.RESTR.norm>
0.0017735

>  <SCORE.SYSTEM>
0

>  <SCORE.SYSTEM.CONST>
0

>  <SCORE.SYSTEM.DIHEDRAL>
0

>  <SCORE.SYSTEM.SOLV>
0

>  <SCORE.SYSTEM.norm>
0

>  <SCORE.heavy>
14

>  <SCORE.norm>
-0.767906

>  <RMSD>
11.230

$$$$
1xpf_lig
 OpenBabel02141814123D
libRbt.so/2013.1/901 2013/11/27
 14 13  0  0  0  0  0  0  0  0999 V2000
   22.1277    4.7746   64.2891 N   0  0  0  0  0  0  0  0  0  0  0  0
   22.0391    5.9977   63.5130 C   0  0  0  0  0  0  0  0  0  0  0  0
   21.5184    7.1136   64.3372 C   0  0  0  0  0  0  0  0  0  0  0  0
   21.3142    8.2713   63.4102 C   0  0  0  0  0  0  0  0  0  0  0  0
   20.6373    9.3287   64.2004 N   0  0  0  0  0  0  0  0  0  0  0  0
   19.1992    8.9829   64.4177 C   0  0  0  0  0  0  0  0  0  0  0  0
   18.4131   10.0797   65.1567 C   0  0  0  0  0  0  0  0  0  0  0  0
   17.4754   10.8954   64.2492 C   0  0  0  0  0  0  0  0  0  0  0  0
   16.3448    9.9995   63.7662 C   0  0  0  0  0  0  0  0  0  0  0  0
   15.5589   10.8447   62.8554 N   0  0  0  0  0  0  0  0  0  0  0  0
   14.7212   10.1706   61.8243 C   0  0  0  0  0  0  0  0  0  0  0  0
   14.0746   11.3998   61.1497 C   0  0  0  0  0  0  0  0  0  0  0  0
   13.1366   12.2608   61.9571 C   0  0  0  0  0  0  0  0  0  0  0  0
   11.9336   11.5878   62.4154 N   0  0  0  0  0  0  0  0  0  0  0  0
  1  2  1  0  0  0  0
  2  3  1  0  0  0  0
  3  4  1  0  0  0  0
  4  5  1  0  0  0  0
  5  6  1  0  0  0  0
  6  7  1  0  0  0  0
  7  8  1  0  0  0  0
  8  9  1  0  0  0  0
  9 10  1  0  0  0  0
 10 11  1  0  0  0  0
 11 12  1  0  0  0  0
 12 13  1  0  0  0  0
 13 14  1  0  0  0  0
M  END
>  <CHROM.1>
-173.43934746,173.13832881,-74.67362612,-176.40870219,104.98244192,67.83738657
-176.86357784,156.72649098,178.68925518,-64.99258826,-62.95727214,17.74965137
9.40777303,63.39581407,0.30052435,0.48259895,-2.55256407

>  <Name>
1xpf_lig

>  <RI>
0

>  <Rbt.Current_Directory>
/home/afrankz/demos/rdock_decoys_rna/rnas/1xpf

>  <Rbt.Executable>
rbdock ($Id: //depot/dev/client3/rdock/2013.1/src/exe/rbdock.cxx#4 $)

>  <Rbt.Library>
libRbt.so (2013.1, Build901 2013/11/27)

>  <Rbt.Parameter_File>
/export/apps/rDock/src/rDock_2013.1_src/data/scripts/dock_solv.prm

>  <Rbt.Receptor>
prm/blind_docking_100.prm

>  <SCORE>
-4.52124

>  <SCORE.INTER>
1.05398

>  <SCORE.INTER.CONST>
1

>  <SCORE.INTER.POLAR>
0

>  <SCORE.INTER.ROT>
11

>  <SCORE.INTER.SOLV>
7.91853

>  <SCORE.INTER.VDW>
-12.8702

>  <SCORE.INTER.norm>
0.075284

>  <SCORE.INTRA>
-5.57522

>  <SCORE.INTRA.DIHEDRAL>
-11.7422

>  <SCORE.INTRA.DIHEDRAL.0>
17.7811

>  <SCORE.INTRA.POLAR>
0

>  <SCORE.INTRA.POLAR.0>
0

>  <SCORE.INTRA.REPUL>
0

>  <SCORE.INTRA.REPUL.0>
0

>  <SCORE.INTRA.SOLV>
1.00921

>  <SCORE.INTRA.SOLV.lig_0>
-47.9565

>  <SCORE.INTRA.VDW>
-0.208702

>  <SCORE.INTRA.VDW.0>
0.515983

>  <SCORE.INTRA.norm>
-0.39823

>  <SCORE.RESTR>
0

>  <SCORE.RESTR.CAVITY>
0

>  <SCORE.RESTR.norm>
0

>  <SCORE.SYSTEM>
0

>  <SCORE.SYSTEM.CONST>
0

>  <SCORE.SYSTEM.DIHEDRAL>
0

>  <SCORE.SYSTEM.SOLV>
0

>  <SCORE.SYSTEM.norm>
0

>  <SCORE.heavy>
14

>  <SCORE.norm>
-0.322946

>  <RMSD>
11.243

$$$$
1xpf_lig
 OpenBabel02141814123D
libRbt.so/2013.1/901 2013/11/27
 14 13  0  0  0  0  0  0  0  0999 V2000
   20.5271    5.0081   62.0671 N   0  0  0  0  0  0  0  0  0  0  0  0
   20.5123    5.8730   63.2324 C   0  0  0  0  0  0  0  0  0  0  0  0
   20.9034    7.2562   62.8727 C   0  0  0  0  0  0  0  0  0  0  0  0
   20.5639    8.1168   64.0498 C   0  0  0  0  0  0  0  0  0  0  0  0
   19.1035    8.3679   63.9800 N   0  0  0  0  0  0  0  0  0  0  0  0
   18.7680    9.6901   64.5917 C   0  0  0  0  0  0  0  0  0  0  0  0
   17.2586    9.8982   64.8047 C   0  0  0  0  0  0  0  0  0  0  0  0
   16.4486    9.9784   63.4986 C   0  0  0  0  0  0  0  0  0  0  0  0
   14.9747   10.1473   63.8352 C   0  0  0  0  0  0  0  0  0  0  0  0
   14.3119   10.3346   62.5363 N   0  0  0  0  0  0  0  0  0  0  0  0
   12.8233   10.2876   62.4979 C   0  0  0  0  0  0  0  0  0  0  0  0
   12.5038   11.7952   62.4015 C   0  0  0  0  0  0  0  0  0  0  0  0
   12.9672   12.5588   61.1869 C   0  0  0  0  0  0  0  0  0  0  0  0
   12.5021   13.9332   61.1170 N   0  0  0  0  0  0  0  0  0  0  0  0
  1  2  1  0  0  0  0
  2  3  1  0  0  0  0
  3  4  1  0  0  0  0
  4  5  1  0  0  0  0
  5  6  1  0  0  0  0
  6  7  1  0  0  0  0
  7  8  1  0  0  0  0
  8  9  1  0  0  0  0
  9 10  1  0  0  0  0
 10 11  1  0  0  0  0
 11 12  1  0  0  0  0
 12 13  1  0  0  0  0
 13 14  1  0  0  0  0
M  END
>  <CHROM.1>
167.60435408,-79.24663704,-150.48709939,-168.71715665,-65.80349007,178.53338255
175.04530344,169.32318055,102.59665128,63.28839444,173.84627474,16.72635184
9.51757452,63.04823338,0.33785023,0.53703714,-2.42244183

>  <Name>
1xpf_lig

>  <RI>
0

>  <Rbt.Current_Directory>
/home/afrankz/demos/rdock_decoys_rna/rnas/1xpf

>  <Rbt.Executable>
rbdock ($Id: //depot/dev/client3/rdock/2013.1/src/exe/rbdock.cxx#4 $)

>  <Rbt.Library>
libRbt.so (2013.1, Build901 2013/11/27)

>  <Rbt.Parameter_File>
/export/apps/rDock/src/rDock_2013.1_src/data/scripts/dock_solv.prm

>  <Rbt.Receptor>
prm/blind_docking_100.prm

>  <SCORE>
-2.26179

>  <SCORE.INTER>
5.60694

>  <SCORE.INTER.CONST>
1

>  <SCORE.INTER.POLAR>
0

>  <SCORE.INTER.ROT>
11

>  <SCORE.INTER.SOLV>
11.8031

>  <SCORE.INTER.VDW>
-11.1297

>  <SCORE.INTER.norm>
0.400496

>  <SCORE.INTRA>
-8.11664

>  <SCORE.INTRA.DIHEDRAL>
-13.777

>  <SCORE.INTRA.DIHEDRAL.0>
17.7811

>  <SCORE.INTRA.POLAR>
0

>  <SCORE.INTRA.POLAR.0>
0

>  <SCORE.INTRA.REPUL>
0

>  <SCORE.INTRA.REPUL.0>
0

>  <SCORE.INTRA.SOLV>
0.398963

>  <SCORE.INTRA.SOLV.lig_0>
-47.9565

>  <SCORE.INTRA.VDW>
-1.42762

>  <SCORE.INTRA.VDW.0>
0.515983

>  <SCORE.INTRA.norm>
-0.57976

>  <SCORE.RESTR>
0.247901

>  <SCORE.RESTR.CAVITY>
0.247901

>  <SCORE.RESTR.norm>
0.0177072

>  <SCORE.SYSTEM>
0

>  <SCORE.SYSTEM.CONST>
0

>  <SCORE.SYSTEM.DIHEDRAL>
0

>  <SCORE.SYSTEM.SOLV>
0

>  <SCORE.SYSTEM.norm>
0

>  <SCORE.heavy>
14

>  <SCORE.norm>
-0.161557

>  <RMSD>
11.447

$$$$
1xpf_lig
 OpenBabel02141814123D
libRbt.so/2013.1/901 2013/11/27
 14 13  0  0  0  0  0  0  0  0999 V2000
   22.1801    7.9692   62.6393 N   0  0  0  0  0  0  0  0  0  0  0  0
   20.9510    7.7282   63.3723 C   0  0  0  0  0  0  0  0  0  0  0  0
   20.4551    8.9741   64.0027 C   0  0  0  0  0  0  0  0  0  0  0  0
   19.0839    8.6738   64.5235 C   0  0  0  0  0  0  0  0  0  0  0  0
   18.5919    9.9217   65.1569 N   0  0  0  0  0  0  0  0  0  0  0  0
   17.6456   10.6356   64.2460 C   0  0  0  0  0  0  0  0  0  0  0  0
   16.3450    9.8562   63.9853 C   0  0  0  0  0  0  0  0  0  0  0  0
   15.1540   10.7445   63.5842 C   0  0  0  0  0  0  0  0  0  0  0  0
   15.3631   11.2476   62.1639 C   0  0  0  0  0  0  0  0  0  0  0  0
   15.1063   10.0788   61.3099 N   0  0  0  0  0  0  0  0  0  0  0  0
   14.2979   10.2797   60.0746 C   0  0  0  0  0  0  0  0  0  0  0  0
   12.9740    9.6092   60.5012 C   0  0  0  0  0  0  0  0  0  0  0  0
   12.1586   10.2461   61.5977 C   0  0  0  0  0  0  0  0  0  0  0  0
   10.9548    9.5195   61.9627 N   0  0  0  0  0  0  0  0  0  0  0  0
  1  2  1  0  0  0  0
  2  3  1  0  0  0  0
  3  4  1  0  0  0  0
  4  5  1  0  0  0  0
  5  6  1  0  0  0  0
  6  7  1  0  0  0  0
  7  8  1  0  0  0  0
  8  9  1  0  0  0  0
  9 10  1  0  0  0  0
 10 11  1  0  0  0  0
 11 12  1  0  0  0  0
 12 13  1  0  0  0  0
 13 14  1  0  0  0  0
M  END
>  <CHROM.1>
170.46021611,179.85380579,101.06588322,65.42732562,155.48471275,72.56585738
73.71992384,136.98724363,-106.80344686,66.92831734,-177.93058254,16.51859434
9.67757795,62.79431751,-0.22200294,0.27578648,-1.90567258

>  <Name>
1xpf_lig

>  <RI>
0

>  <Rbt.Current_Directory>
/home/afrankz/demos/rdock_decoys_rna/rnas/1xpf

>  <Rbt.Executable>
rbdock ($Id: //depot/dev/client3/rdock/2013.1/src/exe/rbdock.cxx#4 $)

>  <Rbt.Library>
libRbt.so (2013.1, Build901 2013/11/27)

>  <Rbt.Parameter_File>
/export/apps/rDock/src/rDock_2013.1_src/data/scripts/dock_solv.prm

>  <Rbt.Receptor>
prm/blind_docking_100.prm

>  <SCORE>
-9.94938

>  <SCORE.INTER>
-4.26697

>  <SCORE.INTER.CONST>
1

>  <SCORE.INTER.POLAR>
-0.916515

>  <SCORE.INTER.ROT>
11

>  <SCORE.INTER.SOLV>
16.0614

>  <SCORE.INTER.VDW>
-16.0767

>  <SCORE.INTER.norm>
-0.304784

>  <SCORE.INTRA>
-5.68961

>  <SCORE.INTRA.DIHEDRAL>
-10.956

>  <SCORE.INTRA.DIHEDRAL.0>
17.7811

>  <SCORE.INTRA.POLAR>
0

>  <SCORE.INTRA.POLAR.0>
0

>  <SCORE.INTRA.REPUL>
0

>  <SCORE.INTRA.REPUL.0>
0

>  <SCORE.INTRA.SOLV>
0.127165

>  <SCORE.INTRA.SOLV.lig_0>
-47.9565

>  <SCORE.INTRA.VDW>
-0.275173

>  <SCORE.INTRA.VDW.0>
0.515983

>  <SCORE.INTRA.norm>
-0.406401

>  <SCORE.RESTR>
0.00719895

>  <SCORE.RESTR.CAVITY>
0.00719895

>  <SCORE.RESTR.norm>
0.000514211

>  <SCORE.SYSTEM>
0

>  <SCORE.SYSTEM.CONST>
0

>  <SCORE.SYSTEM.DIHEDRAL>
0

>  <SCORE.SYSTEM.SOLV>
0

>  <SCORE.SYSTEM.norm>
0

>  <SCORE.heavy>
14

>  <SCORE.norm>
-0.71067

>  <RMSD>
11.645

$$$$
1xpf_lig
 OpenBabel02141814123D
libRbt.so/2013.1/901 2013/11/27
 14 13  0  0  0  0  0  0  0  0999 V2000
   22.5855    7.6132   62.3380 N   0  0  0  0  0  0  0  0  0  0  0  0
   22.3971    8.0592   63.7061 C   0  0  0  0  0  0  0  0  0  0  0  0
   21.1378    8.8277   63.8460 C   0  0  0  0  0  0  0  0  0  0  0  0
   20.0728    7.8411   64.2119 C   0  0  0  0  0  0  0  0  0  0  0  0
   18.7759    8.4785   63.8767 N   0  0  0  0  0  0  0  0  0  0  0  0
   18.4829    9.6011   64.8196 C   0  0  0  0  0  0  0  0  0  0  0  0
   16.9996   10.0087   64.8405 C   0  0  0  0  0  0  0  0  0  0  0  0
   16.4553   10.4560   63.4722 C   0  0  0  0  0  0  0  0  0  0  0  0
   14.9751   10.7806   63.6061 C   0  0  0  0  0  0  0  0  0  0  0  0
   14.5178   11.0224   62.2299 N   0  0  0  0  0  0  0  0  0  0  0  0
   13.0708   11.3034   62.0134 C   0  0  0  0  0  0  0  0  0  0  0  0
   13.0047   11.2295   60.4725 C   0  0  0  0  0  0  0  0  0  0  0  0
   13.3218    9.9206   59.7947 C   0  0  0  0  0  0  0  0  0  0  0  0
   12.3916    8.8431   60.0845 N   0  0  0  0  0  0  0  0  0  0  0  0
  1  2  1  0  0  0  0
  2  3  1  0  0  0  0
  3  4  1  0  0  0  0
  4  5  1  0  0  0  0
  5  6  1  0  0  0  0
  6  7  1  0  0  0  0
  7  8  1  0  0  0  0
  8  9  1  0  0  0  0
  9 10  1  0  0  0  0
 10 11  1  0  0  0  0
 11 12  1  0  0  0  0
 12 13  1  0  0  0  0
 13 14  1  0  0  0  0
M  END
>  <CHROM.1>
91.13274232,-159.97240868,-70.41439627,-161.35272141,-58.84253660,177.83033546
-172.85354829,176.99980344,-170.14060772,63.26010130,64.86151362,17.01344478
9.57060410,62.80827600,-0.17296022,0.37214392,-1.98897150

>  <Name>
1xpf_lig

>  <RI>
0

>  <Rbt.Current_Directory>
/home/afrankz/demos/rdock_decoys_rna/rnas/1xpf

>  <Rbt.Executable>
rbdock ($Id: //depot/dev/client3/rdock/2013.1/src/exe/rbdock.cxx#4 $)

>  <Rbt.Library>
libRbt.so (2013.1, Build901 2013/11/27)

>  <Rbt.Parameter_File>
/export/apps/rDock/src/rDock_2013.1_src/data/scripts/dock_solv.prm

>  <Rbt.Receptor>
prm/blind_docking_100.prm

>  <SCORE>
-7.53063

>  <SCORE.INTER>
-2.00329

>  <SCORE.INTER.CONST>
1

>  <SCORE.INTER.POLAR>
-0.906332

>  <SCORE.INTER.ROT>
11

>  <SCORE.INTER.SOLV>
15.83

>  <SCORE.INTER.VDW>
-14.5244

>  <SCORE.INTER.norm>
-0.143092

>  <SCORE.INTRA>
-5.7764

>  <SCORE.INTRA.DIHEDRAL>
-12.6926

>  <SCORE.INTRA.DIHEDRAL.0>
17.7811

>  <SCORE.INTRA.POLAR>
0

>  <SCORE.INTRA.POLAR.0>
0

>  <SCORE.INTRA.REPUL>
0

>  <SCORE.INTRA.REPUL.0>
0

>  <SCORE.INTRA.SOLV>
1.71364

>  <SCORE.INTRA.SOLV.lig_0>
-47.9565

>  <SCORE.INTRA.VDW>
-0.286907

>  <SCORE.INTRA.VDW.0>
0.515983

>  <SCORE.INTRA.norm>
-0.4126

>  <SCORE.RESTR>
0.249068

>  <SCORE.RESTR.CAVITY>
0.249068

>  <SCORE.RESTR.norm>
0.0177906

>  <SCORE.SYSTEM>
0

>  <SCORE.SYSTEM.CONST>
0

>  <SCORE.SYSTEM.DIHEDRAL>
0

>  <SCORE.SYSTEM.SOLV>
0

>  <SCORE.SYSTEM.norm>
0

>  <SCORE.heavy>
14

>  <SCORE.norm>
-0.537902

>  <RMSD>
11.663

$$$$
1xpf_lig
 OpenBabel02141814123D
libRbt.so/2013.1/901 2013/11/27
 14 13  0  0  0  0  0  0  0  0999 V2000
   23.9945    6.5002   63.4000 N   0  0  0  0  0  0  0  0  0  0  0  0
   23.0780    7.5769   63.0731 C   0  0  0  0  0  0  0  0  0  0  0  0
   22.1857    7.8810   64.2164 C   0  0  0  0  0  0  0  0  0  0  0  0
   21.2820    8.9885   63.7711 C   0  0  0  0  0  0  0  0  0  0  0  0
   20.5296    9.4261   64.9724 N   0  0  0  0  0  0  0  0  0  0  0  0
   19.0901    9.0382   64.8608 C   0  0  0  0  0  0  0  0  0  0  0  0
   18.1651   10.2188   64.5178 C   0  0  0  0  0  0  0  0  0  0  0  0
   16.7825    9.7963   63.9904 C   0  0  0  0  0  0  0  0  0  0  0  0
   16.0893   11.0064   63.3827 C   0  0  0  0  0  0  0  0  0  0  0  0
   15.0545   10.4438   62.5028 N   0  0  0  0  0  0  0  0  0  0  0  0
   13.6785   11.0078   62.5926 C   0  0  0  0  0  0  0  0  0  0  0  0
   12.9149   10.0123   61.6926 C   0  0  0  0  0  0  0  0  0  0  0  0
   11.4380   10.2196   61.4716 C   0  0  0  0  0  0  0  0  0  0  0  0
   11.0845   11.4941   60.8710 N   0  0  0  0  0  0  0  0  0  0  0  0
  1  2  1  0  0  0  0
  2  3  1  0  0  0  0
  3  4  1  0  0  0  0
  4  5  1  0  0  0  0
  5  6  1  0  0  0  0
  6  7  1  0  0  0  0
  7  8  1  0  0  0  0
  8  9  1  0  0  0  0
  9 10  1  0  0  0  0
 10 11  1  0  0  0  0
 11 12  1  0  0  0  0
 12 13  1  0  0  0  0
 13 14  1  0  0  0  0
M  END
>  <CHROM.1>
-179.55295116,-171.85981424,-110.32345351,-104.24258300,162.67240691,-166.72875372
160.08773205,132.61461273,-171.86064843,-179.02242449,59.29666014,17.52618204
9.54360693,63.23693096,-0.01186046,0.34709100,-2.17460122

>  <Name>
1xpf_lig

>  <RI>
0

>  <Rbt.Current_Directory>
/home/afrankz/demos/rdock_decoys_rna/rnas/1xpf

>  <Rbt.Executable>
rbdock ($Id: //depot/dev/client3/rdock/2013.1/src/exe/rbdock.cxx#4 $)

>  <Rbt.Library>
libRbt.so (2013.1, Build901 2013/11/27)

>  <Rbt.Parameter_File>
/export/apps/rDock/src/rDock_2013.1_src/data/scripts/dock_solv.prm

>  <Rbt.Receptor>
prm/blind_docking_100.prm

>  <SCORE>
-6.4796

>  <SCORE.INTER>
0.567837

>  <SCORE.INTER.CONST>
1

>  <SCORE.INTER.POLAR>
0

>  <SCORE.INTER.ROT>
11

>  <SCORE.INTER.SOLV>
9.51045

>  <SCORE.INTER.VDW>
-13.7249

>  <SCORE.INTER.norm>
0.0405598

>  <SCORE.INTRA>
-7.43178

>  <SCORE.INTRA.DIHEDRAL>
-11.13

>  <SCORE.INTRA.DIHEDRAL.0>
17.7811

>  <SCORE.INTRA.POLAR>
0

>  <SCORE.INTRA.POLAR.0>
0

>  <SCORE.INTRA.REPUL>
0

>  <SCORE.INTRA.REPUL.0>
0

>  <SCORE.INTRA.SOLV>
-0.326603

>  <SCORE.INTRA.SOLV.lig_0>
-47.9565

>  <SCORE.INTRA.VDW>
-1.70346

>  <SCORE.INTRA.VDW.0>
0.515983

>  <SCORE.INTRA.norm>
-0.530841

>  <SCORE.RESTR>
0.384345

>  <SCORE.RESTR.CAVITY>
0.384345

>  <SCORE.RESTR.norm>
0.0274532

>  <SCORE.SYSTEM>
0

>  <SCORE.SYSTEM.CONST>
0

>  <SCORE.SYSTEM.DIHEDRAL>
0

>  <SCORE.SYSTEM.SOLV>
0

>  <SCORE.SYSTEM.norm>
0

>  <SCORE.heavy>
14

>  <SCORE.norm>
-0.462828

>  <RMSD>
11.704

$$$$
1xpf_lig
 OpenBabel02141814123D
libRbt.so/2013.1/901 2013/11/27
 14 13  0  0  0  0  0  0  0  0999 V2000
   14.2201    7.1814   52.9841 N   0  0  0  0  0  0  0  0  0  0  0  0
   14.3094    8.4206   53.7341 C   0  0  0  0  0  0  0  0  0  0  0  0
   13.7097    8.2711   55.0809 C   0  0  0  0  0  0  0  0  0  0  0  0
   13.6927    9.6361   55.6956 C   0  0  0  0  0  0  0  0  0  0  0  0
   13.2212    9.4630   57.0915 N   0  0  0  0  0  0  0  0  0  0  0  0
   13.1441   10.7838   57.7876 C   0  0  0  0  0  0  0  0  0  0  0  0
   12.9522   10.6610   59.3091 C   0  0  0  0  0  0  0  0  0  0  0  0
   14.1784   10.0991   60.0501 C   0  0  0  0  0  0  0  0  0  0  0  0
   13.7956    9.7982   61.4913 C   0  0  0  0  0  0  0  0  0  0  0  0
   13.9584   11.0772   62.1980 N   0  0  0  0  0  0  0  0  0  0  0  0
   14.6378   11.0617   63.5237 C   0  0  0  0  0  0  0  0  0  0  0  0
   16.1104   11.1946   63.0788 C   0  0  0  0  0  0  0  0  0  0  0  0
   17.1972   11.0436   64.1128 C   0  0  0  0  0  0  0  0  0  0  0  0
   17.4343    9.6797   64.5532 N   0  0  0  0  0  0  0  0  0  0  0  0
  1  2  1  0  0  0  0
  2  3  1  0  0  0  0
  3  4  1  0  0  0  0
  4  5  1  0  0  0  0
  5  6  1  0  0  0  0
  6  7  1  0  0  0  0
  7  8  1  0  0  0  0
  8  9  1  0  0  0  0
  9 10  1  0  0  0  0
 10 11  1  0  0  0  0
 11 12  1  0  0  0  0
 12 13  1  0  0  0  0
 13 14  1  0  0  0  0
M  END
>  <CHROM.1>
-172.81752770,-174.38285951,-178.91545141,-167.83832304,69.02229658,-170.29433005
-84.86797922,-135.65083590,87.27052826,-172.16997065,74.36847899,14.46857030
9.88386751,59.33510649,-1.81812063,-0.45597696,1.21840693

>  <Name>
1xpf_lig

>  <RI>
0

>  <Rbt.Current_Directory>
/home/afrankz/demos/rdock_decoys_rna/rnas/1xpf

>  <Rbt.Executable>
rbdock ($Id: //depot/dev/client3/rdock/2013.1/src/exe/rbdock.cxx#4 $)

>  <Rbt.Library>
libRbt.so (2013.1, Build901 2013/11/27)

>  <Rbt.Parameter_File>
/export/apps/rDock/src/rDock_2013.1_src/data/scripts/dock_solv.prm

>  <Rbt.Receptor>
prm/blind_docking_100.prm

>  <SCORE>
-9.73369

>  <SCORE.INTER>
-2.78766

>  <SCORE.INTER.CONST>
1

>  <SCORE.INTER.POLAR>
-0.951453

>  <SCORE.INTER.ROT>
11

>  <SCORE.INTER.SOLV>
10.4468

>  <SCORE.INTER.VDW>
-13.1025

>  <SCORE.INTER.norm>
-0.199119

>  <SCORE.INTRA>
-7.52474

>  <SCORE.INTRA.DIHEDRAL>
-12.1371

>  <SCORE.INTRA.DIHEDRAL.0>
17.7811

>  <SCORE.INTRA.POLAR>
0

>  <SCORE.INTRA.POLAR.0>
0

>  <SCORE.INTRA.REPUL>
0

>  <SCORE.INTRA.REPUL.0>
0

>  <SCORE.INTRA.SOLV>
0.215455

>  <SCORE.INTRA.SOLV.lig_0>
-47.9565

>  <SCORE.INTRA.VDW>
-1.56391

>  <SCORE.INTRA.VDW.0>
0.515983

>  <SCORE.INTRA.norm>
-0.537482

>  <SCORE.RESTR>
0.578719

>  <SCORE.RESTR.CAVITY>
0.578719

>  <SCORE.RESTR.norm>
0.0413371

>  <SCORE.SYSTEM>
0

>  <SCORE.SYSTEM.CONST>
0

>  <SCORE.SYSTEM.DIHEDRAL>
0

>  <SCORE.SYSTEM.SOLV>
0

>  <SCORE.SYSTEM.norm>
0

>  <SCORE.heavy>
14

>  <SCORE.norm>
-0.695264

>  <RMSD>
13.200

$$$$
1xpf_lig
 OpenBabel02141814123D
libRbt.so/2013.1/901 2013/11/27
 14 13  0  0  0  0  0  0  0  0999 V2000
   16.4965   11.4639   64.0251 N   0  0  0  0  0  0  0  0  0  0  0  0
   15.8154   10.5776   63.0996 C   0  0  0  0  0  0  0  0  0  0  0  0
   15.1436   11.3456   62.0250 C   0  0  0  0  0  0  0  0  0  0  0  0
   14.5037   10.3416   61.1173 C   0  0  0  0  0  0  0  0  0  0  0  0
   13.6025   11.1022   60.2175 N   0  0  0  0  0  0  0  0  0  0  0  0
   12.9623   10.1898   59.2212 C   0  0  0  0  0  0  0  0  0  0  0  0
   13.5136   10.3607   57.7951 C   0  0  0  0  0  0  0  0  0  0  0  0
   12.8602   11.5092   57.0062 C   0  0  0  0  0  0  0  0  0  0  0  0
   13.4018   11.5094   55.5847 C   0  0  0  0  0  0  0  0  0  0  0  0
   13.1265   10.1571   55.0778 N   0  0  0  0  0  0  0  0  0  0  0  0
   14.2430    9.4122   54.4312 C   0  0  0  0  0  0  0  0  0  0  0  0
   13.5610    8.0473   54.1943 C   0  0  0  0  0  0  0  0  0  0  0  0
   13.0857    7.2570   55.3870 C   0  0  0  0  0  0  0  0  0  0  0  0
   11.9856    7.8604   56.1190 N   0  0  0  0  0  0  0  0  0  0  0  0
  1  2  1  0  0  0  0
  2  3  1  0  0  0  0
  3  4  1  0  0  0  0
  4  5  1  0  0  0  0
  5  6  1  0  0  0  0
  6  7  1  0  0  0  0
  7  8  1  0  0  0  0
  8  9  1  0  0  0  0
  9 10  1  0  0  0  0
 10 11  1  0  0  0  0
 11 12  1  0  0  0  0
 12 13  1  0  0  0  0
 13 14  1  0  0  0  0
M  END
>  <CHROM.1>
178.77147299,168.35001994,177.21286121,-107.76399625,-83.63664530,-175.48824214
55.76003947,-130.32429230,174.72075519,-62.15484311,66.91691439,13.87870416
10.08097044,58.23554038,-0.25739938,1.28432174,-3.14023555

>  <Name>
1xpf_lig

>  <RI>
0

>  <Rbt.Current_Directory>
/home/afrankz/demos/rdock_decoys_rna/rnas/1xpf

>  <Rbt.Executable>
rbdock ($Id: //depot/dev/client3/rdock/2013.1/src/exe/rbdock.cxx#4 $)

>  <Rbt.Library>
libRbt.so (2013.1, Build901 2013/11/27)

>  <Rbt.Parameter_File>
/export/apps/rDock/src/rDock_2013.1_src/data/scripts/dock_solv.prm

>  <Rbt.Receptor>
prm/blind_docking_100.prm

>  <SCORE>
-1.19104

>  <SCORE.INTER>
4.01072

>  <SCORE.INTER.CONST>
1

>  <SCORE.INTER.POLAR>
0

>  <SCORE.INTER.ROT>
11

>  <SCORE.INTER.SOLV>
13.082

>  <SCORE.INTER.VDW>
-12.6202

>  <SCORE.INTER.norm>
0.28648

>  <SCORE.INTRA>
-5.60137

>  <SCORE.INTRA.DIHEDRAL>
-12.8463

>  <SCORE.INTRA.DIHEDRAL.0>
17.7811

>  <SCORE.INTRA.POLAR>
0

>  <SCORE.INTRA.POLAR.0>
0

>  <SCORE.INTRA.REPUL>
0

>  <SCORE.INTRA.REPUL.0>
0

>  <SCORE.INTRA.SOLV>
4.71618

>  <SCORE.INTRA.SOLV.lig_0>
-47.9565

>  <SCORE.INTRA.VDW>
-1.53629

>  <SCORE.INTRA.VDW.0>
0.515983

>  <SCORE.INTRA.norm>
-0.400098

>  <SCORE.RESTR>
0.399608

>  <SCORE.RESTR.CAVITY>
0.399608

>  <SCORE.RESTR.norm>
0.0285435

>  <SCORE.SYSTEM>
0

>  <SCORE.SYSTEM.CONST>
0

>  <SCORE.SYSTEM.DIHEDRAL>
0

>  <SCORE.SYSTEM.SOLV>
0

>  <SCORE.SYSTEM.norm>
0

>  <SCORE.heavy>
14

>  <SCORE.norm>
-0.0850745

>  <RMSD>
13.754

$$$$
1xpf_lig
 OpenBabel02141814123D
libRbt.so/2013.1/901 2013/11/27
 14 13  0  0  0  0  0  0  0  0999 V2000
   14.2285    8.4000   50.4942 N   0  0  0  0  0  0  0  0  0  0  0  0
   15.3277    8.1466   51.4073 C   0  0  0  0  0  0  0  0  0  0  0  0
   14.8987    7.2757   52.5268 C   0  0  0  0  0  0  0  0  0  0  0  0
   13.8899    8.0544   53.3125 C   0  0  0  0  0  0  0  0  0  0  0  0
   14.6115    9.2142   53.8910 N   0  0  0  0  0  0  0  0  0  0  0  0
   13.6863   10.3758   54.0633 C   0  0  0  0  0  0  0  0  0  0  0  0
   12.8284   10.2886   55.3374 C   0  0  0  0  0  0  0  0  0  0  0  0
   13.6460   10.2699   56.6410 C   0  0  0  0  0  0  0  0  0  0  0  0
   12.7004   10.1005   57.8205 C   0  0  0  0  0  0  0  0  0  0  0  0
   13.5761    9.8091   58.9650 N   0  0  0  0  0  0  0  0  0  0  0  0
   12.9408    9.6043   60.2969 C   0  0  0  0  0  0  0  0  0  0  0  0
   14.1385    9.9105   61.2220 C   0  0  0  0  0  0  0  0  0  0  0  0
   14.5977   11.3393   61.3656 C   0  0  0  0  0  0  0  0  0  0  0  0
   15.5737   11.5631   62.4180 N   0  0  0  0  0  0  0  0  0  0  0  0
  1  2  1  0  0  0  0
  2  3  1  0  0  0  0
  3  4  1  0  0  0  0
  4  5  1  0  0  0  0
  5  6  1  0  0  0  0
  6  7  1  0  0  0  0
  7  8  1  0  0  0  0
  8  9  1  0  0  0  0
  9 10  1  0  0  0  0
 10 11  1  0  0  0  0
 11 12  1  0  0  0  0
 12 13  1  0  0  0  0
 13 14  1  0  0  0  0
M  END
>  <CHROM.1>
-65.32118365,-65.10920401,150.57224126,81.16919209,61.40950814,-176.72012640
168.33609934,179.27016909,-158.00364617,72.42295120,170.10087527,14.04583361
9.59651680,56.41152239,1.54470324,0.32423968,-1.81013267

>  <Name>
1xpf_lig

>  <RI>
0

>  <Rbt.Current_Directory>
/home/afrankz/demos/rdock_decoys_rna/rnas/1xpf

>  <Rbt.Executable>
rbdock ($Id: //depot/dev/client3/rdock/2013.1/src/exe/rbdock.cxx#4 $)

>  <Rbt.Library>
libRbt.so (2013.1, Build901 2013/11/27)

>  <Rbt.Parameter_File>
/export/apps/rDock/src/rDock_2013.1_src/data/scripts/dock_solv.prm

>  <Rbt.Receptor>
prm/blind_docking_100.prm

>  <SCORE>
-4.28994

>  <SCORE.INTER>
2.12923

>  <SCORE.INTER.CONST>
1

>  <SCORE.INTER.POLAR>
-0.591577

>  <SCORE.INTER.ROT>
11

>  <SCORE.INTER.SOLV>
13.6122

>  <SCORE.INTER.VDW>
-12.0793

>  <SCORE.INTER.norm>
0.152088

>  <SCORE.INTRA>
-7.09063

>  <SCORE.INTRA.DIHEDRAL>
-14.8283

>  <SCORE.INTRA.DIHEDRAL.0>
17.7811

>  <SCORE.INTRA.POLAR>
0

>  <SCORE.INTRA.POLAR.0>
0

>  <SCORE.INTRA.REPUL>
0

>  <SCORE.INTRA.REPUL.0>
0

>  <SCORE.INTRA.SOLV>
2.09546

>  <SCORE.INTRA.SOLV.lig_0>
-47.9565

>  <SCORE.INTRA.VDW>
-0.724228

>  <SCORE.INTRA.VDW.0>
0.515983

>  <SCORE.INTRA.norm>
-0.506474

>  <SCORE.RESTR>
0.671468

>  <SCORE.RESTR.CAVITY>
0.671468

>  <SCORE.RESTR.norm>
0.047962

>  <SCORE.SYSTEM>
0

>  <SCORE.SYSTEM.CONST>
0

>  <SCORE.SYSTEM.DIHEDRAL>
0

>  <SCORE.SYSTEM.SOLV>
0

>  <SCORE.SYSTEM.norm>
0

>  <SCORE.heavy>
14

>  <SCORE.norm>
-0.306424

>  <RMSD>
14.352

$$$$
1xpf_lig
 OpenBabel02141814123D
libRbt.so/2013.1/901 2013/11/27
 14 13  0  0  0  0  0  0  0  0999 V2000
   14.5844   15.6698   64.5040 N   0  0  0  0  0  0  0  0  0  0  0  0
   13.4180   14.9718   63.9956 C   0  0  0  0  0  0  0  0  0  0  0  0
   13.8025   13.9650   62.9785 C   0  0  0  0  0  0  0  0  0  0  0  0
   14.5719   12.9015   63.6986 C   0  0  0  0  0  0  0  0  0  0  0  0
   15.1044   11.9893   62.6569 N   0  0  0  0  0  0  0  0  0  0  0  0
   14.3406   10.7043   62.6435 C   0  0  0  0  0  0  0  0  0  0  0  0
   13.3512   10.5952   61.4704 C   0  0  0  0  0  0  0  0  0  0  0  0
   14.0180   10.2913   60.1170 C   0  0  0  0  0  0  0  0  0  0  0  0
   12.9927   10.4623   59.0063 C   0  0  0  0  0  0  0  0  0  0  0  0
   13.6676    9.9759   57.7941 N   0  0  0  0  0  0  0  0  0  0  0  0
   13.3802   10.6700   56.5076 C   0  0  0  0  0  0  0  0  0  0  0  0
   13.8003    9.5738   55.5047 C   0  0  0  0  0  0  0  0  0  0  0  0
   13.7238    9.8727   54.0290 C   0  0  0  0  0  0  0  0  0  0  0  0
   14.0230    8.7458   53.1625 N   0  0  0  0  0  0  0  0  0  0  0  0
  1  2  1  0  0  0  0
  2  3  1  0  0  0  0
  3  4  1  0  0  0  0
  4  5  1  0  0  0  0
  5  6  1  0  0  0  0
  6  7  1  0  0  0  0
  7  8  1  0  0  0  0
  8  9  1  0  0  0  0
  9 10  1  0  0  0  0
 10 11  1  0  0  0  0
 11 12  1  0  0  0  0
 12 13  1  0  0  0  0
 13 14  1  0  0  0  0
M  END
>  <CHROM.1>
67.49837082,-172.84596061,-105.77307862,104.06152243,75.88299877,-169.55765444
-172.47316777,-144.27159823,-159.12909756,-177.67649964,-174.72379342,13.91257010
11.45628164,59.86218137,0.93162656,-1.48745468,0.48033618

>  <Name>
1xpf_lig

>  <RI>
0

>  <Rbt.Current_Directory>
/home/afrankz/demos/rdock_decoys_rna/rnas/1xpf

>  <Rbt.Executable>
rbdock ($Id: //depot/dev/client3/rdock/2013.1/src/exe/rbdock.cxx#4 $)

>  <Rbt.Library>
libRbt.so (2013.1, Build901 2013/11/27)

>  <Rbt.Parameter_File>
/export/apps/rDock/src/rDock_2013.1_src/data/scripts/dock_solv.prm

>  <Rbt.Receptor>
prm/blind_docking_100.prm

>  <SCORE>
-6.64651

>  <SCORE.INTER>
1.00009

>  <SCORE.INTER.CONST>
1

>  <SCORE.INTER.POLAR>
-0.701483

>  <SCORE.INTER.ROT>
11

>  <SCORE.INTER.SOLV>
15.4252

>  <SCORE.INTER.VDW>
-13.0701

>  <SCORE.INTER.norm>
0.0714347

>  <SCORE.INTRA>
-7.65785

>  <SCORE.INTRA.DIHEDRAL>
-12.551

>  <SCORE.INTRA.DIHEDRAL.0>
17.7811

>  <SCORE.INTRA.POLAR>
0

>  <SCORE.INTRA.POLAR.0>
0

>  <SCORE.INTRA.REPUL>
0

>  <SCORE.INTRA.REPUL.0>
0

>  <SCORE.INTRA.SOLV>
0.271669

>  <SCORE.INTRA.SOLV.lig_0>
-47.9565

>  <SCORE.INTRA.VDW>
-1.51817

>  <SCORE.INTRA.VDW.0>
0.515983

>  <SCORE.INTRA.norm>
-0.546989

>  <SCORE.RESTR>
0.011245

>  <SCORE.RESTR.CAVITY>
0.011245

>  <SCORE.RESTR.norm>
0.000803212

>  <SCORE.SYSTEM>
0

>  <SCORE.SYSTEM.CONST>
0

>  <SCORE.SYSTEM.DIHEDRAL>
0

>  <SCORE.SYSTEM.SOLV>
0

>  <SCORE.SYSTEM.norm>
0

>  <SCORE.heavy>
14

>  <SCORE.norm>
-0.474751

>  <RMSD>
14.354

$$$$
1xpf_lig
 OpenBabel02141814123D
libRbt.so/2013.1/901 2013/11/27
 14 13  0  0  0  0  0  0  0  0999 V2000
   14.9291  -11.9849   54.0253 N   0  0  0  0  0  0  0  0  0  0  0  0
   16.1322  -12.4713   54.6749 C   0  0  0  0  0  0  0  0  0  0  0  0
   15.8004  -13.2777   55.8731 C   0  0  0  0  0  0  0  0  0  0  0  0
   17.0767  -13.9154   56.3266 C   0  0  0  0  0  0  0  0  0  0  0  0
   16.7120  -14.8649   57.4065 N   0  0  0  0  0  0  0  0  0  0  0  0
   17.8453  -15.7976   57.6909 C   0  0  0  0  0  0  0  0  0  0  0  0
   17.4110  -17.2694   57.8006 C   0  0  0  0  0  0  0  0  0  0  0  0
   17.6503  -18.0885   56.5198 C   0  0  0  0  0  0  0  0  0  0  0  0
   16.6586  -17.6482   55.4536 C   0  0  0  0  0  0  0  0  0  0  0  0
   16.8098  -18.6315   54.3711 N   0  0  0  0  0  0  0  0  0  0  0  0
   15.6672  -18.8208   53.4341 C   0  0  0  0  0  0  0  0  0  0  0  0
   16.2292  -19.9476   52.5404 C   0  0  0  0  0  0  0  0  0  0  0  0
   17.3667  -19.6309   51.6030 C   0  0  0  0  0  0  0  0  0  0  0  0
   17.0392  -18.6947   50.5416 N   0  0  0  0  0  0  0  0  0  0  0  0
  1  2  1  0  0  0  0
  2  3  1  0  0  0  0
  3  4  1  0  0  0  0
  4  5  1  0  0  0  0
  5  6  1  0  0  0  0
  6  7  1  0  0  0  0
  7  8  1  0  0  0  0
  8  9  1  0  0  0  0
  9 10  1  0  0  0  0
 10 11  1  0  0  0  0
 11 12  1  0  0  0  0
 12 13  1  0  0  0  0
 13 14  1  0  0  0  0
M  END
>  <CHROM.1>
170.64184560,-172.39135666,165.69467890,-133.74899010,98.95735185,-71.35681930
-170.53265578,156.70436755,-177.63909512,-69.66877481,-65.38585306,16.66639004
-16.50328366,54.87615447,1.76377725,-1.25566945,0.75362565

>  <Name>
1xpf_lig

>  <RI>
0

>  <Rbt.Current_Directory>
/home/afrankz/demos/rdock_decoys_rna/rnas/1xpf

>  <Rbt.Executable>
rbdock ($Id: //depot/dev/client3/rdock/2013.1/src/exe/rbdock.cxx#4 $)

>  <Rbt.Library>
libRbt.so (2013.1, Build901 2013/11/27)

>  <Rbt.Parameter_File>
/export/apps/rDock/src/rDock_2013.1_src/data/scripts/dock_solv.prm

>  <Rbt.Receptor>
prm/blind_docking_80.prm

>  <SCORE>
-6.30752

>  <SCORE.INTER>
-0.0728306

>  <SCORE.INTER.CONST>
1

>  <SCORE.INTER.POLAR>
-0.657407

>  <SCORE.INTER.ROT>
11

>  <SCORE.INTER.SOLV>
6.20465

>  <SCORE.INTER.VDW>
-10.8587

>  <SCORE.INTER.norm>
-0.00520219

>  <SCORE.INTRA>
-6.29867

>  <SCORE.INTRA.DIHEDRAL>
-10.31

>  <SCORE.INTRA.DIHEDRAL.0>
17.7811

>  <SCORE.INTRA.POLAR>
0

>  <SCORE.INTRA.POLAR.0>
0

>  <SCORE.INTRA.REPUL>
0

>  <SCORE.INTRA.REPUL.0>
0

>  <SCORE.INTRA.SOLV>
1.20647

>  <SCORE.INTRA.SOLV.lig_0>
-47.9565

>  <SCORE.INTRA.VDW>
-1.7469

>  <SCORE.INTRA.VDW.0>
0.515983

>  <SCORE.INTRA.norm>
-0.449905

>  <SCORE.RESTR>
0.0639877

>  <SCORE.RESTR.CAVITY>
0.0639877

>  <SCORE.RESTR.norm>
0.00457055

>  <SCORE.SYSTEM>
0

>  <SCORE.SYSTEM.CONST>
0

>  <SCORE.SYSTEM.DIHEDRAL>
0

>  <SCORE.SYSTEM.SOLV>
0

>  <SCORE.SYSTEM.norm>
0

>  <SCORE.heavy>
14

>  <SCORE.norm>
-0.450537

>  <RMSD>
18.724

$$$$
1xpf_lig
 OpenBabel02141814123D
libRbt.so/2013.1/901 2013/11/27
 14 13  0  0  0  0  0  0  0  0999 V2000
   15.4503  -16.5123   49.9522 N   0  0  0  0  0  0  0  0  0  0  0  0
   16.6715  -17.0662   50.5073 C   0  0  0  0  0  0  0  0  0  0  0  0
   16.5390  -17.2887   51.9663 C   0  0  0  0  0  0  0  0  0  0  0  0
   17.8316  -17.8875   52.4270 C   0  0  0  0  0  0  0  0  0  0  0  0
   17.6805  -18.1479   53.8796 N   0  0  0  0  0  0  0  0  0  0  0  0
   18.9705  -18.6259   54.4646 C   0  0  0  0  0  0  0  0  0  0  0  0
   18.9734  -18.6430   56.0030 C   0  0  0  0  0  0  0  0  0  0  0  0
   18.8583  -17.2484   56.6435 C   0  0  0  0  0  0  0  0  0  0  0  0
   17.4487  -16.7170   56.4317 C   0  0  0  0  0  0  0  0  0  0  0  0
   17.4381  -15.4054   57.0959 N   0  0  0  0  0  0  0  0  0  0  0  0
   16.3767  -14.4343   56.7087 C   0  0  0  0  0  0  0  0  0  0  0  0
   17.1454  -13.5868   55.6718 C   0  0  0  0  0  0  0  0  0  0  0  0
   16.4037  -12.5096   54.9219 C   0  0  0  0  0  0  0  0  0  0  0  0
   15.4005  -12.9957   53.9905 N   0  0  0  0  0  0  0  0  0  0  0  0
  1  2  1  0  0  0  0
  2  3  1  0  0  0  0
  3  4  1  0  0  0  0
  4  5  1  0  0  0  0
  5  6  1  0  0  0  0
  6  7  1  0  0  0  0
  7  8  1  0  0  0  0
  8  9  1  0  0  0  0
  9 10  1  0  0  0  0
 10 11  1  0  0  0  0
 11 12  1  0  0  0  0
 12 13  1  0  0  0  0
 13 14  1  0  0  0  0
M  END
>  <CHROM.1>
178.66777772,-178.28481203,-174.48765213,168.27363948,-65.16940274,71.22440057
178.97958239,160.37280625,-96.56224879,175.55906734,-67.93974172,17.22803706
-16.21938591,54.33340233,1.71323731,1.04147742,-2.18207938

>  <Name>
1xpf_lig

>  <RI>
0

>  <Rbt.Current_Directory>
/home/afrankz/demos/rdock_decoys_rna/rnas/1xpf

>  <Rbt.Executable>
rbdock ($Id: //depot/dev/client3/rdock/2013.1/src/exe/rbdock.cxx#4 $)

>  <Rbt.Library>
libRbt.so (2013.1, Build901 2013/11/27)

>  <Rbt.Parameter_File>
/export/apps/rDock/src/rDock_2013.1_src/data/scripts/dock_solv.prm

>  <Rbt.Receptor>
prm/blind_docking_100.prm

>  <SCORE>
-5.17083

>  <SCORE.INTER>
3.65851

>  <SCORE.INTER.CONST>
1

>  <SCORE.INTER.POLAR>
0

>  <SCORE.INTER.ROT>
11

>  <SCORE.INTER.SOLV>
7.00565

>  <SCORE.INTER.VDW>
-10.8295

>  <SCORE.INTER.norm>
0.261322

>  <SCORE.INTRA>
-8.90126

>  <SCORE.INTRA.DIHEDRAL>
-15.6096

>  <SCORE.INTRA.DIHEDRAL.0>
17.7811

>  <SCORE.INTRA.POLAR>
0

>  <SCORE.INTRA.POLAR.0>
0

>  <SCORE.INTRA.REPUL>
0

>  <SCORE.INTRA.REPUL.0>
0

>  <SCORE.INTRA.SOLV>
0.715206

>  <SCORE.INTRA.SOLV.lig_0>
-47.9565

>  <SCORE.INTRA.VDW>
-1.45408

>  <SCORE.INTRA.VDW.0>
0.515983

>  <SCORE.INTRA.norm>
-0.635804

>  <SCORE.RESTR>
0.0719216

>  <SCORE.RESTR.CAVITY>
0.0719216

>  <SCORE.RESTR.norm>
0.00513726

>  <SCORE.SYSTEM>
0

>  <SCORE.SYSTEM.CONST>
0

>  <SCORE.SYSTEM.DIHEDRAL>
0

>  <SCORE.SYSTEM.SOLV>
0

>  <SCORE.SYSTEM.norm>
0

>  <SCORE.heavy>
14

>  <SCORE.norm>
-0.369345

>  <RMSD>
18.754

$$$$
1xpf_lig
 OpenBabel02141814123D
libRbt.so/2013.1/901 2013/11/27
 14 13  0  0  0  0  0  0  0  0999 V2000
   19.4795  -22.5364   58.6018 N   0  0  0  0  0  0  0  0  0  0  0  0
   19.4347  -22.4332   60.0487 C   0  0  0  0  0  0  0  0  0  0  0  0
   19.4572  -21.0161   60.4814 C   0  0  0  0  0  0  0  0  0  0  0  0
   18.1777  -20.4025   60.0042 C   0  0  0  0  0  0  0  0  0  0  0  0
   18.2242  -18.9730   60.3978 N   0  0  0  0  0  0  0  0  0  0  0  0
   17.1588  -18.1984   59.6907 C   0  0  0  0  0  0  0  0  0  0  0  0
   17.6308  -17.5863   58.3605 C   0  0  0  0  0  0  0  0  0  0  0  0
   17.7849  -18.6099   57.2217 C   0  0  0  0  0  0  0  0  0  0  0  0
   18.2927  -17.8983   55.9767 C   0  0  0  0  0  0  0  0  0  0  0  0
   18.2436  -18.9155   54.9164 N   0  0  0  0  0  0  0  0  0  0  0  0
   18.5283  -18.4833   53.5194 C   0  0  0  0  0  0  0  0  0  0  0  0
   18.0375  -19.7245   52.7430 C   0  0  0  0  0  0  0  0  0  0  0  0
   16.5588  -20.0151   52.6993 C   0  0  0  0  0  0  0  0  0  0  0  0
   15.9469  -20.2580   53.9942 N   0  0  0  0  0  0  0  0  0  0  0  0
  1  2  1  0  0  0  0
  2  3  1  0  0  0  0
  3  4  1  0  0  0  0
  4  5  1  0  0  0  0
  5  6  1  0  0  0  0
  6  7  1  0  0  0  0
  7  8  1  0  0  0  0
  8  9  1  0  0  0  0
  9 10  1  0  0  0  0
 10 11  1  0  0  0  0
 11 12  1  0  0  0  0
 12 13  1  0  0  0  0
 13 14  1  0  0  0  0
M  END
>  <CHROM.1>
65.93556133,-178.09007010,166.37004959,-91.61886742,74.31484409,-178.34370460
-173.12099189,172.79609100,-166.80834458,69.53260123,-61.31792980,18.06829629
-19.64625237,57.04687902,-0.94057525,1.24258838,-1.99769606

>  <Name>
1xpf_lig

>  <RI>
0

>  <Rbt.Current_Directory>
/home/afrankz/demos/rdock_decoys_rna/rnas/1xpf

>  <Rbt.Executable>
rbdock ($Id: //depot/dev/client3/rdock/2013.1/src/exe/rbdock.cxx#4 $)

>  <Rbt.Library>
libRbt.so (2013.1, Build901 2013/11/27)

>  <Rbt.Parameter_File>
/export/apps/rDock/src/rDock_2013.1_src/data/scripts/dock_solv.prm

>  <Rbt.Receptor>
prm/blind_docking_80.prm

>  <SCORE>
-3.02882

>  <SCORE.INTER>
3.79797

>  <SCORE.INTER.CONST>
1

>  <SCORE.INTER.POLAR>
0

>  <SCORE.INTER.ROT>
11

>  <SCORE.INTER.SOLV>
6.774

>  <SCORE.INTER.VDW>
-10.6594

>  <SCORE.INTER.norm>
0.271284

>  <SCORE.INTRA>
-7.29199

>  <SCORE.INTRA.DIHEDRAL>
-15.3866

>  <SCORE.INTRA.DIHEDRAL.0>
17.7811

>  <SCORE.INTRA.POLAR>
0

>  <SCORE.INTRA.POLAR.0>
0

>  <SCORE.INTRA.REPUL>
0

>  <SCORE.INTRA.REPUL.0>
0

>  <SCORE.INTRA.SOLV>
3.94186

>  <SCORE.INTRA.SOLV.lig_0>
-47.9565

>  <SCORE.INTRA.VDW>
-1.56961

>  <SCORE.INTRA.VDW.0>
0.515983

>  <SCORE.INTRA.norm>
-0.520856

>  <SCORE.RESTR>
0.465202

>  <SCORE.RESTR.CAVITY>
0.465202

>  <SCORE.RESTR.norm>
0.0332287

>  <SCORE.SYSTEM>
0

>  <SCORE.SYSTEM.CONST>
0

>  <SCORE.SYSTEM.DIHEDRAL>
0

>  <SCORE.SYSTEM.SOLV>
0

>  <SCORE.SYSTEM.norm>
0

>  <SCORE.heavy>
14

>  <SCORE.norm>
-0.216344

>  <RMSD>
20.973

$$$$
1xpf_lig
 OpenBabel02141814123D
libRbt.so/2013.1/901 2013/11/27
 14 13  0  0  0  0  0  0  0  0999 V2000
    3.7483  -15.9288   64.1878 N   0  0  0  0  0  0  0  0  0  0  0  0
    2.5028  -16.1006   63.4630 C   0  0  0  0  0  0  0  0  0  0  0  0
    2.4718  -15.2496   62.2503 C   0  0  0  0  0  0  0  0  0  0  0  0
    1.1812  -15.5464   61.5520 C   0  0  0  0  0  0  0  0  0  0  0  0
    1.3750  -16.8325   60.8385 N   0  0  0  0  0  0  0  0  0  0  0  0
    0.7057  -16.7979   59.5022 C   0  0  0  0  0  0  0  0  0  0  0  0
    1.3891  -17.6934   58.4544 C   0  0  0  0  0  0  0  0  0  0  0  0
    0.8855  -17.4697   57.0175 C   0  0  0  0  0  0  0  0  0  0  0  0
    1.7749  -18.2384   56.0519 C   0  0  0  0  0  0  0  0  0  0  0  0
    1.6339  -19.6463   56.4512 N   0  0  0  0  0  0  0  0  0  0  0  0
    0.9694  -20.5798   55.4991 C   0  0  0  0  0  0  0  0  0  0  0  0
    1.4613  -21.9340   56.0544 C   0  0  0  0  0  0  0  0  0  0  0  0
    1.0758  -23.1985   55.3296 C   0  0  0  0  0  0  0  0  0  0  0  0
    1.5212  -23.2696   53.9488 N   0  0  0  0  0  0  0  0  0  0  0  0
  1  2  1  0  0  0  0
  2  3  1  0  0  0  0
  3  4  1  0  0  0  0
  4  5  1  0  0  0  0
  5  6  1  0  0  0  0
  6  7  1  0  0  0  0
  7  8  1  0  0  0  0
  8  9  1  0  0  0  0
  9 10  1  0  0  0  0
 10 11  1  0  0  0  0
 11 12  1  0  0  0  0
 12 13  1  0  0  0  0
 13 14  1  0  0  0  0
M  END
>  <CHROM.1>
177.60199571,-78.19325625,-141.09213689,150.88659458,-168.98055886,171.11763642
60.82918495,113.58806692,161.39823789,-176.88834565,59.55956696,1.62094742
-18.46307139,58.61424127,-1.30046849,1.15830351,-2.49990175

>  <Name>
1xpf_lig

>  <RI>
0

>  <Rbt.Current_Directory>
/home/afrankz/demos/rdock_decoys_rna/rnas/1xpf

>  <Rbt.Executable>
rbdock ($Id: //depot/dev/client3/rdock/2013.1/src/exe/rbdock.cxx#4 $)

>  <Rbt.Library>
libRbt.so (2013.1, Build901 2013/11/27)

>  <Rbt.Parameter_File>
/export/apps/rDock/src/rDock_2013.1_src/data/scripts/dock_solv.prm

>  <Rbt.Receptor>
prm/blind_docking_100.prm

>  <SCORE>
-9.74163

>  <SCORE.INTER>
-2.92811

>  <SCORE.INTER.CONST>
1

>  <SCORE.INTER.POLAR>
-1.71738

>  <SCORE.INTER.ROT>
11

>  <SCORE.INTER.SOLV>
13.312

>  <SCORE.INTER.VDW>
-11.5981

>  <SCORE.INTER.norm>
-0.209151

>  <SCORE.INTRA>
-7.31646

>  <SCORE.INTRA.DIHEDRAL>
-12.916

>  <SCORE.INTRA.DIHEDRAL.0>
17.7811

>  <SCORE.INTRA.POLAR>
0

>  <SCORE.INTRA.POLAR.0>
0

>  <SCORE.INTRA.REPUL>
0

>  <SCORE.INTRA.REPUL.0>
0

>  <SCORE.INTRA.SOLV>
0.637717

>  <SCORE.INTRA.SOLV.lig_0>
-47.9565

>  <SCORE.INTRA.VDW>
-1.17733

>  <SCORE.INTRA.VDW.0>
0.515983

>  <SCORE.INTRA.norm>
-0.522604

>  <SCORE.RESTR>
0.502944

>  <SCORE.RESTR.CAVITY>
0.502944

>  <SCORE.RESTR.norm>
0.0359246

>  <SCORE.SYSTEM>
0

>  <SCORE.SYSTEM.CONST>
0

>  <SCORE.SYSTEM.DIHEDRAL>
0

>  <SCORE.SYSTEM.SOLV>
0

>  <SCORE.SYSTEM.norm>
0

>  <SCORE.heavy>
14

>  <SCORE.norm>
-0.695831

>  <RMSD>
26.373

$$$$
1xpf_lig
 OpenBabel02141814123D
libRbt.so/2013.1/901 2013/11/27
 14 13  0  0  0  0  0  0  0  0999 V2000
    3.5549  -22.6871   51.9606 N   0  0  0  0  0  0  0  0  0  0  0  0
    3.2580  -21.7298   53.0101 C   0  0  0  0  0  0  0  0  0  0  0  0
    2.6276  -22.3958   54.1742 C   0  0  0  0  0  0  0  0  0  0  0  0
    2.2879  -21.3152   55.1531 C   0  0  0  0  0  0  0  0  0  0  0  0
    1.0070  -20.7220   54.6971 N   0  0  0  0  0  0  0  0  0  0  0  0
    1.2500  -19.4284   53.9881 C   0  0  0  0  0  0  0  0  0  0  0  0
    0.7460  -18.2016   54.7677 C   0  0  0  0  0  0  0  0  0  0  0  0
    1.4161  -18.0152   56.1405 C   0  0  0  0  0  0  0  0  0  0  0  0
    0.6842  -18.8608   57.1717 C   0  0  0  0  0  0  0  0  0  0  0  0
    1.4698  -18.7118   58.4054 N   0  0  0  0  0  0  0  0  0  0  0  0
    1.3733  -17.4215   59.1440 C   0  0  0  0  0  0  0  0  0  0  0  0
    2.0043  -17.8298   60.4928 C   0  0  0  0  0  0  0  0  0  0  0  0
    2.0688  -16.8104   61.6017 C   0  0  0  0  0  0  0  0  0  0  0  0
    2.6303  -17.3007   62.8485 N   0  0  0  0  0  0  0  0  0  0  0  0
  1  2  1  0  0  0  0
  2  3  1  0  0  0  0
  3  4  1  0  0  0  0
  4  5  1  0  0  0  0
  5  6  1  0  0  0  0
  6  7  1  0  0  0  0
  7  8  1  0  0  0  0
  8  9  1  0  0  0  0
  9 10  1  0  0  0  0
 10 11  1  0  0  0  0
 11 12  1  0  0  0  0
 12 13  1  0  0  0  0
 13 14  1  0  0  0  0
M  END
>  <CHROM.1>
-176.55078015,81.55522495,-101.42657101,-110.90767686,60.87586907,-84.99677550
174.89970508,74.08781898,165.47266903,-177.70931028,177.68023463,1.88404516
-19.38766802,56.68242732,-1.46965635,-0.88203571,1.14769729

>  <Name>
1xpf_lig

>  <RI>
0

>  <Rbt.Current_Directory>
/home/afrankz/demos/rdock_decoys_rna/rnas/1xpf

>  <Rbt.Executable>
rbdock ($Id: //depot/dev/client3/rdock/2013.1/src/exe/rbdock.cxx#4 $)

>  <Rbt.Library>
libRbt.so (2013.1, Build901 2013/11/27)

>  <Rbt.Parameter_File>
/export/apps/rDock/src/rDock_2013.1_src/data/scripts/dock_solv.prm

>  <Rbt.Receptor>
prm/blind_docking_100.prm

>  <SCORE>
-7.71957

>  <SCORE.INTER>
-1.81063

>  <SCORE.INTER.CONST>
1

>  <SCORE.INTER.POLAR>
-0.959166

>  <SCORE.INTER.ROT>
11

>  <SCORE.INTER.SOLV>
10.0423

>  <SCORE.INTER.VDW>
-12.2906

>  <SCORE.INTER.norm>
-0.129331

>  <SCORE.INTRA>
-5.94105

>  <SCORE.INTRA.DIHEDRAL>
-11.3562

>  <SCORE.INTRA.DIHEDRAL.0>
17.7811

>  <SCORE.INTRA.POLAR>
0

>  <SCORE.INTRA.POLAR.0>
0

>  <SCORE.INTRA.REPUL>
0

>  <SCORE.INTRA.REPUL.0>
0

>  <SCORE.INTRA.SOLV>
0.837245

>  <SCORE.INTRA.SOLV.lig_0>
-47.9565

>  <SCORE.INTRA.VDW>
-0.681564

>  <SCORE.INTRA.VDW.0>
0.515983

>  <SCORE.INTRA.norm>
-0.424361

>  <SCORE.RESTR>
0.0321164

>  <SCORE.RESTR.CAVITY>
0.0321164

>  <SCORE.RESTR.norm>
0.00229403

>  <SCORE.SYSTEM>
0

>  <SCORE.SYSTEM.CONST>
0

>  <SCORE.SYSTEM.DIHEDRAL>
0

>  <SCORE.SYSTEM.SOLV>
0

>  <SCORE.SYSTEM.norm>
0

>  <SCORE.heavy>
14

>  <SCORE.norm>
-0.551398

>  <RMSD>
27.333

$$$$
1xpf_lig
 OpenBabel02141814123D
libRbt.so/2013.1/901 2013/11/27
 14 13  0  0  0  0  0  0  0  0999 V2000
    3.3140  -21.7302   50.2604 N   0  0  0  0  0  0  0  0  0  0  0  0
    4.1285  -21.5358   51.4457 C   0  0  0  0  0  0  0  0  0  0  0  0
    3.3066  -21.6237   52.6756 C   0  0  0  0  0  0  0  0  0  0  0  0
    2.3534  -20.4699   52.6366 C   0  0  0  0  0  0  0  0  0  0  0  0
    1.7081  -20.4120   53.9712 N   0  0  0  0  0  0  0  0  0  0  0  0
    1.0293  -19.0950   54.1699 C   0  0  0  0  0  0  0  0  0  0  0  0
   -0.1056  -19.1441   55.2074 C   0  0  0  0  0  0  0  0  0  0  0  0
    0.3751  -19.3946   56.6477 C   0  0  0  0  0  0  0  0  0  0  0  0
    0.9351  -18.1006   57.2188 C   0  0  0  0  0  0  0  0  0  0  0  0
    1.4345  -18.4641   58.5530 N   0  0  0  0  0  0  0  0  0  0  0  0
    1.5967  -17.3771   59.5587 C   0  0  0  0  0  0  0  0  0  0  0  0
    2.2206  -18.1736   60.7252 C   0  0  0  0  0  0  0  0  0  0  0  0
    2.8118  -17.4158   61.8868 C   0  0  0  0  0  0  0  0  0  0  0  0
    1.9095  -16.4697   62.5199 N   0  0  0  0  0  0  0  0  0  0  0  0
  1  2  1  0  0  0  0
  2  3  1  0  0  0  0
  3  4  1  0  0  0  0
  4  5  1  0  0  0  0
  5  6  1  0  0  0  0
  6  7  1  0  0  0  0
  7  8  1  0  0  0  0
  8  9  1  0  0  0  0
  9 10  1  0  0  0  0
 10 11  1  0  0  0  0
 11 12  1  0  0  0  0
 12 13  1  0  0  0  0
 13 14  1  0  0  0  0
M  END
>  <CHROM.1>
-65.00800301,-169.83984800,164.45665098,156.29292888,67.45034667,78.05783095
-176.74304109,-158.48956860,-176.03606456,168.08913797,54.71311217,1.92976191
-19.24328327,56.24831467,-1.46801718,-0.30030885,1.20836578

>  <Name>
1xpf_lig

>  <RI>
0

>  <Rbt.Current_Directory>
/home/afrankz/demos/rdock_decoys_rna/rnas/1xpf

>  <Rbt.Executable>
rbdock ($Id: //depot/dev/client3/rdock/2013.1/src/exe/rbdock.cxx#4 $)

>  <Rbt.Library>
libRbt.so (2013.1, Build901 2013/11/27)

>  <Rbt.Parameter_File>
/export/apps/rDock/src/rDock_2013.1_src/data/scripts/dock_solv.prm

>  <Rbt.Receptor>
prm/blind_docking_100.prm

>  <SCORE>
-7.31718

>  <SCORE.INTER>
0.386308

>  <SCORE.INTER.CONST>
1

>  <SCORE.INTER.POLAR>
-0.924177

>  <SCORE.INTER.ROT>
11

>  <SCORE.INTER.SOLV>
8.47509

>  <SCORE.INTER.VDW>
-10.4202

>  <SCORE.INTER.norm>
0.0275934

>  <SCORE.INTRA>
-7.72267

>  <SCORE.INTRA.DIHEDRAL>
-14.2157

>  <SCORE.INTRA.DIHEDRAL.0>
17.7811

>  <SCORE.INTRA.POLAR>
0

>  <SCORE.INTRA.POLAR.0>
0

>  <SCORE.INTRA.REPUL>
0

>  <SCORE.INTRA.REPUL.0>
0

>  <SCORE.INTRA.SOLV>
1.16042

>  <SCORE.INTRA.SOLV.lig_0>
-47.9565

>  <SCORE.INTRA.VDW>
-1.19504

>  <SCORE.INTRA.VDW.0>
0.515983

>  <SCORE.INTRA.norm>
-0.551619

>  <SCORE.RESTR>
0.0191814

>  <SCORE.RESTR.CAVITY>
0.0191814

>  <SCORE.RESTR.norm>
0.0013701

>  <SCORE.SYSTEM>
0

>  <SCORE.SYSTEM.CONST>
0

>  <SCORE.SYSTEM.DIHEDRAL>
0

>  <SCORE.SYSTEM.SOLV>
0

>  <SCORE.SYSTEM.norm>
0

>  <SCORE.heavy>
14

>  <SCORE.norm>
-0.522656

>  <RMSD>
27.414

$$$$
1xpf_lig
 OpenBabel02141814123D
libRbt.so/2013.1/901 2013/11/27
 14 13  0  0  0  0  0  0  0  0999 V2000
    3.9172  -25.0914   50.5379 N   0  0  0  0  0  0  0  0  0  0  0  0
    3.0722  -24.6552   51.6342 C   0  0  0  0  0  0  0  0  0  0  0  0
    3.7677  -23.6526   52.4749 C   0  0  0  0  0  0  0  0  0  0  0  0
    2.7715  -23.1772   53.4863 C   0  0  0  0  0  0  0  0  0  0  0  0
    3.4289  -22.0830   54.2422 N   0  0  0  0  0  0  0  0  0  0  0  0
    2.4071  -21.1849   54.8620 C   0  0  0  0  0  0  0  0  0  0  0  0
    1.9212  -20.0712   53.9182 C   0  0  0  0  0  0  0  0  0  0  0  0
    0.8355  -19.1661   54.5269 C   0  0  0  0  0  0  0  0  0  0  0  0
    1.4678  -18.2668   55.5784 C   0  0  0  0  0  0  0  0  0  0  0  0
    0.4244  -17.2853   55.9096 N   0  0  0  0  0  0  0  0  0  0  0  0
    0.5745  -16.5036   57.1689 C   0  0  0  0  0  0  0  0  0  0  0  0
   -0.6012  -15.5138   57.0190 C   0  0  0  0  0  0  0  0  0  0  0  0
   -0.4954  -14.4112   55.9962 C   0  0  0  0  0  0  0  0  0  0  0  0
   -0.1267  -14.8510   54.6617 N   0  0  0  0  0  0  0  0  0  0  0  0
  1  2  1  0  0  0  0
  2  3  1  0  0  0  0
  3  4  1  0  0  0  0
  4  5  1  0  0  0  0
  5  6  1  0  0  0  0
  6  7  1  0  0  0  0
  7  8  1  0  0  0  0
  8  9  1  0  0  0  0
  9 10  1  0  0  0  0
 10 11  1  0  0  0  0
 11 12  1  0  0  0  0
 12 13  1  0  0  0  0
 13 14  1  0  0  0  0
M  END
>  <CHROM.1>
174.69480970,-174.74015303,156.93438144,-86.13274317,178.12683747,72.44287873
169.67639978,163.00569481,173.25433921,-71.89492622,51.06311720,1.66881556
-19.70805223,54.42998939,0.59039326,1.13101386,-1.76416194

>  <Name>
1xpf_lig

>  <RI>
0

>  <Rbt.Current_Directory>
/home/afrankz/demos/rdock_decoys_rna/rnas/1xpf

>  <Rbt.Executable>
rbdock ($Id: //depot/dev/client3/rdock/2013.1/src/exe/rbdock.cxx#4 $)

>  <Rbt.Library>
libRbt.so (2013.1, Build901 2013/11/27)

>  <Rbt.Parameter_File>
/export/apps/rDock/src/rDock_2013.1_src/data/scripts/dock_solv.prm

>  <Rbt.Receptor>
prm/blind_docking_60.prm

>  <SCORE>
-3.38068

>  <SCORE.INTER>
3.8555

>  <SCORE.INTER.CONST>
1

>  <SCORE.INTER.POLAR>
0

>  <SCORE.INTER.ROT>
11

>  <SCORE.INTER.SOLV>
11.216

>  <SCORE.INTER.VDW>
-12.1017

>  <SCORE.INTER.norm>
0.275393

>  <SCORE.INTRA>
-7.30791

>  <SCORE.INTRA.DIHEDRAL>
-14.5973

>  <SCORE.INTRA.DIHEDRAL.0>
17.7811

>  <SCORE.INTRA.POLAR>
0

>  <SCORE.INTRA.POLAR.0>
0

>  <SCORE.INTRA.REPUL>
0

>  <SCORE.INTRA.REPUL.0>
0

>  <SCORE.INTRA.SOLV>
2.53332

>  <SCORE.INTRA.SOLV.lig_0>
-47.9565

>  <SCORE.INTRA.VDW>
-1.27594

>  <SCORE.INTRA.VDW.0>
0.515983

>  <SCORE.INTRA.norm>
-0.521994

>  <SCORE.RESTR>
0.0717342

>  <SCORE.RESTR.CAVITY>
0.0717342

>  <SCORE.RESTR.norm>
0.00512387

>  <SCORE.SYSTEM>
0

>  <SCORE.SYSTEM.CONST>
0

>  <SCORE.SYSTEM.DIHEDRAL>
0

>  <SCORE.SYSTEM.SOLV>
0

>  <SCORE.SYSTEM.norm>
0

>  <SCORE.heavy>
14

>  <SCORE.norm>
-0.241477

>  <RMSD>
28.172

$$$$
1xpf_lig
 OpenBabel02141814123D
libRbt.so/2013.1/901 2013/11/27
 14 13  0  0  0  0  0  0  0  0999 V2000
    0.5807  -15.4070   54.2371 N   0  0  0  0  0  0  0  0  0  0  0  0
   -0.0613  -16.5316   54.8922 C   0  0  0  0  0  0  0  0  0  0  0  0
    0.9076  -17.2894   55.7185 C   0  0  0  0  0  0  0  0  0  0  0  0
    0.1991  -18.5227   56.1858 C   0  0  0  0  0  0  0  0  0  0  0  0
    1.1473  -19.2428   57.0707 N   0  0  0  0  0  0  0  0  0  0  0  0
    0.8911  -20.7150   57.0280 C   0  0  0  0  0  0  0  0  0  0  0  0
    1.8928  -21.4832   56.1486 C   0  0  0  0  0  0  0  0  0  0  0  0
    2.0392  -20.9147   54.7259 C   0  0  0  0  0  0  0  0  0  0  0  0
    3.0515  -21.7500   53.9567 C   0  0  0  0  0  0  0  0  0  0  0  0
    3.1923  -21.0699   52.6609 N   0  0  0  0  0  0  0  0  0  0  0  0
    3.6140  -21.8838   51.4865 C   0  0  0  0  0  0  0  0  0  0  0  0
    3.3762  -20.8672   50.3488 C   0  0  0  0  0  0  0  0  0  0  0  0
    3.5649  -21.3175   48.9224 C   0  0  0  0  0  0  0  0  0  0  0  0
    3.2513  -20.3140   47.9199 N   0  0  0  0  0  0  0  0  0  0  0  0
  1  2  1  0  0  0  0
  2  3  1  0  0  0  0
  3  4  1  0  0  0  0
  4  5  1  0  0  0  0
  5  6  1  0  0  0  0
  6  7  1  0  0  0  0
  7  8  1  0  0  0  0
  8  9  1  0  0  0  0
  9 10  1  0  0  0  0
 10 11  1  0  0  0  0
 11 12  1  0  0  0  0
 12 13  1  0  0  0  0
 13 14  1  0  0  0  0
M  END
>  <CHROM.1>
-172.14137504,-177.07087078,-150.81230026,101.96622497,-52.16866403,179.90655426
-175.84556964,-153.95601583,170.00182010,-174.68722605,176.92134691,1.97473782
-19.80810483,53.66471088,2.63000332,-1.12888952,2.16172568

>  <Name>
1xpf_lig

>  <RI>
0

>  <Rbt.Current_Directory>
/home/afrankz/demos/rdock_decoys_rna/rnas/1xpf

>  <Rbt.Executable>
rbdock ($Id: //depot/dev/client3/rdock/2013.1/src/exe/rbdock.cxx#4 $)

>  <Rbt.Library>
libRbt.so (2013.1, Build901 2013/11/27)

>  <Rbt.Parameter_File>
/export/apps/rDock/src/rDock_2013.1_src/data/scripts/dock_solv.prm

>  <Rbt.Receptor>
prm/blind_docking_100.prm

>  <SCORE>
-10.485

>  <SCORE.INTER>
-0.873795

>  <SCORE.INTER.CONST>
1

>  <SCORE.INTER.POLAR>
-1.25405

>  <SCORE.INTER.ROT>
11

>  <SCORE.INTER.SOLV>
12.6396

>  <SCORE.INTER.VDW>
-11.5489

>  <SCORE.INTER.norm>
-0.0624139

>  <SCORE.INTRA>
-9.6316

>  <SCORE.INTRA.DIHEDRAL>
-14.9993

>  <SCORE.INTRA.DIHEDRAL.0>
17.7811

>  <SCORE.INTRA.POLAR>
0

>  <SCORE.INTRA.POLAR.0>
0

>  <SCORE.INTRA.REPUL>
0

>  <SCORE.INTRA.REPUL.0>
0

>  <SCORE.INTRA.SOLV>
-0.572315

>  <SCORE.INTRA.SOLV.lig_0>
-47.9565

>  <SCORE.INTRA.VDW>
-1.8458

>  <SCORE.INTRA.VDW.0>
0.515983

>  <SCORE.INTRA.norm>
-0.687971

>  <SCORE.RESTR>
0.0203644

>  <SCORE.RESTR.CAVITY>
0.0203644

>  <SCORE.RESTR.norm>
0.0014546

>  <SCORE.SYSTEM>
0

>  <SCORE.SYSTEM.CONST>
0

>  <SCORE.SYSTEM.DIHEDRAL>
0

>  <SCORE.SYSTEM.SOLV>
0

>  <SCORE.SYSTEM.norm>
0

>  <SCORE.heavy>
14

>  <SCORE.norm>
-0.748931

>  <RMSD>
28.424

$$$$
1xpf_lig
 OpenBabel02141814123D
libRbt.so/2013.1/901 2013/11/27
 14 13  0  0  0  0  0  0  0  0999 V2000
    5.0816  -23.2126   48.4701 N   0  0  0  0  0  0  0  0  0  0  0  0
    4.2731  -23.2060   49.6753 C   0  0  0  0  0  0  0  0  0  0  0  0
    4.8803  -24.0546   50.7274 C   0  0  0  0  0  0  0  0  0  0  0  0
    3.9173  -24.0700   51.8736 C   0  0  0  0  0  0  0  0  0  0  0  0
    3.8512  -22.6795   52.3863 N   0  0  0  0  0  0  0  0  0  0  0  0
    3.2635  -22.6537   53.7606 C   0  0  0  0  0  0  0  0  0  0  0  0
    2.6754  -21.2855   54.1469 C   0  0  0  0  0  0  0  0  0  0  0  0
    2.0537  -21.2476   55.5542 C   0  0  0  0  0  0  0  0  0  0  0  0
    1.1335  -20.0409   55.6607 C   0  0  0  0  0  0  0  0  0  0  0  0
    1.9915  -18.9575   56.1623 N   0  0  0  0  0  0  0  0  0  0  0  0
    1.3319  -17.7240   56.6751 C   0  0  0  0  0  0  0  0  0  0  0  0
    0.7765  -17.1419   55.3573 C   0  0  0  0  0  0  0  0  0  0  0  0
    0.0904  -15.7998   55.3892 C   0  0  0  0  0  0  0  0  0  0  0  0
   -1.0896  -15.7384   56.2341 N   0  0  0  0  0  0  0  0  0  0  0  0
  1  2  1  0  0  0  0
  2  3  1  0  0  0  0
  3  4  1  0  0  0  0
  4  5  1  0  0  0  0
  5  6  1  0  0  0  0
  6  7  1  0  0  0  0
  7  8  1  0  0  0  0
  8  9  1  0  0  0  0
  9 10  1  0  0  0  0
 10 11  1  0  0  0  0
 11 12  1  0  0  0  0
 12 13  1  0  0  0  0
 13 14  1  0  0  0  0
M  END
>  <CHROM.1>
-175.33523189,-64.83974434,-162.63135074,-158.20054488,179.40918828,-161.99376662
-90.66971577,-166.10030851,-69.33831482,-175.79555833,-60.63156502,2.44503092
-20.55817935,53.71967374,0.19172334,1.11367899,-1.07930113

>  <Name>
1xpf_lig

>  <RI>
0

>  <Rbt.Current_Directory>
/home/afrankz/demos/rdock_decoys_rna/rnas/1xpf

>  <Rbt.Executable>
rbdock ($Id: //depot/dev/client3/rdock/2013.1/src/exe/rbdock.cxx#4 $)

>  <Rbt.Library>
libRbt.so (2013.1, Build901 2013/11/27)

>  <Rbt.Parameter_File>
/export/apps/rDock/src/rDock_2013.1_src/data/scripts/dock_solv.prm

>  <Rbt.Receptor>
prm/blind_docking_60.prm

>  <SCORE>
-5.63346

>  <SCORE.INTER>
0.289393

>  <SCORE.INTER.CONST>
1

>  <SCORE.INTER.POLAR>
-0.568298

>  <SCORE.INTER.ROT>
11

>  <SCORE.INTER.SOLV>
10.4578

>  <SCORE.INTER.VDW>
-12.332

>  <SCORE.INTER.norm>
0.0206709

>  <SCORE.INTRA>
-6.00382

>  <SCORE.INTRA.DIHEDRAL>
-12.6186

>  <SCORE.INTRA.DIHEDRAL.0>
17.7811

>  <SCORE.INTRA.POLAR>
0

>  <SCORE.INTRA.POLAR.0>
0

>  <SCORE.INTRA.REPUL>
0

>  <SCORE.INTRA.REPUL.0>
0

>  <SCORE.INTRA.SOLV>
0.533592

>  <SCORE.INTRA.SOLV.lig_0>
-47.9565

>  <SCORE.INTRA.VDW>
0.0386891

>  <SCORE.INTRA.VDW.0>
0.515983

>  <SCORE.INTRA.norm>
-0.428844

>  <SCORE.RESTR>
0.0809721

>  <SCORE.RESTR.CAVITY>
0.0809721

>  <SCORE.RESTR.norm>
0.00578372

>  <SCORE.SYSTEM>
0

>  <SCORE.SYSTEM.CONST>
0

>  <SCORE.SYSTEM.DIHEDRAL>
0

>  <SCORE.SYSTEM.SOLV>
0

>  <SCORE.SYSTEM.norm>
0

>  <SCORE.heavy>
14

>  <SCORE.norm>
-0.40239

>  <RMSD>
28.613

$$$$
1xpf_lig
 OpenBabel02141814123D
libRbt.so/2013.1/901 2013/11/27
 14 13  0  0  0  0  0  0  0  0999 V2000
   -1.3978  -15.4808   56.0263 N   0  0  0  0  0  0  0  0  0  0  0  0
   -0.0728  -15.5269   56.6166 C   0  0  0  0  0  0  0  0  0  0  0  0
    0.4519  -16.9126   56.6374 C   0  0  0  0  0  0  0  0  0  0  0  0
    0.7492  -17.2789   55.2165 C   0  0  0  0  0  0  0  0  0  0  0  0
    0.4902  -18.7345   55.0943 N   0  0  0  0  0  0  0  0  0  0  0  0
    1.7671  -19.5056   55.1946 C   0  0  0  0  0  0  0  0  0  0  0  0
    2.1939  -20.1540   53.8663 C   0  0  0  0  0  0  0  0  0  0  0  0
    3.1720  -21.3306   54.0314 C   0  0  0  0  0  0  0  0  0  0  0  0
    3.5946  -21.8247   52.6561 C   0  0  0  0  0  0  0  0  0  0  0  0
    4.0060  -23.2202   52.8685 N   0  0  0  0  0  0  0  0  0  0  0  0
    3.1718  -24.2949   52.2614 C   0  0  0  0  0  0  0  0  0  0  0  0
    3.7943  -24.3607   50.8498 C   0  0  0  0  0  0  0  0  0  0  0  0
    5.1871  -24.9170   50.6963 C   0  0  0  0  0  0  0  0  0  0  0  0
    5.6608  -25.0048   49.3259 N   0  0  0  0  0  0  0  0  0  0  0  0
  1  2  1  0  0  0  0
  2  3  1  0  0  0  0
  3  4  1  0  0  0  0
  4  5  1  0  0  0  0
  5  6  1  0  0  0  0
  6  7  1  0  0  0  0
  7  8  1  0  0  0  0
  8  9  1  0  0  0  0
  9 10  1  0  0  0  0
 10 11  1  0  0  0  0
 11 12  1  0  0  0  0
 12 13  1  0  0  0  0
 13 14  1  0  0  0  0
M  END
>  <CHROM.1>
70.44079883,-147.32144378,-98.49009120,-110.20644326,-159.02741892,-176.12022757
-156.12880869,112.54691987,85.89771891,70.00064797,176.88873781,2.34066099
-20.61045371,53.66738490,2.68068668,-1.05380014,1.62847753

>  <Name>
1xpf_lig

>  <RI>
0

>  <Rbt.Current_Directory>
/home/afrankz/demos/rdock_decoys_rna/rnas/1xpf

>  <Rbt.Executable>
rbdock ($Id: //depot/dev/client3/rdock/2013.1/src/exe/rbdock.cxx#4 $)

>  <Rbt.Library>
libRbt.so (2013.1, Build901 2013/11/27)

>  <Rbt.Parameter_File>
/export/apps/rDock/src/rDock_2013.1_src/data/scripts/dock_solv.prm

>  <Rbt.Receptor>
prm/blind_docking_60.prm

>  <SCORE>
-1.4942

>  <SCORE.INTER>
2.23855

>  <SCORE.INTER.CONST>
1

>  <SCORE.INTER.POLAR>
0

>  <SCORE.INTER.ROT>
11

>  <SCORE.INTER.SOLV>
7.27104

>  <SCORE.INTER.VDW>
-11.8646

>  <SCORE.INTER.norm>
0.159896

>  <SCORE.INTRA>
-3.7779

>  <SCORE.INTRA.DIHEDRAL>
-6.76298

>  <SCORE.INTRA.DIHEDRAL.0>
17.7811

>  <SCORE.INTRA.POLAR>
0

>  <SCORE.INTRA.POLAR.0>
0

>  <SCORE.INTRA.REPUL>
0

>  <SCORE.INTRA.REPUL.0>
0

>  <SCORE.INTRA.SOLV>
0.686216

>  <SCORE.INTRA.SOLV.lig_0>
-47.9565

>  <SCORE.INTRA.VDW>
-0.739518

>  <SCORE.INTRA.VDW.0>
0.515983

>  <SCORE.INTRA.norm>
-0.26985

>  <SCORE.RESTR>
0.045147

>  <SCORE.RESTR.CAVITY>
0.045147

>  <SCORE.RESTR.norm>
0.00322479

>  <SCORE.SYSTEM>
0

>  <SCORE.SYSTEM.CONST>
0

>  <SCORE.SYSTEM.DIHEDRAL>
0

>  <SCORE.SYSTEM.SOLV>
0

>  <SCORE.SYSTEM.norm>
0

>  <SCORE.heavy>
14

>  <SCORE.norm>
-0.106729

>  <RMSD>
28.714

$$$$
1xpf_lig
 OpenBabel02141814123D
libRbt.so/2013.1/901 2013/11/27
 14 13  0  0  0  0  0  0  0  0999 V2000
   -1.5254  -15.4488   56.0310 N   0  0  0  0  0  0  0  0  0  0  0  0
   -0.2960  -15.2980   56.7873 C   0  0  0  0  0  0  0  0  0  0  0  0
    0.3818  -16.6036   56.9658 C   0  0  0  0  0  0  0  0  0  0  0  0
    0.8042  -17.0564   55.6028 C   0  0  0  0  0  0  0  0  0  0  0  0
    1.3264  -18.4359   55.7608 N   0  0  0  0  0  0  0  0  0  0  0  0
    1.5113  -19.0838   54.4262 C   0  0  0  0  0  0  0  0  0  0  0  0
    1.2367  -20.5975   54.4398 C   0  0  0  0  0  0  0  0  0  0  0  0
    2.3061  -21.4198   55.1805 C   0  0  0  0  0  0  0  0  0  0  0  0
    2.2261  -22.8687   54.7239 C   0  0  0  0  0  0  0  0  0  0  0  0
    2.8230  -22.8724   53.3803 N   0  0  0  0  0  0  0  0  0  0  0  0
    2.6751  -24.1027   52.5532 C   0  0  0  0  0  0  0  0  0  0  0  0
    3.8217  -23.8919   51.5407 C   0  0  0  0  0  0  0  0  0  0  0  0
    4.1147  -24.9803   50.5395 C   0  0  0  0  0  0  0  0  0  0  0  0
    5.1782  -24.6731   49.5989 N   0  0  0  0  0  0  0  0  0  0  0  0
  1  2  1  0  0  0  0
  2  3  1  0  0  0  0
  3  4  1  0  0  0  0
  4  5  1  0  0  0  0
  5  6  1  0  0  0  0
  6  7  1  0  0  0  0
  7  8  1  0  0  0  0
  8  9  1  0  0  0  0
  9 10  1  0  0  0  0
 10 11  1  0  0  0  0
 11 12  1  0  0  0  0
 12 13  1  0  0  0  0
 13 14  1  0  0  0  0
M  END
>  <CHROM.1>
65.60659265,-173.00567203,168.28169971,-146.13876754,-71.00754432,-159.89173958
74.75829818,-169.14593843,-160.07056259,175.59131045,177.92778827,1.89882657
-20.52385105,54.10950995,-2.84537567,-1.15038940,2.45012465

>  <Name>
1xpf_lig

>  <RI>
0

>  <Rbt.Current_Directory>
/home/afrankz/demos/rdock_decoys_rna/rnas/1xpf

>  <Rbt.Executable>
rbdock ($Id: //depot/dev/client3/rdock/2013.1/src/exe/rbdock.cxx#4 $)

>  <Rbt.Library>
libRbt.so (2013.1, Build901 2013/11/27)

>  <Rbt.Parameter_File>
/export/apps/rDock/src/rDock_2013.1_src/data/scripts/dock_solv.prm

>  <Rbt.Receptor>
prm/blind_docking_60.prm

>  <SCORE>
-4.15189

>  <SCORE.INTER>
3.6113

>  <SCORE.INTER.CONST>
1

>  <SCORE.INTER.POLAR>
0

>  <SCORE.INTER.ROT>
11

>  <SCORE.INTER.SOLV>
7.65402

>  <SCORE.INTER.VDW>
-11.0771

>  <SCORE.INTER.norm>
0.25795

>  <SCORE.INTRA>
-7.77321

>  <SCORE.INTRA.DIHEDRAL>
-13.3935

>  <SCORE.INTRA.DIHEDRAL.0>
17.7811

>  <SCORE.INTRA.POLAR>
0

>  <SCORE.INTRA.POLAR.0>
0

>  <SCORE.INTRA.REPUL>
0

>  <SCORE.INTRA.REPUL.0>
0

>  <SCORE.INTRA.SOLV>
0.745636

>  <SCORE.INTRA.SOLV.lig_0>
-47.9565

>  <SCORE.INTRA.VDW>
-1.44929

>  <SCORE.INTRA.VDW.0>
0.515983

>  <SCORE.INTRA.norm>
-0.555229

>  <SCORE.RESTR>
0.0100174

>  <SCORE.RESTR.CAVITY>
0.0100174

>  <SCORE.RESTR.norm>
0.000715527

>  <SCORE.SYSTEM>
0

>  <SCORE.SYSTEM.CONST>
0

>  <SCORE.SYSTEM.DIHEDRAL>
0

>  <SCORE.SYSTEM.SOLV>
0

>  <SCORE.SYSTEM.norm>
0

>  <SCORE.heavy>
14

>  <SCORE.norm>
-0.296564

>  <RMSD>
28.761

$$$$
1xpf_lig
 OpenBabel02141814123D
libRbt.so/2013.1/901 2013/11/27
 14 13  0  0  0  0  0  0  0  0999 V2000
   -0.3540  -17.4665   54.6416 N   0  0  0  0  0  0  0  0  0  0  0  0
    0.3840  -17.4712   55.8912 C   0  0  0  0  0  0  0  0  0  0  0  0
    1.7746  -17.9401   55.6855 C   0  0  0  0  0  0  0  0  0  0  0  0
    1.6982  -19.4170   55.4524 C   0  0  0  0  0  0  0  0  0  0  0  0
    1.4294  -20.0379   56.7726 N   0  0  0  0  0  0  0  0  0  0  0  0
    1.6681  -21.5127   56.7179 C   0  0  0  0  0  0  0  0  0  0  0  0
    0.6665  -22.2598   55.8202 C   0  0  0  0  0  0  0  0  0  0  0  0
    0.9637  -22.1362   54.3153 C   0  0  0  0  0  0  0  0  0  0  0  0
    2.3361  -22.7259   54.0277 C   0  0  0  0  0  0  0  0  0  0  0  0
    2.5500  -22.4964   52.5913 N   0  0  0  0  0  0  0  0  0  0  0  0
    2.8532  -21.1085   52.1427 C   0  0  0  0  0  0  0  0  0  0  0  0
    3.1055  -21.3552   50.6395 C   0  0  0  0  0  0  0  0  0  0  0  0
    3.2190  -20.1671   49.7183 C   0  0  0  0  0  0  0  0  0  0  0  0
    1.9887  -19.4162   49.5376 N   0  0  0  0  0  0  0  0  0  0  0  0
  1  2  1  0  0  0  0
  2  3  1  0  0  0  0
  3  4  1  0  0  0  0
  4  5  1  0  0  0  0
  5  6  1  0  0  0  0
  6  7  1  0  0  0  0
  7  8  1  0  0  0  0
  8  9  1  0  0  0  0
  9 10  1  0  0  0  0
 10 11  1  0  0  0  0
 11 12  1  0  0  0  0
 12 13  1  0  0  0  0
 13 14  1  0  0  0  0
M  END
>  <CHROM.1>
-73.14454758,-74.72196242,-165.98558792,-66.88332283,78.06117018,60.74801639
-177.14895441,73.64444018,175.72241660,169.42329462,-67.71127473,1.73464181
-20.39385413,53.85403291,2.70992892,-1.23127863,2.42436440

>  <Name>
1xpf_lig

>  <RI>
0

>  <Rbt.Current_Directory>
/home/afrankz/demos/rdock_decoys_rna/rnas/1xpf

>  <Rbt.Executable>
rbdock ($Id: //depot/dev/client3/rdock/2013.1/src/exe/rbdock.cxx#4 $)

>  <Rbt.Library>
libRbt.so (2013.1, Build901 2013/11/27)

>  <Rbt.Parameter_File>
/export/apps/rDock/src/rDock_2013.1_src/data/scripts/dock_solv.prm

>  <Rbt.Receptor>
prm/blind_docking_100.prm

>  <SCORE>
-5.22472

>  <SCORE.INTER>
-0.200212

>  <SCORE.INTER.CONST>
1

>  <SCORE.INTER.POLAR>
-0.659378

>  <SCORE.INTER.ROT>
11

>  <SCORE.INTER.SOLV>
7.16953

>  <SCORE.INTER.VDW>
-11.2587

>  <SCORE.INTER.norm>
-0.0143009

>  <SCORE.INTRA>
-5.02474

>  <SCORE.INTRA.DIHEDRAL>
-14.2056

>  <SCORE.INTRA.DIHEDRAL.0>
17.7811

>  <SCORE.INTRA.POLAR>
0

>  <SCORE.INTRA.POLAR.0>
0

>  <SCORE.INTRA.REPUL>
0

>  <SCORE.INTRA.REPUL.0>
0

>  <SCORE.INTRA.SOLV>
1.98291

>  <SCORE.INTRA.SOLV.lig_0>
-47.9565

>  <SCORE.INTRA.VDW>
1.08659

>  <SCORE.INTRA.VDW.0>
0.515983

>  <SCORE.INTRA.norm>
-0.35891

>  <SCORE.RESTR>
0.000234322

>  <SCORE.RESTR.CAVITY>
0.000234322

>  <SCORE.RESTR.norm>
1.67373e-05

>  <SCORE.SYSTEM>
0

>  <SCORE.SYSTEM.CONST>
0

>  <SCORE.SYSTEM.DIHEDRAL>
0

>  <SCORE.SYSTEM.SOLV>
0

>  <SCORE.SYSTEM.norm>
0

>  <SCORE.heavy>
14

>  <SCORE.norm>
-0.373194

>  <RMSD>
28.914

$$$$
1xpf_lig
 OpenBabel02141814123D
libRbt.so/2013.1/901 2013/11/27
 14 13  0  0  0  0  0  0  0  0999 V2000
   -1.0786  -15.5736   55.6041 N   0  0  0  0  0  0  0  0  0  0  0  0
    0.2561  -16.0298   55.9456 C   0  0  0  0  0  0  0  0  0  0  0  0
    0.3396  -17.5087   55.9021 C   0  0  0  0  0  0  0  0  0  0  0  0
    1.7299  -17.8713   56.3228 C   0  0  0  0  0  0  0  0  0  0  0  0
    1.8067  -19.3524   56.2892 N   0  0  0  0  0  0  0  0  0  0  0  0
    2.0790  -19.8330   54.9000 C   0  0  0  0  0  0  0  0  0  0  0  0
    2.5409  -21.2993   54.8413 C   0  0  0  0  0  0  0  0  0  0  0  0
    3.0020  -21.7536   53.4451 C   0  0  0  0  0  0  0  0  0  0  0  0
    3.2863  -23.2477   53.4754 C   0  0  0  0  0  0  0  0  0  0  0  0
    3.4361  -23.6302   52.0637 N   0  0  0  0  0  0  0  0  0  0  0  0
    3.2985  -25.0712   51.7115 C   0  0  0  0  0  0  0  0  0  0  0  0
    3.5039  -25.0007   50.1828 C   0  0  0  0  0  0  0  0  0  0  0  0
    4.8849  -24.7173   49.6486 C   0  0  0  0  0  0  0  0  0  0  0  0
    5.4280  -23.4220   50.0195 N   0  0  0  0  0  0  0  0  0  0  0  0
  1  2  1  0  0  0  0
  2  3  1  0  0  0  0
  3  4  1  0  0  0  0
  4  5  1  0  0  0  0
  5  6  1  0  0  0  0
  6  7  1  0  0  0  0
  7  8  1  0  0  0  0
  8  9  1  0  0  0  0
  9 10  1  0  0  0  0
 10 11  1  0  0  0  0
 11 12  1  0  0  0  0
 12 13  1  0  0  0  0
 13 14  1  0  0  0  0
M  END
>  <CHROM.1>
-177.68870553,179.53590162,82.71283012,164.60615487,-172.36689973,-173.82035885
168.38652489,-161.19569549,179.26656043,71.89567329,-62.75270253,2.46527353
-21.02241401,53.59659000,2.82069472,-1.15562877,1.83619567

>  <Name>
1xpf_lig

>  <RI>
0

>  <Rbt.Current_Directory>
/home/afrankz/demos/rdock_decoys_rna/rnas/1xpf

>  <Rbt.Executable>
rbdock ($Id: //depot/dev/client3/rdock/2013.1/src/exe/rbdock.cxx#4 $)

>  <Rbt.Library>
libRbt.so (2013.1, Build901 2013/11/27)

>  <Rbt.Parameter_File>
/export/apps/rDock/src/rDock_2013.1_src/data/scripts/dock_solv.prm

>  <Rbt.Receptor>
prm/blind_docking_60.prm

>  <SCORE>
-7.62039

>  <SCORE.INTER>
-0.109734

>  <SCORE.INTER.CONST>
1

>  <SCORE.INTER.POLAR>
-0.732732

>  <SCORE.INTER.ROT>
11

>  <SCORE.INTER.SOLV>
12.0033

>  <SCORE.INTER.VDW>
-12.5651

>  <SCORE.INTER.norm>
-0.00783811

>  <SCORE.INTRA>
-7.99888

>  <SCORE.INTRA.DIHEDRAL>
-15.5124

>  <SCORE.INTRA.DIHEDRAL.0>
17.7811

>  <SCORE.INTRA.POLAR>
0

>  <SCORE.INTRA.POLAR.0>
0

>  <SCORE.INTRA.REPUL>
0

>  <SCORE.INTRA.REPUL.0>
0

>  <SCORE.INTRA.SOLV>
2.04956

>  <SCORE.INTRA.SOLV.lig_0>
-47.9565

>  <SCORE.INTRA.VDW>
-1.26743

>  <SCORE.INTRA.VDW.0>
0.515983

>  <SCORE.INTRA.norm>
-0.571348

>  <SCORE.RESTR>
0.488223

>  <SCORE.RESTR.CAVITY>
0.488223

>  <SCORE.RESTR.norm>
0.0348731

>  <SCORE.SYSTEM>
0

>  <SCORE.SYSTEM.CONST>
0

>  <SCORE.SYSTEM.DIHEDRAL>
0

>  <SCORE.SYSTEM.SOLV>
0

>  <SCORE.SYSTEM.norm>
0

>  <SCORE.heavy>
14

>  <SCORE.norm>
-0.544314

>  <RMSD>
28.936

$$$$
1xpf_lig
 OpenBabel02141814123D
libRbt.so/2013.1/901 2013/11/27
 14 13  0  0  0  0  0  0  0  0999 V2000
    5.5715  -25.5446   49.5155 N   0  0  0  0  0  0  0  0  0  0  0  0
    4.8207  -24.7050   50.4306 C   0  0  0  0  0  0  0  0  0  0  0  0
    3.7284  -25.4687   51.0782 C   0  0  0  0  0  0  0  0  0  0  0  0
    2.9149  -24.4789   51.8526 C   0  0  0  0  0  0  0  0  0  0  0  0
    3.8008  -23.9474   52.9172 N   0  0  0  0  0  0  0  0  0  0  0  0
    3.0024  -23.2185   53.9498 C   0  0  0  0  0  0  0  0  0  0  0  0
    2.8836  -21.7093   53.6756 C   0  0  0  0  0  0  0  0  0  0  0  0
    2.1817  -20.9239   54.7976 C   0  0  0  0  0  0  0  0  0  0  0  0
    1.8623  -19.5220   54.3007 C   0  0  0  0  0  0  0  0  0  0  0  0
    1.3628  -18.8085   55.4851 N   0  0  0  0  0  0  0  0  0  0  0  0
    0.3632  -17.7235   55.2776 C   0  0  0  0  0  0  0  0  0  0  0  0
    0.5252  -16.9446   56.6009 C   0  0  0  0  0  0  0  0  0  0  0  0
   -0.4518  -15.8409   56.9174 C   0  0  0  0  0  0  0  0  0  0  0  0
   -0.5498  -14.8044   55.9044 N   0  0  0  0  0  0  0  0  0  0  0  0
  1  2  1  0  0  0  0
  2  3  1  0  0  0  0
  3  4  1  0  0  0  0
  4  5  1  0  0  0  0
  5  6  1  0  0  0  0
  6  7  1  0  0  0  0
  7  8  1  0  0  0  0
  8  9  1  0  0  0  0
  9 10  1  0  0  0  0
 10 11  1  0  0  0  0
 11 12  1  0  0  0  0
 12 13  1  0  0  0  0
 13 14  1  0  0  0  0
M  END
>  <CHROM.1>
-172.72311233,-64.72659446,-165.76035922,-92.54282422,-174.41549079,-168.25798352
-172.83543525,-149.76471327,-159.92855895,-171.54307773,-55.84316541,2.28673832
-20.97436729,53.76463860,-0.26781976,1.15107588,-0.73695962

>  <Name>
1xpf_lig

>  <RI>
0

>  <Rbt.Current_Directory>
/home/afrankz/demos/rdock_decoys_rna/rnas/1xpf

>  <Rbt.Executable>
rbdock ($Id: //depot/dev/client3/rdock/2013.1/src/exe/rbdock.cxx#4 $)

>  <Rbt.Library>
libRbt.so (2013.1, Build901 2013/11/27)

>  <Rbt.Parameter_File>
/export/apps/rDock/src/rDock_2013.1_src/data/scripts/dock_solv.prm

>  <Rbt.Receptor>
prm/blind_docking_60.prm

>  <SCORE>
-5.33801

>  <SCORE.INTER>
2.93473

>  <SCORE.INTER.CONST>
1

>  <SCORE.INTER.POLAR>
0

>  <SCORE.INTER.ROT>
11

>  <SCORE.INTER.SOLV>
11.0629

>  <SCORE.INTER.VDW>
-12.6645

>  <SCORE.INTER.norm>
0.209624

>  <SCORE.INTRA>
-8.27593

>  <SCORE.INTRA.DIHEDRAL>
-14.5501

>  <SCORE.INTRA.DIHEDRAL.0>
17.7811

>  <SCORE.INTRA.POLAR>
0

>  <SCORE.INTRA.POLAR.0>
0

>  <SCORE.INTRA.REPUL>
0

>  <SCORE.INTRA.REPUL.0>
0

>  <SCORE.INTRA.SOLV>
0.297033

>  <SCORE.INTRA.SOLV.lig_0>
-47.9565

>  <SCORE.INTRA.VDW>
-1.14938

>  <SCORE.INTRA.VDW.0>
0.515983

>  <SCORE.INTRA.norm>
-0.591138

>  <SCORE.RESTR>
0.00318824

>  <SCORE.RESTR.CAVITY>
0.00318824

>  <SCORE.RESTR.norm>
0.000227731

>  <SCORE.SYSTEM>
0

>  <SCORE.SYSTEM.CONST>
0

>  <SCORE.SYSTEM.DIHEDRAL>
0

>  <SCORE.SYSTEM.SOLV>
0

>  <SCORE.SYSTEM.norm>
0

>  <SCORE.heavy>
14

>  <SCORE.norm>
-0.381287

>  <RMSD>
28.957

$$$$
1xpf_lig
 OpenBabel02141814123D
libRbt.so/2013.1/901 2013/11/27
 14 13  0  0  0  0  0  0  0  0999 V2000
    0.3437  -16.3659   55.3402 N   0  0  0  0  0  0  0  0  0  0  0  0
    0.6835  -17.5886   56.0443 C   0  0  0  0  0  0  0  0  0  0  0  0
    1.3287  -18.5642   55.1345 C   0  0  0  0  0  0  0  0  0  0  0  0
    1.5055  -19.8277   55.9178 C   0  0  0  0  0  0  0  0  0  0  0  0
    2.1833  -20.7906   55.0155 N   0  0  0  0  0  0  0  0  0  0  0  0
    1.7150  -22.1842   55.2871 C   0  0  0  0  0  0  0  0  0  0  0  0
    2.5008  -23.2541   54.5096 C   0  0  0  0  0  0  0  0  0  0  0  0
    2.3287  -23.1692   52.9826 C   0  0  0  0  0  0  0  0  0  0  0  0
    3.2124  -22.0552   52.4422 C   0  0  0  0  0  0  0  0  0  0  0  0
    2.8913  -21.9828   51.0093 N   0  0  0  0  0  0  0  0  0  0  0  0
    3.7887  -21.1805   50.1315 C   0  0  0  0  0  0  0  0  0  0  0  0
    2.8031  -20.0925   49.6529 C   0  0  0  0  0  0  0  0  0  0  0  0
    3.0923  -19.3685   48.3626 C   0  0  0  0  0  0  0  0  0  0  0  0
    4.4049  -18.7503   48.2914 N   0  0  0  0  0  0  0  0  0  0  0  0
  1  2  1  0  0  0  0
  2  3  1  0  0  0  0
  3  4  1  0  0  0  0
  4  5  1  0  0  0  0
  5  6  1  0  0  0  0
  6  7  1  0  0  0  0
  7  8  1  0  0  0  0
  8  9  1  0  0  0  0
  9 10  1  0  0  0  0
 10 11  1  0  0  0  0
 11 12  1  0  0  0  0
 12 13  1  0  0  0  0
 13 14  1  0  0  0  0
M  END
>  <CHROM.1>
-174.25644649,-178.56666944,-146.08922085,-172.87247380,-64.77582930,78.90473914
-175.37576325,-167.57091731,-116.87226941,-156.81827292,-54.35035459,2.34150400
-20.36995765,52.86599648,2.80797330,-1.19861076,2.59830395

>  <Name>
1xpf_lig

>  <RI>
0

>  <Rbt.Current_Directory>
/home/afrankz/demos/rdock_decoys_rna/rnas/1xpf

>  <Rbt.Executable>
rbdock ($Id: //depot/dev/client3/rdock/2013.1/src/exe/rbdock.cxx#4 $)

>  <Rbt.Library>
libRbt.so (2013.1, Build901 2013/11/27)

>  <Rbt.Parameter_File>
/export/apps/rDock/src/rDock_2013.1_src/data/scripts/dock_solv.prm

>  <Rbt.Receptor>
prm/blind_docking_100.prm

>  <SCORE>
-3.81954

>  <SCORE.INTER>
3.43792

>  <SCORE.INTER.CONST>
1

>  <SCORE.INTER.POLAR>
-0.653359

>  <SCORE.INTER.ROT>
11

>  <SCORE.INTER.SOLV>
14.3359

>  <SCORE.INTER.VDW>
-11.2422

>  <SCORE.INTER.norm>
0.245566

>  <SCORE.INTRA>
-7.26606

>  <SCORE.INTRA.DIHEDRAL>
-12.1092

>  <SCORE.INTRA.DIHEDRAL.0>
17.7811

>  <SCORE.INTRA.POLAR>
0

>  <SCORE.INTRA.POLAR.0>
0

>  <SCORE.INTRA.REPUL>
0

>  <SCORE.INTRA.REPUL.0>
0

>  <SCORE.INTRA.SOLV>
0.7812

>  <SCORE.INTRA.SOLV.lig_0>
-47.9565

>  <SCORE.INTRA.VDW>
-1.60206

>  <SCORE.INTRA.VDW.0>
0.515983

>  <SCORE.INTRA.norm>
-0.519004

>  <SCORE.RESTR>
0.00860095

>  <SCORE.RESTR.CAVITY>
0.00860095

>  <SCORE.RESTR.norm>
0.000614353

>  <SCORE.SYSTEM>
0

>  <SCORE.SYSTEM.CONST>
0

>  <SCORE.SYSTEM.DIHEDRAL>
0

>  <SCORE.SYSTEM.SOLV>
0

>  <SCORE.SYSTEM.norm>
0

>  <SCORE.heavy>
14

>  <SCORE.norm>
-0.272824

>  <RMSD>
28.967

$$$$
1xpf_lig
 OpenBabel02141814123D
libRbt.so/2013.1/901 2013/11/27
 14 13  0  0  0  0  0  0  0  0999 V2000
   -0.5673  -16.6939   54.3698 N   0  0  0  0  0  0  0  0  0  0  0  0
    0.2463  -17.4021   55.3407 C   0  0  0  0  0  0  0  0  0  0  0  0
    0.7452  -18.6815   54.7839 C   0  0  0  0  0  0  0  0  0  0  0  0
    1.5014  -19.3607   55.8831 C   0  0  0  0  0  0  0  0  0  0  0  0
    2.0399  -20.6180   55.3087 N   0  0  0  0  0  0  0  0  0  0  0  0
    1.1051  -21.7559   55.5660 C   0  0  0  0  0  0  0  0  0  0  0  0
    1.6611  -23.1167   55.1122 C   0  0  0  0  0  0  0  0  0  0  0  0
    1.9857  -23.1892   53.6096 C   0  0  0  0  0  0  0  0  0  0  0  0
    3.2634  -22.4098   53.3370 C   0  0  0  0  0  0  0  0  0  0  0  0
    3.4468  -22.4870   51.8804 N   0  0  0  0  0  0  0  0  0  0  0  0
    4.0615  -21.3184   51.1904 C   0  0  0  0  0  0  0  0  0  0  0  0
    2.8296  -20.7611   50.4447 C   0  0  0  0  0  0  0  0  0  0  0  0
    2.9346  -19.4141   49.7757 C   0  0  0  0  0  0  0  0  0  0  0  0
    4.0204  -19.2919   48.8185 N   0  0  0  0  0  0  0  0  0  0  0  0
  1  2  1  0  0  0  0
  2  3  1  0  0  0  0
  3  4  1  0  0  0  0
  4  5  1  0  0  0  0
  5  6  1  0  0  0  0
  6  7  1  0  0  0  0
  7  8  1  0  0  0  0
  8  9  1  0  0  0  0
  9 10  1  0  0  0  0
 10 11  1  0  0  0  0
 11 12  1  0  0  0  0
 12 13  1  0  0  0  0
 13 14  1  0  0  0  0
M  END
>  <CHROM.1>
-176.91518216,-178.04400461,-93.58489991,-174.63894012,-59.56796456,74.56029782
-177.37934388,146.45036041,-108.56157329,170.01137653,55.58359788,2.09091630
-20.46458616,53.24459892,2.88366732,-1.04769708,2.47985174

>  <Name>
1xpf_lig

>  <RI>
0

>  <Rbt.Current_Directory>
/home/afrankz/demos/rdock_decoys_rna/rnas/1xpf

>  <Rbt.Executable>
rbdock ($Id: //depot/dev/client3/rdock/2013.1/src/exe/rbdock.cxx#4 $)

>  <Rbt.Library>
libRbt.so (2013.1, Build901 2013/11/27)

>  <Rbt.Parameter_File>
/export/apps/rDock/src/rDock_2013.1_src/data/scripts/dock_solv.prm

>  <Rbt.Receptor>
prm/blind_docking_100.prm

>  <SCORE>
-5.52767

>  <SCORE.INTER>
2.19368

>  <SCORE.INTER.CONST>
1

>  <SCORE.INTER.POLAR>
-0.336498

>  <SCORE.INTER.ROT>
11

>  <SCORE.INTER.SOLV>
11.6628

>  <SCORE.INTER.VDW>
-12.2368

>  <SCORE.INTER.norm>
0.156691

>  <SCORE.INTRA>
-7.72134

>  <SCORE.INTRA.DIHEDRAL>
-13.8727

>  <SCORE.INTRA.DIHEDRAL.0>
17.7811

>  <SCORE.INTRA.POLAR>
0

>  <SCORE.INTRA.POLAR.0>
0

>  <SCORE.INTRA.REPUL>
0

>  <SCORE.INTRA.REPUL.0>
0

>  <SCORE.INTRA.SOLV>
0.899113

>  <SCORE.INTRA.SOLV.lig_0>
-47.9565

>  <SCORE.INTRA.VDW>
-1.23454

>  <SCORE.INTRA.VDW.0>
0.515983

>  <SCORE.INTRA.norm>
-0.551525

>  <SCORE.RESTR>
0

>  <SCORE.RESTR.CAVITY>
0

>  <SCORE.RESTR.norm>
0

>  <SCORE.SYSTEM>
0

>  <SCORE.SYSTEM.CONST>
0

>  <SCORE.SYSTEM.DIHEDRAL>
0

>  <SCORE.SYSTEM.SOLV>
0

>  <SCORE.SYSTEM.norm>
0

>  <SCORE.heavy>
14

>  <SCORE.norm>
-0.394833

>  <RMSD>
29.001

$$$$
1xpf_lig
 OpenBabel02141814123D
libRbt.so/2013.1/901 2013/11/27
 14 13  0  0  0  0  0  0  0  0999 V2000
    3.0955  -19.9879   48.9617 N   0  0  0  0  0  0  0  0  0  0  0  0
    2.5657  -19.7387   50.2896 C   0  0  0  0  0  0  0  0  0  0  0  0
    2.4197  -21.0025   51.0494 C   0  0  0  0  0  0  0  0  0  0  0  0
    3.7996  -21.4226   51.4503 C   0  0  0  0  0  0  0  0  0  0  0  0
    3.6801  -22.7990   51.9905 N   0  0  0  0  0  0  0  0  0  0  0  0
    3.4011  -22.7648   53.4588 C   0  0  0  0  0  0  0  0  0  0  0  0
    1.9081  -22.9129   53.7996 C   0  0  0  0  0  0  0  0  0  0  0  0
    1.6066  -22.8906   55.3085 C   0  0  0  0  0  0  0  0  0  0  0  0
    1.9181  -21.5071   55.8591 C   0  0  0  0  0  0  0  0  0  0  0  0
    0.8986  -20.6289   55.2667 N   0  0  0  0  0  0  0  0  0  0  0  0
    1.3361  -19.6461   54.2360 C   0  0  0  0  0  0  0  0  0  0  0  0
    0.7163  -18.3533   54.8095 C   0  0  0  0  0  0  0  0  0  0  0  0
    1.3201  -17.7482   56.0514 C   0  0  0  0  0  0  0  0  0  0  0  0
    1.2583  -18.5918   57.2324 N   0  0  0  0  0  0  0  0  0  0  0  0
  1  2  1  0  0  0  0
  2  3  1  0  0  0  0
  3  4  1  0  0  0  0
  4  5  1  0  0  0  0
  5  6  1  0  0  0  0
  6  7  1  0  0  0  0
  7  8  1  0  0  0  0
  8  9  1  0  0  0  0
  9 10  1  0  0  0  0
 10 11  1  0  0  0  0
 11 12  1  0  0  0  0
 12 13  1  0  0  0  0
 13 14  1  0  0  0  0
M  END
>  <CHROM.1>
74.29083942,-169.97873702,-89.03696772,97.27248277,179.54713482,66.86768451
68.53130000,-109.84893462,-128.87581933,71.55052054,-62.35691810,2.13738871
-20.71397406,53.55460556,0.39267780,1.20925036,-0.73891543

>  <Name>
1xpf_lig

>  <RI>
0

>  <Rbt.Current_Directory>
/home/afrankz/demos/rdock_decoys_rna/rnas/1xpf

>  <Rbt.Executable>
rbdock ($Id: //depot/dev/client3/rdock/2013.1/src/exe/rbdock.cxx#4 $)

>  <Rbt.Library>
libRbt.so (2013.1, Build901 2013/11/27)

>  <Rbt.Parameter_File>
/export/apps/rDock/src/rDock_2013.1_src/data/scripts/dock_solv.prm

>  <Rbt.Receptor>
prm/blind_docking_100.prm

>  <SCORE>
-6.74862

>  <SCORE.INTER>
-1.90044

>  <SCORE.INTER.CONST>
1

>  <SCORE.INTER.POLAR>
-0.949931

>  <SCORE.INTER.ROT>
11

>  <SCORE.INTER.SOLV>
10.1003

>  <SCORE.INTER.VDW>
-12.4006

>  <SCORE.INTER.norm>
-0.135745

>  <SCORE.INTRA>
-4.84818

>  <SCORE.INTRA.DIHEDRAL>
-12.0483

>  <SCORE.INTRA.DIHEDRAL.0>
17.7811

>  <SCORE.INTRA.POLAR>
0

>  <SCORE.INTRA.POLAR.0>
0

>  <SCORE.INTRA.REPUL>
0

>  <SCORE.INTRA.REPUL.0>
0

>  <SCORE.INTRA.SOLV>
4.21434

>  <SCORE.INTRA.SOLV.lig_0>
-47.9565

>  <SCORE.INTRA.VDW>
-0.931204

>  <SCORE.INTRA.VDW.0>
0.515983

>  <SCORE.INTRA.norm>
-0.346299

>  <SCORE.RESTR>
0

>  <SCORE.RESTR.CAVITY>
0

>  <SCORE.RESTR.norm>
0

>  <SCORE.SYSTEM>
0

>  <SCORE.SYSTEM.CONST>
0

>  <SCORE.SYSTEM.DIHEDRAL>
0

>  <SCORE.SYSTEM.SOLV>
0

>  <SCORE.SYSTEM.norm>
0

>  <SCORE.heavy>
14

>  <SCORE.norm>
-0.482044

>  <RMSD>
29.023

$$$$
1xpf_lig
 OpenBabel02141814123D
libRbt.so/2013.1/901 2013/11/27
 14 13  0  0  0  0  0  0  0  0999 V2000
   -0.0982  -15.8380   56.0368 N   0  0  0  0  0  0  0  0  0  0  0  0
   -0.0769  -17.0216   55.1972 C   0  0  0  0  0  0  0  0  0  0  0  0
    1.0919  -17.8761   55.5127 C   0  0  0  0  0  0  0  0  0  0  0  0
    1.0310  -19.0458   54.5803 C   0  0  0  0  0  0  0  0  0  0  0  0
    2.3023  -19.7899   54.7553 N   0  0  0  0  0  0  0  0  0  0  0  0
    2.3096  -21.0235   53.9108 C   0  0  0  0  0  0  0  0  0  0  0  0
    3.6786  -21.7239   53.8659 C   0  0  0  0  0  0  0  0  0  0  0  0
    3.6572  -23.0929   53.1632 C   0  0  0  0  0  0  0  0  0  0  0  0
    3.9675  -22.9005   51.6864 C   0  0  0  0  0  0  0  0  0  0  0  0
    4.4238  -24.2192   51.2236 N   0  0  0  0  0  0  0  0  0  0  0  0
    5.2608  -24.2769   49.9925 C   0  0  0  0  0  0  0  0  0  0  0  0
    6.5400  -24.9285   50.5609 C   0  0  0  0  0  0  0  0  0  0  0  0
    7.7318  -25.0996   49.6535 C   0  0  0  0  0  0  0  0  0  0  0  0
    7.6981  -26.2895   48.8209 N   0  0  0  0  0  0  0  0  0  0  0  0
  1  2  1  0  0  0  0
  2  3  1  0  0  0  0
  3  4  1  0  0  0  0
  4  5  1  0  0  0  0
  5  6  1  0  0  0  0
  6  7  1  0  0  0  0
  7  8  1  0  0  0  0
  8  9  1  0  0  0  0
  9 10  1  0  0  0  0
 10 11  1  0  0  0  0
 11 12  1  0  0  0  0
 12 13  1  0  0  0  0
 13 14  1  0  0  0  0
M  END
>  <CHROM.1>
-178.99349980,171.68996029,177.14660405,170.71648397,172.05295651,91.26818114
159.15556726,-158.07674909,120.14727039,-175.85552502,-83.76131094,3.53693625
-21.65189671,52.78290060,-2.57375941,-0.87584909,2.88839423

>  <Name>
1xpf_lig

>  <RI>
0

>  <Rbt.Current_Directory>
/home/afrankz/demos/rdock_decoys_rna/rnas/1xpf

>  <Rbt.Executable>
rbdock ($Id: //depot/dev/client3/rdock/2013.1/src/exe/rbdock.cxx#4 $)

>  <Rbt.Library>
libRbt.so (2013.1, Build901 2013/11/27)

>  <Rbt.Parameter_File>
/export/apps/rDock/src/rDock_2013.1_src/data/scripts/dock_solv.prm

>  <Rbt.Receptor>
prm/blind_docking_60.prm

>  <SCORE>
-3.35537

>  <SCORE.INTER>
3.11128

>  <SCORE.INTER.CONST>
1

>  <SCORE.INTER.POLAR>
0

>  <SCORE.INTER.ROT>
11

>  <SCORE.INTER.SOLV>
11.819

>  <SCORE.INTER.VDW>
-12.7988

>  <SCORE.INTER.norm>
0.222234

>  <SCORE.INTRA>
-6.51591

>  <SCORE.INTRA.DIHEDRAL>
-8.9655

>  <SCORE.INTRA.DIHEDRAL.0>
17.7811

>  <SCORE.INTRA.POLAR>
0

>  <SCORE.INTRA.POLAR.0>
0

>  <SCORE.INTRA.REPUL>
0

>  <SCORE.INTRA.REPUL.0>
0

>  <SCORE.INTRA.SOLV>
-0.501627

>  <SCORE.INTRA.SOLV.lig_0>
-47.9565

>  <SCORE.INTRA.VDW>
-1.78235

>  <SCORE.INTRA.VDW.0>
0.515983

>  <SCORE.INTRA.norm>
-0.465422

>  <SCORE.RESTR>
0.0492647

>  <SCORE.RESTR.CAVITY>
0.0492647

>  <SCORE.RESTR.norm>
0.0035189

>  <SCORE.SYSTEM>
0

>  <SCORE.SYSTEM.CONST>
0

>  <SCORE.SYSTEM.DIHEDRAL>
0

>  <SCORE.SYSTEM.SOLV>
0

>  <SCORE.SYSTEM.norm>
0

>  <SCORE.heavy>
14

>  <SCORE.norm>
-0.239669

>  <RMSD>
29.146

$$$$
1xpf_lig
 OpenBabel02141814123D
libRbt.so/2013.1/901 2013/11/27
 14 13  0  0  0  0  0  0  0  0999 V2000
    0.2355  -17.4652   55.0943 N   0  0  0  0  0  0  0  0  0  0  0  0
    0.0642  -18.5665   56.0238 C   0  0  0  0  0  0  0  0  0  0  0  0
    1.0930  -19.6106   55.8061 C   0  0  0  0  0  0  0  0  0  0  0  0
    0.7504  -20.7460   56.7198 C   0  0  0  0  0  0  0  0  0  0  0  0
    1.7756  -21.7937   56.4916 N   0  0  0  0  0  0  0  0  0  0  0  0
    1.2749  -22.8166   55.5231 C   0  0  0  0  0  0  0  0  0  0  0  0
    2.2762  -23.1338   54.3990 C   0  0  0  0  0  0  0  0  0  0  0  0
    2.6145  -21.9277   53.5049 C   0  0  0  0  0  0  0  0  0  0  0  0
    3.5457  -22.3789   52.3899 C   0  0  0  0  0  0  0  0  0  0  0  0
    3.6912  -21.2009   51.5224 N   0  0  0  0  0  0  0  0  0  0  0  0
    2.6383  -20.9528   50.4980 C   0  0  0  0  0  0  0  0  0  0  0  0
    3.2521  -19.7424   49.7615 C   0  0  0  0  0  0  0  0  0  0  0  0
    2.4535  -19.0760   48.6701 C   0  0  0  0  0  0  0  0  0  0  0  0
    3.1448  -18.0020   47.9781 N   0  0  0  0  0  0  0  0  0  0  0  0
  1  2  1  0  0  0  0
  2  3  1  0  0  0  0
  3  4  1  0  0  0  0
  4  5  1  0  0  0  0
  5  6  1  0  0  0  0
  6  7  1  0  0  0  0
  7  8  1  0  0  0  0
  8  9  1  0  0  0  0
  9 10  1  0  0  0  0
 10 11  1  0  0  0  0
 11 12  1  0  0  0  0
 12 13  1  0  0  0  0
 13 14  1  0  0  0  0
M  END
>  <CHROM.1>
-174.83350624,179.55486691,-96.42744601,131.40865556,-61.95925788,-176.82946641
174.23346210,-83.41949100,-174.86919027,-175.72423899,-176.27843688,2.05778872
-20.52989673,53.17035584,2.20540884,-1.07539747,2.32189984

>  <Name>
1xpf_lig

>  <RI>
0

>  <Rbt.Current_Directory>
/home/afrankz/demos/rdock_decoys_rna/rnas/1xpf

>  <Rbt.Executable>
rbdock ($Id: //depot/dev/client3/rdock/2013.1/src/exe/rbdock.cxx#4 $)

>  <Rbt.Library>
libRbt.so (2013.1, Build901 2013/11/27)

>  <Rbt.Parameter_File>
/export/apps/rDock/src/rDock_2013.1_src/data/scripts/dock_solv.prm

>  <Rbt.Receptor>
prm/blind_docking_100.prm

>  <SCORE>
-4.50971

>  <SCORE.INTER>
4.86655

>  <SCORE.INTER.CONST>
1

>  <SCORE.INTER.POLAR>
0

>  <SCORE.INTER.ROT>
11

>  <SCORE.INTER.SOLV>
11.0309

>  <SCORE.INTER.VDW>
-11.3659

>  <SCORE.INTER.norm>
0.347611

>  <SCORE.INTRA>
-9.37626

>  <SCORE.INTRA.DIHEDRAL>
-15.0643

>  <SCORE.INTRA.DIHEDRAL.0>
17.7811

>  <SCORE.INTRA.POLAR>
0

>  <SCORE.INTRA.POLAR.0>
0

>  <SCORE.INTRA.REPUL>
0

>  <SCORE.INTRA.REPUL.0>
0

>  <SCORE.INTRA.SOLV>
-0.636129

>  <SCORE.INTRA.SOLV.lig_0>
-47.9565

>  <SCORE.INTRA.VDW>
-1.52603

>  <SCORE.INTRA.VDW.0>
0.515983

>  <SCORE.INTRA.norm>
-0.669733

>  <SCORE.RESTR>
0

>  <SCORE.RESTR.CAVITY>
0

>  <SCORE.RESTR.norm>
0

>  <SCORE.SYSTEM>
0

>  <SCORE.SYSTEM.CONST>
0

>  <SCORE.SYSTEM.DIHEDRAL>
0

>  <SCORE.SYSTEM.SOLV>
0

>  <SCORE.SYSTEM.norm>
0

>  <SCORE.heavy>
14

>  <SCORE.norm>
-0.322122

>  <RMSD>
29.149

$$$$
1xpf_lig
 OpenBabel02141814123D
libRbt.so/2013.1/901 2013/11/27
 14 13  0  0  0  0  0  0  0  0999 V2000
   -0.9608  -15.8769   55.8984 N   0  0  0  0  0  0  0  0  0  0  0  0
    0.3513  -16.4684   56.0851 C   0  0  0  0  0  0  0  0  0  0  0  0
    0.4091  -17.8288   55.5005 C   0  0  0  0  0  0  0  0  0  0  0  0
    1.7190  -18.4198   55.9205 C   0  0  0  0  0  0  0  0  0  0  0  0
    1.6847  -19.8473   55.5185 N   0  0  0  0  0  0  0  0  0  0  0  0
    2.0757  -19.9985   54.0835 C   0  0  0  0  0  0  0  0  0  0  0  0
    3.0228  -21.1844   53.8311 C   0  0  0  0  0  0  0  0  0  0  0  0
    2.3571  -22.5619   53.9979 C   0  0  0  0  0  0  0  0  0  0  0  0
    3.3481  -23.6461   53.6022 C   0  0  0  0  0  0  0  0  0  0  0  0
    3.3808  -23.6069   52.1329 N   0  0  0  0  0  0  0  0  0  0  0  0
    3.4959  -24.8997   51.4015 C   0  0  0  0  0  0  0  0  0  0  0  0
    4.9777  -24.8406   50.9716 C   0  0  0  0  0  0  0  0  0  0  0  0
    5.5647  -26.0132   50.2277 C   0  0  0  0  0  0  0  0  0  0  0  0
    6.9616  -25.8635   49.8585 N   0  0  0  0  0  0  0  0  0  0  0  0
  1  2  1  0  0  0  0
  2  3  1  0  0  0  0
  3  4  1  0  0  0  0
  4  5  1  0  0  0  0
  5  6  1  0  0  0  0
  6  7  1  0  0  0  0
  7  8  1  0  0  0  0
  8  9  1  0  0  0  0
  9 10  1  0  0  0  0
 10 11  1  0  0  0  0
 11 12  1  0  0  0  0
 12 13  1  0  0  0  0
 13 14  1  0  0  0  0
M  END
>  <CHROM.1>
-171.82874454,171.31841809,83.59498001,137.40032785,69.95945001,174.88902471
-75.70943846,-142.41718818,-104.47758016,177.42699650,179.66093865,2.74195823
-21.50410294,53.50220546,-2.25361914,-0.76692764,-3.09878503

>  <Name>
1xpf_lig

>  <RI>
0

>  <Rbt.Current_Directory>
/home/afrankz/demos/rdock_decoys_rna/rnas/1xpf

>  <Rbt.Executable>
rbdock ($Id: //depot/dev/client3/rdock/2013.1/src/exe/rbdock.cxx#4 $)

>  <Rbt.Library>
libRbt.so (2013.1, Build901 2013/11/27)

>  <Rbt.Parameter_File>
/export/apps/rDock/src/rDock_2013.1_src/data/scripts/dock_solv.prm

>  <Rbt.Receptor>
prm/blind_docking_60.prm

>  <SCORE>
-5.79249

>  <SCORE.INTER>
1.65053

>  <SCORE.INTER.CONST>
1

>  <SCORE.INTER.POLAR>
0

>  <SCORE.INTER.ROT>
11

>  <SCORE.INTER.SOLV>
9.45279

>  <SCORE.INTER.VDW>
-12.9839

>  <SCORE.INTER.norm>
0.117895

>  <SCORE.INTRA>
-7.44474

>  <SCORE.INTRA.DIHEDRAL>
-12.6538

>  <SCORE.INTRA.DIHEDRAL.0>
17.7811

>  <SCORE.INTRA.POLAR>
0

>  <SCORE.INTRA.POLAR.0>
0

>  <SCORE.INTRA.REPUL>
0

>  <SCORE.INTRA.REPUL.0>
0

>  <SCORE.INTRA.SOLV>
-0.248039

>  <SCORE.INTRA.SOLV.lig_0>
-47.9565

>  <SCORE.INTRA.VDW>
-0.993815

>  <SCORE.INTRA.VDW.0>
0.515983

>  <SCORE.INTRA.norm>
-0.531767

>  <SCORE.RESTR>
0.00172496

>  <SCORE.RESTR.CAVITY>
0.00172496

>  <SCORE.RESTR.norm>
0.000123211

>  <SCORE.SYSTEM>
0

>  <SCORE.SYSTEM.CONST>
0

>  <SCORE.SYSTEM.DIHEDRAL>
0

>  <SCORE.SYSTEM.SOLV>
0

>  <SCORE.SYSTEM.norm>
0

>  <SCORE.heavy>
14

>  <SCORE.norm>
-0.413749

>  <RMSD>
29.174

$$$$
1xpf_lig
 OpenBabel02141814123D
libRbt.so/2013.1/901 2013/11/27
 14 13  0  0  0  0  0  0  0  0999 V2000
   -0.8271  -16.1442   55.7358 N   0  0  0  0  0  0  0  0  0  0  0  0
    0.0853  -17.1221   55.1725 C   0  0  0  0  0  0  0  0  0  0  0  0
    0.8710  -17.7905   56.2363 C   0  0  0  0  0  0  0  0  0  0  0  0
    1.9359  -18.5853   55.5465 C   0  0  0  0  0  0  0  0  0  0  0  0
    1.3384  -19.9064   55.2332 N   0  0  0  0  0  0  0  0  0  0  0  0
    2.3919  -20.8650   54.7789 C   0  0  0  0  0  0  0  0  0  0  0  0
    1.8312  -22.2373   54.3672 C   0  0  0  0  0  0  0  0  0  0  0  0
    2.8900  -23.2008   53.8024 C   0  0  0  0  0  0  0  0  0  0  0  0
    3.4190  -22.6459   52.4884 C   0  0  0  0  0  0  0  0  0  0  0  0
    4.2283  -23.7338   51.9201 N   0  0  0  0  0  0  0  0  0  0  0  0
    4.8478  -23.5188   50.5824 C   0  0  0  0  0  0  0  0  0  0  0  0
    5.7271  -24.7841   50.4809 C   0  0  0  0  0  0  0  0  0  0  0  0
    6.6783  -24.9151   49.3186 C   0  0  0  0  0  0  0  0  0  0  0  0
    7.4148  -26.1664   49.2718 N   0  0  0  0  0  0  0  0  0  0  0  0
  1  2  1  0  0  0  0
  2  3  1  0  0  0  0
  3  4  1  0  0  0  0
  4  5  1  0  0  0  0
  5  6  1  0  0  0  0
  6  7  1  0  0  0  0
  7  8  1  0  0  0  0
  8  9  1  0  0  0  0
  9 10  1  0  0  0  0
 10 11  1  0  0  0  0
 11 12  1  0  0  0  0
 12 13  1  0  0  0  0
 13 14  1  0  0  0  0
M  END
>  <CHROM.1>
-170.10639395,-87.22645127,-169.21680326,-177.03868102,175.85803976,-65.79114413
-170.22518168,177.47139215,172.63794103,-173.20535773,-177.11410391,3.05942821
-21.54399710,53.20971420,-2.68578430,-0.94649531,2.77150953

>  <Name>
1xpf_lig

>  <RI>
0

>  <Rbt.Current_Directory>
/home/afrankz/demos/rdock_decoys_rna/rnas/1xpf

>  <Rbt.Executable>
rbdock ($Id: //depot/dev/client3/rdock/2013.1/src/exe/rbdock.cxx#4 $)

>  <Rbt.Library>
libRbt.so (2013.1, Build901 2013/11/27)

>  <Rbt.Parameter_File>
/export/apps/rDock/src/rDock_2013.1_src/data/scripts/dock_solv.prm

>  <Rbt.Receptor>
prm/blind_docking_60.prm

>  <SCORE>
-6.70819

>  <SCORE.INTER>
1.79757

>  <SCORE.INTER.CONST>
1

>  <SCORE.INTER.POLAR>
0

>  <SCORE.INTER.ROT>
11

>  <SCORE.INTER.SOLV>
8.17628

>  <SCORE.INTER.VDW>
-12.4604

>  <SCORE.INTER.norm>
0.128398

>  <SCORE.INTRA>
-8.51622

>  <SCORE.INTRA.DIHEDRAL>
-14.1466

>  <SCORE.INTRA.DIHEDRAL.0>
17.7811

>  <SCORE.INTRA.POLAR>
0

>  <SCORE.INTRA.POLAR.0>
0

>  <SCORE.INTRA.REPUL>
0

>  <SCORE.INTRA.REPUL.0>
0

>  <SCORE.INTRA.SOLV>
-0.504489

>  <SCORE.INTRA.SOLV.lig_0>
-47.9565

>  <SCORE.INTRA.VDW>
-1.19069

>  <SCORE.INTRA.VDW.0>
0.515983

>  <SCORE.INTRA.norm>
-0.608301

>  <SCORE.RESTR>
0.0104615

>  <SCORE.RESTR.CAVITY>
0.0104615

>  <SCORE.RESTR.norm>
0.000747249

>  <SCORE.SYSTEM>
0

>  <SCORE.SYSTEM.CONST>
0

>  <SCORE.SYSTEM.DIHEDRAL>
0

>  <SCORE.SYSTEM.SOLV>
0

>  <SCORE.SYSTEM.norm>
0

>  <SCORE.heavy>
14

>  <SCORE.norm>
-0.479156

>  <RMSD>
29.177

$$$$
1xpf_lig
 OpenBabel02141814123D
libRbt.so/2013.1/901 2013/11/27
 14 13  0  0  0  0  0  0  0  0999 V2000
    4.2610  -17.4779   47.3732 N   0  0  0  0  0  0  0  0  0  0  0  0
    3.7612  -18.8402   47.3936 C   0  0  0  0  0  0  0  0  0  0  0  0
    3.2370  -19.1941   48.7337 C   0  0  0  0  0  0  0  0  0  0  0  0
    2.7979  -20.6234   48.6577 C   0  0  0  0  0  0  0  0  0  0  0  0
    4.0308  -21.4348   48.5084 N   0  0  0  0  0  0  0  0  0  0  0  0
    4.0054  -22.6050   49.4384 C   0  0  0  0  0  0  0  0  0  0  0  0
    4.3594  -22.2382   50.8900 C   0  0  0  0  0  0  0  0  0  0  0  0
    3.1784  -21.6694   51.6963 C   0  0  0  0  0  0  0  0  0  0  0  0
    3.5782  -21.5654   53.1604 C   0  0  0  0  0  0  0  0  0  0  0  0
    2.3594  -21.1201   53.8517 N   0  0  0  0  0  0  0  0  0  0  0  0
    2.3723  -21.0891   55.3411 C   0  0  0  0  0  0  0  0  0  0  0  0
    0.8951  -20.7372   55.6209 C   0  0  0  0  0  0  0  0  0  0  0  0
    0.4737  -20.4508   57.0398 C   0  0  0  0  0  0  0  0  0  0  0  0
    1.1308  -19.3092   57.6522 N   0  0  0  0  0  0  0  0  0  0  0  0
  1  2  1  0  0  0  0
  2  3  1  0  0  0  0
  3  4  1  0  0  0  0
  4  5  1  0  0  0  0
  5  6  1  0  0  0  0
  6  7  1  0  0  0  0
  7  8  1  0  0  0  0
  8  9  1  0  0  0  0
  9 10  1  0  0  0  0
 10 11  1  0  0  0  0
 11 12  1  0  0  0  0
 12 13  1  0  0  0  0
 13 14  1  0  0  0  0
M  END
>  <CHROM.1>
-177.95284231,68.59016203,133.76700660,-78.35307469,82.38023230,170.57973565
-175.59585983,172.27095718,-173.78498542,-173.42887083,61.53512828,2.88858377
-20.59708961,51.81121541,0.74761050,1.16024454,-0.71397246

>  <Name>
1xpf_lig

>  <RI>
0

>  <Rbt.Current_Directory>
/home/afrankz/demos/rdock_decoys_rna/rnas/1xpf

>  <Rbt.Executable>
rbdock ($Id: //depot/dev/client3/rdock/2013.1/src/exe/rbdock.cxx#4 $)

>  <Rbt.Library>
libRbt.so (2013.1, Build901 2013/11/27)

>  <Rbt.Parameter_File>
/export/apps/rDock/src/rDock_2013.1_src/data/scripts/dock_solv.prm

>  <Rbt.Receptor>
prm/blind_docking_100.prm

>  <SCORE>
-5.93061

>  <SCORE.INTER>
1.73776

>  <SCORE.INTER.CONST>
1

>  <SCORE.INTER.POLAR>
-0.945582

>  <SCORE.INTER.ROT>
11

>  <SCORE.INTER.SOLV>
9.85123

>  <SCORE.INTER.VDW>
-9.90663

>  <SCORE.INTER.norm>
0.124125

>  <SCORE.INTRA>
-7.77356

>  <SCORE.INTRA.DIHEDRAL>
-13.8074

>  <SCORE.INTRA.DIHEDRAL.0>
17.7811

>  <SCORE.INTRA.POLAR>
0

>  <SCORE.INTRA.POLAR.0>
0

>  <SCORE.INTRA.REPUL>
0

>  <SCORE.INTRA.REPUL.0>
0

>  <SCORE.INTRA.SOLV>
0.491233

>  <SCORE.INTRA.SOLV.lig_0>
-47.9565

>  <SCORE.INTRA.VDW>
-1.1155

>  <SCORE.INTRA.VDW.0>
0.515983

>  <SCORE.INTRA.norm>
-0.555254

>  <SCORE.RESTR>
0.105198

>  <SCORE.RESTR.CAVITY>
0.105198

>  <SCORE.RESTR.norm>
0.00751415

>  <SCORE.SYSTEM>
0

>  <SCORE.SYSTEM.CONST>
0

>  <SCORE.SYSTEM.DIHEDRAL>
0

>  <SCORE.SYSTEM.SOLV>
0

>  <SCORE.SYSTEM.norm>
0

>  <SCORE.heavy>
14

>  <SCORE.norm>
-0.423615

>  <RMSD>
29.185

$$$$
1xpf_lig
 OpenBabel02141814123D
libRbt.so/2013.1/901 2013/11/27
 14 13  0  0  0  0  0  0  0  0999 V2000
    5.3394  -24.9417   49.5086 N   0  0  0  0  0  0  0  0  0  0  0  0
    4.0696  -25.5767   49.8096 C   0  0  0  0  0  0  0  0  0  0  0  0
    3.7733  -25.5114   51.2601 C   0  0  0  0  0  0  0  0  0  0  0  0
    3.5211  -24.0710   51.5808 C   0  0  0  0  0  0  0  0  0  0  0  0
    3.2354  -24.0077   53.0352 N   0  0  0  0  0  0  0  0  0  0  0  0
    2.5337  -22.7328   53.3778 C   0  0  0  0  0  0  0  0  0  0  0  0
    2.1643  -22.6211   54.8670 C   0  0  0  0  0  0  0  0  0  0  0  0
    1.3844  -21.3430   55.2230 C   0  0  0  0  0  0  0  0  0  0  0  0
    2.2461  -20.1292   54.9098 C   0  0  0  0  0  0  0  0  0  0  0  0
    1.6004  -19.0165   55.6214 N   0  0  0  0  0  0  0  0  0  0  0  0
    0.5875  -18.2096   54.8849 C   0  0  0  0  0  0  0  0  0  0  0  0
    0.3488  -17.0736   55.9030 C   0  0  0  0  0  0  0  0  0  0  0  0
   -0.6274  -15.9792   55.5533 C   0  0  0  0  0  0  0  0  0  0  0  0
   -0.9020  -15.0410   56.6278 N   0  0  0  0  0  0  0  0  0  0  0  0
  1  2  1  0  0  0  0
  2  3  1  0  0  0  0
  3  4  1  0  0  0  0
  4  5  1  0  0  0  0
  5  6  1  0  0  0  0
  6  7  1  0  0  0  0
  7  8  1  0  0  0  0
  8  9  1  0  0  0  0
  9 10  1  0  0  0  0
 10 11  1  0  0  0  0
 11 12  1  0  0  0  0
 12 13  1  0  0  0  0
 13 14  1  0  0  0  0
M  END
>  <CHROM.1>
68.23217922,-179.56226129,-161.02543071,178.09245547,-177.34582150,-61.60783916
-164.30440720,-91.94544457,-171.99441888,179.27985765,173.27357694,2.09096236
-21.16120419,53.72589343,-0.17372565,1.16222964,-0.83297887

>  <Name>
1xpf_lig

>  <RI>
0

>  <Rbt.Current_Directory>
/home/afrankz/demos/rdock_decoys_rna/rnas/1xpf

>  <Rbt.Executable>
rbdock ($Id: //depot/dev/client3/rdock/2013.1/src/exe/rbdock.cxx#4 $)

>  <Rbt.Library>
libRbt.so (2013.1, Build901 2013/11/27)

>  <Rbt.Parameter_File>
/export/apps/rDock/src/rDock_2013.1_src/data/scripts/dock_solv.prm

>  <Rbt.Receptor>
prm/blind_docking_60.prm

>  <SCORE>
-3.51574

>  <SCORE.INTER>
4.65024

>  <SCORE.INTER.CONST>
1

>  <SCORE.INTER.POLAR>
0

>  <SCORE.INTER.ROT>
11

>  <SCORE.INTER.SOLV>
9.93923

>  <SCORE.INTER.VDW>
-11.1463

>  <SCORE.INTER.norm>
0.33216

>  <SCORE.INTRA>
-8.18381

>  <SCORE.INTRA.DIHEDRAL>
-15.4498

>  <SCORE.INTRA.DIHEDRAL.0>
17.7811

>  <SCORE.INTRA.POLAR>
0

>  <SCORE.INTRA.POLAR.0>
0

>  <SCORE.INTRA.REPUL>
0

>  <SCORE.INTRA.REPUL.0>
0

>  <SCORE.INTRA.SOLV>
0.095969

>  <SCORE.INTRA.SOLV.lig_0>
-47.9565

>  <SCORE.INTRA.VDW>
-0.506873

>  <SCORE.INTRA.VDW.0>
0.515983

>  <SCORE.INTRA.norm>
-0.584558

>  <SCORE.RESTR>
0.0178278

>  <SCORE.RESTR.CAVITY>
0.0178278

>  <SCORE.RESTR.norm>
0.00127341

>  <SCORE.SYSTEM>
0

>  <SCORE.SYSTEM.CONST>
0

>  <SCORE.SYSTEM.DIHEDRAL>
0

>  <SCORE.SYSTEM.SOLV>
0

>  <SCORE.SYSTEM.norm>
0

>  <SCORE.heavy>
14

>  <SCORE.norm>
-0.251124

>  <RMSD>
29.217

$$$$
1xpf_lig
 OpenBabel02141814123D
libRbt.so/2013.1/901 2013/11/27
 14 13  0  0  0  0  0  0  0  0999 V2000
   -0.3281  -15.6153   55.4805 N   0  0  0  0  0  0  0  0  0  0  0  0
   -0.1029  -16.4390   56.6540 C   0  0  0  0  0  0  0  0  0  0  0  0
    1.0977  -17.2906   56.4831 C   0  0  0  0  0  0  0  0  0  0  0  0
    0.7970  -18.2338   55.3600 C   0  0  0  0  0  0  0  0  0  0  0  0
    1.9984  -19.0882   55.1951 N   0  0  0  0  0  0  0  0  0  0  0  0
    1.6876  -20.2717   54.3362 C   0  0  0  0  0  0  0  0  0  0  0  0
    2.8658  -21.2514   54.1982 C   0  0  0  0  0  0  0  0  0  0  0  0
    2.5322  -22.5202   53.3936 C   0  0  0  0  0  0  0  0  0  0  0  0
    3.7580  -23.4200   53.3502 C   0  0  0  0  0  0  0  0  0  0  0  0
    3.4093  -24.4839   52.3974 N   0  0  0  0  0  0  0  0  0  0  0  0
    4.1935  -24.5754   51.1340 C   0  0  0  0  0  0  0  0  0  0  0  0
    4.1920  -26.1047   50.9205 C   0  0  0  0  0  0  0  0  0  0  0  0
    5.0297  -26.6827   49.8082 C   0  0  0  0  0  0  0  0  0  0  0  0
    6.4588  -26.4591   49.9421 N   0  0  0  0  0  0  0  0  0  0  0  0
  1  2  1  0  0  0  0
  2  3  1  0  0  0  0
  3  4  1  0  0  0  0
  4  5  1  0  0  0  0
  5  6  1  0  0  0  0
  6  7  1  0  0  0  0
  7  8  1  0  0  0  0
  8  9  1  0  0  0  0
  9 10  1  0  0  0  0
 10 11  1  0  0  0  0
 11 12  1  0  0  0  0
 12 13  1  0  0  0  0
 13 14  1  0  0  0  0
M  END
>  <CHROM.1>
-64.66713818,-179.78685184,166.18725828,-176.21228972,176.18356261,-178.82511579
-171.40238651,115.29511265,146.32762153,-172.97244866,62.44977106,2.68484705
-21.60265367,53.47532803,2.43249012,-1.02380115,1.31784835

>  <Name>
1xpf_lig

>  <RI>
0

>  <Rbt.Current_Directory>
/home/afrankz/demos/rdock_decoys_rna/rnas/1xpf

>  <Rbt.Executable>
rbdock ($Id: //depot/dev/client3/rdock/2013.1/src/exe/rbdock.cxx#4 $)

>  <Rbt.Library>
libRbt.so (2013.1, Build901 2013/11/27)

>  <Rbt.Parameter_File>
/export/apps/rDock/src/rDock_2013.1_src/data/scripts/dock_solv.prm

>  <Rbt.Receptor>
prm/blind_docking_60.prm

>  <SCORE>
-5.85934

>  <SCORE.INTER>
2.77569

>  <SCORE.INTER.CONST>
1

>  <SCORE.INTER.POLAR>
0

>  <SCORE.INTER.ROT>
11

>  <SCORE.INTER.SOLV>
13.624

>  <SCORE.INTER.VDW>
-13.6242

>  <SCORE.INTER.norm>
0.198263

>  <SCORE.INTRA>
-8.63503

>  <SCORE.INTRA.DIHEDRAL>
-15.0973

>  <SCORE.INTRA.DIHEDRAL.0>
17.7811

>  <SCORE.INTRA.POLAR>
0

>  <SCORE.INTRA.POLAR.0>
0

>  <SCORE.INTRA.REPUL>
0

>  <SCORE.INTRA.REPUL.0>
0

>  <SCORE.INTRA.SOLV>
0.585967

>  <SCORE.INTRA.SOLV.lig_0>
-47.9565

>  <SCORE.INTRA.VDW>
-1.37936

>  <SCORE.INTRA.VDW.0>
0.515983

>  <SCORE.INTRA.norm>
-0.616788

>  <SCORE.RESTR>
0

>  <SCORE.RESTR.CAVITY>
0

>  <SCORE.RESTR.norm>
0

>  <SCORE.SYSTEM>
0

>  <SCORE.SYSTEM.CONST>
0

>  <SCORE.SYSTEM.DIHEDRAL>
0

>  <SCORE.SYSTEM.SOLV>
0

>  <SCORE.SYSTEM.norm>
0

>  <SCORE.heavy>
14

>  <SCORE.norm>
-0.418524

>  <RMSD>
29.269

$$$$
1xpf_lig
 OpenBabel02141814123D
libRbt.so/2013.1/901 2013/11/27
 14 13  0  0  0  0  0  0  0  0999 V2000
    8.2818  -25.7811   49.1186 N   0  0  0  0  0  0  0  0  0  0  0  0
    6.9153  -25.9454   49.5787 C   0  0  0  0  0  0  0  0  0  0  0  0
    6.4614  -24.7534   50.3328 C   0  0  0  0  0  0  0  0  0  0  0  0
    5.0153  -24.9737   50.6517 C   0  0  0  0  0  0  0  0  0  0  0  0
    4.5977  -23.8420   51.5151 N   0  0  0  0  0  0  0  0  0  0  0  0
    3.3126  -24.1581   52.2105 C   0  0  0  0  0  0  0  0  0  0  0  0
    3.1568  -23.4380   53.5611 C   0  0  0  0  0  0  0  0  0  0  0  0
    2.9734  -21.9149   53.4395 C   0  0  0  0  0  0  0  0  0  0  0  0
    2.6529  -21.3400   54.8110 C   0  0  0  0  0  0  0  0  0  0  0  0
    2.2523  -19.9495   54.5510 N   0  0  0  0  0  0  0  0  0  0  0  0
    1.0545  -19.4224   55.2630 C   0  0  0  0  0  0  0  0  0  0  0  0
    1.5933  -18.0523   55.7288 C   0  0  0  0  0  0  0  0  0  0  0  0
    0.6781  -17.1379   56.5028 C   0  0  0  0  0  0  0  0  0  0  0  0
   -0.4189  -16.5784   55.7322 N   0  0  0  0  0  0  0  0  0  0  0  0
  1  2  1  0  0  0  0
  2  3  1  0  0  0  0
  3  4  1  0  0  0  0
  4  5  1  0  0  0  0
  5  6  1  0  0  0  0
  6  7  1  0  0  0  0
  7  8  1  0  0  0  0
  8  9  1  0  0  0  0
  9 10  1  0  0  0  0
 10 11  1  0  0  0  0
 11 12  1  0  0  0  0
 12 13  1  0  0  0  0
 13 14  1  0  0  0  0
M  END
>  <CHROM.1>
175.05667861,174.76020650,-163.50394106,151.75908514,68.72020794,172.79907509
-169.72970235,135.99907391,134.34311414,179.25415383,-69.11333984,3.46607330
-21.94925490,53.07132719,-0.88208895,0.61147978,0.21499778

>  <Name>
1xpf_lig

>  <RI>
0

>  <Rbt.Current_Directory>
/home/afrankz/demos/rdock_decoys_rna/rnas/1xpf

>  <Rbt.Executable>
rbdock ($Id: //depot/dev/client3/rdock/2013.1/src/exe/rbdock.cxx#4 $)

>  <Rbt.Library>
libRbt.so (2013.1, Build901 2013/11/27)

>  <Rbt.Parameter_File>
/export/apps/rDock/src/rDock_2013.1_src/data/scripts/dock_solv.prm

>  <Rbt.Receptor>
prm/blind_docking_60.prm

>  <SCORE>
-7.60964

>  <SCORE.INTER>
1.12059

>  <SCORE.INTER.CONST>
1

>  <SCORE.INTER.POLAR>
0

>  <SCORE.INTER.ROT>
11

>  <SCORE.INTER.SOLV>
12.1068

>  <SCORE.INTER.VDW>
-14.2219

>  <SCORE.INTER.norm>
0.0800425

>  <SCORE.INTRA>
-8.73023

>  <SCORE.INTRA.DIHEDRAL>
-13.5931

>  <SCORE.INTRA.DIHEDRAL.0>
17.7811

>  <SCORE.INTRA.POLAR>
0

>  <SCORE.INTRA.POLAR.0>
0

>  <SCORE.INTRA.REPUL>
0

>  <SCORE.INTRA.REPUL.0>
0

>  <SCORE.INTRA.SOLV>
-0.099204

>  <SCORE.INTRA.SOLV.lig_0>
-47.9565

>  <SCORE.INTRA.VDW>
-1.88406

>  <SCORE.INTRA.VDW.0>
0.515983

>  <SCORE.INTRA.norm>
-0.623588

>  <SCORE.RESTR>
0

>  <SCORE.RESTR.CAVITY>
0

>  <SCORE.RESTR.norm>
0

>  <SCORE.SYSTEM>
0

>  <SCORE.SYSTEM.CONST>
0

>  <SCORE.SYSTEM.DIHEDRAL>
0

>  <SCORE.SYSTEM.SOLV>
0

>  <SCORE.SYSTEM.norm>
0

>  <SCORE.heavy>
14

>  <SCORE.norm>
-0.543546

>  <RMSD>
29.303

$$$$
1xpf_lig
 OpenBabel02141814123D
libRbt.so/2013.1/901 2013/11/27
 14 13  0  0  0  0  0  0  0  0999 V2000
   -0.5616  -16.3387   55.6227 N   0  0  0  0  0  0  0  0  0  0  0  0
    0.6344  -17.1554   55.7153 C   0  0  0  0  0  0  0  0  0  0  0  0
    0.4918  -18.3986   54.9215 C   0  0  0  0  0  0  0  0  0  0  0  0
    1.7137  -19.2207   55.1907 C   0  0  0  0  0  0  0  0  0  0  0  0
    1.5386  -20.4912   54.4452 N   0  0  0  0  0  0  0  0  0  0  0  0
    2.6248  -21.4580   54.7922 C   0  0  0  0  0  0  0  0  0  0  0  0
    3.8015  -21.4347   53.8014 C   0  0  0  0  0  0  0  0  0  0  0  0
    3.4955  -22.1087   52.4521 C   0  0  0  0  0  0  0  0  0  0  0  0
    3.3982  -23.6130   52.6566 C   0  0  0  0  0  0  0  0  0  0  0  0
    4.4791  -24.1745   51.8332 N   0  0  0  0  0  0  0  0  0  0  0  0
    4.1012  -24.9963   50.6494 C   0  0  0  0  0  0  0  0  0  0  0  0
    5.2809  -25.9920   50.6190 C   0  0  0  0  0  0  0  0  0  0  0  0
    6.6532  -25.4801   50.2615 C   0  0  0  0  0  0  0  0  0  0  0  0
    6.7752  -24.9532   48.9133 N   0  0  0  0  0  0  0  0  0  0  0  0
  1  2  1  0  0  0  0
  2  3  1  0  0  0  0
  3  4  1  0  0  0  0
  4  5  1  0  0  0  0
  5  6  1  0  0  0  0
  6  7  1  0  0  0  0
  7  8  1  0  0  0  0
  8  9  1  0  0  0  0
  9 10  1  0  0  0  0
 10 11  1  0  0  0  0
 11 12  1  0  0  0  0
 12 13  1  0  0  0  0
 13 14  1  0  0  0  0
M  END
>  <CHROM.1>
-174.64839447,177.40953773,-172.55327529,-95.41057947,-74.39611117,-70.82692384
-117.96610535,-113.10479833,-147.84422974,-68.56519280,-63.63717842,3.17335872
-21.84408276,52.99113037,-2.52929455,-0.92068757,2.89870204

>  <Name>
1xpf_lig

>  <RI>
0

>  <Rbt.Current_Directory>
/home/afrankz/demos/rdock_decoys_rna/rnas/1xpf

>  <Rbt.Executable>
rbdock ($Id: //depot/dev/client3/rdock/2013.1/src/exe/rbdock.cxx#4 $)

>  <Rbt.Library>
libRbt.so (2013.1, Build901 2013/11/27)

>  <Rbt.Parameter_File>
/export/apps/rDock/src/rDock_2013.1_src/data/scripts/dock_solv.prm

>  <Rbt.Receptor>
prm/blind_docking_60.prm

>  <SCORE>
-4.0303

>  <SCORE.INTER>
0.600355

>  <SCORE.INTER.CONST>
1

>  <SCORE.INTER.POLAR>
0

>  <SCORE.INTER.ROT>
11

>  <SCORE.INTER.SOLV>
8.65247

>  <SCORE.INTER.VDW>
-13.4173

>  <SCORE.INTER.norm>
0.0428825

>  <SCORE.INTRA>
-4.63065

>  <SCORE.INTRA.DIHEDRAL>
-7.9529

>  <SCORE.INTRA.DIHEDRAL.0>
17.7811

>  <SCORE.INTRA.POLAR>
0

>  <SCORE.INTRA.POLAR.0>
0

>  <SCORE.INTRA.REPUL>
0

>  <SCORE.INTRA.REPUL.0>
0

>  <SCORE.INTRA.SOLV>
1.21966

>  <SCORE.INTRA.SOLV.lig_0>
-47.9565

>  <SCORE.INTRA.VDW>
-1.26404

>  <SCORE.INTRA.VDW.0>
0.515983

>  <SCORE.INTRA.norm>
-0.330761

>  <SCORE.RESTR>
0

>  <SCORE.RESTR.CAVITY>
0

>  <SCORE.RESTR.norm>
0

>  <SCORE.SYSTEM>
0

>  <SCORE.SYSTEM.CONST>
0

>  <SCORE.SYSTEM.DIHEDRAL>
0

>  <SCORE.SYSTEM.SOLV>
0

>  <SCORE.SYSTEM.norm>
0

>  <SCORE.heavy>
14

>  <SCORE.norm>
-0.287879

>  <RMSD>
29.366

$$$$
1xpf_lig
 OpenBabel02141814123D
libRbt.so/2013.1/901 2013/11/27
 14 13  0  0  0  0  0  0  0  0999 V2000
    6.0216  -26.9607   49.4733 N   0  0  0  0  0  0  0  0  0  0  0  0
    5.9460  -25.5964   49.9622 C   0  0  0  0  0  0  0  0  0  0  0  0
    4.6742  -25.3606   50.6852 C   0  0  0  0  0  0  0  0  0  0  0  0
    4.6400  -23.9034   51.0269 C   0  0  0  0  0  0  0  0  0  0  0  0
    3.4604  -23.7045   51.9042 N   0  0  0  0  0  0  0  0  0  0  0  0
    3.8909  -23.3446   53.2899 C   0  0  0  0  0  0  0  0  0  0  0  0
    2.7504  -23.4130   54.3201 C   0  0  0  0  0  0  0  0  0  0  0  0
    1.8038  -22.2000   54.2856 C   0  0  0  0  0  0  0  0  0  0  0  0
    2.4710  -21.0265   54.9871 C   0  0  0  0  0  0  0  0  0  0  0  0
    1.4855  -19.9377   54.9172 N   0  0  0  0  0  0  0  0  0  0  0  0
    1.7609  -18.6950   55.6915 C   0  0  0  0  0  0  0  0  0  0  0  0
    0.4663  -17.9027   55.4077 C   0  0  0  0  0  0  0  0  0  0  0  0
    0.3222  -16.5175   55.9852 C   0  0  0  0  0  0  0  0  0  0  0  0
   -0.9507  -15.8729   55.7125 N   0  0  0  0  0  0  0  0  0  0  0  0
  1  2  1  0  0  0  0
  2  3  1  0  0  0  0
  3  4  1  0  0  0  0
  4  5  1  0  0  0  0
  5  6  1  0  0  0  0
  6  7  1  0  0  0  0
  7  8  1  0  0  0  0
  8  9  1  0  0  0  0
  9 10  1  0  0  0  0
 10 11  1  0  0  0  0
 11 12  1  0  0  0  0
 12 13  1  0  0  0  0
 13 14  1  0  0  0  0
M  END
>  <CHROM.1>
-174.63203203,-172.59552111,112.23328850,-167.84810660,-78.37748153,-77.70976258
-179.15313548,171.43312576,-176.45401538,-178.35254588,-177.51823970,2.76742490
-21.74544361,53.40363498,-0.21313832,1.09123768,-0.76167721

>  <Name>
1xpf_lig

>  <RI>
0

>  <Rbt.Current_Directory>
/home/afrankz/demos/rdock_decoys_rna/rnas/1xpf

>  <Rbt.Executable>
rbdock ($Id: //depot/dev/client3/rdock/2013.1/src/exe/rbdock.cxx#4 $)

>  <Rbt.Library>
libRbt.so (2013.1, Build901 2013/11/27)

>  <Rbt.Parameter_File>
/export/apps/rDock/src/rDock_2013.1_src/data/scripts/dock_solv.prm

>  <Rbt.Receptor>
prm/blind_docking_60.prm

>  <SCORE>
-5.76199

>  <SCORE.INTER>
2.8471

>  <SCORE.INTER.CONST>
1

>  <SCORE.INTER.POLAR>
0

>  <SCORE.INTER.ROT>
11

>  <SCORE.INTER.SOLV>
9.21454

>  <SCORE.INTER.VDW>
-12.1068

>  <SCORE.INTER.norm>
0.203364

>  <SCORE.INTRA>
-8.66046

>  <SCORE.INTRA.DIHEDRAL>
-13.6874

>  <SCORE.INTRA.DIHEDRAL.0>
17.7811

>  <SCORE.INTRA.POLAR>
0

>  <SCORE.INTRA.POLAR.0>
0

>  <SCORE.INTRA.REPUL>
0

>  <SCORE.INTRA.REPUL.0>
0

>  <SCORE.INTRA.SOLV>
-0.495955

>  <SCORE.INTRA.SOLV.lig_0>
-47.9565

>  <SCORE.INTRA.VDW>
-1.56877

>  <SCORE.INTRA.VDW.0>
0.515983

>  <SCORE.INTRA.norm>
-0.618604

>  <SCORE.RESTR>
0.051362

>  <SCORE.RESTR.CAVITY>
0.051362

>  <SCORE.RESTR.norm>
0.00366872

>  <SCORE.SYSTEM>
0

>  <SCORE.SYSTEM.CONST>
0

>  <SCORE.SYSTEM.DIHEDRAL>
0

>  <SCORE.SYSTEM.SOLV>
0

>  <SCORE.SYSTEM.norm>
0

>  <SCORE.heavy>
14

>  <SCORE.norm>
-0.411571

>  <RMSD>
29.371

$$$$
1xpf_lig
 OpenBabel02141814123D
libRbt.so/2013.1/901 2013/11/27
 14 13  0  0  0  0  0  0  0  0999 V2000
   -0.7671  -16.1836   55.8456 N   0  0  0  0  0  0  0  0  0  0  0  0
    0.1497  -17.1321   55.2406 C   0  0  0  0  0  0  0  0  0  0  0  0
    0.9626  -17.8179   56.2724 C   0  0  0  0  0  0  0  0  0  0  0  0
    1.9526  -18.6698   55.5408 C   0  0  0  0  0  0  0  0  0  0  0  0
    1.3266  -20.0061   55.3889 N   0  0  0  0  0  0  0  0  0  0  0  0
    2.3476  -21.0223   54.9891 C   0  0  0  0  0  0  0  0  0  0  0  0
    1.7325  -22.3396   54.4857 C   0  0  0  0  0  0  0  0  0  0  0  0
    2.7687  -23.3628   53.9879 C   0  0  0  0  0  0  0  0  0  0  0  0
    3.3872  -22.8569   52.6934 C   0  0  0  0  0  0  0  0  0  0  0  0
    4.1178  -24.0113   52.1501 N   0  0  0  0  0  0  0  0  0  0  0  0
    3.4100  -24.8929   51.1799 C   0  0  0  0  0  0  0  0  0  0  0  0
    4.5232  -25.9201   50.8802 C   0  0  0  0  0  0  0  0  0  0  0  0
    5.8119  -25.4351   50.2661 C   0  0  0  0  0  0  0  0  0  0  0  0
    5.6647  -24.7804   48.9778 N   0  0  0  0  0  0  0  0  0  0  0  0
  1  2  1  0  0  0  0
  2  3  1  0  0  0  0
  3  4  1  0  0  0  0
  4  5  1  0  0  0  0
  5  6  1  0  0  0  0
  6  7  1  0  0  0  0
  7  8  1  0  0  0  0
  8  9  1  0  0  0  0
  9 10  1  0  0  0  0
 10 11  1  0  0  0  0
 11 12  1  0  0  0  0
 12 13  1  0  0  0  0
 13 14  1  0  0  0  0
M  END
>  <CHROM.1>
-174.84435591,-92.05963276,-165.58641610,-166.05355265,176.38417767,-69.53236360
-167.69771268,92.98237889,179.44795000,-61.11589912,-59.59871728,2.67060722
-21.74526379,53.42144759,-2.68967974,-1.06967216,2.68517739

>  <Name>
1xpf_lig

>  <RI>
0

>  <Rbt.Current_Directory>
/home/afrankz/demos/rdock_decoys_rna/rnas/1xpf

>  <Rbt.Executable>
rbdock ($Id: //depot/dev/client3/rdock/2013.1/src/exe/rbdock.cxx#4 $)

>  <Rbt.Library>
libRbt.so (2013.1, Build901 2013/11/27)

>  <Rbt.Parameter_File>
/export/apps/rDock/src/rDock_2013.1_src/data/scripts/dock_solv.prm

>  <Rbt.Receptor>
prm/blind_docking_60.prm

>  <SCORE>
-5.48893

>  <SCORE.INTER>
1.20203

>  <SCORE.INTER.CONST>
1

>  <SCORE.INTER.POLAR>
0

>  <SCORE.INTER.ROT>
11

>  <SCORE.INTER.SOLV>
7.98769

>  <SCORE.INTER.VDW>
-12.7945

>  <SCORE.INTER.norm>
0.085859

>  <SCORE.INTRA>
-6.70346

>  <SCORE.INTRA.DIHEDRAL>
-12.6336

>  <SCORE.INTRA.DIHEDRAL.0>
17.7811

>  <SCORE.INTRA.POLAR>
0

>  <SCORE.INTRA.POLAR.0>
0

>  <SCORE.INTRA.REPUL>
0

>  <SCORE.INTRA.REPUL.0>
0

>  <SCORE.INTRA.SOLV>
1.20642

>  <SCORE.INTRA.SOLV.lig_0>
-47.9565

>  <SCORE.INTRA.VDW>
-0.989873

>  <SCORE.INTRA.VDW.0>
0.515983

>  <SCORE.INTRA.norm>
-0.478818

>  <SCORE.RESTR>
0.0124992

>  <SCORE.RESTR.CAVITY>
0.0124992

>  <SCORE.RESTR.norm>
0.000892802

>  <SCORE.SYSTEM>
0

>  <SCORE.SYSTEM.CONST>
0

>  <SCORE.SYSTEM.DIHEDRAL>
0

>  <SCORE.SYSTEM.SOLV>
0

>  <SCORE.SYSTEM.norm>
0

>  <SCORE.heavy>
14

>  <SCORE.norm>
-0.392066

>  <RMSD>
29.410

$$$$
1xpf_lig
 OpenBabel02141814123D
libRbt.so/2013.1/901 2013/11/27
 14 13  0  0  0  0  0  0  0  0999 V2000
   -0.0295  -16.4079   56.5724 N   0  0  0  0  0  0  0  0  0  0  0  0
    0.9361  -17.4910   56.5461 C   0  0  0  0  0  0  0  0  0  0  0  0
    0.8505  -18.2486   55.2755 C   0  0  0  0  0  0  0  0  0  0  0  0
    1.7510  -19.4355   55.4234 C   0  0  0  0  0  0  0  0  0  0  0  0
    1.6595  -20.1941   54.1519 N   0  0  0  0  0  0  0  0  0  0  0  0
    2.2206  -21.5696   54.3192 C   0  0  0  0  0  0  0  0  0  0  0  0
    3.5240  -21.7963   53.5339 C   0  0  0  0  0  0  0  0  0  0  0  0
    3.8855  -23.2794   53.3382 C   0  0  0  0  0  0  0  0  0  0  0  0
    3.0019  -23.8687   52.2491 C   0  0  0  0  0  0  0  0  0  0  0  0
    3.8414  -24.8803   51.5908 N   0  0  0  0  0  0  0  0  0  0  0  0
    4.7758  -24.4259   50.5231 C   0  0  0  0  0  0  0  0  0  0  0  0
    5.7381  -25.6323   50.4693 C   0  0  0  0  0  0  0  0  0  0  0  0
    6.9793  -25.5329   49.6193 C   0  0  0  0  0  0  0  0  0  0  0  0
    7.7839  -26.7414   49.5718 N   0  0  0  0  0  0  0  0  0  0  0  0
  1  2  1  0  0  0  0
  2  3  1  0  0  0  0
  3  4  1  0  0  0  0
  4  5  1  0  0  0  0
  5  6  1  0  0  0  0
  6  7  1  0  0  0  0
  7  8  1  0  0  0  0
  8  9  1  0  0  0  0
  9 10  1  0  0  0  0
 10 11  1  0  0  0  0
 11 12  1  0  0  0  0
 12 13  1  0  0  0  0
 13 14  1  0  0  0  0
M  END
>  <CHROM.1>
-172.82572993,179.81244055,-164.85024238,-111.95098785,-162.38599062,76.42008853
147.50612888,-83.99849049,161.82920925,-172.38647528,-176.71722707,3.35132106
-22.10744142,53.08462352,-2.12076722,-0.37544364,-2.72831870

>  <Name>
1xpf_lig

>  <RI>
0

>  <Rbt.Current_Directory>
/home/afrankz/demos/rdock_decoys_rna/rnas/1xpf

>  <Rbt.Executable>
rbdock ($Id: //depot/dev/client3/rdock/2013.1/src/exe/rbdock.cxx#4 $)

>  <Rbt.Library>
libRbt.so (2013.1, Build901 2013/11/27)

>  <Rbt.Parameter_File>
/export/apps/rDock/src/rDock_2013.1_src/data/scripts/dock_solv.prm

>  <Rbt.Receptor>
prm/blind_docking_60.prm

>  <SCORE>
-4.74281

>  <SCORE.INTER>
1.8817

>  <SCORE.INTER.CONST>
1

>  <SCORE.INTER.POLAR>
0

>  <SCORE.INTER.ROT>
11

>  <SCORE.INTER.SOLV>
11.8955

>  <SCORE.INTER.VDW>
-13.644

>  <SCORE.INTER.norm>
0.134407

>  <SCORE.INTRA>
-6.6607

>  <SCORE.INTRA.DIHEDRAL>
-10.0633

>  <SCORE.INTRA.DIHEDRAL.0>
17.7811

>  <SCORE.INTRA.POLAR>
0

>  <SCORE.INTRA.POLAR.0>
0

>  <SCORE.INTRA.REPUL>
0

>  <SCORE.INTRA.REPUL.0>
0

>  <SCORE.INTRA.SOLV>
-0.782129

>  <SCORE.INTRA.SOLV.lig_0>
-47.9565

>  <SCORE.INTRA.VDW>
-1.23797

>  <SCORE.INTRA.VDW.0>
0.515983

>  <SCORE.INTRA.norm>
-0.475764

>  <SCORE.RESTR>
0.0361921

>  <SCORE.RESTR.CAVITY>
0.0361921

>  <SCORE.RESTR.norm>
0.00258515

>  <SCORE.SYSTEM>
0

>  <SCORE.SYSTEM.CONST>
0

>  <SCORE.SYSTEM.DIHEDRAL>
0

>  <SCORE.SYSTEM.SOLV>
0

>  <SCORE.SYSTEM.norm>
0

>  <SCORE.heavy>
14

>  <SCORE.norm>
-0.338772

>  <RMSD>
29.456

$$$$
1xpf_lig
 OpenBabel02141814123D
libRbt.so/2013.1/901 2013/11/27
 14 13  0  0  0  0  0  0  0  0999 V2000
   -0.4850  -16.0691   55.5718 N   0  0  0  0  0  0  0  0  0  0  0  0
    0.7229  -16.8735   55.5659 C   0  0  0  0  0  0  0  0  0  0  0  0
    0.4356  -18.2605   55.1307 C   0  0  0  0  0  0  0  0  0  0  0  0
    1.7148  -19.0260   55.2688 C   0  0  0  0  0  0  0  0  0  0  0  0
    1.3678  -20.4587   55.1021 N   0  0  0  0  0  0  0  0  0  0  0  0
    2.5432  -21.2278   54.5904 C   0  0  0  0  0  0  0  0  0  0  0  0
    2.2373  -22.7148   54.3407 C   0  0  0  0  0  0  0  0  0  0  0  0
    3.4198  -23.5059   53.7541 C   0  0  0  0  0  0  0  0  0  0  0  0
    3.6319  -23.0864   52.3073 C   0  0  0  0  0  0  0  0  0  0  0  0
    4.5060  -24.1235   51.7399 N   0  0  0  0  0  0  0  0  0  0  0  0
    3.8819  -25.1743   50.8880 C   0  0  0  0  0  0  0  0  0  0  0  0
    5.0950  -26.1033   50.6656 C   0  0  0  0  0  0  0  0  0  0  0  0
    6.3063  -25.5569   49.9535 C   0  0  0  0  0  0  0  0  0  0  0  0
    7.3739  -26.5189   49.7408 N   0  0  0  0  0  0  0  0  0  0  0  0
  1  2  1  0  0  0  0
  2  3  1  0  0  0  0
  3  4  1  0  0  0  0
  4  5  1  0  0  0  0
  5  6  1  0  0  0  0
  6  7  1  0  0  0  0
  7  8  1  0  0  0  0
  8  9  1  0  0  0  0
  9 10  1  0  0  0  0
 10 11  1  0  0  0  0
 11 12  1  0  0  0  0
 12 13  1  0  0  0  0
 13 14  1  0  0  0  0
M  END
>  <CHROM.1>
-175.42258966,168.74374788,153.52009099,-177.71860265,177.40143138,-71.56475455
-165.13762178,101.55826815,-173.66946403,-61.80809065,-177.52194656,3.05362374
-22.05008393,53.18715925,-2.44433633,-0.89198841,2.94902368

>  <Name>
1xpf_lig

>  <RI>
0

>  <Rbt.Current_Directory>
/home/afrankz/demos/rdock_decoys_rna/rnas/1xpf

>  <Rbt.Executable>
rbdock ($Id: //depot/dev/client3/rdock/2013.1/src/exe/rbdock.cxx#4 $)

>  <Rbt.Library>
libRbt.so (2013.1, Build901 2013/11/27)

>  <Rbt.Parameter_File>
/export/apps/rDock/src/rDock_2013.1_src/data/scripts/dock_solv.prm

>  <Rbt.Receptor>
prm/blind_docking_60.prm

>  <SCORE>
-6.9927

>  <SCORE.INTER>
1.43289

>  <SCORE.INTER.CONST>
1

>  <SCORE.INTER.POLAR>
0

>  <SCORE.INTER.ROT>
11

>  <SCORE.INTER.SOLV>
9.99169

>  <SCORE.INTER.VDW>
-13.3086

>  <SCORE.INTER.norm>
0.10235

>  <SCORE.INTRA>
-8.47028

>  <SCORE.INTRA.DIHEDRAL>
-14.3687

>  <SCORE.INTRA.DIHEDRAL.0>
17.7811

>  <SCORE.INTRA.POLAR>
0

>  <SCORE.INTRA.POLAR.0>
0

>  <SCORE.INTRA.REPUL>
0

>  <SCORE.INTRA.REPUL.0>
0

>  <SCORE.INTRA.SOLV>
-0.325229

>  <SCORE.INTRA.SOLV.lig_0>
-47.9565

>  <SCORE.INTRA.VDW>
-1.12331

>  <SCORE.INTRA.VDW.0>
0.515983

>  <SCORE.INTRA.norm>
-0.60502

>  <SCORE.RESTR>
0.0446892

>  <SCORE.RESTR.CAVITY>
0.0446892

>  <SCORE.RESTR.norm>
0.00319208

>  <SCORE.SYSTEM>
0

>  <SCORE.SYSTEM.CONST>
0

>  <SCORE.SYSTEM.DIHEDRAL>
0

>  <SCORE.SYSTEM.SOLV>
0

>  <SCORE.SYSTEM.norm>
0

>  <SCORE.heavy>
14

>  <SCORE.norm>
-0.499479

>  <RMSD>
29.510

$$$$
1xpf_lig
 OpenBabel02141814123D
libRbt.so/2013.1/901 2013/11/27
 14 13  0  0  0  0  0  0  0  0999 V2000
    3.7472  -27.4542   49.3200 N   0  0  0  0  0  0  0  0  0  0  0  0
    4.3747  -26.4085   50.1066 C   0  0  0  0  0  0  0  0  0  0  0  0
    3.3753  -25.6955   50.9366 C   0  0  0  0  0  0  0  0  0  0  0  0
    4.0654  -24.4907   51.4966 C   0  0  0  0  0  0  0  0  0  0  0  0
    3.1176  -23.8702   52.4543 N   0  0  0  0  0  0  0  0  0  0  0  0
    3.7963  -22.7988   53.2457 C   0  0  0  0  0  0  0  0  0  0  0  0
    2.8303  -21.7208   53.7669 C   0  0  0  0  0  0  0  0  0  0  0  0
    1.9824  -22.1707   54.9699 C   0  0  0  0  0  0  0  0  0  0  0  0
    1.9421  -21.0506   55.9985 C   0  0  0  0  0  0  0  0  0  0  0  0
    1.2708  -19.9361   55.3140 N   0  0  0  0  0  0  0  0  0  0  0  0
    1.6957  -18.5493   55.6539 C   0  0  0  0  0  0  0  0  0  0  0  0
    0.3827  -17.7848   55.3782 C   0  0  0  0  0  0  0  0  0  0  0  0
    0.3471  -16.2960   55.6128 C   0  0  0  0  0  0  0  0  0  0  0  0
   -0.9574  -15.6820   55.4351 N   0  0  0  0  0  0  0  0  0  0  0  0
  1  2  1  0  0  0  0
  2  3  1  0  0  0  0
  3  4  1  0  0  0  0
  4  5  1  0  0  0  0
  5  6  1  0  0  0  0
  6  7  1  0  0  0  0
  7  8  1  0  0  0  0
  8  9  1  0  0  0  0
  9 10  1  0  0  0  0
 10 11  1  0  0  0  0
 11 12  1  0  0  0  0
 12 13  1  0  0  0  0
 13 14  1  0  0  0  0
M  END
>  <CHROM.1>
-169.45913403,-173.31094617,170.08957917,154.17701948,75.73417030,136.71415967
62.78453062,-146.54009849,-151.45665030,179.30613409,-175.05696529,2.28378299
-21.70771298,53.54939304,0.84871686,1.04513706,-1.96229104

>  <Name>
1xpf_lig

>  <RI>
0

>  <Rbt.Current_Directory>
/home/afrankz/demos/rdock_decoys_rna/rnas/1xpf

>  <Rbt.Executable>
rbdock ($Id: //depot/dev/client3/rdock/2013.1/src/exe/rbdock.cxx#4 $)

>  <Rbt.Library>
libRbt.so (2013.1, Build901 2013/11/27)

>  <Rbt.Parameter_File>
/export/apps/rDock/src/rDock_2013.1_src/data/scripts/dock_solv.prm

>  <Rbt.Receptor>
prm/blind_docking_60.prm

>  <SCORE>
-4.23123

>  <SCORE.INTER>
2.10787

>  <SCORE.INTER.CONST>
1

>  <SCORE.INTER.POLAR>
0

>  <SCORE.INTER.ROT>
11

>  <SCORE.INTER.SOLV>
10.785

>  <SCORE.INTER.VDW>
-13.1231

>  <SCORE.INTER.norm>
0.150562

>  <SCORE.INTRA>
-6.3464

>  <SCORE.INTRA.DIHEDRAL>
-9.36357

>  <SCORE.INTRA.DIHEDRAL.0>
17.7811

>  <SCORE.INTRA.POLAR>
0

>  <SCORE.INTRA.POLAR.0>
0

>  <SCORE.INTRA.REPUL>
0

>  <SCORE.INTRA.REPUL.0>
0

>  <SCORE.INTRA.SOLV>
-0.269579

>  <SCORE.INTRA.SOLV.lig_0>
-47.9565

>  <SCORE.INTRA.VDW>
-1.52983

>  <SCORE.INTRA.VDW.0>
0.515983

>  <SCORE.INTRA.norm>
-0.453315

>  <SCORE.RESTR>
0.00730168

>  <SCORE.RESTR.CAVITY>
0.00730168

>  <SCORE.RESTR.norm>
0.000521548

>  <SCORE.SYSTEM>
0

>  <SCORE.SYSTEM.CONST>
0

>  <SCORE.SYSTEM.DIHEDRAL>
0

>  <SCORE.SYSTEM.SOLV>
0

>  <SCORE.SYSTEM.norm>
0

>  <SCORE.heavy>
14

>  <SCORE.norm>
-0.302231

>  <RMSD>
29.511

$$$$
1xpf_lig
 OpenBabel02141814123D
libRbt.so/2013.1/901 2013/11/27
 14 13  0  0  0  0  0  0  0  0999 V2000
    3.1014  -26.9477   49.4471 N   0  0  0  0  0  0  0  0  0  0  0  0
    3.5332  -26.6665   50.8038 C   0  0  0  0  0  0  0  0  0  0  0  0
    4.5551  -25.5937   50.8248 C   0  0  0  0  0  0  0  0  0  0  0  0
    3.8335  -24.3099   50.5556 C   0  0  0  0  0  0  0  0  0  0  0  0
    2.9790  -24.0512   51.7403 N   0  0  0  0  0  0  0  0  0  0  0  0
    3.8039  -23.5585   52.8856 C   0  0  0  0  0  0  0  0  0  0  0  0
    2.9712  -22.8946   53.9959 C   0  0  0  0  0  0  0  0  0  0  0  0
    2.8102  -21.3730   53.8310 C   0  0  0  0  0  0  0  0  0  0  0  0
    2.1628  -20.8013   55.0833 C   0  0  0  0  0  0  0  0  0  0  0  0
    2.0629  -19.3568   54.8283 N   0  0  0  0  0  0  0  0  0  0  0  0
    0.7916  -18.8348   54.2531 C   0  0  0  0  0  0  0  0  0  0  0  0
    0.2386  -18.0596   55.4686 C   0  0  0  0  0  0  0  0  0  0  0  0
    0.6734  -16.6311   55.6770 C   0  0  0  0  0  0  0  0  0  0  0  0
    0.0536  -15.6686   54.7828 N   0  0  0  0  0  0  0  0  0  0  0  0
  1  2  1  0  0  0  0
  2  3  1  0  0  0  0
  3  4  1  0  0  0  0
  4  5  1  0  0  0  0
  5  6  1  0  0  0  0
  6  7  1  0  0  0  0
  7  8  1  0  0  0  0
  8  9  1  0  0  0  0
  9 10  1  0  0  0  0
 10 11  1  0  0  0  0
 11 12  1  0  0  0  0
 12 13  1  0  0  0  0
 13 14  1  0  0  0  0
M  END
>  <CHROM.1>
73.90686147,68.23375494,75.76312679,163.48975961,-91.71940720,-171.32904034
179.67472152,93.84030967,110.03833921,86.48007965,75.36847474,2.39801011
-21.76776921,53.15569120,1.00902085,0.96525856,-2.17234828

>  <Name>
1xpf_lig

>  <RI>
0

>  <Rbt.Current_Directory>
/home/afrankz/demos/rdock_decoys_rna/rnas/1xpf

>  <Rbt.Executable>
rbdock ($Id: //depot/dev/client3/rdock/2013.1/src/exe/rbdock.cxx#4 $)

>  <Rbt.Library>
libRbt.so (2013.1, Build901 2013/11/27)

>  <Rbt.Parameter_File>
/export/apps/rDock/src/rDock_2013.1_src/data/scripts/dock_solv.prm

>  <Rbt.Receptor>
prm/blind_docking_60.prm

>  <SCORE>
1.33259

>  <SCORE.INTER>
4.34548

>  <SCORE.INTER.CONST>
1

>  <SCORE.INTER.POLAR>
0

>  <SCORE.INTER.ROT>
11

>  <SCORE.INTER.SOLV>
12.9008

>  <SCORE.INTER.VDW>
-12.3366

>  <SCORE.INTER.norm>
0.310391

>  <SCORE.INTRA>
-3.21502

>  <SCORE.INTRA.DIHEDRAL>
-8.16581

>  <SCORE.INTRA.DIHEDRAL.0>
17.7811

>  <SCORE.INTRA.POLAR>
0

>  <SCORE.INTRA.POLAR.0>
0

>  <SCORE.INTRA.REPUL>
0

>  <SCORE.INTRA.REPUL.0>
0

>  <SCORE.INTRA.SOLV>
1.83633

>  <SCORE.INTRA.SOLV.lig_0>
-47.9565

>  <SCORE.INTRA.VDW>
-0.0502789

>  <SCORE.INTRA.VDW.0>
0.515983

>  <SCORE.INTRA.norm>
-0.229644

>  <SCORE.RESTR>
0.202134

>  <SCORE.RESTR.CAVITY>
0.202134

>  <SCORE.RESTR.norm>
0.0144381

>  <SCORE.SYSTEM>
0

>  <SCORE.SYSTEM.CONST>
0

>  <SCORE.SYSTEM.DIHEDRAL>
0

>  <SCORE.SYSTEM.SOLV>
0

>  <SCORE.SYSTEM.norm>
0

>  <SCORE.heavy>
14

>  <SCORE.norm>
0.0951853

>  <RMSD>
29.582

$$$$
1xpf_lig
 OpenBabel02141814123D
libRbt.so/2013.1/901 2013/11/27
 14 13  0  0  0  0  0  0  0  0999 V2000
    8.0862  -27.0259   49.6472 N   0  0  0  0  0  0  0  0  0  0  0  0
    7.1199  -25.9683   49.4150 C   0  0  0  0  0  0  0  0  0  0  0  0
    5.9938  -26.0571   50.3742 C   0  0  0  0  0  0  0  0  0  0  0  0
    5.0279  -24.9757   50.0016 C   0  0  0  0  0  0  0  0  0  0  0  0
    4.0219  -24.9168   51.0902 N   0  0  0  0  0  0  0  0  0  0  0  0
    4.0185  -23.5657   51.7300 C   0  0  0  0  0  0  0  0  0  0  0  0
    3.0865  -23.4710   52.9504 C   0  0  0  0  0  0  0  0  0  0  0  0
    3.1643  -22.1252   53.6929 C   0  0  0  0  0  0  0  0  0  0  0  0
    2.1190  -22.1041   54.7980 C   0  0  0  0  0  0  0  0  0  0  0  0
    2.2537  -20.7774   55.4169 N   0  0  0  0  0  0  0  0  0  0  0  0
    1.7028  -19.6042   54.6824 C   0  0  0  0  0  0  0  0  0  0  0  0
    1.4057  -18.6557   55.8640 C   0  0  0  0  0  0  0  0  0  0  0  0
    0.6915  -17.3566   55.5897 C   0  0  0  0  0  0  0  0  0  0  0  0
    0.2567  -16.6379   56.7749 N   0  0  0  0  0  0  0  0  0  0  0  0
  1  2  1  0  0  0  0
  2  3  1  0  0  0  0
  3  4  1  0  0  0  0
  4  5  1  0  0  0  0
  5  6  1  0  0  0  0
  6  7  1  0  0  0  0
  7  8  1  0  0  0  0
  8  9  1  0  0  0  0
  9 10  1  0  0  0  0
 10 11  1  0  0  0  0
 11 12  1  0  0  0  0
 12 13  1  0  0  0  0
 13 14  1  0  0  0  0
M  END
>  <CHROM.1>
-177.00148607,-170.71240900,119.94108786,-174.86912927,174.95330858,175.10102879
-178.65496967,75.55452878,153.18027232,-174.03961099,170.13408056,3.49625508
-22.37441291,53.00188312,-0.86145571,0.73420068,0.13048400

>  <Name>
1xpf_lig

>  <RI>
0

>  <Rbt.Current_Directory>
/home/afrankz/demos/rdock_decoys_rna/rnas/1xpf

>  <Rbt.Executable>
rbdock ($Id: //depot/dev/client3/rdock/2013.1/src/exe/rbdock.cxx#4 $)

>  <Rbt.Library>
libRbt.so (2013.1, Build901 2013/11/27)

>  <Rbt.Parameter_File>
/export/apps/rDock/src/rDock_2013.1_src/data/scripts/dock_solv.prm

>  <Rbt.Receptor>
prm/blind_docking_60.prm

>  <SCORE>
-6.68917

>  <SCORE.INTER>
2.3937

>  <SCORE.INTER.CONST>
1

>  <SCORE.INTER.POLAR>
0

>  <SCORE.INTER.ROT>
11

>  <SCORE.INTER.SOLV>
13.6956

>  <SCORE.INTER.VDW>
-13.9027

>  <SCORE.INTER.norm>
0.170978

>  <SCORE.INTRA>
-9.08892

>  <SCORE.INTRA.DIHEDRAL>
-14.8206

>  <SCORE.INTRA.DIHEDRAL.0>
17.7811

>  <SCORE.INTRA.POLAR>
0

>  <SCORE.INTRA.POLAR.0>
0

>  <SCORE.INTRA.REPUL>
0

>  <SCORE.INTRA.REPUL.0>
0

>  <SCORE.INTRA.SOLV>
-0.987075

>  <SCORE.INTRA.SOLV.lig_0>
-47.9565

>  <SCORE.INTRA.VDW>
-1.18506

>  <SCORE.INTRA.VDW.0>
0.515983

>  <SCORE.INTRA.norm>
-0.649208

>  <SCORE.RESTR>
0.00605149

>  <SCORE.RESTR.CAVITY>
0.00605149

>  <SCORE.RESTR.norm>
0.000432249

>  <SCORE.SYSTEM>
0

>  <SCORE.SYSTEM.CONST>
0

>  <SCORE.SYSTEM.DIHEDRAL>
0

>  <SCORE.SYSTEM.SOLV>
0

>  <SCORE.SYSTEM.norm>
0

>  <SCORE.heavy>
14

>  <SCORE.norm>
-0.477798

>  <RMSD>
29.606

$$$$
1xpf_lig
 OpenBabel02141814123D
libRbt.so/2013.1/901 2013/11/27
 14 13  0  0  0  0  0  0  0  0999 V2000
    0.3990  -17.1090   55.9042 N   0  0  0  0  0  0  0  0  0  0  0  0
    0.4925  -18.2674   55.0350 C   0  0  0  0  0  0  0  0  0  0  0  0
    1.6986  -19.0698   55.3468 C   0  0  0  0  0  0  0  0  0  0  0  0
    1.6812  -20.2460   54.4206 C   0  0  0  0  0  0  0  0  0  0  0  0
    2.9033  -21.0329   54.7171 N   0  0  0  0  0  0  0  0  0  0  0  0
    2.9528  -22.2650   53.8718 C   0  0  0  0  0  0  0  0  0  0  0  0
    3.5575  -22.0244   52.4777 C   0  0  0  0  0  0  0  0  0  0  0  0
    3.8708  -23.3158   51.7014 C   0  0  0  0  0  0  0  0  0  0  0  0
    4.3686  -22.9532   50.3104 C   0  0  0  0  0  0  0  0  0  0  0  0
    4.8129  -24.2273   49.7266 N   0  0  0  0  0  0  0  0  0  0  0  0
    6.1859  -24.2918   49.1519 C   0  0  0  0  0  0  0  0  0  0  0  0
    6.9464  -24.9373   50.3306 C   0  0  0  0  0  0  0  0  0  0  0  0
    7.0797  -26.4385   50.3729 C   0  0  0  0  0  0  0  0  0  0  0  0
    8.0069  -26.9956   49.4033 N   0  0  0  0  0  0  0  0  0  0  0  0
  1  2  1  0  0  0  0
  2  3  1  0  0  0  0
  3  4  1  0  0  0  0
  4  5  1  0  0  0  0
  5  6  1  0  0  0  0
  6  7  1  0  0  0  0
  7  8  1  0  0  0  0
  8  9  1  0  0  0  0
  9 10  1  0  0  0  0
 10 11  1  0  0  0  0
 11 12  1  0  0  0  0
 12 13  1  0  0  0  0
 13 14  1  0  0  0  0
M  END
>  <CHROM.1>
178.78104241,178.92051672,177.91600257,84.68842014,168.63182216,176.05740124
172.35149724,-127.86929594,98.24837106,91.88434161,72.69407745,3.92537833
-22.36958825,52.34069300,2.62331704,-0.90146488,1.62065060

>  <Name>
1xpf_lig

>  <RI>
0

>  <Rbt.Current_Directory>
/home/afrankz/demos/rdock_decoys_rna/rnas/1xpf

>  <Rbt.Executable>
rbdock ($Id: //depot/dev/client3/rdock/2013.1/src/exe/rbdock.cxx#4 $)

>  <Rbt.Library>
libRbt.so (2013.1, Build901 2013/11/27)

>  <Rbt.Parameter_File>
/export/apps/rDock/src/rDock_2013.1_src/data/scripts/dock_solv.prm

>  <Rbt.Receptor>
prm/blind_docking_60.prm

>  <SCORE>
-4.78567

>  <SCORE.INTER>
2.3055

>  <SCORE.INTER.CONST>
1

>  <SCORE.INTER.POLAR>
0

>  <SCORE.INTER.ROT>
11

>  <SCORE.INTER.SOLV>
11.8111

>  <SCORE.INTER.VDW>
-13.3334

>  <SCORE.INTER.norm>
0.164678

>  <SCORE.INTRA>
-7.0925

>  <SCORE.INTRA.DIHEDRAL>
-10.9538

>  <SCORE.INTRA.DIHEDRAL.0>
17.7811

>  <SCORE.INTRA.POLAR>
0

>  <SCORE.INTRA.POLAR.0>
0

>  <SCORE.INTRA.REPUL>
0

>  <SCORE.INTRA.REPUL.0>
0

>  <SCORE.INTRA.SOLV>
-0.0799966

>  <SCORE.INTRA.SOLV.lig_0>
-47.9565

>  <SCORE.INTRA.VDW>
-1.57558

>  <SCORE.INTRA.VDW.0>
0.515983

>  <SCORE.INTRA.norm>
-0.506607

>  <SCORE.RESTR>
0.00133201

>  <SCORE.RESTR.CAVITY>
0.00133201

>  <SCORE.RESTR.norm>
9.51436e-05

>  <SCORE.SYSTEM>
0

>  <SCORE.SYSTEM.CONST>
0

>  <SCORE.SYSTEM.DIHEDRAL>
0

>  <SCORE.SYSTEM.SOLV>
0

>  <SCORE.SYSTEM.norm>
0

>  <SCORE.heavy>
14

>  <SCORE.norm>
-0.341834

>  <RMSD>
29.608

$$$$
1xpf_lig
 OpenBabel02141814123D
libRbt.so/2013.1/901 2013/11/27
 14 13  0  0  0  0  0  0  0  0999 V2000
    1.4657  -19.3676   56.8263 N   0  0  0  0  0  0  0  0  0  0  0  0
    0.6022  -20.5248   56.6801 C   0  0  0  0  0  0  0  0  0  0  0  0
    1.3872  -21.7338   56.3369 C   0  0  0  0  0  0  0  0  0  0  0  0
    1.8394  -21.5625   54.9200 C   0  0  0  0  0  0  0  0  0  0  0  0
    2.4282  -22.8598   54.5065 N   0  0  0  0  0  0  0  0  0  0  0  0
    2.7085  -22.8653   53.0380 C   0  0  0  0  0  0  0  0  0  0  0  0
    3.5027  -24.0983   52.5733 C   0  0  0  0  0  0  0  0  0  0  0  0
    3.6312  -24.2187   51.0444 C   0  0  0  0  0  0  0  0  0  0  0  0
    4.5889  -23.1504   50.5387 C   0  0  0  0  0  0  0  0  0  0  0  0
    3.7258  -22.1396   49.9102 N   0  0  0  0  0  0  0  0  0  0  0  0
    3.5762  -20.8249   50.5949 C   0  0  0  0  0  0  0  0  0  0  0  0
    2.7243  -20.0684   49.5526 C   0  0  0  0  0  0  0  0  0  0  0  0
    2.3054  -18.6508   49.8492 C   0  0  0  0  0  0  0  0  0  0  0  0
    1.4545  -18.4982   51.0166 N   0  0  0  0  0  0  0  0  0  0  0  0
  1  2  1  0  0  0  0
  2  3  1  0  0  0  0
  3  4  1  0  0  0  0
  4  5  1  0  0  0  0
  5  6  1  0  0  0  0
  6  7  1  0  0  0  0
  7  8  1  0  0  0  0
  8  9  1  0  0  0  0
  9 10  1  0  0  0  0
 10 11  1  0  0  0  0
 11 12  1  0  0  0  0
 12 13  1  0  0  0  0
 13 14  1  0  0  0  0
M  END
>  <CHROM.1>
-71.87888364,-170.86801223,170.76810576,171.75607843,171.98956110,71.74137688
-105.11020865,109.41801552,175.12656699,179.20134078,-62.31082999,2.56727242
-21.46909694,52.67037848,2.39244144,-1.12108370,2.24693472

>  <Name>
1xpf_lig

>  <RI>
0

>  <Rbt.Current_Directory>
/home/afrankz/demos/rdock_decoys_rna/rnas/1xpf

>  <Rbt.Executable>
rbdock ($Id: //depot/dev/client3/rdock/2013.1/src/exe/rbdock.cxx#4 $)

>  <Rbt.Library>
libRbt.so (2013.1, Build901 2013/11/27)

>  <Rbt.Parameter_File>
/export/apps/rDock/src/rDock_2013.1_src/data/scripts/dock_solv.prm

>  <Rbt.Receptor>
prm/blind_docking_100.prm

>  <SCORE>
-5.06653

>  <SCORE.INTER>
0.850446

>  <SCORE.INTER.CONST>
1

>  <SCORE.INTER.POLAR>
-0.959166

>  <SCORE.INTER.ROT>
11

>  <SCORE.INTER.SOLV>
12.7366

>  <SCORE.INTER.VDW>
-11.4147

>  <SCORE.INTER.norm>
0.0607461

>  <SCORE.INTRA>
-5.91697

>  <SCORE.INTRA.DIHEDRAL>
-10.1563

>  <SCORE.INTRA.DIHEDRAL.0>
17.7811

>  <SCORE.INTRA.POLAR>
0

>  <SCORE.INTRA.POLAR.0>
0

>  <SCORE.INTRA.REPUL>
0

>  <SCORE.INTRA.REPUL.0>
0

>  <SCORE.INTRA.SOLV>
1.16341

>  <SCORE.INTRA.SOLV.lig_0>
-47.9565

>  <SCORE.INTRA.VDW>
-1.42053

>  <SCORE.INTRA.VDW.0>
0.515983

>  <SCORE.INTRA.norm>
-0.422641

>  <SCORE.RESTR>
0

>  <SCORE.RESTR.CAVITY>
0

>  <SCORE.RESTR.norm>
0

>  <SCORE.SYSTEM>
0

>  <SCORE.SYSTEM.CONST>
0

>  <SCORE.SYSTEM.DIHEDRAL>
0

>  <SCORE.SYSTEM.SOLV>
0

>  <SCORE.SYSTEM.norm>
0

>  <SCORE.heavy>
14

>  <SCORE.norm>
-0.361895

>  <RMSD>
29.618

$$$$
1xpf_lig
 OpenBabel02141814123D
libRbt.so/2013.1/901 2013/11/27
 14 13  0  0  0  0  0  0  0  0999 V2000
    6.8750  -25.1076   49.1127 N   0  0  0  0  0  0  0  0  0  0  0  0
    5.8165  -24.1284   49.2769 C   0  0  0  0  0  0  0  0  0  0  0  0
    4.4923  -24.7873   49.3676 C   0  0  0  0  0  0  0  0  0  0  0  0
    4.4630  -25.5105   50.6781 C   0  0  0  0  0  0  0  0  0  0  0  0
    4.3428  -24.4710   51.7297 N   0  0  0  0  0  0  0  0  0  0  0  0
    2.9122  -24.2823   52.1207 C   0  0  0  0  0  0  0  0  0  0  0  0
    2.7341  -23.4337   53.3916 C   0  0  0  0  0  0  0  0  0  0  0  0
    3.3182  -22.0141   53.2818 C   0  0  0  0  0  0  0  0  0  0  0  0
    3.0152  -21.2497   54.5616 C   0  0  0  0  0  0  0  0  0  0  0  0
    1.5870  -20.9135   54.4690 N   0  0  0  0  0  0  0  0  0  0  0  0
    0.9856  -20.1086   55.5691 C   0  0  0  0  0  0  0  0  0  0  0  0
    1.6031  -18.7261   55.2665 C   0  0  0  0  0  0  0  0  0  0  0  0
    1.2601  -17.5658   56.1659 C   0  0  0  0  0  0  0  0  0  0  0  0
   -0.0824  -17.0379   55.9948 N   0  0  0  0  0  0  0  0  0  0  0  0
  1  2  1  0  0  0  0
  2  3  1  0  0  0  0
  3  4  1  0  0  0  0
  4  5  1  0  0  0  0
  5  6  1  0  0  0  0
  6  7  1  0  0  0  0
  7  8  1  0  0  0  0
  8  9  1  0  0  0  0
  9 10  1  0  0  0  0
 10 11  1  0  0  0  0
 11 12  1  0  0  0  0
 12 13  1  0  0  0  0
 13 14  1  0  0  0  0
M  END
>  <CHROM.1>
69.36429968,72.47406142,95.56099292,168.44709476,59.46404279,176.87704451
-74.96501232,-177.91496129,72.95683444,-179.75950994,-73.71604424,3.09444507
-22.09555683,52.92761450,-0.86576811,0.81967823,0.17456489

>  <Name>
1xpf_lig

>  <RI>
0

>  <Rbt.Current_Directory>
/home/afrankz/demos/rdock_decoys_rna/rnas/1xpf

>  <Rbt.Executable>
rbdock ($Id: //depot/dev/client3/rdock/2013.1/src/exe/rbdock.cxx#4 $)

>  <Rbt.Library>
libRbt.so (2013.1, Build901 2013/11/27)

>  <Rbt.Parameter_File>
/export/apps/rDock/src/rDock_2013.1_src/data/scripts/dock_solv.prm

>  <Rbt.Receptor>
prm/blind_docking_60.prm

>  <SCORE>
-3.52508

>  <SCORE.INTER>
2.48367

>  <SCORE.INTER.CONST>
1

>  <SCORE.INTER.POLAR>
0

>  <SCORE.INTER.ROT>
11

>  <SCORE.INTER.SOLV>
8.99472

>  <SCORE.INTER.VDW>
-12.2758

>  <SCORE.INTER.norm>
0.177405

>  <SCORE.INTRA>
-6.02539

>  <SCORE.INTRA.DIHEDRAL>
-14.3441

>  <SCORE.INTRA.DIHEDRAL.0>
17.7811

>  <SCORE.INTRA.POLAR>
0

>  <SCORE.INTRA.POLAR.0>
0

>  <SCORE.INTRA.REPUL>
0

>  <SCORE.INTRA.REPUL.0>
0

>  <SCORE.INTRA.SOLV>
2.03371

>  <SCORE.INTRA.SOLV.lig_0>
-47.9565

>  <SCORE.INTRA.VDW>
0.12979

>  <SCORE.INTRA.VDW.0>
0.515983

>  <SCORE.INTRA.norm>
-0.430385

>  <SCORE.RESTR>
0.0166461

>  <SCORE.RESTR.CAVITY>
0.0166461

>  <SCORE.RESTR.norm>
0.00118901

>  <SCORE.SYSTEM>
0

>  <SCORE.SYSTEM.CONST>
0

>  <SCORE.SYSTEM.DIHEDRAL>
0

>  <SCORE.SYSTEM.SOLV>
0

>  <SCORE.SYSTEM.norm>
0

>  <SCORE.heavy>
14

>  <SCORE.norm>
-0.251791

>  <RMSD>
29.624

$$$$
1xpf_lig
 OpenBabel02141814123D
libRbt.so/2013.1/901 2013/11/27
 14 13  0  0  0  0  0  0  0  0999 V2000
    7.9432  -26.4449   48.9351 N   0  0  0  0  0  0  0  0  0  0  0  0
    6.8836  -26.4160   49.9263 C   0  0  0  0  0  0  0  0  0  0  0  0
    6.0043  -25.2395   49.7302 C   0  0  0  0  0  0  0  0  0  0  0  0
    4.9363  -25.3243   50.7760 C   0  0  0  0  0  0  0  0  0  0  0  0
    4.0490  -24.1540   50.5670 N   0  0  0  0  0  0  0  0  0  0  0  0
    3.1169  -23.9882   51.7240 C   0  0  0  0  0  0  0  0  0  0  0  0
    3.5727  -22.9126   52.7251 C   0  0  0  0  0  0  0  0  0  0  0  0
    2.4491  -22.3951   53.6407 C   0  0  0  0  0  0  0  0  0  0  0  0
    2.9979  -21.2861   54.5257 C   0  0  0  0  0  0  0  0  0  0  0  0
    1.8085  -20.5789   55.0224 N   0  0  0  0  0  0  0  0  0  0  0  0
    1.2974  -19.4270   54.2278 C   0  0  0  0  0  0  0  0  0  0  0  0
    0.8463  -18.4869   55.3665 C   0  0  0  0  0  0  0  0  0  0  0  0
    0.1979  -17.1736   55.0092 C   0  0  0  0  0  0  0  0  0  0  0  0
   -0.2703  -16.3963   56.1436 N   0  0  0  0  0  0  0  0  0  0  0  0
  1  2  1  0  0  0  0
  2  3  1  0  0  0  0
  3  4  1  0  0  0  0
  4  5  1  0  0  0  0
  5  6  1  0  0  0  0
  6  7  1  0  0  0  0
  7  8  1  0  0  0  0
  8  9  1  0  0  0  0
  9 10  1  0  0  0  0
 10 11  1  0  0  0  0
 11 12  1  0  0  0  0
 12 13  1  0  0  0  0
 13 14  1  0  0  0  0
M  END
>  <CHROM.1>
178.68891016,-179.35428442,-168.38814502,99.60052644,160.72510778,-176.76140279
162.19297421,-90.65355973,-143.11194996,-177.81620350,176.21275315,3.27372529
-22.15893390,52.73713232,-0.67129447,0.85623836,-0.14248854

>  <Name>
1xpf_lig

>  <RI>
0

>  <Rbt.Current_Directory>
/home/afrankz/demos/rdock_decoys_rna/rnas/1xpf

>  <Rbt.Executable>
rbdock ($Id: //depot/dev/client3/rdock/2013.1/src/exe/rbdock.cxx#4 $)

>  <Rbt.Library>
libRbt.so (2013.1, Build901 2013/11/27)

>  <Rbt.Parameter_File>
/export/apps/rDock/src/rDock_2013.1_src/data/scripts/dock_solv.prm

>  <Rbt.Receptor>
prm/blind_docking_60.prm

>  <SCORE>
-5.54421

>  <SCORE.INTER>
2.89818

>  <SCORE.INTER.CONST>
1

>  <SCORE.INTER.POLAR>
0

>  <SCORE.INTER.ROT>
11

>  <SCORE.INTER.SOLV>
7.69582

>  <SCORE.INTER.VDW>
-11.5665

>  <SCORE.INTER.norm>
0.207013

>  <SCORE.INTRA>
-8.45639

>  <SCORE.INTRA.DIHEDRAL>
-12.8226

>  <SCORE.INTRA.DIHEDRAL.0>
17.7811

>  <SCORE.INTRA.POLAR>
0

>  <SCORE.INTRA.POLAR.0>
0

>  <SCORE.INTRA.REPUL>
0

>  <SCORE.INTRA.REPUL.0>
0

>  <SCORE.INTRA.SOLV>
-0.980936

>  <SCORE.INTRA.SOLV.lig_0>
-47.9565

>  <SCORE.INTRA.VDW>
-1.5546

>  <SCORE.INTRA.VDW.0>
0.515983

>  <SCORE.INTRA.norm>
-0.604028

>  <SCORE.RESTR>
0.0139985

>  <SCORE.RESTR.CAVITY>
0.0139985

>  <SCORE.RESTR.norm>
0.000999894

>  <SCORE.SYSTEM>
0

>  <SCORE.SYSTEM.CONST>
0

>  <SCORE.SYSTEM.DIHEDRAL>
0

>  <SCORE.SYSTEM.SOLV>
0

>  <SCORE.SYSTEM.norm>
0

>  <SCORE.heavy>
14

>  <SCORE.norm>
-0.396015

>  <RMSD>
29.666

$$$$
1xpf_lig
 OpenBabel02141814123D
libRbt.so/2013.1/901 2013/11/27
 14 13  0  0  0  0  0  0  0  0999 V2000
   -0.5127  -16.1414   55.5033 N   0  0  0  0  0  0  0  0  0  0  0  0
    0.6826  -16.9529   55.6404 C   0  0  0  0  0  0  0  0  0  0  0  0
    0.4637  -18.3165   55.1032 C   0  0  0  0  0  0  0  0  0  0  0  0
    1.7440  -19.0662   55.3041 C   0  0  0  0  0  0  0  0  0  0  0  0
    1.4578  -20.4837   54.9732 N   0  0  0  0  0  0  0  0  0  0  0  0
    2.6969  -21.1732   54.4998 C   0  0  0  0  0  0  0  0  0  0  0  0
    2.4216  -22.5305   53.8300 C   0  0  0  0  0  0  0  0  0  0  0  0
    3.6004  -23.0676   52.9990 C   0  0  0  0  0  0  0  0  0  0  0  0
    3.1344  -24.2691   52.1907 C   0  0  0  0  0  0  0  0  0  0  0  0
    4.2110  -24.5080   51.2184 N   0  0  0  0  0  0  0  0  0  0  0  0
    4.5565  -25.9197   50.8908 C   0  0  0  0  0  0  0  0  0  0  0  0
    5.9518  -25.7212   50.2600 C   0  0  0  0  0  0  0  0  0  0  0  0
    6.7708  -26.9384   49.9128 C   0  0  0  0  0  0  0  0  0  0  0  0
    8.0216  -26.6569   49.2298 N   0  0  0  0  0  0  0  0  0  0  0  0
  1  2  1  0  0  0  0
  2  3  1  0  0  0  0
  3  4  1  0  0  0  0
  4  5  1  0  0  0  0
  5  6  1  0  0  0  0
  6  7  1  0  0  0  0
  7  8  1  0  0  0  0
  8  9  1  0  0  0  0
  9 10  1  0  0  0  0
 10 11  1  0  0  0  0
 11 12  1  0  0  0  0
 12 13  1  0  0  0  0
 13 14  1  0  0  0  0
M  END
>  <CHROM.1>
-179.51165691,170.98126144,152.67480990,-166.38741686,163.83838955,-169.86571650
167.26924782,142.17109400,-162.25310105,172.97050560,175.41233424,3.22857628
-22.26764175,52.96834581,-2.20086242,-0.57763142,-2.96023727

>  <Name>
1xpf_lig

>  <RI>
0

>  <Rbt.Current_Directory>
/home/afrankz/demos/rdock_decoys_rna/rnas/1xpf

>  <Rbt.Executable>
rbdock ($Id: //depot/dev/client3/rdock/2013.1/src/exe/rbdock.cxx#4 $)

>  <Rbt.Library>
libRbt.so (2013.1, Build901 2013/11/27)

>  <Rbt.Parameter_File>
/export/apps/rDock/src/rDock_2013.1_src/data/scripts/dock_solv.prm

>  <Rbt.Receptor>
prm/blind_docking_60.prm

>  <SCORE>
-8.69477

>  <SCORE.INTER>
0.408026

>  <SCORE.INTER.CONST>
1

>  <SCORE.INTER.POLAR>
0

>  <SCORE.INTER.ROT>
11

>  <SCORE.INTER.SOLV>
9.0318

>  <SCORE.INTER.VDW>
-13.6719

>  <SCORE.INTER.norm>
0.0291447

>  <SCORE.INTRA>
-9.10279

>  <SCORE.INTRA.DIHEDRAL>
-13.5295

>  <SCORE.INTRA.DIHEDRAL.0>
17.7811

>  <SCORE.INTRA.POLAR>
0

>  <SCORE.INTRA.POLAR.0>
0

>  <SCORE.INTRA.REPUL>
0

>  <SCORE.INTRA.REPUL.0>
0

>  <SCORE.INTRA.SOLV>
-0.988334

>  <SCORE.INTRA.SOLV.lig_0>
-47.9565

>  <SCORE.INTRA.VDW>
-1.8439

>  <SCORE.INTRA.VDW.0>
0.515983

>  <SCORE.INTRA.norm>
-0.6502

>  <SCORE.RESTR>
0

>  <SCORE.RESTR.CAVITY>
0

>  <SCORE.RESTR.norm>
0

>  <SCORE.SYSTEM>
0

>  <SCORE.SYSTEM.CONST>
0

>  <SCORE.SYSTEM.DIHEDRAL>
0

>  <SCORE.SYSTEM.SOLV>
0

>  <SCORE.SYSTEM.norm>
0

>  <SCORE.heavy>
14

>  <SCORE.norm>
-0.621055

>  <RMSD>
29.681

$$$$
1xpf_lig
 OpenBabel02141814123D
libRbt.so/2013.1/901 2013/11/27
 14 13  0  0  0  0  0  0  0  0999 V2000
    1.6042  -17.9660   57.4537 N   0  0  0  0  0  0  0  0  0  0  0  0
    0.9571  -17.8432   56.1605 C   0  0  0  0  0  0  0  0  0  0  0  0
    1.6112  -18.7122   55.1541 C   0  0  0  0  0  0  0  0  0  0  0  0
    1.4078  -20.1235   55.6104 C   0  0  0  0  0  0  0  0  0  0  0  0
    2.0799  -20.9897   54.6110 N   0  0  0  0  0  0  0  0  0  0  0  0
    2.0325  -22.4211   55.0399 C   0  0  0  0  0  0  0  0  0  0  0  0
    2.0880  -23.4121   53.8645 C   0  0  0  0  0  0  0  0  0  0  0  0
    3.4016  -23.3594   53.0644 C   0  0  0  0  0  0  0  0  0  0  0  0
    3.3561  -24.4059   51.9613 C   0  0  0  0  0  0  0  0  0  0  0  0
    4.6961  -24.3734   51.3574 N   0  0  0  0  0  0  0  0  0  0  0  0
    5.0962  -25.5107   50.4821 C   0  0  0  0  0  0  0  0  0  0  0  0
    6.5462  -25.1007   50.1453 C   0  0  0  0  0  0  0  0  0  0  0  0
    7.3733  -26.0103   49.2727 C   0  0  0  0  0  0  0  0  0  0  0  0
    8.6678  -25.4748   48.8884 N   0  0  0  0  0  0  0  0  0  0  0  0
  1  2  1  0  0  0  0
  2  3  1  0  0  0  0
  3  4  1  0  0  0  0
  4  5  1  0  0  0  0
  5  6  1  0  0  0  0
  6  7  1  0  0  0  0
  7  8  1  0  0  0  0
  8  9  1  0  0  0  0
  9 10  1  0  0  0  0
 10 11  1  0  0  0  0
 11 12  1  0  0  0  0
 12 13  1  0  0  0  0
 13 14  1  0  0  0  0
M  END
>  <CHROM.1>
63.92331491,-179.23140271,175.20813171,153.29698732,63.83654920,178.31842290
-174.10111525,164.64751089,-177.31405125,178.78446390,173.46757016,3.63673665
-22.55034482,53.07611823,-2.21098376,-0.53853859,-2.73549516

>  <Name>
1xpf_lig

>  <RI>
0

>  <Rbt.Current_Directory>
/home/afrankz/demos/rdock_decoys_rna/rnas/1xpf

>  <Rbt.Executable>
rbdock ($Id: //depot/dev/client3/rdock/2013.1/src/exe/rbdock.cxx#4 $)

>  <Rbt.Library>
libRbt.so (2013.1, Build901 2013/11/27)

>  <Rbt.Parameter_File>
/export/apps/rDock/src/rDock_2013.1_src/data/scripts/dock_solv.prm

>  <Rbt.Receptor>
prm/blind_docking_60.prm

>  <SCORE>
-10.7147

>  <SCORE.INTER>
-1.72864

>  <SCORE.INTER.CONST>
1

>  <SCORE.INTER.POLAR>
-0.9589

>  <SCORE.INTER.ROT>
11

>  <SCORE.INTER.SOLV>
16.4093

>  <SCORE.INTER.VDW>
-14.3592

>  <SCORE.INTER.norm>
-0.123474

>  <SCORE.INTRA>
-9.60104

>  <SCORE.INTRA.DIHEDRAL>
-16.6521

>  <SCORE.INTRA.DIHEDRAL.0>
17.7811

>  <SCORE.INTRA.POLAR>
0

>  <SCORE.INTRA.POLAR.0>
0

>  <SCORE.INTRA.REPUL>
0

>  <SCORE.INTRA.REPUL.0>
0

>  <SCORE.INTRA.SOLV>
0.31905

>  <SCORE.INTRA.SOLV.lig_0>
-47.9565

>  <SCORE.INTRA.VDW>
-1.43452

>  <SCORE.INTRA.VDW.0>
0.515983

>  <SCORE.INTRA.norm>
-0.685789

>  <SCORE.RESTR>
0.614975

>  <SCORE.RESTR.CAVITY>
0.614975

>  <SCORE.RESTR.norm>
0.0439268

>  <SCORE.SYSTEM>
0

>  <SCORE.SYSTEM.CONST>
0

>  <SCORE.SYSTEM.DIHEDRAL>
0

>  <SCORE.SYSTEM.SOLV>
0

>  <SCORE.SYSTEM.norm>
0

>  <SCORE.heavy>
14

>  <SCORE.norm>
-0.765336

>  <RMSD>
29.685

$$$$
1xpf_lig
 OpenBabel02141814123D
libRbt.so/2013.1/901 2013/11/27
 14 13  0  0  0  0  0  0  0  0999 V2000
    0.4686  -16.7147   55.2762 N   0  0  0  0  0  0  0  0  0  0  0  0
    1.0543  -17.9129   55.8485 C   0  0  0  0  0  0  0  0  0  0  0  0
    1.1194  -19.0032   54.8470 C   0  0  0  0  0  0  0  0  0  0  0  0
    1.6804  -20.1989   55.5520 C   0  0  0  0  0  0  0  0  0  0  0  0
    1.9487  -21.2163   54.5063 N   0  0  0  0  0  0  0  0  0  0  0  0
    3.4163  -21.3249   54.2433 C   0  0  0  0  0  0  0  0  0  0  0  0
    3.7497  -21.6804   52.7840 C   0  0  0  0  0  0  0  0  0  0  0  0
    3.6380  -23.1819   52.4656 C   0  0  0  0  0  0  0  0  0  0  0  0
    4.1601  -23.4338   51.0592 C   0  0  0  0  0  0  0  0  0  0  0  0
    3.9879  -24.8785   50.8479 N   0  0  0  0  0  0  0  0  0  0  0  0
    4.7776  -25.5252   49.7627 C   0  0  0  0  0  0  0  0  0  0  0  0
    5.9050  -26.1751   50.5939 C   0  0  0  0  0  0  0  0  0  0  0  0
    6.9106  -27.0521   49.8921 C   0  0  0  0  0  0  0  0  0  0  0  0
    7.7682  -26.3596   48.9461 N   0  0  0  0  0  0  0  0  0  0  0  0
  1  2  1  0  0  0  0
  2  3  1  0  0  0  0
  3  4  1  0  0  0  0
  4  5  1  0  0  0  0
  5  6  1  0  0  0  0
  6  7  1  0  0  0  0
  7  8  1  0  0  0  0
  8  9  1  0  0  0  0
  9 10  1  0  0  0  0
 10 11  1  0  0  0  0
 11 12  1  0  0  0  0
 12 13  1  0  0  0  0
 13 14  1  0  0  0  0
M  END
>  <CHROM.1>
-177.65404640,-171.10687483,105.72678735,-147.75569688,-81.43644713,-172.74327991
-179.01318633,-161.02840828,101.10452893,175.25860963,66.11791343,3.61323445
-22.47560823,52.61615742,-2.71416339,-1.02436455,2.68595958

>  <Name>
1xpf_lig

>  <RI>
0

>  <Rbt.Current_Directory>
/home/afrankz/demos/rdock_decoys_rna/rnas/1xpf

>  <Rbt.Executable>
rbdock ($Id: //depot/dev/client3/rdock/2013.1/src/exe/rbdock.cxx#4 $)

>  <Rbt.Library>
libRbt.so (2013.1, Build901 2013/11/27)

>  <Rbt.Parameter_File>
/export/apps/rDock/src/rDock_2013.1_src/data/scripts/dock_solv.prm

>  <Rbt.Receptor>
prm/blind_docking_60.prm

>  <SCORE>
-5.93711

>  <SCORE.INTER>
2.12945

>  <SCORE.INTER.CONST>
1

>  <SCORE.INTER.POLAR>
0

>  <SCORE.INTER.ROT>
11

>  <SCORE.INTER.SOLV>
10.3726

>  <SCORE.INTER.VDW>
-12.9712

>  <SCORE.INTER.norm>
0.152103

>  <SCORE.INTRA>
-8.07875

>  <SCORE.INTRA.DIHEDRAL>
-12.5435

>  <SCORE.INTRA.DIHEDRAL.0>
17.7811

>  <SCORE.INTRA.POLAR>
0

>  <SCORE.INTRA.POLAR.0>
0

>  <SCORE.INTRA.REPUL>
0

>  <SCORE.INTRA.REPUL.0>
0

>  <SCORE.INTRA.SOLV>
-0.153075

>  <SCORE.INTRA.SOLV.lig_0>
-47.9565

>  <SCORE.INTRA.VDW>
-1.73044

>  <SCORE.INTRA.VDW.0>
0.515983

>  <SCORE.INTRA.norm>
-0.577053

>  <SCORE.RESTR>
0.0121889

>  <SCORE.RESTR.CAVITY>
0.0121889

>  <SCORE.RESTR.norm>
0.000870637

>  <SCORE.SYSTEM>
0

>  <SCORE.SYSTEM.CONST>
0

>  <SCORE.SYSTEM.DIHEDRAL>
0

>  <SCORE.SYSTEM.SOLV>
0

>  <SCORE.SYSTEM.norm>
0

>  <SCORE.heavy>
14

>  <SCORE.norm>
-0.424079

>  <RMSD>
29.723

$$$$
1xpf_lig
 OpenBabel02141814123D
libRbt.so/2013.1/901 2013/11/27
 14 13  0  0  0  0  0  0  0  0999 V2000
    1.6287  -19.1616   56.7304 N   0  0  0  0  0  0  0  0  0  0  0  0
    1.1951  -20.2910   55.9287 C   0  0  0  0  0  0  0  0  0  0  0  0
    1.3607  -21.5635   56.6696 C   0  0  0  0  0  0  0  0  0  0  0  0
    0.8672  -22.6515   55.7673 C   0  0  0  0  0  0  0  0  0  0  0  0
    1.8841  -22.8049   54.6981 N   0  0  0  0  0  0  0  0  0  0  0  0
    1.3519  -23.6474   53.5837 C   0  0  0  0  0  0  0  0  0  0  0  0
    2.4177  -24.0211   52.5391 C   0  0  0  0  0  0  0  0  0  0  0  0
    3.0430  -22.8104   51.8239 C   0  0  0  0  0  0  0  0  0  0  0  0
    3.8495  -23.2983   50.6298 C   0  0  0  0  0  0  0  0  0  0  0  0
    4.3587  -22.0738   49.9951 N   0  0  0  0  0  0  0  0  0  0  0  0
    3.4517  -21.3359   49.0718 C   0  0  0  0  0  0  0  0  0  0  0  0
    3.3107  -20.0009   49.8348 C   0  0  0  0  0  0  0  0  0  0  0  0
    2.4967  -18.8936   49.2151 C   0  0  0  0  0  0  0  0  0  0  0  0
    3.0006  -18.4049   47.9433 N   0  0  0  0  0  0  0  0  0  0  0  0
  1  2  1  0  0  0  0
  2  3  1  0  0  0  0
  3  4  1  0  0  0  0
  4  5  1  0  0  0  0
  5  6  1  0  0  0  0
  6  7  1  0  0  0  0
  7  8  1  0  0  0  0
  8  9  1  0  0  0  0
  9 10  1  0  0  0  0
 10 11  1  0  0  0  0
 11 12  1  0  0  0  0
 12 13  1  0  0  0  0
 13 14  1  0  0  0  0
M  END
>  <CHROM.1>
179.11105816,72.51710713,-167.50142627,-171.49248674,-61.32928692,-168.17039810
178.03705083,-82.26275003,116.79450822,177.41912094,-61.84842744,2.44391354
-21.49741857,52.45937513,2.62882454,-1.24477019,2.78551089

>  <Name>
1xpf_lig

>  <RI>
0

>  <Rbt.Current_Directory>
/home/afrankz/demos/rdock_decoys_rna/rnas/1xpf

>  <Rbt.Executable>
rbdock ($Id: //depot/dev/client3/rdock/2013.1/src/exe/rbdock.cxx#4 $)

>  <Rbt.Library>
libRbt.so (2013.1, Build901 2013/11/27)

>  <Rbt.Parameter_File>
/export/apps/rDock/src/rDock_2013.1_src/data/scripts/dock_solv.prm

>  <Rbt.Receptor>
prm/blind_docking_100.prm

>  <SCORE>
-6.77206

>  <SCORE.INTER>
1.62562

>  <SCORE.INTER.CONST>
1

>  <SCORE.INTER.POLAR>
-0.948467

>  <SCORE.INTER.ROT>
11

>  <SCORE.INTER.SOLV>
11.8416

>  <SCORE.INTER.VDW>
-10.6352

>  <SCORE.INTER.norm>
0.116116

>  <SCORE.INTRA>
-8.39769

>  <SCORE.INTRA.DIHEDRAL>
-14.8408

>  <SCORE.INTRA.DIHEDRAL.0>
17.7811

>  <SCORE.INTRA.POLAR>
0

>  <SCORE.INTRA.POLAR.0>
0

>  <SCORE.INTRA.REPUL>
0

>  <SCORE.INTRA.REPUL.0>
0

>  <SCORE.INTRA.SOLV>
0.522269

>  <SCORE.INTRA.SOLV.lig_0>
-47.9565

>  <SCORE.INTRA.VDW>
-1.2384

>  <SCORE.INTRA.VDW.0>
0.515983

>  <SCORE.INTRA.norm>
-0.599835

>  <SCORE.RESTR>
0

>  <SCORE.RESTR.CAVITY>
0

>  <SCORE.RESTR.norm>
0

>  <SCORE.SYSTEM>
0

>  <SCORE.SYSTEM.CONST>
0

>  <SCORE.SYSTEM.DIHEDRAL>
0

>  <SCORE.SYSTEM.SOLV>
0

>  <SCORE.SYSTEM.norm>
0

>  <SCORE.heavy>
14

>  <SCORE.norm>
-0.483719

>  <RMSD>
29.803

$$$$
1xpf_lig
 OpenBabel02141814123D
libRbt.so/2013.1/901 2013/11/27
 14 13  0  0  0  0  0  0  0  0999 V2000
    0.2308  -16.7365   55.6792 N   0  0  0  0  0  0  0  0  0  0  0  0
    1.0700  -17.8434   56.0996 C   0  0  0  0  0  0  0  0  0  0  0  0
    1.1180  -18.8986   55.0604 C   0  0  0  0  0  0  0  0  0  0  0  0
    1.7011  -20.1141   55.7114 C   0  0  0  0  0  0  0  0  0  0  0  0
    1.8467  -21.1341   54.6441 N   0  0  0  0  0  0  0  0  0  0  0  0
    3.2111  -21.0678   54.0366 C   0  0  0  0  0  0  0  0  0  0  0  0
    3.3915  -22.0145   52.8374 C   0  0  0  0  0  0  0  0  0  0  0  0
    3.3688  -23.5073   53.2110 C   0  0  0  0  0  0  0  0  0  0  0  0
    2.6233  -24.2799   52.1333 C   0  0  0  0  0  0  0  0  0  0  0  0
    3.5050  -25.4090   51.8029 N   0  0  0  0  0  0  0  0  0  0  0  0
    4.5157  -25.2148   50.7257 C   0  0  0  0  0  0  0  0  0  0  0  0
    5.0011  -26.6688   50.5396 C   0  0  0  0  0  0  0  0  0  0  0  0
    6.0238  -26.9611   49.4712 C   0  0  0  0  0  0  0  0  0  0  0  0
    7.2710  -26.2285   49.6045 N   0  0  0  0  0  0  0  0  0  0  0  0
  1  2  1  0  0  0  0
  2  3  1  0  0  0  0
  3  4  1  0  0  0  0
  4  5  1  0  0  0  0
  5  6  1  0  0  0  0
  6  7  1  0  0  0  0
  7  8  1  0  0  0  0
  8  9  1  0  0  0  0
  9 10  1  0  0  0  0
 10 11  1  0  0  0  0
 11 12  1  0  0  0  0
 12 13  1  0  0  0  0
 13 14  1  0  0  0  0
M  END
>  <CHROM.1>
-165.99732605,-175.66634066,92.75678907,-174.89486862,-67.87143406,141.34369301
130.88006017,-89.57991678,-169.84572804,177.50911464,58.30722265,3.20556770
-22.57710789,52.96836382,-2.07728481,-0.51313487,-2.81084561

>  <Name>
1xpf_lig

>  <RI>
0

>  <Rbt.Current_Directory>
/home/afrankz/demos/rdock_decoys_rna/rnas/1xpf

>  <Rbt.Executable>
rbdock ($Id: //depot/dev/client3/rdock/2013.1/src/exe/rbdock.cxx#4 $)

>  <Rbt.Library>
libRbt.so (2013.1, Build901 2013/11/27)

>  <Rbt.Parameter_File>
/export/apps/rDock/src/rDock_2013.1_src/data/scripts/dock_solv.prm

>  <Rbt.Receptor>
prm/blind_docking_60.prm

>  <SCORE>
-2.70864

>  <SCORE.INTER>
1.48899

>  <SCORE.INTER.CONST>
1

>  <SCORE.INTER.POLAR>
0

>  <SCORE.INTER.ROT>
11

>  <SCORE.INTER.SOLV>
12.2166

>  <SCORE.INTER.VDW>
-14.0129

>  <SCORE.INTER.norm>
0.106356

>  <SCORE.INTRA>
-4.2395

>  <SCORE.INTRA.DIHEDRAL>
-5.87446

>  <SCORE.INTRA.DIHEDRAL.0>
17.7811

>  <SCORE.INTRA.POLAR>
0

>  <SCORE.INTRA.POLAR.0>
0

>  <SCORE.INTRA.REPUL>
0

>  <SCORE.INTRA.REPUL.0>
0

>  <SCORE.INTRA.SOLV>
0.236994

>  <SCORE.INTRA.SOLV.lig_0>
-47.9565

>  <SCORE.INTRA.VDW>
-1.42077

>  <SCORE.INTRA.VDW.0>
0.515983

>  <SCORE.INTRA.norm>
-0.302822

>  <SCORE.RESTR>
0.0418731

>  <SCORE.RESTR.CAVITY>
0.0418731

>  <SCORE.RESTR.norm>
0.00299093

>  <SCORE.SYSTEM>
0

>  <SCORE.SYSTEM.CONST>
0

>  <SCORE.SYSTEM.DIHEDRAL>
0

>  <SCORE.SYSTEM.SOLV>
0

>  <SCORE.SYSTEM.norm>
0

>  <SCORE.heavy>
14

>  <SCORE.norm>
-0.193474

>  <RMSD>
29.873

$$$$
1xpf_lig
 OpenBabel02141814123D
libRbt.so/2013.1/901 2013/11/27
 14 13  0  0  0  0  0  0  0  0999 V2000
    8.6376  -24.9992   47.8839 N   0  0  0  0  0  0  0  0  0  0  0  0
    7.4820  -24.4956   48.6029 C   0  0  0  0  0  0  0  0  0  0  0  0
    6.9163  -25.5352   49.4946 C   0  0  0  0  0  0  0  0  0  0  0  0
    6.2588  -24.8137   50.6298 C   0  0  0  0  0  0  0  0  0  0  0  0
    5.0073  -24.2295   50.0885 N   0  0  0  0  0  0  0  0  0  0  0  0
    4.3110  -23.4187   51.1338 C   0  0  0  0  0  0  0  0  0  0  0  0
    3.5280  -24.2721   52.1465 C   0  0  0  0  0  0  0  0  0  0  0  0
    3.4022  -23.6300   53.5394 C   0  0  0  0  0  0  0  0  0  0  0  0
    2.4300  -22.4623   53.4645 C   0  0  0  0  0  0  0  0  0  0  0  0
    2.1499  -22.1166   54.8658 N   0  0  0  0  0  0  0  0  0  0  0  0
    2.4006  -20.7147   55.3034 C   0  0  0  0  0  0  0  0  0  0  0  0
    1.0773  -20.0501   54.8658 C   0  0  0  0  0  0  0  0  0  0  0  0
    0.9355  -18.5555   55.0047 C   0  0  0  0  0  0  0  0  0  0  0  0
    0.9772  -18.0636   56.3709 N   0  0  0  0  0  0  0  0  0  0  0  0
  1  2  1  0  0  0  0
  2  3  1  0  0  0  0
  3  4  1  0  0  0  0
  4  5  1  0  0  0  0
  5  6  1  0  0  0  0
  6  7  1  0  0  0  0
  7  8  1  0  0  0  0
  8  9  1  0  0  0  0
  9 10  1  0  0  0  0
 10 11  1  0  0  0  0
 11 12  1  0  0  0  0
 12 13  1  0  0  0  0
 13 14  1  0  0  0  0
M  END
>  <CHROM.1>
152.03598106,73.89854064,-176.83943910,-78.68557314,151.34720668,72.05383302
167.75832451,124.24008337,84.13240821,-174.39031413,-64.12112151,3.96517047
-22.66846535,52.38534876,-0.59028912,0.80599572,0.04941695

>  <Name>
1xpf_lig

>  <RI>
0

>  <Rbt.Current_Directory>
/home/afrankz/demos/rdock_decoys_rna/rnas/1xpf

>  <Rbt.Executable>
rbdock ($Id: //depot/dev/client3/rdock/2013.1/src/exe/rbdock.cxx#4 $)

>  <Rbt.Library>
libRbt.so (2013.1, Build901 2013/11/27)

>  <Rbt.Parameter_File>
/export/apps/rDock/src/rDock_2013.1_src/data/scripts/dock_solv.prm

>  <Rbt.Receptor>
prm/blind_docking_60.prm

>  <SCORE>
0.508658

>  <SCORE.INTER>
5.09674

>  <SCORE.INTER.CONST>
1

>  <SCORE.INTER.POLAR>
0

>  <SCORE.INTER.ROT>
11

>  <SCORE.INTER.SOLV>
12.3768

>  <SCORE.INTER.VDW>
-11.6611

>  <SCORE.INTER.norm>
0.364053

>  <SCORE.INTRA>
-4.63771

>  <SCORE.INTRA.DIHEDRAL>
-8.85362

>  <SCORE.INTRA.DIHEDRAL.0>
17.7811

>  <SCORE.INTRA.POLAR>
0

>  <SCORE.INTRA.POLAR.0>
0

>  <SCORE.INTRA.REPUL>
0

>  <SCORE.INTRA.REPUL.0>
0

>  <SCORE.INTRA.SOLV>
0.219664

>  <SCORE.INTRA.SOLV.lig_0>
-47.9565

>  <SCORE.INTRA.VDW>
-0.320735

>  <SCORE.INTRA.VDW.0>
0.515983

>  <SCORE.INTRA.norm>
-0.331265

>  <SCORE.RESTR>
0.0496291

>  <SCORE.RESTR.CAVITY>
0.0496291

>  <SCORE.RESTR.norm>
0.00354493

>  <SCORE.SYSTEM>
0

>  <SCORE.SYSTEM.CONST>
0

>  <SCORE.SYSTEM.DIHEDRAL>
0

>  <SCORE.SYSTEM.SOLV>
0

>  <SCORE.SYSTEM.norm>
0

>  <SCORE.heavy>
14

>  <SCORE.norm>
0.0363327

>  <RMSD>
29.873

$$$$
1xpf_lig
 OpenBabel02141814123D
libRbt.so/2013.1/901 2013/11/27
 14 13  0  0  0  0  0  0  0  0999 V2000
    0.4554  -17.8393   55.5940 N   0  0  0  0  0  0  0  0  0  0  0  0
    1.4850  -18.8371   55.3695 C   0  0  0  0  0  0  0  0  0  0  0  0
    0.9426  -20.2065   55.5324 C   0  0  0  0  0  0  0  0  0  0  0  0
    2.0958  -21.1464   55.3639 C   0  0  0  0  0  0  0  0  0  0  0  0
    2.4912  -21.0754   53.9359 N   0  0  0  0  0  0  0  0  0  0  0  0
    3.8339  -21.6999   53.7308 C   0  0  0  0  0  0  0  0  0  0  0  0
    3.7645  -23.2011   53.4014 C   0  0  0  0  0  0  0  0  0  0  0  0
    3.4738  -23.5029   51.9206 C   0  0  0  0  0  0  0  0  0  0  0  0
    3.7564  -24.9723   51.6462 C   0  0  0  0  0  0  0  0  0  0  0  0
    4.6280  -24.9723   50.4622 N   0  0  0  0  0  0  0  0  0  0  0  0
    5.9928  -24.3907   50.5989 C   0  0  0  0  0  0  0  0  0  0  0  0
    6.7748  -25.2935   49.6204 C   0  0  0  0  0  0  0  0  0  0  0  0
    6.8828  -26.7668   49.9211 C   0  0  0  0  0  0  0  0  0  0  0  0
    7.6203  -27.0897   51.1303 N   0  0  0  0  0  0  0  0  0  0  0  0
  1  2  1  0  0  0  0
  2  3  1  0  0  0  0
  3  4  1  0  0  0  0
  4  5  1  0  0  0  0
  5  6  1  0  0  0  0
  6  7  1  0  0  0  0
  7  8  1  0  0  0  0
  8  9  1  0  0  0  0
  9 10  1  0  0  0  0
 10 11  1  0  0  0  0
 11 12  1  0  0  0  0
 12 13  1  0  0  0  0
 13 14  1  0  0  0  0
M  END
>  <CHROM.1>
-176.61686246,-69.04947345,165.65694218,90.54124891,82.00680129,166.52845475
-129.35319927,66.29266426,146.81389810,-63.63528190,-64.51649572,3.87124982
-22.92821544,52.73052298,2.95859457,-1.00171981,2.00464146

>  <Name>
1xpf_lig

>  <RI>
0

>  <Rbt.Current_Directory>
/home/afrankz/demos/rdock_decoys_rna/rnas/1xpf

>  <Rbt.Executable>
rbdock ($Id: //depot/dev/client3/rdock/2013.1/src/exe/rbdock.cxx#4 $)

>  <Rbt.Library>
libRbt.so (2013.1, Build901 2013/11/27)

>  <Rbt.Parameter_File>
/export/apps/rDock/src/rDock_2013.1_src/data/scripts/dock_solv.prm

>  <Rbt.Receptor>
prm/blind_docking_60.prm

>  <SCORE>
-0.0492212

>  <SCORE.INTER>
3.53581

>  <SCORE.INTER.CONST>
1

>  <SCORE.INTER.POLAR>
0

>  <SCORE.INTER.ROT>
11

>  <SCORE.INTER.SOLV>
15.7932

>  <SCORE.INTER.VDW>
-13.8405

>  <SCORE.INTER.norm>
0.252558

>  <SCORE.INTRA>
-3.59134

>  <SCORE.INTRA.DIHEDRAL>
-8.23275

>  <SCORE.INTRA.DIHEDRAL.0>
17.7811

>  <SCORE.INTRA.POLAR>
0

>  <SCORE.INTRA.POLAR.0>
0

>  <SCORE.INTRA.REPUL>
0

>  <SCORE.INTRA.REPUL.0>
0

>  <SCORE.INTRA.SOLV>
1.7025

>  <SCORE.INTRA.SOLV.lig_0>
-47.9565

>  <SCORE.INTRA.VDW>
-0.326215

>  <SCORE.INTRA.VDW.0>
0.515983

>  <SCORE.INTRA.norm>
-0.256524

>  <SCORE.RESTR>
0.006309

>  <SCORE.RESTR.CAVITY>
0.006309

>  <SCORE.RESTR.norm>
0.000450643

>  <SCORE.SYSTEM>
0

>  <SCORE.SYSTEM.CONST>
0

>  <SCORE.SYSTEM.DIHEDRAL>
0

>  <SCORE.SYSTEM.SOLV>
0

>  <SCORE.SYSTEM.norm>
0

>  <SCORE.heavy>
14

>  <SCORE.norm>
-0.0035158

>  <RMSD>
29.890

$$$$
1xpf_lig
 OpenBabel02141814123D
libRbt.so/2013.1/901 2013/11/27
 14 13  0  0  0  0  0  0  0  0999 V2000
    7.2862  -27.0712   50.1413 N   0  0  0  0  0  0  0  0  0  0  0  0
    7.8573  -26.4970   48.9371 C   0  0  0  0  0  0  0  0  0  0  0  0
    7.9418  -25.0212   49.0403 C   0  0  0  0  0  0  0  0  0  0  0  0
    6.5365  -24.5075   48.9902 C   0  0  0  0  0  0  0  0  0  0  0  0
    5.9502  -24.7549   50.3303 N   0  0  0  0  0  0  0  0  0  0  0  0
    4.9043  -23.7335   50.6429 C   0  0  0  0  0  0  0  0  0  0  0  0
    4.1935  -23.9794   51.9850 C   0  0  0  0  0  0  0  0  0  0  0  0
    3.4025  -22.7658   52.5045 C   0  0  0  0  0  0  0  0  0  0  0  0
    2.7505  -23.1260   53.8309 C   0  0  0  0  0  0  0  0  0  0  0  0
    1.9222  -21.9599   54.1710 N   0  0  0  0  0  0  0  0  0  0  0  0
    2.4990  -20.9358   55.0864 C   0  0  0  0  0  0  0  0  0  0  0  0
    1.3914  -19.8615   55.0288 C   0  0  0  0  0  0  0  0  0  0  0  0
    1.5849  -18.5780   55.7956 C   0  0  0  0  0  0  0  0  0  0  0  0
    0.4791  -17.6405   55.7039 N   0  0  0  0  0  0  0  0  0  0  0  0
  1  2  1  0  0  0  0
  2  3  1  0  0  0  0
  3  4  1  0  0  0  0
  4  5  1  0  0  0  0
  5  6  1  0  0  0  0
  6  7  1  0  0  0  0
  7  8  1  0  0  0  0
  8  9  1  0  0  0  0
  9 10  1  0  0  0  0
 10 11  1  0  0  0  0
 11 12  1  0  0  0  0
 12 13  1  0  0  0  0
 13 14  1  0  0  0  0
M  END
>  <CHROM.1>
-69.82791447,76.99440303,150.90551999,176.55240782,164.38511663,-179.86027234
-174.63536415,-95.86327363,173.81693426,-177.78805936,-178.77822240,4.19293105
-22.88803177,52.29903439,0.56257474,-0.84987358,3.02384366

>  <Name>
1xpf_lig

>  <RI>
0

>  <Rbt.Current_Directory>
/home/afrankz/demos/rdock_decoys_rna/rnas/1xpf

>  <Rbt.Executable>
rbdock ($Id: //depot/dev/client3/rdock/2013.1/src/exe/rbdock.cxx#4 $)

>  <Rbt.Library>
libRbt.so (2013.1, Build901 2013/11/27)

>  <Rbt.Parameter_File>
/export/apps/rDock/src/rDock_2013.1_src/data/scripts/dock_solv.prm

>  <Rbt.Receptor>
prm/blind_docking_60.prm

>  <SCORE>
-3.89938

>  <SCORE.INTER>
3.21125

>  <SCORE.INTER.CONST>
1

>  <SCORE.INTER.POLAR>
0

>  <SCORE.INTER.ROT>
11

>  <SCORE.INTER.SOLV>
12.1124

>  <SCORE.INTER.VDW>
-12.83

>  <SCORE.INTER.norm>
0.229375

>  <SCORE.INTRA>
-7.11062

>  <SCORE.INTRA.DIHEDRAL>
-14.0028

>  <SCORE.INTRA.DIHEDRAL.0>
17.7811

>  <SCORE.INTRA.POLAR>
0

>  <SCORE.INTRA.POLAR.0>
0

>  <SCORE.INTRA.REPUL>
0

>  <SCORE.INTRA.REPUL.0>
0

>  <SCORE.INTRA.SOLV>
2.09967

>  <SCORE.INTRA.SOLV.lig_0>
-47.9565

>  <SCORE.INTRA.VDW>
-1.15906

>  <SCORE.INTRA.VDW.0>
0.515983

>  <SCORE.INTRA.norm>
-0.507902

>  <SCORE.RESTR>
0

>  <SCORE.RESTR.CAVITY>
0

>  <SCORE.RESTR.norm>
0

>  <SCORE.SYSTEM>
0

>  <SCORE.SYSTEM.CONST>
0

>  <SCORE.SYSTEM.DIHEDRAL>
0

>  <SCORE.SYSTEM.SOLV>
0

>  <SCORE.SYSTEM.norm>
0

>  <SCORE.heavy>
14

>  <SCORE.norm>
-0.278527

>  <RMSD>
29.907

$$$$
1xpf_lig
 OpenBabel02141814123D
libRbt.so/2013.1/901 2013/11/27
 14 13  0  0  0  0  0  0  0  0999 V2000
    1.3807  -19.3950   56.7285 N   0  0  0  0  0  0  0  0  0  0  0  0
    0.8570  -20.4777   55.9163 C   0  0  0  0  0  0  0  0  0  0  0  0
    1.4015  -21.7837   56.3563 C   0  0  0  0  0  0  0  0  0  0  0  0
    0.8259  -22.8181   55.4397 C   0  0  0  0  0  0  0  0  0  0  0  0
    1.4610  -22.6071   54.1158 N   0  0  0  0  0  0  0  0  0  0  0  0
    2.8196  -23.2299   54.0795 C   0  0  0  0  0  0  0  0  0  0  0  0
    3.5857  -22.9470   52.7757 C   0  0  0  0  0  0  0  0  0  0  0  0
    3.1472  -23.8251   51.5904 C   0  0  0  0  0  0  0  0  0  0  0  0
    3.9526  -23.4391   50.3589 C   0  0  0  0  0  0  0  0  0  0  0  0
    3.4905  -22.0859   50.0170 N   0  0  0  0  0  0  0  0  0  0  0  0
    3.7766  -21.5749   48.6471 C   0  0  0  0  0  0  0  0  0  0  0  0
    2.6614  -20.5155   48.5112 C   0  0  0  0  0  0  0  0  0  0  0  0
    2.6843  -19.3167   49.4251 C   0  0  0  0  0  0  0  0  0  0  0  0
    2.3487  -19.5994   50.8099 N   0  0  0  0  0  0  0  0  0  0  0  0
  1  2  1  0  0  0  0
  2  3  1  0  0  0  0
  3  4  1  0  0  0  0
  4  5  1  0  0  0  0
  5  6  1  0  0  0  0
  6  7  1  0  0  0  0
  7  8  1  0  0  0  0
  8  9  1  0  0  0  0
  9 10  1  0  0  0  0
 10 11  1  0  0  0  0
 11 12  1  0  0  0  0
 12 13  1  0  0  0  0
 13 14  1  0  0  0  0
M  END
>  <CHROM.1>
-178.73787641,70.01063977,80.61794837,-175.09862546,-78.76570876,178.99183320
-68.12753478,-162.26434024,156.27046184,64.81264293,-71.50127540,2.45674840
-21.68710554,52.48350415,2.40442805,-1.17022591,2.37627165

>  <Name>
1xpf_lig

>  <RI>
0

>  <Rbt.Current_Directory>
/home/afrankz/demos/rdock_decoys_rna/rnas/1xpf

>  <Rbt.Executable>
rbdock ($Id: //depot/dev/client3/rdock/2013.1/src/exe/rbdock.cxx#4 $)

>  <Rbt.Library>
libRbt.so (2013.1, Build901 2013/11/27)

>  <Rbt.Parameter_File>
/export/apps/rDock/src/rDock_2013.1_src/data/scripts/dock_solv.prm

>  <Rbt.Receptor>
prm/blind_docking_100.prm

>  <SCORE>
-4.56771

>  <SCORE.INTER>
1.49051

>  <SCORE.INTER.CONST>
1

>  <SCORE.INTER.POLAR>
-0.959166

>  <SCORE.INTER.ROT>
11

>  <SCORE.INTER.SOLV>
10.4832

>  <SCORE.INTER.VDW>
-10.2368

>  <SCORE.INTER.norm>
0.106465

>  <SCORE.INTRA>
-6.05931

>  <SCORE.INTRA.DIHEDRAL>
-14.3691

>  <SCORE.INTRA.DIHEDRAL.0>
17.7811

>  <SCORE.INTRA.POLAR>
0

>  <SCORE.INTRA.POLAR.0>
0

>  <SCORE.INTRA.REPUL>
0

>  <SCORE.INTRA.REPUL.0>
0

>  <SCORE.INTRA.SOLV>
3.74073

>  <SCORE.INTRA.SOLV.lig_0>
-47.9565

>  <SCORE.INTRA.VDW>
-0.74512

>  <SCORE.INTRA.VDW.0>
0.515983

>  <SCORE.INTRA.norm>
-0.432808

>  <SCORE.RESTR>
0.00108403

>  <SCORE.RESTR.CAVITY>
0.00108403

>  <SCORE.RESTR.norm>
7.74309e-05

>  <SCORE.SYSTEM>
0

>  <SCORE.SYSTEM.CONST>
0

>  <SCORE.SYSTEM.DIHEDRAL>
0

>  <SCORE.SYSTEM.SOLV>
0

>  <SCORE.SYSTEM.norm>
0

>  <SCORE.heavy>
14

>  <SCORE.norm>
-0.326265

>  <RMSD>
29.933

$$$$
1xpf_lig
 OpenBabel02141814123D
libRbt.so/2013.1/901 2013/11/27
 14 13  0  0  0  0  0  0  0  0999 V2000
   -0.1764  -16.7527   55.4400 N   0  0  0  0  0  0  0  0  0  0  0  0
    0.4723  -17.8776   54.7918 C   0  0  0  0  0  0  0  0  0  0  0  0
    1.3341  -18.6156   55.7449 C   0  0  0  0  0  0  0  0  0  0  0  0
    2.1305  -19.5908   54.9350 C   0  0  0  0  0  0  0  0  0  0  0  0
    1.1925  -20.6664   54.5300 N   0  0  0  0  0  0  0  0  0  0  0  0
    1.9088  -21.9739   54.4188 C   0  0  0  0  0  0  0  0  0  0  0  0
    3.0523  -21.9573   53.3897 C   0  0  0  0  0  0  0  0  0  0  0  0
    3.6727  -23.3402   53.1229 C   0  0  0  0  0  0  0  0  0  0  0  0
    2.7852  -24.1065   52.1538 C   0  0  0  0  0  0  0  0  0  0  0  0
    3.3858  -25.4460   52.0736 N   0  0  0  0  0  0  0  0  0  0  0  0
    3.7007  -25.9912   50.7234 C   0  0  0  0  0  0  0  0  0  0  0  0
    5.2409  -26.0610   50.8083 C   0  0  0  0  0  0  0  0  0  0  0  0
    5.9936  -26.8061   49.7353 C   0  0  0  0  0  0  0  0  0  0  0  0
    7.4401  -26.7552   49.8582 N   0  0  0  0  0  0  0  0  0  0  0  0
  1  2  1  0  0  0  0
  2  3  1  0  0  0  0
  3  4  1  0  0  0  0
  4  5  1  0  0  0  0
  5  6  1  0  0  0  0
  6  7  1  0  0  0  0
  7  8  1  0  0  0  0
  8  9  1  0  0  0  0
  9 10  1  0  0  0  0
 10 11  1  0  0  0  0
 11 12  1  0  0  0  0
 12 13  1  0  0  0  0
 13 14  1  0  0  0  0
M  END
>  <CHROM.1>
-170.31382387,-73.35109752,-148.46195806,-59.63186015,-172.07122896,80.26098111
-174.45357895,-127.39513805,114.64545025,168.70054852,176.74954186,3.00953255
-22.56723754,52.98040402,-2.06327757,-0.30072719,-2.76131584

>  <Name>
1xpf_lig

>  <RI>
0

>  <Rbt.Current_Directory>
/home/afrankz/demos/rdock_decoys_rna/rnas/1xpf

>  <Rbt.Executable>
rbdock ($Id: //depot/dev/client3/rdock/2013.1/src/exe/rbdock.cxx#4 $)

>  <Rbt.Library>
libRbt.so (2013.1, Build901 2013/11/27)

>  <Rbt.Parameter_File>
/export/apps/rDock/src/rDock_2013.1_src/data/scripts/dock_solv.prm

>  <Rbt.Receptor>
prm/blind_docking_60.prm

>  <SCORE>
-2.20865

>  <SCORE.INTER>
3.83258

>  <SCORE.INTER.CONST>
1

>  <SCORE.INTER.POLAR>
0

>  <SCORE.INTER.ROT>
11

>  <SCORE.INTER.SOLV>
11.8946

>  <SCORE.INTER.VDW>
-12.3431

>  <SCORE.INTER.norm>
0.273756

>  <SCORE.INTRA>
-6.06385

>  <SCORE.INTRA.DIHEDRAL>
-11.3804

>  <SCORE.INTRA.DIHEDRAL.0>
17.7811

>  <SCORE.INTRA.POLAR>
0

>  <SCORE.INTRA.POLAR.0>
0

>  <SCORE.INTRA.REPUL>
0

>  <SCORE.INTRA.REPUL.0>
0

>  <SCORE.INTRA.SOLV>
-0.335343

>  <SCORE.INTRA.SOLV.lig_0>
-47.9565

>  <SCORE.INTRA.VDW>
-0.205989

>  <SCORE.INTRA.VDW.0>
0.515983

>  <SCORE.INTRA.norm>
-0.433132

>  <SCORE.RESTR>
0.0226284

>  <SCORE.RESTR.CAVITY>
0.0226284

>  <SCORE.RESTR.norm>
0.00161631

>  <SCORE.SYSTEM>
0

>  <SCORE.SYSTEM.CONST>
0

>  <SCORE.SYSTEM.DIHEDRAL>
0

>  <SCORE.SYSTEM.SOLV>
0

>  <SCORE.SYSTEM.norm>
0

>  <SCORE.heavy>
14

>  <SCORE.norm>
-0.157761

>  <RMSD>
29.962

$$$$
1xpf_lig
 OpenBabel02141814123D
libRbt.so/2013.1/901 2013/11/27
 14 13  0  0  0  0  0  0  0  0999 V2000
    1.7016  -18.3508   56.7889 N   0  0  0  0  0  0  0  0  0  0  0  0
    0.9167  -18.3601   55.5683 C   0  0  0  0  0  0  0  0  0  0  0  0
    1.6208  -19.0918   54.4891 C   0  0  0  0  0  0  0  0  0  0  0  0
    1.7616  -20.5081   54.9535 C   0  0  0  0  0  0  0  0  0  0  0  0
    2.5050  -21.2275   53.8903 N   0  0  0  0  0  0  0  0  0  0  0  0
    2.5808  -22.6884   54.1987 C   0  0  0  0  0  0  0  0  0  0  0  0
    3.7033  -23.4149   53.4378 C   0  0  0  0  0  0  0  0  0  0  0  0
    3.8942  -22.9272   51.9907 C   0  0  0  0  0  0  0  0  0  0  0  0
    3.5271  -24.0508   51.0331 C   0  0  0  0  0  0  0  0  0  0  0  0
    4.8094  -24.6775   50.6803 N   0  0  0  0  0  0  0  0  0  0  0  0
    4.7764  -25.9406   49.8910 C   0  0  0  0  0  0  0  0  0  0  0  0
    5.8478  -26.7610   50.6415 C   0  0  0  0  0  0  0  0  0  0  0  0
    7.2741  -26.7080   50.1559 C   0  0  0  0  0  0  0  0  0  0  0  0
    7.4749  -25.9444   48.9366 N   0  0  0  0  0  0  0  0  0  0  0  0
  1  2  1  0  0  0  0
  2  3  1  0  0  0  0
  3  4  1  0  0  0  0
  4  5  1  0  0  0  0
  5  6  1  0  0  0  0
  6  7  1  0  0  0  0
  7  8  1  0  0  0  0
  8  9  1  0  0  0  0
  9 10  1  0  0  0  0
 10 11  1  0  0  0  0
 11 12  1  0  0  0  0
 12 13  1  0  0  0  0
 13 14  1  0  0  0  0
M  END
>  <CHROM.1>
62.84411085,-178.23005029,-174.41669317,-160.42244535,-38.31285514,-113.98517653
-97.23576430,171.86574259,-136.62564291,-92.28606880,-4.46225011,3.74224943
-22.90379941,52.61828931,3.06934188,1.08451506,-0.81326022

>  <Name>
1xpf_lig

>  <RI>
0

>  <Rbt.Current_Directory>
/home/afrankz/demos/rdock_decoys_rna/rnas/1xpf

>  <Rbt.Executable>
rbdock ($Id: //depot/dev/client3/rdock/2013.1/src/exe/rbdock.cxx#4 $)

>  <Rbt.Library>
libRbt.so (2013.1, Build901 2013/11/27)

>  <Rbt.Parameter_File>
/export/apps/rDock/src/rDock_2013.1_src/data/scripts/dock_solv.prm

>  <Rbt.Receptor>
prm/blind_docking_60.prm

>  <SCORE>
1.7499

>  <SCORE.INTER>
-0.796837

>  <SCORE.INTER.CONST>
1

>  <SCORE.INTER.POLAR>
-0.929408

>  <SCORE.INTER.ROT>
11

>  <SCORE.INTER.SOLV>
11.984

>  <SCORE.INTER.VDW>
-12.3612

>  <SCORE.INTER.norm>
-0.0569169

>  <SCORE.INTRA>
2.19378

>  <SCORE.INTRA.DIHEDRAL>
3.49678

>  <SCORE.INTRA.DIHEDRAL.0>
17.7811

>  <SCORE.INTRA.POLAR>
0

>  <SCORE.INTRA.POLAR.0>
0

>  <SCORE.INTRA.REPUL>
0

>  <SCORE.INTRA.REPUL.0>
0

>  <SCORE.INTRA.SOLV>
2.8385

>  <SCORE.INTRA.SOLV.lig_0>
-47.9565

>  <SCORE.INTRA.VDW>
-0.973859

>  <SCORE.INTRA.VDW.0>
0.515983

>  <SCORE.INTRA.norm>
0.156699

>  <SCORE.RESTR>
0.352954

>  <SCORE.RESTR.CAVITY>
0.352954

>  <SCORE.RESTR.norm>
0.025211

>  <SCORE.SYSTEM>
0

>  <SCORE.SYSTEM.CONST>
0

>  <SCORE.SYSTEM.DIHEDRAL>
0

>  <SCORE.SYSTEM.SOLV>
0

>  <SCORE.SYSTEM.norm>
0

>  <SCORE.heavy>
14

>  <SCORE.norm>
0.124993

>  <RMSD>
29.975

$$$$
1xpf_lig
 OpenBabel02141814123D
libRbt.so/2013.1/901 2013/11/27
 14 13  0  0  0  0  0  0  0  0999 V2000
    0.5118  -17.6985   55.7533 N   0  0  0  0  0  0  0  0  0  0  0  0
    0.5822  -18.9019   54.9453 C   0  0  0  0  0  0  0  0  0  0  0  0
    1.9529  -19.4650   54.9485 C   0  0  0  0  0  0  0  0  0  0  0  0
    1.9401  -20.6277   54.0056 C   0  0  0  0  0  0  0  0  0  0  0  0
    3.3105  -21.1958   54.0197 N   0  0  0  0  0  0  0  0  0  0  0  0
    3.4709  -22.2078   52.9310 C   0  0  0  0  0  0  0  0  0  0  0  0
    2.8249  -23.5648   53.2597 C   0  0  0  0  0  0  0  0  0  0  0  0
    2.4788  -24.4085   52.0200 C   0  0  0  0  0  0  0  0  0  0  0  0
    3.6934  -25.2344   51.6238 C   0  0  0  0  0  0  0  0  0  0  0  0
    4.6644  -24.2543   51.1158 N   0  0  0  0  0  0  0  0  0  0  0  0
    4.9460  -24.2428   49.6529 C   0  0  0  0  0  0  0  0  0  0  0  0
    5.7093  -25.5775   49.5101 C   0  0  0  0  0  0  0  0  0  0  0  0
    7.1109  -25.6737   50.0571 C   0  0  0  0  0  0  0  0  0  0  0  0
    8.1097  -24.9307   49.3084 N   0  0  0  0  0  0  0  0  0  0  0  0
  1  2  1  0  0  0  0
  2  3  1  0  0  0  0
  3  4  1  0  0  0  0
  4  5  1  0  0  0  0
  5  6  1  0  0  0  0
  6  7  1  0  0  0  0
  7  8  1  0  0  0  0
  8  9  1  0  0  0  0
  9 10  1  0  0  0  0
 10 11  1  0  0  0  0
 11 12  1  0  0  0  0
 12 13  1  0  0  0  0
 13 14  1  0  0  0  0
M  END
>  <CHROM.1>
-175.53782200,-179.54416382,-169.88310925,-77.40753319,157.05102028,87.00448213
-69.52813873,-109.33368124,-69.72960865,-72.00812638,-71.19635773,3.66448916
-22.71339175,52.36787283,-2.19423214,-0.43497438,-2.73717429

>  <Name>
1xpf_lig

>  <RI>
0

>  <Rbt.Current_Directory>
/home/afrankz/demos/rdock_decoys_rna/rnas/1xpf

>  <Rbt.Executable>
rbdock ($Id: //depot/dev/client3/rdock/2013.1/src/exe/rbdock.cxx#4 $)

>  <Rbt.Library>
libRbt.so (2013.1, Build901 2013/11/27)

>  <Rbt.Parameter_File>
/export/apps/rDock/src/rDock_2013.1_src/data/scripts/dock_solv.prm

>  <Rbt.Receptor>
prm/blind_docking_60.prm

>  <SCORE>
0.292299

>  <SCORE.INTER>
4.62383

>  <SCORE.INTER.CONST>
1

>  <SCORE.INTER.POLAR>
0

>  <SCORE.INTER.ROT>
11

>  <SCORE.INTER.SOLV>
14.0855

>  <SCORE.INTER.VDW>
-12.5459

>  <SCORE.INTER.norm>
0.330274

>  <SCORE.INTRA>
-4.33834

>  <SCORE.INTRA.DIHEDRAL>
-10.5345

>  <SCORE.INTRA.DIHEDRAL.0>
17.7811

>  <SCORE.INTRA.POLAR>
0

>  <SCORE.INTRA.POLAR.0>
0

>  <SCORE.INTRA.REPUL>
0

>  <SCORE.INTRA.REPUL.0>
0

>  <SCORE.INTRA.SOLV>
1.20358

>  <SCORE.INTRA.SOLV.lig_0>
-47.9565

>  <SCORE.INTRA.VDW>
0.327122

>  <SCORE.INTRA.VDW.0>
0.515983

>  <SCORE.INTRA.norm>
-0.309881

>  <SCORE.RESTR>
0.00680415

>  <SCORE.RESTR.CAVITY>
0.00680415

>  <SCORE.RESTR.norm>
0.000486011

>  <SCORE.SYSTEM>
0

>  <SCORE.SYSTEM.CONST>
0

>  <SCORE.SYSTEM.DIHEDRAL>
0

>  <SCORE.SYSTEM.SOLV>
0

>  <SCORE.SYSTEM.norm>
0

>  <SCORE.heavy>
14

>  <SCORE.norm>
0.0208785

>  <RMSD>
29.986

$$$$
1xpf_lig
 OpenBabel02141814123D
libRbt.so/2013.1/901 2013/11/27
 14 13  0  0  0  0  0  0  0  0999 V2000
    9.3499  -25.6037   48.6122 N   0  0  0  0  0  0  0  0  0  0  0  0
    7.9623  -26.0150   48.7205 C   0  0  0  0  0  0  0  0  0  0  0  0
    7.3132  -25.3906   49.8972 C   0  0  0  0  0  0  0  0  0  0  0  0
    5.8656  -25.7680   49.8379 C   0  0  0  0  0  0  0  0  0  0  0  0
    5.2278  -25.1798   51.0411 N   0  0  0  0  0  0  0  0  0  0  0  0
    3.8408  -24.7182   50.7280 C   0  0  0  0  0  0  0  0  0  0  0  0
    2.9366  -24.6180   51.9687 C   0  0  0  0  0  0  0  0  0  0  0  0
    3.4708  -23.6689   53.0560 C   0  0  0  0  0  0  0  0  0  0  0  0
    3.4402  -22.2414   52.5309 C   0  0  0  0  0  0  0  0  0  0  0  0
    3.2310  -21.4072   53.7233 N   0  0  0  0  0  0  0  0  0  0  0  0
    2.0062  -20.5607   53.7780 C   0  0  0  0  0  0  0  0  0  0  0  0
    2.1126  -20.0173   55.2194 C   0  0  0  0  0  0  0  0  0  0  0  0
    1.3975  -18.7363   55.5665 C   0  0  0  0  0  0  0  0  0  0  0  0
    1.6763  -18.2236   56.8967 N   0  0  0  0  0  0  0  0  0  0  0  0
  1  2  1  0  0  0  0
  2  3  1  0  0  0  0
  3  4  1  0  0  0  0
  4  5  1  0  0  0  0
  5  6  1  0  0  0  0
  6  7  1  0  0  0  0
  7  8  1  0  0  0  0
  8  9  1  0  0  0  0
  9 10  1  0  0  0  0
 10 11  1  0  0  0  0
 11 12  1  0  0  0  0
 12 13  1  0  0  0  0
 13 14  1  0  0  0  0
M  END
>  <CHROM.1>
174.50036910,178.14364447,144.17339368,157.36624770,58.32673540,66.91718315
149.84902977,-119.25046013,173.60051850,157.28243097,-173.35592334,4.27338157
-23.01078339,52.25532913,-0.97594202,0.31025395,0.56368593

>  <Name>
1xpf_lig

>  <RI>
0

>  <Rbt.Current_Directory>
/home/afrankz/demos/rdock_decoys_rna/rnas/1xpf

>  <Rbt.Executable>
rbdock ($Id: //depot/dev/client3/rdock/2013.1/src/exe/rbdock.cxx#4 $)

>  <Rbt.Library>
libRbt.so (2013.1, Build901 2013/11/27)

>  <Rbt.Parameter_File>
/export/apps/rDock/src/rDock_2013.1_src/data/scripts/dock_solv.prm

>  <Rbt.Receptor>
prm/blind_docking_60.prm

>  <SCORE>
-5.3805

>  <SCORE.INTER>
0.765225

>  <SCORE.INTER.CONST>
1

>  <SCORE.INTER.POLAR>
-0.824459

>  <SCORE.INTER.ROT>
11

>  <SCORE.INTER.SOLV>
17.7158

>  <SCORE.INTER.VDW>
-13.5802

>  <SCORE.INTER.norm>
0.054659

>  <SCORE.INTRA>
-6.64192

>  <SCORE.INTRA.DIHEDRAL>
-10.3778

>  <SCORE.INTRA.DIHEDRAL.0>
17.7811

>  <SCORE.INTRA.POLAR>
0

>  <SCORE.INTRA.POLAR.0>
0

>  <SCORE.INTRA.REPUL>
0

>  <SCORE.INTRA.REPUL.0>
0

>  <SCORE.INTRA.SOLV>
-0.231341

>  <SCORE.INTRA.SOLV.lig_0>
-47.9565

>  <SCORE.INTRA.VDW>
-1.33734

>  <SCORE.INTRA.VDW.0>
0.515983

>  <SCORE.INTRA.norm>
-0.474423

>  <SCORE.RESTR>
0.496202

>  <SCORE.RESTR.CAVITY>
0.496202

>  <SCORE.RESTR.norm>
0.035443

>  <SCORE.SYSTEM>
0

>  <SCORE.SYSTEM.CONST>
0

>  <SCORE.SYSTEM.DIHEDRAL>
0

>  <SCORE.SYSTEM.SOLV>
0

>  <SCORE.SYSTEM.norm>
0

>  <SCORE.heavy>
14

>  <SCORE.norm>
-0.384321

>  <RMSD>
29.992

$$$$
1xpf_lig
 OpenBabel02141814123D
libRbt.so/2013.1/901 2013/11/27
 14 13  0  0  0  0  0  0  0  0999 V2000
    9.1239  -25.6263   48.5781 N   0  0  0  0  0  0  0  0  0  0  0  0
    7.8371  -24.9789   48.4015 C   0  0  0  0  0  0  0  0  0  0  0  0
    6.9112  -25.3267   49.5048 C   0  0  0  0  0  0  0  0  0  0  0  0
    5.5864  -24.7212   49.1588 C   0  0  0  0  0  0  0  0  0  0  0  0
    4.6506  -25.1091   50.2425 N   0  0  0  0  0  0  0  0  0  0  0  0
    4.6090  -24.0560   51.3028 C   0  0  0  0  0  0  0  0  0  0  0  0
    3.3793  -24.1632   52.2210 C   0  0  0  0  0  0  0  0  0  0  0  0
    3.3355  -23.1002   53.3330 C   0  0  0  0  0  0  0  0  0  0  0  0
    2.0055  -23.1986   54.0649 C   0  0  0  0  0  0  0  0  0  0  0  0
    2.0033  -22.0595   54.9945 N   0  0  0  0  0  0  0  0  0  0  0  0
    1.8134  -20.6950   54.4276 C   0  0  0  0  0  0  0  0  0  0  0  0
    1.6148  -19.8837   55.7263 C   0  0  0  0  0  0  0  0  0  0  0  0
    1.5110  -18.3824   55.6352 C   0  0  0  0  0  0  0  0  0  0  0  0
    0.3839  -17.8953   54.8589 N   0  0  0  0  0  0  0  0  0  0  0  0
  1  2  1  0  0  0  0
  2  3  1  0  0  0  0
  3  4  1  0  0  0  0
  4  5  1  0  0  0  0
  5  6  1  0  0  0  0
  6  7  1  0  0  0  0
  7  8  1  0  0  0  0
  8  9  1  0  0  0  0
  9 10  1  0  0  0  0
 10 11  1  0  0  0  0
 11 12  1  0  0  0  0
 12 13  1  0  0  0  0
 13 14  1  0  0  0  0
M  END
>  <CHROM.1>
-174.64853631,178.16377646,92.92977676,162.37680093,178.99489495,173.23915110
-173.94512426,72.92609674,169.94683244,174.30586156,61.84740237,3.91172583
-22.79977903,52.31789740,-0.70227009,0.71475809,0.17138424

>  <Name>
1xpf_lig

>  <RI>
0

>  <Rbt.Current_Directory>
/home/afrankz/demos/rdock_decoys_rna/rnas/1xpf

>  <Rbt.Executable>
rbdock ($Id: //depot/dev/client3/rdock/2013.1/src/exe/rbdock.cxx#4 $)

>  <Rbt.Library>
libRbt.so (2013.1, Build901 2013/11/27)

>  <Rbt.Parameter_File>
/export/apps/rDock/src/rDock_2013.1_src/data/scripts/dock_solv.prm

>  <Rbt.Receptor>
prm/blind_docking_60.prm

>  <SCORE>
-5.75141

>  <SCORE.INTER>
3.25109

>  <SCORE.INTER.CONST>
1

>  <SCORE.INTER.POLAR>
0

>  <SCORE.INTER.ROT>
11

>  <SCORE.INTER.SOLV>
11.7207

>  <SCORE.INTER.VDW>
-12.6728

>  <SCORE.INTER.norm>
0.232221

>  <SCORE.INTRA>
-9.01398

>  <SCORE.INTRA.DIHEDRAL>
-16.0519

>  <SCORE.INTRA.DIHEDRAL.0>
17.7811

>  <SCORE.INTRA.POLAR>
0

>  <SCORE.INTRA.POLAR.0>
0

>  <SCORE.INTRA.REPUL>
0

>  <SCORE.INTRA.REPUL.0>
0

>  <SCORE.INTRA.SOLV>
-0.361157

>  <SCORE.INTRA.SOLV.lig_0>
-47.9565

>  <SCORE.INTRA.VDW>
-0.807431

>  <SCORE.INTRA.VDW.0>
0.515983

>  <SCORE.INTRA.norm>
-0.643856

>  <SCORE.RESTR>
0.0114771

>  <SCORE.RESTR.CAVITY>
0.0114771

>  <SCORE.RESTR.norm>
0.000819796

>  <SCORE.SYSTEM>
0

>  <SCORE.SYSTEM.CONST>
0

>  <SCORE.SYSTEM.DIHEDRAL>
0

>  <SCORE.SYSTEM.SOLV>
0

>  <SCORE.SYSTEM.norm>
0

>  <SCORE.heavy>
14

>  <SCORE.norm>
-0.410815

>  <RMSD>
30.013

$$$$
1xpf_lig
 OpenBabel02141814123D
libRbt.so/2013.1/901 2013/11/27
 14 13  0  0  0  0  0  0  0  0999 V2000
    8.1469  -24.6644   48.3435 N   0  0  0  0  0  0  0  0  0  0  0  0
    6.8272  -24.8824   48.9066 C   0  0  0  0  0  0  0  0  0  0  0  0
    6.9044  -25.6965   50.1423 C   0  0  0  0  0  0  0  0  0  0  0  0
    5.5019  -26.0984   50.4783 C   0  0  0  0  0  0  0  0  0  0  0  0
    4.8049  -24.8651   50.9187 N   0  0  0  0  0  0  0  0  0  0  0  0
    3.4074  -25.1765   51.3485 C   0  0  0  0  0  0  0  0  0  0  0  0
    2.7523  -24.0451   52.1595 C   0  0  0  0  0  0  0  0  0  0  0  0
    3.5182  -23.6706   53.4408 C   0  0  0  0  0  0  0  0  0  0  0  0
    2.5290  -23.1834   54.4888 C   0  0  0  0  0  0  0  0  0  0  0  0
    2.2559  -21.7851   54.1260 N   0  0  0  0  0  0  0  0  0  0  0  0
    1.4777  -20.9531   55.0860 C   0  0  0  0  0  0  0  0  0  0  0  0
    1.8360  -19.5399   54.5772 C   0  0  0  0  0  0  0  0  0  0  0  0
    1.3359  -18.3435   55.3462 C   0  0  0  0  0  0  0  0  0  0  0  0
    1.8647  -18.2204   56.6936 N   0  0  0  0  0  0  0  0  0  0  0  0
  1  2  1  0  0  0  0
  2  3  1  0  0  0  0
  3  4  1  0  0  0  0
  4  5  1  0  0  0  0
  5  6  1  0  0  0  0
  6  7  1  0  0  0  0
  7  8  1  0  0  0  0
  8  9  1  0  0  0  0
  9 10  1  0  0  0  0
 10 11  1  0  0  0  0
 11 12  1  0  0  0  0
 12 13  1  0  0  0  0
 13 14  1  0  0  0  0
M  END
>  <CHROM.1>
-168.55648885,-69.97059033,-176.98435656,164.58541215,-58.57457115,-149.31034099
-80.53373813,-170.71632377,161.74985153,-175.26370923,64.25579754,3.79712160
-22.93769297,52.57545438,-0.86369613,0.67995764,0.29633730

>  <Name>
1xpf_lig

>  <RI>
0

>  <Rbt.Current_Directory>
/home/afrankz/demos/rdock_decoys_rna/rnas/1xpf

>  <Rbt.Executable>
rbdock ($Id: //depot/dev/client3/rdock/2013.1/src/exe/rbdock.cxx#4 $)

>  <Rbt.Library>
libRbt.so (2013.1, Build901 2013/11/27)

>  <Rbt.Parameter_File>
/export/apps/rDock/src/rDock_2013.1_src/data/scripts/dock_solv.prm

>  <Rbt.Receptor>
prm/blind_docking_60.prm

>  <SCORE>
-7.5804

>  <SCORE.INTER>
-0.889178

>  <SCORE.INTER.CONST>
1

>  <SCORE.INTER.POLAR>
-0.817068

>  <SCORE.INTER.ROT>
11

>  <SCORE.INTER.SOLV>
15.8157

>  <SCORE.INTER.VDW>
-14.0745

>  <SCORE.INTER.norm>
-0.0635127

>  <SCORE.INTRA>
-6.8844

>  <SCORE.INTRA.DIHEDRAL>
-11.6387

>  <SCORE.INTRA.DIHEDRAL.0>
17.7811

>  <SCORE.INTRA.POLAR>
0

>  <SCORE.INTRA.POLAR.0>
0

>  <SCORE.INTRA.REPUL>
0

>  <SCORE.INTRA.REPUL.0>
0

>  <SCORE.INTRA.SOLV>
0.80567

>  <SCORE.INTRA.SOLV.lig_0>
-47.9565

>  <SCORE.INTRA.VDW>
-1.46786

>  <SCORE.INTRA.VDW.0>
0.515983

>  <SCORE.INTRA.norm>
-0.491743

>  <SCORE.RESTR>
0.193177

>  <SCORE.RESTR.CAVITY>
0.193177

>  <SCORE.RESTR.norm>
0.0137983

>  <SCORE.SYSTEM>
0

>  <SCORE.SYSTEM.CONST>
0

>  <SCORE.SYSTEM.DIHEDRAL>
0

>  <SCORE.SYSTEM.SOLV>
0

>  <SCORE.SYSTEM.norm>
0

>  <SCORE.heavy>
14

>  <SCORE.norm>
-0.541457

>  <RMSD>
30.046

$$$$
1xpf_lig
 OpenBabel02141814123D
libRbt.so/2013.1/901 2013/11/27
 14 13  0  0  0  0  0  0  0  0999 V2000
    6.9812  -27.4390   49.4788 N   0  0  0  0  0  0  0  0  0  0  0  0
    7.7818  -26.2292   49.4394 C   0  0  0  0  0  0  0  0  0  0  0  0
    7.2185  -25.1897   50.3327 C   0  0  0  0  0  0  0  0  0  0  0  0
    5.9047  -24.7832   49.7411 C   0  0  0  0  0  0  0  0  0  0  0  0
    5.3914  -23.6724   50.5798 N   0  0  0  0  0  0  0  0  0  0  0  0
    4.0558  -24.0211   51.1537 C   0  0  0  0  0  0  0  0  0  0  0  0
    3.8136  -23.4154   52.5470 C   0  0  0  0  0  0  0  0  0  0  0  0
    2.4547  -23.7913   53.1640 C   0  0  0  0  0  0  0  0  0  0  0  0
    2.3785  -23.2364   54.5784 C   0  0  0  0  0  0  0  0  0  0  0  0
    2.3368  -21.7768   54.4074 N   0  0  0  0  0  0  0  0  0  0  0  0
    1.9224  -20.9479   55.5739 C   0  0  0  0  0  0  0  0  0  0  0  0
    2.0811  -19.5334   54.9754 C   0  0  0  0  0  0  0  0  0  0  0  0
    1.0804  -19.0628   53.9506 C   0  0  0  0  0  0  0  0  0  0  0  0
   -0.1451  -18.5124   54.5032 N   0  0  0  0  0  0  0  0  0  0  0  0
  1  2  1  0  0  0  0
  2  3  1  0  0  0  0
  3  4  1  0  0  0  0
  4  5  1  0  0  0  0
  5  6  1  0  0  0  0
  6  7  1  0  0  0  0
  7  8  1  0  0  0  0
  8  9  1  0  0  0  0
  9 10  1  0  0  0  0
 10 11  1  0  0  0  0
 11 12  1  0  0  0  0
 12 13  1  0  0  0  0
 13 14  1  0  0  0  0
M  END
>  <CHROM.1>
-67.00061072,-175.85336704,-121.51787933,147.13578264,-178.73025559,175.26115524
67.61873086,165.07924149,177.65242439,72.50473920,83.57404138,3.80405863
-22.97226554,52.45903195,0.36107190,-0.89398039,2.71428094

>  <Name>
1xpf_lig

>  <RI>
0

>  <Rbt.Current_Directory>
/home/afrankz/demos/rdock_decoys_rna/rnas/1xpf

>  <Rbt.Executable>
rbdock ($Id: //depot/dev/client3/rdock/2013.1/src/exe/rbdock.cxx#4 $)

>  <Rbt.Library>
libRbt.so (2013.1, Build901 2013/11/27)

>  <Rbt.Parameter_File>
/export/apps/rDock/src/rDock_2013.1_src/data/scripts/dock_solv.prm

>  <Rbt.Receptor>
prm/blind_docking_60.prm

>  <SCORE>
-2.75565

>  <SCORE.INTER>
4.05914

>  <SCORE.INTER.CONST>
1

>  <SCORE.INTER.POLAR>
0

>  <SCORE.INTER.ROT>
11

>  <SCORE.INTER.SOLV>
11.8418

>  <SCORE.INTER.VDW>
-12.1745

>  <SCORE.INTER.norm>
0.289939

>  <SCORE.INTRA>
-6.95098

>  <SCORE.INTRA.DIHEDRAL>
-12.7306

>  <SCORE.INTRA.DIHEDRAL.0>
17.7811

>  <SCORE.INTRA.POLAR>
0

>  <SCORE.INTRA.POLAR.0>
0

>  <SCORE.INTRA.REPUL>
0

>  <SCORE.INTRA.REPUL.0>
0

>  <SCORE.INTRA.SOLV>
1.35507

>  <SCORE.INTRA.SOLV.lig_0>
-47.9565

>  <SCORE.INTRA.VDW>
-1.26321

>  <SCORE.INTRA.VDW.0>
0.515983

>  <SCORE.INTRA.norm>
-0.496498

>  <SCORE.RESTR>
0.136186

>  <SCORE.RESTR.CAVITY>
0.136186

>  <SCORE.RESTR.norm>
0.00972755

>  <SCORE.SYSTEM>
0

>  <SCORE.SYSTEM.CONST>
0

>  <SCORE.SYSTEM.DIHEDRAL>
0

>  <SCORE.SYSTEM.SOLV>
0

>  <SCORE.SYSTEM.norm>
0

>  <SCORE.heavy>
14

>  <SCORE.norm>
-0.196832

>  <RMSD>
30.075

$$$$
1xpf_lig
 OpenBabel02141814123D
libRbt.so/2013.1/901 2013/11/27
 14 13  0  0  0  0  0  0  0  0999 V2000
    7.9948  -26.0566   48.4610 N   0  0  0  0  0  0  0  0  0  0  0  0
    7.8697  -24.9243   49.3601 C   0  0  0  0  0  0  0  0  0  0  0  0
    6.9704  -25.2428   50.4940 C   0  0  0  0  0  0  0  0  0  0  0  0
    5.5969  -25.4006   49.9197 C   0  0  0  0  0  0  0  0  0  0  0  0
    4.6662  -25.4849   51.0718 N   0  0  0  0  0  0  0  0  0  0  0  0
    3.4663  -24.6233   50.8421 C   0  0  0  0  0  0  0  0  0  0  0  0
    2.7004  -24.2873   52.1334 C   0  0  0  0  0  0  0  0  0  0  0  0
    3.5391  -23.5295   53.1778 C   0  0  0  0  0  0  0  0  0  0  0  0
    2.6641  -23.2035   54.3788 C   0  0  0  0  0  0  0  0  0  0  0  0
    2.0844  -21.8871   54.0748 N   0  0  0  0  0  0  0  0  0  0  0  0
    1.5646  -21.0733   55.2093 C   0  0  0  0  0  0  0  0  0  0  0  0
    1.6385  -19.6608   54.5901 C   0  0  0  0  0  0  0  0  0  0  0  0
    1.1932  -18.4817   55.4174 C   0  0  0  0  0  0  0  0  0  0  0  0
    2.0038  -18.2221   56.5945 N   0  0  0  0  0  0  0  0  0  0  0  0
  1  2  1  0  0  0  0
  2  3  1  0  0  0  0
  3  4  1  0  0  0  0
  4  5  1  0  0  0  0
  5  6  1  0  0  0  0
  6  7  1  0  0  0  0
  7  8  1  0  0  0  0
  8  9  1  0  0  0  0
  9 10  1  0  0  0  0
 10 11  1  0  0  0  0
 11 12  1  0  0  0  0
 12 13  1  0  0  0  0
 13 14  1  0  0  0  0
M  END
>  <CHROM.1>
-67.42831286,-170.43453664,135.01217056,-160.95359273,60.05049865,177.65253627
-90.12155915,-159.38033205,156.98330020,179.99918521,64.96799236,3.85360129
-23.00557420,52.55178870,-0.94589371,0.46009606,0.46724601

>  <Name>
1xpf_lig

>  <RI>
0

>  <Rbt.Current_Directory>
/home/afrankz/demos/rdock_decoys_rna/rnas/1xpf

>  <Rbt.Executable>
rbdock ($Id: //depot/dev/client3/rdock/2013.1/src/exe/rbdock.cxx#4 $)

>  <Rbt.Library>
libRbt.so (2013.1, Build901 2013/11/27)

>  <Rbt.Parameter_File>
/export/apps/rDock/src/rDock_2013.1_src/data/scripts/dock_solv.prm

>  <Rbt.Receptor>
prm/blind_docking_60.prm

>  <SCORE>
-7.38141

>  <SCORE.INTER>
-0.187683

>  <SCORE.INTER.CONST>
1

>  <SCORE.INTER.POLAR>
-0.736734

>  <SCORE.INTER.ROT>
11

>  <SCORE.INTER.SOLV>
13.7581

>  <SCORE.INTER.VDW>
-13.1887

>  <SCORE.INTER.norm>
-0.0134059

>  <SCORE.INTRA>
-7.19373

>  <SCORE.INTRA.DIHEDRAL>
-12.3415

>  <SCORE.INTRA.DIHEDRAL.0>
17.7811

>  <SCORE.INTRA.POLAR>
0

>  <SCORE.INTRA.POLAR.0>
0

>  <SCORE.INTRA.REPUL>
0

>  <SCORE.INTRA.REPUL.0>
0

>  <SCORE.INTRA.SOLV>
1.12399

>  <SCORE.INTRA.SOLV.lig_0>
-47.9565

>  <SCORE.INTRA.VDW>
-1.58497

>  <SCORE.INTRA.VDW.0>
0.515983

>  <SCORE.INTRA.norm>
-0.513838

>  <SCORE.RESTR>
0

>  <SCORE.RESTR.CAVITY>
0

>  <SCORE.RESTR.norm>
0

>  <SCORE.SYSTEM>
0

>  <SCORE.SYSTEM.CONST>
0

>  <SCORE.SYSTEM.DIHEDRAL>
0

>  <SCORE.SYSTEM.SOLV>
0

>  <SCORE.SYSTEM.norm>
0

>  <SCORE.heavy>
14

>  <SCORE.norm>
-0.527243

>  <RMSD>
30.076

$$$$
1xpf_lig
 OpenBabel02141814123D
libRbt.so/2013.1/901 2013/11/27
 14 13  0  0  0  0  0  0  0  0999 V2000
    0.6388  -17.6788   55.4942 N   0  0  0  0  0  0  0  0  0  0  0  0
    1.5229  -18.7814   55.8240 C   0  0  0  0  0  0  0  0  0  0  0  0
    1.4526  -19.8452   54.7948 C   0  0  0  0  0  0  0  0  0  0  0  0
    2.2754  -20.9878   55.3034 C   0  0  0  0  0  0  0  0  0  0  0  0
    2.2166  -22.0442   54.2636 N   0  0  0  0  0  0  0  0  0  0  0  0
    3.4938  -22.0896   53.4879 C   0  0  0  0  0  0  0  0  0  0  0  0
    3.8414  -23.4948   52.9669 C   0  0  0  0  0  0  0  0  0  0  0  0
    2.8935  -24.0054   51.8672 C   0  0  0  0  0  0  0  0  0  0  0  0
    3.2990  -25.4184   51.4757 C   0  0  0  0  0  0  0  0  0  0  0  0
    4.6339  -25.2737   50.8769 N   0  0  0  0  0  0  0  0  0  0  0  0
    5.3382  -26.5090   50.4324 C   0  0  0  0  0  0  0  0  0  0  0  0
    6.7198  -25.9218   50.0709 C   0  0  0  0  0  0  0  0  0  0  0  0
    6.8206  -24.9663   48.9091 C   0  0  0  0  0  0  0  0  0  0  0  0
    8.1770  -24.6351   48.5082 N   0  0  0  0  0  0  0  0  0  0  0  0
  1  2  1  0  0  0  0
  2  3  1  0  0  0  0
  3  4  1  0  0  0  0
  4  5  1  0  0  0  0
  5  6  1  0  0  0  0
  6  7  1  0  0  0  0
  7  8  1  0  0  0  0
  8  9  1  0  0  0  0
  9 10  1  0  0  0  0
 10 11  1  0  0  0  0
 11 12  1  0  0  0  0
 12 13  1  0  0  0  0
 13 14  1  0  0  0  0
M  END
>  <CHROM.1>
-173.84590513,-179.31765885,103.97294640,149.36739839,68.58892291,-177.63481690
-65.09895989,177.64383987,-172.62902334,-66.10900891,-170.52896720,3.80877774
-22.97533266,52.44828789,-2.25915007,-0.64560498,-2.85836491

>  <Name>
1xpf_lig

>  <RI>
0

>  <Rbt.Current_Directory>
/home/afrankz/demos/rdock_decoys_rna/rnas/1xpf

>  <Rbt.Executable>
rbdock ($Id: //depot/dev/client3/rdock/2013.1/src/exe/rbdock.cxx#4 $)

>  <Rbt.Library>
libRbt.so (2013.1, Build901 2013/11/27)

>  <Rbt.Parameter_File>
/export/apps/rDock/src/rDock_2013.1_src/data/scripts/dock_solv.prm

>  <Rbt.Receptor>
prm/blind_docking_60.prm

>  <SCORE>
-7.09952

>  <SCORE.INTER>
1.67915

>  <SCORE.INTER.CONST>
1

>  <SCORE.INTER.POLAR>
0

>  <SCORE.INTER.ROT>
11

>  <SCORE.INTER.SOLV>
12.7594

>  <SCORE.INTER.VDW>
-14.067

>  <SCORE.INTER.norm>
0.119939

>  <SCORE.INTRA>
-8.7843

>  <SCORE.INTRA.DIHEDRAL>
-15.0997

>  <SCORE.INTRA.DIHEDRAL.0>
17.7811

>  <SCORE.INTRA.POLAR>
0

>  <SCORE.INTRA.POLAR.0>
0

>  <SCORE.INTRA.REPUL>
0

>  <SCORE.INTRA.REPUL.0>
0

>  <SCORE.INTRA.SOLV>
0.217337

>  <SCORE.INTRA.SOLV.lig_0>
-47.9565

>  <SCORE.INTRA.VDW>
-1.3431

>  <SCORE.INTRA.VDW.0>
0.515983

>  <SCORE.INTRA.norm>
-0.62745

>  <SCORE.RESTR>
0.00563607

>  <SCORE.RESTR.CAVITY>
0.00563607

>  <SCORE.RESTR.norm>
0.000402577

>  <SCORE.SYSTEM>
0

>  <SCORE.SYSTEM.CONST>
0

>  <SCORE.SYSTEM.DIHEDRAL>
0

>  <SCORE.SYSTEM.SOLV>
0

>  <SCORE.SYSTEM.norm>
0

>  <SCORE.heavy>
14

>  <SCORE.norm>
-0.507109

>  <RMSD>
30.105

$$$$
1xpf_lig
 OpenBabel02141814123D
libRbt.so/2013.1/901 2013/11/27
 14 13  0  0  0  0  0  0  0  0999 V2000
    7.8986  -28.5757   49.4508 N   0  0  0  0  0  0  0  0  0  0  0  0
    7.7794  -27.1836   49.8432 C   0  0  0  0  0  0  0  0  0  0  0  0
    6.4995  -26.9379   50.5485 C   0  0  0  0  0  0  0  0  0  0  0  0
    6.2444  -25.4647   50.4714 C   0  0  0  0  0  0  0  0  0  0  0  0
    4.9189  -25.2340   51.0963 N   0  0  0  0  0  0  0  0  0  0  0  0
    4.4421  -23.8445   50.8192 C   0  0  0  0  0  0  0  0  0  0  0  0
    3.3397  -23.3742   51.7839 C   0  0  0  0  0  0  0  0  0  0  0  0
    3.7129  -23.5065   53.2711 C   0  0  0  0  0  0  0  0  0  0  0  0
    2.4745  -23.2613   54.1199 C   0  0  0  0  0  0  0  0  0  0  0  0
    2.2033  -21.8230   53.9816 N   0  0  0  0  0  0  0  0  0  0  0  0
    2.3355  -20.9670   55.1938 C   0  0  0  0  0  0  0  0  0  0  0  0
    1.9188  -19.5994   54.6106 C   0  0  0  0  0  0  0  0  0  0  0  0
    1.1929  -18.6222   55.5000 C   0  0  0  0  0  0  0  0  0  0  0  0
    1.8905  -18.2808   56.7275 N   0  0  0  0  0  0  0  0  0  0  0  0
  1  2  1  0  0  0  0
  2  3  1  0  0  0  0
  3  4  1  0  0  0  0
  4  5  1  0  0  0  0
  5  6  1  0  0  0  0
  6  7  1  0  0  0  0
  7  8  1  0  0  0  0
  8  9  1  0  0  0  0
  9 10  1  0  0  0  0
 10 11  1  0  0  0  0
 11 12  1  0  0  0  0
 12 13  1  0  0  0  0
 13 14  1  0  0  0  0
M  END
>  <CHROM.1>
-160.16673000,176.22688000,-168.22200433,-160.97512792,53.65570092,-169.64106500
-70.59588841,-114.52946334,-177.95399003,147.08794057,56.20377472,4.06071992
-23.33384675,52.67264693,-0.85810841,-0.72312460,1.14831625

>  <Name>
1xpf_lig

>  <RI>
0

>  <Rbt.Current_Directory>
/home/afrankz/demos/rdock_decoys_rna/rnas/1xpf

>  <Rbt.Executable>
rbdock ($Id: //depot/dev/client3/rdock/2013.1/src/exe/rbdock.cxx#4 $)

>  <Rbt.Library>
libRbt.so (2013.1, Build901 2013/11/27)

>  <Rbt.Parameter_File>
/export/apps/rDock/src/rDock_2013.1_src/data/scripts/dock_solv.prm

>  <Rbt.Receptor>
prm/blind_docking_60.prm

>  <SCORE>
-8.06229

>  <SCORE.INTER>
-2.75533

>  <SCORE.INTER.CONST>
1

>  <SCORE.INTER.POLAR>
-1.35487

>  <SCORE.INTER.ROT>
11

>  <SCORE.INTER.SOLV>
19.3018

>  <SCORE.INTER.VDW>
-14.6879

>  <SCORE.INTER.norm>
-0.196809

>  <SCORE.INTRA>
-6.60465

>  <SCORE.INTRA.DIHEDRAL>
-10.5672

>  <SCORE.INTRA.DIHEDRAL.0>
17.7811

>  <SCORE.INTRA.POLAR>
0

>  <SCORE.INTRA.POLAR.0>
0

>  <SCORE.INTRA.REPUL>
0

>  <SCORE.INTRA.REPUL.0>
0

>  <SCORE.INTRA.SOLV>
0.59216

>  <SCORE.INTRA.SOLV.lig_0>
-47.9565

>  <SCORE.INTRA.VDW>
-1.61712

>  <SCORE.INTRA.VDW.0>
0.515983

>  <SCORE.INTRA.norm>
-0.471761

>  <SCORE.RESTR>
1.29768

>  <SCORE.RESTR.CAVITY>
1.29768

>  <SCORE.RESTR.norm>
0.0926917

>  <SCORE.SYSTEM>
0

>  <SCORE.SYSTEM.CONST>
0

>  <SCORE.SYSTEM.DIHEDRAL>
0

>  <SCORE.SYSTEM.SOLV>
0

>  <SCORE.SYSTEM.norm>
0

>  <SCORE.heavy>
14

>  <SCORE.norm>
-0.575878

>  <RMSD>
30.127

$$$$
1xpf_lig
 OpenBabel02141814123D
libRbt.so/2013.1/901 2013/11/27
 14 13  0  0  0  0  0  0  0  0999 V2000
    0.5835  -17.9615   55.4355 N   0  0  0  0  0  0  0  0  0  0  0  0
    1.5668  -19.0117   55.6262 C   0  0  0  0  0  0  0  0  0  0  0  0
    1.7613  -19.7903   54.3805 C   0  0  0  0  0  0  0  0  0  0  0  0
    2.6279  -20.9581   54.7366 C   0  0  0  0  0  0  0  0  0  0  0  0
    2.9320  -21.6595   53.4653 N   0  0  0  0  0  0  0  0  0  0  0  0
    3.3407  -23.0730   53.7298 C   0  0  0  0  0  0  0  0  0  0  0  0
    3.3250  -23.9581   52.4716 C   0  0  0  0  0  0  0  0  0  0  0  0
    4.1659  -23.4043   51.3077 C   0  0  0  0  0  0  0  0  0  0  0  0
    4.3321  -24.4877   50.2527 C   0  0  0  0  0  0  0  0  0  0  0  0
    5.1819  -25.5045   50.8894 N   0  0  0  0  0  0  0  0  0  0  0  0
    5.4820  -26.7453   50.1213 C   0  0  0  0  0  0  0  0  0  0  0  0
    7.0060  -26.5874   49.9298 C   0  0  0  0  0  0  0  0  0  0  0  0
    7.5190  -25.4213   49.1237 C   0  0  0  0  0  0  0  0  0  0  0  0
    8.9319  -25.4839   48.7922 N   0  0  0  0  0  0  0  0  0  0  0  0
  1  2  1  0  0  0  0
  2  3  1  0  0  0  0
  3  4  1  0  0  0  0
  4  5  1  0  0  0  0
  5  6  1  0  0  0  0
  6  7  1  0  0  0  0
  7  8  1  0  0  0  0
  8  9  1  0  0  0  0
  9 10  1  0  0  0  0
 10 11  1  0  0  0  0
 11 12  1  0  0  0  0
 12 13  1  0  0  0  0
 13 14  1  0  0  0  0
M  END
>  <CHROM.1>
-171.78997195,-174.49913822,-159.00116728,165.33617175,54.63943309,167.42359204
-67.85748592,177.22954542,114.67528958,-63.45736156,-169.34706592,4.19677059
-23.14638460,52.16160844,-2.24655163,-0.53842871,-2.82922868

>  <Name>
1xpf_lig

>  <RI>
0

>  <Rbt.Current_Directory>
/home/afrankz/demos/rdock_decoys_rna/rnas/1xpf

>  <Rbt.Executable>
rbdock ($Id: //depot/dev/client3/rdock/2013.1/src/exe/rbdock.cxx#4 $)

>  <Rbt.Library>
libRbt.so (2013.1, Build901 2013/11/27)

>  <Rbt.Parameter_File>
/export/apps/rDock/src/rDock_2013.1_src/data/scripts/dock_solv.prm

>  <Rbt.Receptor>
prm/blind_docking_60.prm

>  <SCORE>
-5.98431

>  <SCORE.INTER>
2.40289

>  <SCORE.INTER.CONST>
1

>  <SCORE.INTER.POLAR>
0

>  <SCORE.INTER.ROT>
11

>  <SCORE.INTER.SOLV>
13.3071

>  <SCORE.INTER.VDW>
-13.7671

>  <SCORE.INTER.norm>
0.171635

>  <SCORE.INTRA>
-8.3872

>  <SCORE.INTRA.DIHEDRAL>
-14.2957

>  <SCORE.INTRA.DIHEDRAL.0>
17.7811

>  <SCORE.INTRA.POLAR>
0

>  <SCORE.INTRA.POLAR.0>
0

>  <SCORE.INTRA.REPUL>
0

>  <SCORE.INTRA.REPUL.0>
0

>  <SCORE.INTRA.SOLV>
0.332722

>  <SCORE.INTRA.SOLV.lig_0>
-47.9565

>  <SCORE.INTRA.VDW>
-1.40573

>  <SCORE.INTRA.VDW.0>
0.515983

>  <SCORE.INTRA.norm>
-0.599086

>  <SCORE.RESTR>
0

>  <SCORE.RESTR.CAVITY>
0

>  <SCORE.RESTR.norm>
0

>  <SCORE.SYSTEM>
0

>  <SCORE.SYSTEM.CONST>
0

>  <SCORE.SYSTEM.DIHEDRAL>
0

>  <SCORE.SYSTEM.SOLV>
0

>  <SCORE.SYSTEM.norm>
0

>  <SCORE.heavy>
14

>  <SCORE.norm>
-0.427451

>  <RMSD>
30.133

$$$$
1xpf_lig
 OpenBabel02141814123D
libRbt.so/2013.1/901 2013/11/27
 14 13  0  0  0  0  0  0  0  0999 V2000
    7.0076  -24.7285   49.5705 N   0  0  0  0  0  0  0  0  0  0  0  0
    7.1944  -26.1135   49.9618 C   0  0  0  0  0  0  0  0  0  0  0  0
    5.9939  -26.9220   49.6442 C   0  0  0  0  0  0  0  0  0  0  0  0
    4.9904  -26.6385   50.7185 C   0  0  0  0  0  0  0  0  0  0  0  0
    4.4453  -25.2874   50.4391 N   0  0  0  0  0  0  0  0  0  0  0  0
    3.3859  -24.9326   51.4324 C   0  0  0  0  0  0  0  0  0  0  0  0
    3.7389  -23.7036   52.2879 C   0  0  0  0  0  0  0  0  0  0  0  0
    2.6824  -23.3593   53.3526 C   0  0  0  0  0  0  0  0  0  0  0  0
    2.9489  -21.9596   53.8854 C   0  0  0  0  0  0  0  0  0  0  0  0
    1.7690  -21.6373   54.7011 N   0  0  0  0  0  0  0  0  0  0  0  0
    1.9816  -20.8962   55.9759 C   0  0  0  0  0  0  0  0  0  0  0  0
    1.8039  -19.4441   55.4819 C   0  0  0  0  0  0  0  0  0  0  0  0
    0.4451  -19.0028   55.0004 C   0  0  0  0  0  0  0  0  0  0  0  0
    0.3390  -17.5882   54.6876 N   0  0  0  0  0  0  0  0  0  0  0  0
  1  2  1  0  0  0  0
  2  3  1  0  0  0  0
  3  4  1  0  0  0  0
  4  5  1  0  0  0  0
  5  6  1  0  0  0  0
  6  7  1  0  0  0  0
  7  8  1  0  0  0  0
  8  9  1  0  0  0  0
  9 10  1  0  0  0  0
 10 11  1  0  0  0  0
 11 12  1  0  0  0  0
 12 13  1  0  0  0  0
 13 14  1  0  0  0  0
M  END
>  <CHROM.1>
-78.65254757,74.86195499,177.66836456,117.67366218,-177.72493063,-165.76981789
170.22152500,140.89712959,92.49011157,66.66081814,173.87924448,3.48048461
-23.01553761,52.65292246,-0.81941585,0.75403702,0.08841726

>  <Name>
1xpf_lig

>  <RI>
0

>  <Rbt.Current_Directory>
/home/afrankz/demos/rdock_decoys_rna/rnas/1xpf

>  <Rbt.Executable>
rbdock ($Id: //depot/dev/client3/rdock/2013.1/src/exe/rbdock.cxx#4 $)

>  <Rbt.Library>
libRbt.so (2013.1, Build901 2013/11/27)

>  <Rbt.Parameter_File>
/export/apps/rDock/src/rDock_2013.1_src/data/scripts/dock_solv.prm

>  <Rbt.Receptor>
prm/blind_docking_60.prm

>  <SCORE>
-3.62139

>  <SCORE.INTER>
1.92384

>  <SCORE.INTER.CONST>
1

>  <SCORE.INTER.POLAR>
0

>  <SCORE.INTER.ROT>
11

>  <SCORE.INTER.SOLV>
10.9114

>  <SCORE.INTER.VDW>
-13.2879

>  <SCORE.INTER.norm>
0.137417

>  <SCORE.INTRA>
-5.57786

>  <SCORE.INTRA.DIHEDRAL>
-11.5275

>  <SCORE.INTRA.DIHEDRAL.0>
17.7811

>  <SCORE.INTRA.POLAR>
0

>  <SCORE.INTRA.POLAR.0>
0

>  <SCORE.INTRA.REPUL>
0

>  <SCORE.INTRA.REPUL.0>
0

>  <SCORE.INTRA.SOLV>
2.64102

>  <SCORE.INTRA.SOLV.lig_0>
-47.9565

>  <SCORE.INTRA.VDW>
-1.13461

>  <SCORE.INTRA.VDW.0>
0.515983

>  <SCORE.INTRA.norm>
-0.398418

>  <SCORE.RESTR>
0.0326287

>  <SCORE.RESTR.CAVITY>
0.0326287

>  <SCORE.RESTR.norm>
0.00233062

>  <SCORE.SYSTEM>
0

>  <SCORE.SYSTEM.CONST>
0

>  <SCORE.SYSTEM.DIHEDRAL>
0

>  <SCORE.SYSTEM.SOLV>
0

>  <SCORE.SYSTEM.norm>
0

>  <SCORE.heavy>
14

>  <SCORE.norm>
-0.258671

>  <RMSD>
30.191

$$$$
1xpf_lig
 OpenBabel02141814123D
libRbt.so/2013.1/901 2013/11/27
 14 13  0  0  0  0  0  0  0  0999 V2000
    1.5279  -19.7446   56.6613 N   0  0  0  0  0  0  0  0  0  0  0  0
    0.9434  -20.2020   55.4142 C   0  0  0  0  0  0  0  0  0  0  0  0
    1.8941  -20.0373   54.2896 C   0  0  0  0  0  0  0  0  0  0  0  0
    2.9596  -21.0726   54.4748 C   0  0  0  0  0  0  0  0  0  0  0  0
    2.4079  -22.3436   53.9450 N   0  0  0  0  0  0  0  0  0  0  0  0
    3.4724  -23.1283   53.2478 C   0  0  0  0  0  0  0  0  0  0  0  0
    3.9060  -22.5107   51.9071 C   0  0  0  0  0  0  0  0  0  0  0  0
    4.0317  -23.5304   50.7612 C   0  0  0  0  0  0  0  0  0  0  0  0
    5.2262  -24.4343   51.0267 C   0  0  0  0  0  0  0  0  0  0  0  0
    5.2996  -25.3144   49.8513 N   0  0  0  0  0  0  0  0  0  0  0  0
    5.6492  -26.7459   50.0707 C   0  0  0  0  0  0  0  0  0  0  0  0
    7.1872  -26.6421   50.1595 C   0  0  0  0  0  0  0  0  0  0  0  0
    7.9526  -26.1590   48.9538 C   0  0  0  0  0  0  0  0  0  0  0  0
    7.7365  -24.7634   48.6135 N   0  0  0  0  0  0  0  0  0  0  0  0
  1  2  1  0  0  0  0
  2  3  1  0  0  0  0
  3  4  1  0  0  0  0
  4  5  1  0  0  0  0
  5  6  1  0  0  0  0
  6  7  1  0  0  0  0
  7  8  1  0  0  0  0
  8  9  1  0  0  0  0
  9 10  1  0  0  0  0
 10 11  1  0  0  0  0
 11 12  1  0  0  0  0
 12 13  1  0  0  0  0
 13 14  1  0  0  0  0
M  END
>  <CHROM.1>
71.92332536,80.99088142,142.50924133,-71.21158180,-134.89918998,-69.49851582
-177.08183897,-140.73584465,-82.07717064,-62.97584918,67.92751053,4.29961311
-23.33073400,52.09824222,2.52258578,0.84186510,0.00406653

>  <Name>
1xpf_lig

>  <RI>
0

>  <Rbt.Current_Directory>
/home/afrankz/demos/rdock_decoys_rna/rnas/1xpf

>  <Rbt.Executable>
rbdock ($Id: //depot/dev/client3/rdock/2013.1/src/exe/rbdock.cxx#4 $)

>  <Rbt.Library>
libRbt.so (2013.1, Build901 2013/11/27)

>  <Rbt.Parameter_File>
/export/apps/rDock/src/rDock_2013.1_src/data/scripts/dock_solv.prm

>  <Rbt.Receptor>
prm/blind_docking_60.prm

>  <SCORE>
-2.10479

>  <SCORE.INTER>
-1.05081

>  <SCORE.INTER.CONST>
1

>  <SCORE.INTER.POLAR>
-0.850025

>  <SCORE.INTER.ROT>
11

>  <SCORE.INTER.SOLV>
10.7388

>  <SCORE.INTER.VDW>
-12.3801

>  <SCORE.INTER.norm>
-0.0750576

>  <SCORE.INTRA>
-1.78615

>  <SCORE.INTRA.DIHEDRAL>
-8.19436

>  <SCORE.INTRA.DIHEDRAL.0>
17.7811

>  <SCORE.INTRA.POLAR>
0

>  <SCORE.INTRA.POLAR.0>
0

>  <SCORE.INTRA.REPUL>
0

>  <SCORE.INTRA.REPUL.0>
0

>  <SCORE.INTRA.SOLV>
4.2401

>  <SCORE.INTRA.SOLV.lig_0>
-47.9565

>  <SCORE.INTRA.VDW>
0.190976

>  <SCORE.INTRA.VDW.0>
0.515983

>  <SCORE.INTRA.norm>
-0.127582

>  <SCORE.RESTR>
0.732162

>  <SCORE.RESTR.CAVITY>
0.732162

>  <SCORE.RESTR.norm>
0.0522973

>  <SCORE.SYSTEM>
0

>  <SCORE.SYSTEM.CONST>
0

>  <SCORE.SYSTEM.DIHEDRAL>
0

>  <SCORE.SYSTEM.SOLV>
0

>  <SCORE.SYSTEM.norm>
0

>  <SCORE.heavy>
14

>  <SCORE.norm>
-0.150342

>  <RMSD>
30.259

$$$$
1xpf_lig
 OpenBabel02141814123D
libRbt.so/2013.1/901 2013/11/27
 14 13  0  0  0  0  0  0  0  0999 V2000
    0.4761  -18.3819   55.0342 N   0  0  0  0  0  0  0  0  0  0  0  0
    1.0107  -19.6698   55.4361 C   0  0  0  0  0  0  0  0  0  0  0  0
    1.9983  -20.1668   54.4494 C   0  0  0  0  0  0  0  0  0  0  0  0
    2.4236  -21.5242   54.9161 C   0  0  0  0  0  0  0  0  0  0  0  0
    3.4844  -21.9766   53.9829 N   0  0  0  0  0  0  0  0  0  0  0  0
    3.1147  -23.2852   53.3618 C   0  0  0  0  0  0  0  0  0  0  0  0
    3.5989  -23.4290   51.9086 C   0  0  0  0  0  0  0  0  0  0  0  0
    2.9820  -24.6237   51.1599 C   0  0  0  0  0  0  0  0  0  0  0  0
    3.9416  -25.8023   51.2245 C   0  0  0  0  0  0  0  0  0  0  0  0
    5.1495  -25.3419   50.5240 N   0  0  0  0  0  0  0  0  0  0  0  0
    6.2730  -26.3065   50.3603 C   0  0  0  0  0  0  0  0  0  0  0  0
    7.3820  -25.3540   49.8632 C   0  0  0  0  0  0  0  0  0  0  0  0
    7.2366  -24.7178   48.5041 C   0  0  0  0  0  0  0  0  0  0  0  0
    6.1223  -23.7943   48.3794 N   0  0  0  0  0  0  0  0  0  0  0  0
  1  2  1  0  0  0  0
  2  3  1  0  0  0  0
  3  4  1  0  0  0  0
  4  5  1  0  0  0  0
  5  6  1  0  0  0  0
  6  7  1  0  0  0  0
  7  8  1  0  0  0  0
  8  9  1  0  0  0  0
  9 10  1  0  0  0  0
 10 11  1  0  0  0  0
 11 12  1  0  0  0  0
 12 13  1  0  0  0  0
 13 14  1  0  0  0  0
M  END
>  <CHROM.1>
-176.81924349,-175.92841615,-123.40253964,145.50667767,-167.73098470,-96.49821457
-62.31547096,-177.27864773,-169.05776253,-67.34559274,65.25860606,3.94245736
-23.16988449,52.07893177,-2.51332793,-0.84533642,3.13358288

>  <Name>
1xpf_lig

>  <RI>
0

>  <Rbt.Current_Directory>
/home/afrankz/demos/rdock_decoys_rna/rnas/1xpf

>  <Rbt.Executable>
rbdock ($Id: //depot/dev/client3/rdock/2013.1/src/exe/rbdock.cxx#4 $)

>  <Rbt.Library>
libRbt.so (2013.1, Build901 2013/11/27)

>  <Rbt.Parameter_File>
/export/apps/rDock/src/rDock_2013.1_src/data/scripts/dock_solv.prm

>  <Rbt.Receptor>
prm/blind_docking_60.prm

>  <SCORE>
-3.39913

>  <SCORE.INTER>
1.92272

>  <SCORE.INTER.CONST>
1

>  <SCORE.INTER.POLAR>
0

>  <SCORE.INTER.ROT>
11

>  <SCORE.INTER.SOLV>
10.6311

>  <SCORE.INTER.VDW>
-13.1952

>  <SCORE.INTER.norm>
0.137337

>  <SCORE.INTRA>
-5.35556

>  <SCORE.INTRA.DIHEDRAL>
-10.6909

>  <SCORE.INTRA.DIHEDRAL.0>
17.7811

>  <SCORE.INTRA.POLAR>
0

>  <SCORE.INTRA.POLAR.0>
0

>  <SCORE.INTRA.REPUL>
0

>  <SCORE.INTRA.REPUL.0>
0

>  <SCORE.INTRA.SOLV>
2.95793

>  <SCORE.INTRA.SOLV.lig_0>
-47.9565

>  <SCORE.INTRA.VDW>
-1.48906

>  <SCORE.INTRA.VDW.0>
0.515983

>  <SCORE.INTRA.norm>
-0.38254

>  <SCORE.RESTR>
0.0337167

>  <SCORE.RESTR.CAVITY>
0.0337167

>  <SCORE.RESTR.norm>
0.00240834

>  <SCORE.SYSTEM>
0

>  <SCORE.SYSTEM.CONST>
0

>  <SCORE.SYSTEM.DIHEDRAL>
0

>  <SCORE.SYSTEM.SOLV>
0

>  <SCORE.SYSTEM.norm>
0

>  <SCORE.heavy>
14

>  <SCORE.norm>
-0.242795

>  <RMSD>
30.322

$$$$
1xpf_lig
 OpenBabel02141814123D
libRbt.so/2013.1/901 2013/11/27
 14 13  0  0  0  0  0  0  0  0999 V2000
    1.0555  -19.7305   55.4444 N   0  0  0  0  0  0  0  0  0  0  0  0
    2.0219  -20.1189   54.4337 C   0  0  0  0  0  0  0  0  0  0  0  0
    2.4884  -21.5085   54.6506 C   0  0  0  0  0  0  0  0  0  0  0  0
    3.3869  -21.8427   53.5006 C   0  0  0  0  0  0  0  0  0  0  0  0
    3.5686  -23.3148   53.5226 N   0  0  0  0  0  0  0  0  0  0  0  0
    2.3957  -23.9983   52.8965 C   0  0  0  0  0  0  0  0  0  0  0  0
    2.7915  -25.0399   51.8357 C   0  0  0  0  0  0  0  0  0  0  0  0
    3.6179  -24.4636   50.6723 C   0  0  0  0  0  0  0  0  0  0  0  0
    5.0450  -24.2276   51.1430 C   0  0  0  0  0  0  0  0  0  0  0  0
    5.7232  -23.6129   49.9924 N   0  0  0  0  0  0  0  0  0  0  0  0
    6.2229  -24.5111   48.9140 C   0  0  0  0  0  0  0  0  0  0  0  0
    6.1763  -23.5459   47.7097 C   0  0  0  0  0  0  0  0  0  0  0  0
    7.4710  -22.9833   47.1803 C   0  0  0  0  0  0  0  0  0  0  0  0
    8.5032  -23.9714   46.9187 N   0  0  0  0  0  0  0  0  0  0  0  0
  1  2  1  0  0  0  0
  2  3  1  0  0  0  0
  3  4  1  0  0  0  0
  4  5  1  0  0  0  0
  5  6  1  0  0  0  0
  6  7  1  0  0  0  0
  7  8  1  0  0  0  0
  8  9  1  0  0  0  0
  9 10  1  0  0  0  0
 10 11  1  0  0  0  0
 11 12  1  0  0  0  0
 12 13  1  0  0  0  0
 13 14  1  0  0  0  0
M  END
>  <CHROM.1>
175.49909553,-165.65658113,80.59040061,130.11431849,-58.62727899,75.91282821
-176.94515593,-81.73843198,153.02167283,105.58724420,50.31460032,4.31898565
-23.06226168,51.34383697,-2.60714376,-0.84194191,-2.84123990

>  <Name>
1xpf_lig

>  <RI>
0

>  <Rbt.Current_Directory>
/home/afrankz/demos/rdock_decoys_rna/rnas/1xpf

>  <Rbt.Executable>
rbdock ($Id: //depot/dev/client3/rdock/2013.1/src/exe/rbdock.cxx#4 $)

>  <Rbt.Library>
libRbt.so (2013.1, Build901 2013/11/27)

>  <Rbt.Parameter_File>
/export/apps/rDock/src/rDock_2013.1_src/data/scripts/dock_solv.prm

>  <Rbt.Receptor>
prm/blind_docking_60.prm

>  <SCORE>
2.45265

>  <SCORE.INTER>
6.23534

>  <SCORE.INTER.CONST>
1

>  <SCORE.INTER.POLAR>
0

>  <SCORE.INTER.ROT>
11

>  <SCORE.INTER.SOLV>
13.0362

>  <SCORE.INTER.VDW>
-11.1219

>  <SCORE.INTER.norm>
0.445381

>  <SCORE.INTRA>
-4.01907

>  <SCORE.INTRA.DIHEDRAL>
-8.51186

>  <SCORE.INTRA.DIHEDRAL.0>
17.7811

>  <SCORE.INTRA.POLAR>
0

>  <SCORE.INTRA.POLAR.0>
0

>  <SCORE.INTRA.REPUL>
0

>  <SCORE.INTRA.REPUL.0>
0

>  <SCORE.INTRA.SOLV>
1.36559

>  <SCORE.INTRA.SOLV.lig_0>
-47.9565

>  <SCORE.INTRA.VDW>
-0.445936

>  <SCORE.INTRA.VDW.0>
0.515983

>  <SCORE.INTRA.norm>
-0.287077

>  <SCORE.RESTR>
0.236385

>  <SCORE.RESTR.CAVITY>
0.236385

>  <SCORE.RESTR.norm>
0.0168847

>  <SCORE.SYSTEM>
0

>  <SCORE.SYSTEM.CONST>
0

>  <SCORE.SYSTEM.DIHEDRAL>
0

>  <SCORE.SYSTEM.SOLV>
0

>  <SCORE.SYSTEM.norm>
0

>  <SCORE.heavy>
14

>  <SCORE.norm>
0.175189

>  <RMSD>
30.435

$$$$
1xpf_lig
 OpenBabel02141814123D
libRbt.so/2013.1/901 2013/11/27
 14 13  0  0  0  0  0  0  0  0999 V2000
    8.2053  -27.0051   48.6743 N   0  0  0  0  0  0  0  0  0  0  0  0
    7.0428  -27.4791   49.4024 C   0  0  0  0  0  0  0  0  0  0  0  0
    6.9451  -26.8278   50.7298 C   0  0  0  0  0  0  0  0  0  0  0  0
    6.9589  -25.3510   50.4840 C   0  0  0  0  0  0  0  0  0  0  0  0
    5.6444  -25.0118   49.8859 N   0  0  0  0  0  0  0  0  0  0  0  0
    5.4174  -23.5345   49.9195 C   0  0  0  0  0  0  0  0  0  0  0  0
    3.9333  -23.1481   50.0419 C   0  0  0  0  0  0  0  0  0  0  0  0
    3.7011  -21.7065   50.5279 C   0  0  0  0  0  0  0  0  0  0  0  0
    3.9711  -21.6346   52.0233 C   0  0  0  0  0  0  0  0  0  0  0  0
    2.9770  -22.5332   52.6279 N   0  0  0  0  0  0  0  0  0  0  0  0
    3.2600  -23.0761   53.9862 C   0  0  0  0  0  0  0  0  0  0  0  0
    1.8925  -22.8439   54.6647 C   0  0  0  0  0  0  0  0  0  0  0  0
    1.3835  -21.4319   54.8067 C   0  0  0  0  0  0  0  0  0  0  0  0
    2.2388  -20.5508   55.5827 N   0  0  0  0  0  0  0  0  0  0  0  0
  1  2  1  0  0  0  0
  2  3  1  0  0  0  0
  3  4  1  0  0  0  0
  4  5  1  0  0  0  0
  5  6  1  0  0  0  0
  6  7  1  0  0  0  0
  7  8  1  0  0  0  0
  8  9  1  0  0  0  0
  9 10  1  0  0  0  0
 10 11  1  0  0  0  0
 11 12  1  0  0  0  0
 12 13  1  0  0  0  0
 13 14  1  0  0  0  0
M  END
>  <CHROM.1>
54.88987870,72.04794314,165.69373977,-149.53453705,161.30306339,-75.63406401
-62.30798639,158.21687868,134.05949776,-62.00357750,-60.03255872,4.54070087
-23.72386802,51.66836925,-0.14924103,-0.93851768,2.17032149

>  <Name>
1xpf_lig

>  <RI>
0

>  <Rbt.Current_Directory>
/home/afrankz/demos/rdock_decoys_rna/rnas/1xpf

>  <Rbt.Executable>
rbdock ($Id: //depot/dev/client3/rdock/2013.1/src/exe/rbdock.cxx#4 $)

>  <Rbt.Library>
libRbt.so (2013.1, Build901 2013/11/27)

>  <Rbt.Parameter_File>
/export/apps/rDock/src/rDock_2013.1_src/data/scripts/dock_solv.prm

>  <Rbt.Receptor>
prm/blind_docking_60.prm

>  <SCORE>
1.39728

>  <SCORE.INTER>
4.40404

>  <SCORE.INTER.CONST>
1

>  <SCORE.INTER.POLAR>
0

>  <SCORE.INTER.ROT>
11

>  <SCORE.INTER.SOLV>
10.8631

>  <SCORE.INTER.VDW>
-11.6183

>  <SCORE.INTER.norm>
0.314575

>  <SCORE.INTRA>
-4.46699

>  <SCORE.INTRA.DIHEDRAL>
-12.7572

>  <SCORE.INTRA.DIHEDRAL.0>
17.7811

>  <SCORE.INTRA.POLAR>
0

>  <SCORE.INTRA.POLAR.0>
0

>  <SCORE.INTRA.REPUL>
0

>  <SCORE.INTRA.REPUL.0>
0

>  <SCORE.INTRA.SOLV>
4.07784

>  <SCORE.INTRA.SOLV.lig_0>
-47.9565

>  <SCORE.INTRA.VDW>
-0.127298

>  <SCORE.INTRA.VDW.0>
0.515983

>  <SCORE.INTRA.norm>
-0.319071

>  <SCORE.RESTR>
1.46022

>  <SCORE.RESTR.CAVITY>
1.46022

>  <SCORE.RESTR.norm>
0.104302

>  <SCORE.SYSTEM>
0

>  <SCORE.SYSTEM.CONST>
0

>  <SCORE.SYSTEM.DIHEDRAL>
0

>  <SCORE.SYSTEM.SOLV>
0

>  <SCORE.SYSTEM.norm>
0

>  <SCORE.heavy>
14

>  <SCORE.norm>
0.0998054

>  <RMSD>
30.591

$$$$
1xpf_lig
 OpenBabel02141814123D
libRbt.so/2013.1/901 2013/11/27
 14 13  0  0  0  0  0  0  0  0999 V2000
    9.3065  -27.7796   49.6905 N   0  0  0  0  0  0  0  0  0  0  0  0
    8.4668  -26.7776   49.0604 C   0  0  0  0  0  0  0  0  0  0  0  0
    7.5333  -26.1739   50.0403 C   0  0  0  0  0  0  0  0  0  0  0  0
    6.9020  -24.9982   49.3617 C   0  0  0  0  0  0  0  0  0  0  0  0
    6.2356  -24.2068   50.4248 N   0  0  0  0  0  0  0  0  0  0  0  0
    5.0626  -23.4643   49.8700 C   0  0  0  0  0  0  0  0  0  0  0  0
    3.9268  -23.2690   50.8891 C   0  0  0  0  0  0  0  0  0  0  0  0
    3.4905  -24.5655   51.5944 C   0  0  0  0  0  0  0  0  0  0  0  0
    2.3554  -24.2518   52.5573 C   0  0  0  0  0  0  0  0  0  0  0  0
    2.9523  -23.3625   53.5645 N   0  0  0  0  0  0  0  0  0  0  0  0
    2.0579  -22.7896   54.6091 C   0  0  0  0  0  0  0  0  0  0  0  0
    2.6001  -21.3452   54.6723 C   0  0  0  0  0  0  0  0  0  0  0  0
    1.8738  -20.3342   55.5228 C   0  0  0  0  0  0  0  0  0  0  0  0
    0.5401  -19.9933   55.0591 N   0  0  0  0  0  0  0  0  0  0  0  0
  1  2  1  0  0  0  0
  2  3  1  0  0  0  0
  3  4  1  0  0  0  0
  4  5  1  0  0  0  0
  5  6  1  0  0  0  0
  6  7  1  0  0  0  0
  7  8  1  0  0  0  0
  8  9  1  0  0  0  0
  9 10  1  0  0  0  0
 10 11  1  0  0  0  0
 11 12  1  0  0  0  0
 12 13  1  0  0  0  0
 13 14  1  0  0  0  0
M  END
>  <CHROM.1>
169.84031320,-166.38282305,-151.56010965,148.74654763,-51.09762481,-179.18244596
-64.41081881,175.61519513,-138.72013079,173.54386557,-66.45654522,4.52159294
-23.80796568,51.92247187,-0.18996066,-0.84268290,2.12219043

>  <Name>
1xpf_lig

>  <RI>
0

>  <Rbt.Current_Directory>
/home/afrankz/demos/rdock_decoys_rna/rnas/1xpf

>  <Rbt.Executable>
rbdock ($Id: //depot/dev/client3/rdock/2013.1/src/exe/rbdock.cxx#4 $)

>  <Rbt.Library>
libRbt.so (2013.1, Build901 2013/11/27)

>  <Rbt.Parameter_File>
/export/apps/rDock/src/rDock_2013.1_src/data/scripts/dock_solv.prm

>  <Rbt.Receptor>
prm/blind_docking_60.prm

>  <SCORE>
-5.94072

>  <SCORE.INTER>
1.62987

>  <SCORE.INTER.CONST>
1

>  <SCORE.INTER.POLAR>
-0.47988

>  <SCORE.INTER.ROT>
11

>  <SCORE.INTER.SOLV>
14.4889

>  <SCORE.INTER.VDW>
-13.0768

>  <SCORE.INTER.norm>
0.116419

>  <SCORE.INTRA>
-8.28973

>  <SCORE.INTRA.DIHEDRAL>
-13.9042

>  <SCORE.INTRA.DIHEDRAL.0>
17.7811

>  <SCORE.INTRA.POLAR>
0

>  <SCORE.INTRA.POLAR.0>
0

>  <SCORE.INTRA.REPUL>
0

>  <SCORE.INTRA.REPUL.0>
0

>  <SCORE.INTRA.SOLV>
0.516177

>  <SCORE.INTRA.SOLV.lig_0>
-47.9565

>  <SCORE.INTRA.VDW>
-1.59574

>  <SCORE.INTRA.VDW.0>
0.515983

>  <SCORE.INTRA.norm>
-0.592124

>  <SCORE.RESTR>
0.719141

>  <SCORE.RESTR.CAVITY>
0.719141

>  <SCORE.RESTR.norm>
0.0513672

>  <SCORE.SYSTEM>
0

>  <SCORE.SYSTEM.CONST>
0

>  <SCORE.SYSTEM.DIHEDRAL>
0

>  <SCORE.SYSTEM.SOLV>
0

>  <SCORE.SYSTEM.norm>
0

>  <SCORE.heavy>
14

>  <SCORE.norm>
-0.424337

>  <RMSD>
30.617

$$$$
1xpf_lig
 OpenBabel02141814123D
libRbt.so/2013.1/901 2013/11/27
 14 13  0  0  0  0  0  0  0  0999 V2000
    8.0082  -25.9980   48.4010 N   0  0  0  0  0  0  0  0  0  0  0  0
    7.9712  -26.6850   49.6788 C   0  0  0  0  0  0  0  0  0  0  0  0
    6.6089  -27.1888   49.9721 C   0  0  0  0  0  0  0  0  0  0  0  0
    5.7235  -25.9870   50.0864 C   0  0  0  0  0  0  0  0  0  0  0  0
    4.3362  -26.4970   50.2129 N   0  0  0  0  0  0  0  0  0  0  0  0
    3.6865  -25.9526   51.4443 C   0  0  0  0  0  0  0  0  0  0  0  0
    3.0230  -24.5815   51.2285 C   0  0  0  0  0  0  0  0  0  0  0  0
    2.3885  -23.9877   52.4987 C   0  0  0  0  0  0  0  0  0  0  0  0
    3.4745  -23.3340   53.3399 C   0  0  0  0  0  0  0  0  0  0  0  0
    2.7501  -22.6391   54.4141 N   0  0  0  0  0  0  0  0  0  0  0  0
    2.7898  -21.1499   54.4343 C   0  0  0  0  0  0  0  0  0  0  0  0
    1.6232  -20.8576   55.4026 C   0  0  0  0  0  0  0  0  0  0  0  0
    1.1413  -19.4367   55.5500 C   0  0  0  0  0  0  0  0  0  0  0  0
    1.9720  -18.5958   56.3944 N   0  0  0  0  0  0  0  0  0  0  0  0
  1  2  1  0  0  0  0
  2  3  1  0  0  0  0
  3  4  1  0  0  0  0
  4  5  1  0  0  0  0
  5  6  1  0  0  0  0
  6  7  1  0  0  0  0
  7  8  1  0  0  0  0
  8  9  1  0  0  0  0
  9 10  1  0  0  0  0
 10 11  1  0  0  0  0
 11 12  1  0  0  0  0
 12 13  1  0  0  0  0
 13 14  1  0  0  0  0
M  END
>  <CHROM.1>
-63.41745889,173.19283858,124.81372287,86.37414295,-178.16087133,80.96538149
172.12522569,-113.19146944,164.30372095,-169.94249503,-78.41372328,3.96394597
-23.77804257,52.36129029,-1.04300594,0.29788853,0.57269188

>  <Name>
1xpf_lig

>  <RI>
0

>  <Rbt.Current_Directory>
/home/afrankz/demos/rdock_decoys_rna/rnas/1xpf

>  <Rbt.Executable>
rbdock ($Id: //depot/dev/client3/rdock/2013.1/src/exe/rbdock.cxx#4 $)

>  <Rbt.Library>
libRbt.so (2013.1, Build901 2013/11/27)

>  <Rbt.Parameter_File>
/export/apps/rDock/src/rDock_2013.1_src/data/scripts/dock_solv.prm

>  <Rbt.Receptor>
prm/blind_docking_60.prm

>  <SCORE>
-6.29363

>  <SCORE.INTER>
-0.137762

>  <SCORE.INTER.CONST>
1

>  <SCORE.INTER.POLAR>
-0.737462

>  <SCORE.INTER.ROT>
11

>  <SCORE.INTER.SOLV>
14.2123

>  <SCORE.INTER.VDW>
-13.3044

>  <SCORE.INTER.norm>
-0.00984011

>  <SCORE.INTRA>
-6.18721

>  <SCORE.INTRA.DIHEDRAL>
-11.0716

>  <SCORE.INTRA.DIHEDRAL.0>
17.7811

>  <SCORE.INTRA.POLAR>
0

>  <SCORE.INTRA.POLAR.0>
0

>  <SCORE.INTRA.REPUL>
0

>  <SCORE.INTRA.REPUL.0>
0

>  <SCORE.INTRA.SOLV>
0.653287

>  <SCORE.INTRA.SOLV.lig_0>
-47.9565

>  <SCORE.INTRA.VDW>
-0.97804

>  <SCORE.INTRA.VDW.0>
0.515983

>  <SCORE.INTRA.norm>
-0.441944

>  <SCORE.RESTR>
0.0313387

>  <SCORE.RESTR.CAVITY>
0.0313387

>  <SCORE.RESTR.norm>
0.00223848

>  <SCORE.SYSTEM>
0

>  <SCORE.SYSTEM.CONST>
0

>  <SCORE.SYSTEM.DIHEDRAL>
0

>  <SCORE.SYSTEM.SOLV>
0

>  <SCORE.SYSTEM.norm>
0

>  <SCORE.heavy>
14

>  <SCORE.norm>
-0.449545

>  <RMSD>
30.661

$$$$
1xpf_lig
 OpenBabel02141814123D
libRbt.so/2013.1/901 2013/11/27
 14 13  0  0  0  0  0  0  0  0999 V2000
    0.8904  -19.5470   54.5801 N   0  0  0  0  0  0  0  0  0  0  0  0
    1.0165  -20.9334   54.9902 C   0  0  0  0  0  0  0  0  0  0  0  0
    2.3776  -21.2139   55.5046 C   0  0  0  0  0  0  0  0  0  0  0  0
    3.2829  -21.2665   54.3134 C   0  0  0  0  0  0  0  0  0  0  0  0
    3.1070  -22.6103   53.7103 N   0  0  0  0  0  0  0  0  0  0  0  0
    3.1532  -22.5267   52.2183 C   0  0  0  0  0  0  0  0  0  0  0  0
    3.0197  -23.8943   51.5264 C   0  0  0  0  0  0  0  0  0  0  0  0
    4.3432  -24.6722   51.4194 C   0  0  0  0  0  0  0  0  0  0  0  0
    4.0801  -26.0153   50.7553 C   0  0  0  0  0  0  0  0  0  0  0  0
    5.3773  -26.7069   50.7800 N   0  0  0  0  0  0  0  0  0  0  0  0
    5.9940  -27.0826   49.4769 C   0  0  0  0  0  0  0  0  0  0  0  0
    7.4316  -26.5624   49.6938 C   0  0  0  0  0  0  0  0  0  0  0  0
    7.6677  -25.0737   49.7238 C   0  0  0  0  0  0  0  0  0  0  0  0
    7.4653  -24.3987   48.4535 N   0  0  0  0  0  0  0  0  0  0  0  0
  1  2  1  0  0  0  0
  2  3  1  0  0  0  0
  3  4  1  0  0  0  0
  4  5  1  0  0  0  0
  5  6  1  0  0  0  0
  6  7  1  0  0  0  0
  7  8  1  0  0  0  0
  8  9  1  0  0  0  0
  9 10  1  0  0  0  0
 10 11  1  0  0  0  0
 11 12  1  0  0  0  0
 12 13  1  0  0  0  0
 13 14  1  0  0  0  0
M  END
>  <CHROM.1>
-74.35170925,-79.99119457,142.38282839,178.24661103,-83.62359275,178.50129149
-176.48960087,-118.92986787,132.04353393,-70.56661620,-68.00839279,4.22904825
-23.75046266,51.93903163,-2.28764550,-0.56687202,-2.80567223

>  <Name>
1xpf_lig

>  <RI>
0

>  <Rbt.Current_Directory>
/home/afrankz/demos/rdock_decoys_rna/rnas/1xpf

>  <Rbt.Executable>
rbdock ($Id: //depot/dev/client3/rdock/2013.1/src/exe/rbdock.cxx#4 $)

>  <Rbt.Library>
libRbt.so (2013.1, Build901 2013/11/27)

>  <Rbt.Parameter_File>
/export/apps/rDock/src/rDock_2013.1_src/data/scripts/dock_solv.prm

>  <Rbt.Receptor>
prm/blind_docking_60.prm

>  <SCORE>
-1.89365

>  <SCORE.INTER>
3.0993

>  <SCORE.INTER.CONST>
1

>  <SCORE.INTER.POLAR>
0

>  <SCORE.INTER.ROT>
11

>  <SCORE.INTER.SOLV>
11.2361

>  <SCORE.INTER.VDW>
-12.6125

>  <SCORE.INTER.norm>
0.221378

>  <SCORE.INTRA>
-5.42866

>  <SCORE.INTRA.DIHEDRAL>
-9.97738

>  <SCORE.INTRA.DIHEDRAL.0>
17.7811

>  <SCORE.INTRA.POLAR>
0

>  <SCORE.INTRA.POLAR.0>
0

>  <SCORE.INTRA.REPUL>
0

>  <SCORE.INTRA.REPUL.0>
0

>  <SCORE.INTRA.SOLV>
2.80361

>  <SCORE.INTRA.SOLV.lig_0>
-47.9565

>  <SCORE.INTRA.VDW>
-1.84177

>  <SCORE.INTRA.VDW.0>
0.515983

>  <SCORE.INTRA.norm>
-0.387761

>  <SCORE.RESTR>
0.435713

>  <SCORE.RESTR.CAVITY>
0.435713

>  <SCORE.RESTR.norm>
0.0311223

>  <SCORE.SYSTEM>
0

>  <SCORE.SYSTEM.CONST>
0

>  <SCORE.SYSTEM.DIHEDRAL>
0

>  <SCORE.SYSTEM.SOLV>
0

>  <SCORE.SYSTEM.norm>
0

>  <SCORE.heavy>
14

>  <SCORE.norm>
-0.13526

>  <RMSD>
30.663

$$$$
1xpf_lig
 OpenBabel02141814123D
libRbt.so/2013.1/901 2013/11/27
 14 13  0  0  0  0  0  0  0  0999 V2000
    8.9149  -24.9225   48.3179 N   0  0  0  0  0  0  0  0  0  0  0  0
    8.0104  -26.0304   48.5643 C   0  0  0  0  0  0  0  0  0  0  0  0
    7.1952  -25.7911   49.7784 C   0  0  0  0  0  0  0  0  0  0  0  0
    6.1972  -26.9048   49.8501 C   0  0  0  0  0  0  0  0  0  0  0  0
    5.3104  -26.6016   51.0000 N   0  0  0  0  0  0  0  0  0  0  0  0
    3.8768  -26.7974   50.6239 C   0  0  0  0  0  0  0  0  0  0  0  0
    2.9975  -25.5680   50.9107 C   0  0  0  0  0  0  0  0  0  0  0  0
    3.4263  -24.3017   50.1484 C   0  0  0  0  0  0  0  0  0  0  0  0
    4.5360  -23.6056   50.9218 C   0  0  0  0  0  0  0  0  0  0  0  0
    3.8782  -23.0713   52.1232 N   0  0  0  0  0  0  0  0  0  0  0  0
    3.7792  -21.5916   52.2663 C   0  0  0  0  0  0  0  0  0  0  0  0
    3.7951  -21.4633   53.8050 C   0  0  0  0  0  0  0  0  0  0  0  0
    2.5529  -21.8301   54.5765 C   0  0  0  0  0  0  0  0  0  0  0  0
    1.4590  -20.8818   54.4572 N   0  0  0  0  0  0  0  0  0  0  0  0
  1  2  1  0  0  0  0
  2  3  1  0  0  0  0
  3  4  1  0  0  0  0
  4  5  1  0  0  0  0
  5  6  1  0  0  0  0
  6  7  1  0  0  0  0
  7  8  1  0  0  0  0
  8  9  1  0  0  0  0
  9 10  1  0  0  0  0
 10 11  1  0  0  0  0
 11 12  1  0  0  0  0
 12 13  1  0  0  0  0
 13 14  1  0  0  0  0
M  END
>  <CHROM.1>
173.58650120,-175.34610399,134.11834906,-126.41033553,60.64734896,-84.05039155
-69.88289253,-113.10388722,-150.51617960,-75.00842579,-72.64701087,4.70913912
-24.24023781,51.23873849,-0.87172114,0.45489292,0.43635921

>  <Name>
1xpf_lig

>  <RI>
0

>  <Rbt.Current_Directory>
/home/afrankz/demos/rdock_decoys_rna/rnas/1xpf

>  <Rbt.Executable>
rbdock ($Id: //depot/dev/client3/rdock/2013.1/src/exe/rbdock.cxx#4 $)

>  <Rbt.Library>
libRbt.so (2013.1, Build901 2013/11/27)

>  <Rbt.Parameter_File>
/export/apps/rDock/src/rDock_2013.1_src/data/scripts/dock_solv.prm

>  <Rbt.Receptor>
prm/blind_docking_60.prm

>  <SCORE>
-2.27551

>  <SCORE.INTER>
3.45252

>  <SCORE.INTER.CONST>
1

>  <SCORE.INTER.POLAR>
0

>  <SCORE.INTER.ROT>
11

>  <SCORE.INTER.SOLV>
12.7267

>  <SCORE.INTER.VDW>
-12.8739

>  <SCORE.INTER.norm>
0.246609

>  <SCORE.INTRA>
-5.8323

>  <SCORE.INTRA.DIHEDRAL>
-9.71275

>  <SCORE.INTRA.DIHEDRAL.0>
17.7811

>  <SCORE.INTRA.POLAR>
0

>  <SCORE.INTRA.POLAR.0>
0

>  <SCORE.INTRA.REPUL>
0

>  <SCORE.INTRA.REPUL.0>
0

>  <SCORE.INTRA.SOLV>
1.87091

>  <SCORE.INTRA.SOLV.lig_0>
-47.9565

>  <SCORE.INTRA.VDW>
-1.91138

>  <SCORE.INTRA.VDW.0>
0.515983

>  <SCORE.INTRA.norm>
-0.416593

>  <SCORE.RESTR>
0.104263

>  <SCORE.RESTR.CAVITY>
0.104263

>  <SCORE.RESTR.norm>
0.00744737

>  <SCORE.SYSTEM>
0

>  <SCORE.SYSTEM.CONST>
0

>  <SCORE.SYSTEM.DIHEDRAL>
0

>  <SCORE.SYSTEM.SOLV>
0

>  <SCORE.SYSTEM.norm>
0

>  <SCORE.heavy>
14

>  <SCORE.norm>
-0.162537

>  <RMSD>
31.062

$$$$
